drugbank_target|P9WHU1 Proteasome subunit alpha (DB04732)
 OpenBabel12092120303D

  0  0  0     0  0            999 V3000
M  V30 BEGIN CTAB
M  V30 COUNTS 3756 3788 0 0 0
M  V30 BEGIN ATOM
M  V30 1 H -0.908 1.98254 -0.117106 0
M  V30 2 N 0 1.576 0 0
M  V30 3 C 0.933 2.03868 1.02534 0
M  V30 4 C 1.911 0.928543 1.3348 0
M  V30 5 O 3.095 1.19667 1.45644 0
M  V30 6 C 0.222 2.43627 2.35294 0
M  V30 7 C -0.732 3.65373 2.2001 0
M  V30 8 S 0.101 5.13292 1.52614 0
M  V30 9 C 1.257 5.56322 2.86805 0
M  V30 10 H 1.49 2.90518 0.631377 0
M  V30 11 H -0.977 1.52953 0.210867 0
M  V30 12 H 0.981 2.67203 3.11629 0
M  V30 13 H -0.358 1.57376 2.7183 0
M  V30 14 H -1.165 3.90944 3.18086 0
M  V30 15 H -1.563 3.418 1.51819 0
M  V30 16 H 0.729 5.58782 3.83104 0
M  V30 17 H 1.672 6.56266 2.65933 0
M  V30 18 H 2.08 4.83886 2.90714 0
M  V30 19 N 1.4781 -0.272755 1.55222 0
M  V30 20 C 2.7031 -1.02683 1.80197 0
M  V30 21 C 3.1281 -1.79142 0.573551 0
M  V30 22 O 2.4861 -1.74917 -0.476849 0
M  V30 23 C 2.5341 -1.9609 3.02624 0
M  V30 24 O 1.6381 -3.04863 2.77727 0
M  V30 25 H 0.9791 -0.293557 0.595584 0
M  V30 26 H 3.5091 -0.30159 2.02365 0
M  V30 27 H 3.5191 -2.38039 3.31363 0
M  V30 28 H 2.1941 -1.39851 3.91682 0
M  V30 29 H 0.7711 -2.67228 2.60084 0
M  V30 30 N 2.9562 -1.48159 -0.537278 0
M  V30 31 C 4.2032 -1.55804 -1.29349 0
M  V30 32 C 4.5312 -0.228802 -1.9315 0
M  V30 33 O 3.7862 0.780242 -1.79473 0
M  V30 34 C 4.0852 -2.63956 -2.40961 0
M  V30 35 C 3.7512 -4.0662 -1.94861 0
M  V30 36 C 2.4132 -4.45452 -1.82006 0
M  V30 37 C 4.7652 -4.96055 -1.59933 0
M  V30 38 C 2.0932 -5.71531 -1.32547 0
M  V30 39 C 4.4452 -6.22617 -1.11939 0
M  V30 40 C 3.1092 -6.60312 -0.976951 0
M  V30 41 H 2.3792 -0.570129 -0.473322 0
M  V30 42 H 5.0262 -1.81845 -0.600372 0
M  V30 43 H 3.3312 -2.31747 -3.15912 0
M  V30 44 H 5.0282 -2.67089 -2.99107 0
M  V30 45 H 1.6182 -3.75949 -2.05815 0
M  V30 46 H 5.8022 -4.66738 -1.68728 0
M  V30 47 H 1.0582 -5.99468 -1.202 0
M  V30 48 H 5.2322 -6.91318 -0.839811 0
M  V30 49 H 2.8592 -7.57895 -0.591501 0
M  V30 50 N 4.4343 0.785586 -1.36625 0
M  V30 51 C 5.8453 1.36101 -1.27803 0
M  V30 52 C 6.1963 1.96035 0.0804875 0
M  V30 53 O 5.3213 1.92834 0.982042 0
M  V30 54 C 5.9163 2.47442 -2.31426 0
M  V30 55 C 4.4753 3.00789 -2.26281 0
M  V30 56 C 3.6223 1.73896 -2.15999 0
M  V30 57 H 6.5733 0.586928 -1.47448 0
M  V30 58 H 6.5943 3.2656 -1.95291 0
M  V30 59 H 6.1063 2.03791 -3.30289 0
M  V30 60 H 4.2073 3.48851 -1.30896 0
M  V30 61 H 4.3203 3.57343 -3.19128 0
M  V30 62 H 2.6843 1.9628 -1.62316 0
M  V30 63 H 3.4673 1.32368 -3.16755 0
M  V30 64 N 5.9124 1.20967 1.01018 0
M  V30 65 C 7.1424 1.04803 1.78044 0
M  V30 66 C 7.5504 -0.405462 1.84804 0
M  V30 67 O 6.8934 -1.2932 1.30468 0
M  V30 68 C 6.9554 1.56377 3.23707 0
M  V30 69 C 6.6194 3.04767 3.40538 0
M  V30 70 C 7.6164 4.02366 3.29239 0
M  V30 71 C 5.3014 3.43862 3.66147 0
M  V30 72 C 7.2954 5.37049 3.43304 0
M  V30 73 C 4.9824 4.78699 3.79855 0
M  V30 74 C 5.9804 5.75101 3.68439 0
M  V30 75 O 5.6684 7.07493 3.81719 0
M  V30 76 H 5.4004 0.368778 0.56655 0
M  V30 77 H 7.9544 1.60642 1.27997 0
M  V30 78 H 6.1844 0.949297 3.74867 0
M  V30 79 H 7.8734 1.36136 3.8239 0
M  V30 80 H 8.6394 3.73506 3.09384 0
M  V30 81 H 4.5184 2.69364 3.74118 0
M  V30 82 H 8.0624 6.12277 3.34309 0
M  V30 83 H 3.9594 5.07247 3.99213 0
M  V30 84 H 4.7274 7.1483 3.98697 0
M  V30 85 N 7.3905 -1.2043 1.01659 0
M  V30 86 C 8.6375 -1.89797 0.705917 0
M  V30 87 C 8.9655 -1.78848 -0.764439 0
M  V30 88 O 8.2205 -1.16694 -1.57102 0
M  V30 89 C 8.5195 -3.40464 1.08714 0
M  V30 90 C 8.1855 -3.71614 2.5537 0
M  V30 91 C 6.8475 -3.79826 2.95441 0
M  V30 92 C 9.1995 -3.85915 3.50313 0
M  V30 93 C 6.5275 -3.99797 4.29394 0
M  V30 94 C 8.8795 -4.07396 4.83954 0
M  V30 95 C 7.5435 -4.13837 5.23732 0
M  V30 96 H 6.8135 -0.694518 0.258313 0
M  V30 97 H 9.4605 -1.42691 1.27717 0
M  V30 98 H 7.7655 -3.89385 0.434309 0
M  V30 99 H 9.4625 -3.92433 0.824461 0
M  V30 100 H 6.0525 -3.65822 2.23321 0
M  V30 101 H 10.2365 -3.78926 3.20513 0
M  V30 102 H 5.4925 -4.03018 4.59768 0
M  V30 103 H 9.6665 -4.17404 5.57447 0
M  V30 104 H 7.2935 -4.29064 6.27541 0
M  V30 105 N 8.8686 -0.792821 -1.36206 0
M  V30 106 C 10.1176 -0.363353 -1.984 0
M  V30 107 C 10.4306 1.07172 -1.63626 0
M  V30 108 O 11.6366 1.60362 -2.19081 0
M  V30 109 C 10.0926 -0.59872 -3.54885 0
M  V30 110 C 9.7006 -2.04543 -3.9858 0
M  V30 111 C 11.4446 -0.233926 -4.23855 0
M  V30 112 C 9.3516 -2.22727 -5.47856 0
M  V30 113 H 8.2816 -0.13212 -0.742334 0
M  V30 114 H 10.9326 -0.974935 -1.55458 0
M  V30 115 H 9.3146 0.0826222 -3.95914 0
M  V30 116 H 10.4886 -2.76345 -3.68741 0
M  V30 117 H 8.8036 -2.36879 -3.42458 0
M  V30 118 H 11.4006 -0.348027 -5.33566 0
M  V30 119 H 11.7436 0.818351 -4.08177 0
M  V30 120 H 12.2766 -0.868639 -3.882 0
M  V30 121 H 9.0156 -3.2635 -5.68486 0
M  V30 122 H 8.5356 -1.55434 -5.7931 0
M  V30 123 H 10.2146 -2.03607 -6.14128 0
M  V30 124 N 10.3467 1.47872 -0.545128 0
M  V30 125 C 11.5717 2.07391 -0.0190611 0
M  V30 126 C 11.9967 1.39688 1.25971 0
M  V30 127 O 11.3547 0.467816 1.7516 0
M  V30 128 C 11.4027 3.60188 0.172335 0
M  V30 129 O 10.5067 3.9339 1.23766 0
M  V30 130 H 9.8477 0.662411 -0.0459059 0
M  V30 131 H 12.3777 1.90066 -0.757365 0
M  V30 132 H 12.3877 4.06129 0.390305 0
M  V30 133 H 11.0627 4.08865 -0.761725 0
M  V30 134 H 9.6397 3.5921 1.00114 0
M  V30 135 N 11.8248 0.280983 1.55075 0
M  V30 136 C 13.2358 -0.215629 1.85451 0
M  V30 137 C 13.5868 -1.54991 1.203 0
M  V30 138 O 12.7118 -2.10699 0.493435 0
M  V30 139 C 13.3068 -0.398026 3.36454 0
M  V30 140 C 11.8658 -0.838866 3.66933 0
M  V30 141 C 11.0128 0.064458 2.77225 0
M  V30 142 H 13.9638 0.502601 1.50531 0
M  V30 143 H 13.9848 -1.23569 3.59876 0
M  V30 144 H 13.4968 0.573241 3.83843 0
M  V30 145 H 11.5978 -1.8214 3.25048 0
M  V30 146 H 11.7108 -0.672123 4.74362 0
M  V30 147 H 10.0748 -0.452863 2.50642 0
M  V30 148 H 10.8578 1.03172 3.2743 0
M  V30 149 N 13.3029 -1.57598 0.00835791 0
M  V30 150 C 14.2129 -2.12385 -0.996487 0
M  V30 151 C 15.2289 -1.07108 -1.37127 0
M  V30 152 O 16.4049 -1.39055 -1.4569 0
M  V30 153 C 13.4699 -2.62314 -2.26699 0
M  V30 154 C 12.5309 -3.82225 -1.95456 0
M  V30 155 C 11.7639 -4.29763 -3.16449 0
M  V30 156 O 11.9869 -3.76584 -4.28416 0
M  V30 157 O 10.9209 -5.21832 -2.99958 0
M  V30 158 H 14.7469 -2.98479 -0.560725 0
M  V30 159 H 12.3319 -1.47903 -0.210987 0
M  V30 160 H 14.2139 -2.94589 -3.01322 0
M  V30 161 H 12.8889 -1.79313 -2.69497 0
M  V30 162 H 11.7959 -3.54909 -1.18282 0
M  V30 163 H 13.1289 -4.66324 -1.57489 0
M  V30 164 N 14.781 0.264519 -1.55364 0
M  V30 165 C 15.713 1.34965 -1.85248 0
M  V30 166 C 16.726 1.45136 -0.737525 0
M  V30 167 O 17.915 1.46801 -1.01547 0
M  V30 168 C 15.015 2.73008 -2.00797 0
M  V30 169 C 14.188 2.85324 -3.31525 0
M  V30 170 C 13.247 4.04097 -3.37034 0
M  V30 171 O 12.273 3.94455 -4.10358 0
M  V30 172 N 13.475 5.16458 -2.65049 0
M  V30 173 H 16.24 1.09672 -2.78913 0
M  V30 174 H 13.801 0.454635 -1.55386 0
M  V30 175 H 15.793 3.50772 -2.01844 0
M  V30 176 H 14.363 2.91087 -1.1396 0
M  V30 177 H 13.583 1.94377 -3.42945 0
M  V30 178 H 14.871 2.9049 -4.17724 0
M  V30 179 H 14.269 5.27181 -2.05175 0
M  V30 180 H 12.826 5.92422 -2.71809 0
M  V30 181 N 16.2591 1.48442 0.529413 0
M  V30 182 C 17.2221 1.62524 1.61612 0
M  V30 183 C 18.2221 0.498509 1.52877 0
M  V30 184 O 19.4121 0.76431 1.56537 0
M  V30 185 C 16.5441 1.59597 3.01233 0
M  V30 186 H 17.7371 2.59423 1.50465 0
M  V30 187 H 15.2901 1.37047 0.751514 0
M  V30 188 H 16.0251 0.641781 3.17886 0
M  V30 189 H 15.8101 2.41397 3.08982 0
M  V30 190 H 17.3001 1.72646 3.80241 0
M  V30 191 N 17.7372 -0.778329 1.37039 0
M  V30 192 C 18.6702 -1.8984 1.26633 0
M  V30 193 C 19.6482 -1.61923 0.148197 0
M  V30 194 O 20.8322 -1.85742 0.321265 0
M  V30 195 C 17.9592 -3.24916 0.956403 0
M  V30 196 C 17.0052 -3.71752 2.09051 0
M  V30 197 S 17.8382 -3.86201 3.70957 0
M  V30 198 C 18.9942 -5.24135 3.42101 0
M  V30 199 H 19.2272 -1.98377 2.21436 0
M  V30 200 H 16.7602 -0.938738 1.22585 0
M  V30 201 H 18.7182 -4.02936 0.784409 0
M  V30 202 H 17.3792 -3.14089 0.0259713 0
M  V30 203 H 16.5722 -4.69661 1.8285 0
M  V30 204 H 16.1742 -3.00815 2.2223 0
M  V30 205 H 18.4662 -6.09086 2.96682 0
M  V30 206 H 19.4092 -5.55346 4.39314 0
M  V30 207 H 19.8172 -4.91761 2.77185 0
M  V30 208 N 19.2153 -1.21501 -1.00376 0
M  V30 209 C 20.6313 -0.972629 -1.26539 0
M  V30 210 C 20.8313 0.340257 -1.98606 0
M  V30 211 O 19.8873 1.06561 -2.28913 0
M  V30 212 C 21.2003 -2.16404 -2.08781 0
M  V30 213 C 22.7483 -2.20643 -2.22004 0
M  V30 214 C 23.2233 -3.39306 -3.07629 0
M  V30 215 N 24.7143 -3.39401 -3.15217 0
M  V30 216 C 25.4493 -4.27867 -3.81729 0
M  V30 217 N 24.9453 -5.26533 -4.5026 0
M  V30 218 N 26.7383 -4.15672 -3.78382 0
M  V30 219 H 18.8893 -2.05929 -0.520281 0
M  V30 220 H 21.1523 -0.901803 -0.292328 0
M  V30 221 H 20.8583 -3.11554 -1.63178 0
M  V30 222 H 20.7323 -2.15567 -3.09533 0
M  V30 223 H 23.1193 -1.26048 -2.66825 0
M  V30 224 H 23.2003 -2.25523 -1.20718 0
M  V30 225 H 22.8443 -4.34195 -2.63509 0
M  V30 226 H 22.7743 -3.31665 -4.09031 0
M  V30 227 H 25.2653 -2.67997 -2.66432 0
M  V30 228 H 25.5783 -5.90337 -4.98721 0
M  V30 229 H 23.9233 -5.30457 -4.49044 0
M  V30 230 H 27.1143 -3.3785 -3.23998 0
M  V30 231 H 27.2873 -4.84825 -4.2994 0
M  V30 232 N 20.6934 1.19889 -1.02296 0
M  V30 233 C 21.6034 2.26571 -0.608508 0
M  V30 234 C 22.6194 1.70299 0.356964 0
M  V30 235 O 23.7954 2.00235 0.216326 0
M  V30 236 C 20.8604 3.46677 0.0402814 0
M  V30 237 C 19.9214 4.18153 -0.97194 0
M  V30 238 C 19.1544 5.32525 -0.354016 0
M  V30 239 O 19.3774 5.64112 0.844604 0
M  V30 240 O 18.3114 5.92242 -1.07391 0
M  V30 241 H 22.1374 2.64251 -1.49684 0
M  V30 242 H 19.7224 1.26629 -0.792809 0
M  V30 243 H 21.6044 4.19475 0.402324 0
M  V30 244 H 20.2794 3.10858 0.902707 0
M  V30 245 H 19.1864 3.47499 -1.38546 0
M  V30 246 H 20.5194 4.57927 -1.80454 0
M  V30 247 N 22.1715 0.800033 1.35784 0
M  V30 248 C 23.5875 0.482977 1.52117 0
M  V30 249 C 23.7875 -0.996948 1.75109 0
M  V30 250 O 22.8435 -1.78216 1.78872 0
M  V30 251 C 24.1565 1.32264 2.70049 0
M  V30 252 C 25.7045 1.31742 2.83924 0
M  V30 253 C 26.1795 2.14106 4.04874 0
M  V30 254 N 27.6705 2.11607 4.12039 0
M  V30 255 C 28.4055 2.72099 5.04727 0
M  V30 256 N 27.9015 3.41492 6.02789 0
M  V30 257 N 29.6945 2.61776 4.97423 0
M  V30 258 H 21.8455 1.75856 1.19115 0
M  V30 259 H 24.1085 0.748122 0.582252 0
M  V30 260 H 23.8145 2.37261 2.59616 0
M  V30 261 H 23.6885 0.971303 3.6448 0
M  V30 262 H 26.0755 0.275333 2.93813 0
M  V30 263 H 26.1565 1.70859 1.9037 0
M  V30 264 H 25.8005 3.18351 3.95746 0
M  V30 265 H 25.7305 1.72353 4.97596 0
M  V30 266 H 28.2215 1.61112 3.41835 0
M  V30 267 H 28.5345 3.84953 6.70098 0
M  V30 268 H 26.8795 3.45596 6.02983 0
M  V30 269 H 30.0705 2.07157 4.19766 0
M  V30 270 H 30.2435 3.0921 5.69468 0
M  V30 271 N 23.6496 -1.47581 0.552962 0
M  V30 272 C 24.8746 -2.07378 0.0300593 0
M  V30 273 C 25.2996 -1.40355 -1.25229 0
M  V30 274 O 24.6576 -0.477099 -1.7491 0
M  V30 275 C 24.7056 -3.60274 -0.153231 0
M  V30 276 O 23.8096 -3.94041 -1.21678 0
M  V30 277 H 23.1506 -0.662158 0.0494182 0
M  V30 278 H 25.6806 -1.89662 0.767434 0
M  V30 279 H 25.6906 -4.0633 -0.368761 0
M  V30 280 H 24.3656 -4.08455 0.783397 0
M  V30 281 H 22.9426 -3.59735 -0.982079 0
M  V30 282 N 25.1277 -0.289203 -1.54924 0
M  V30 283 C 26.0377 0.601863 -2.26748 0
M  V30 284 C 27.0537 1.15834 -1.2984 0
M  V30 285 O 28.2297 1.18564 -1.62802 0
M  V30 286 C 25.2947 1.76299 -2.98529 0
M  V30 287 C 24.3557 1.24178 -4.10948 0
M  V30 288 C 23.5887 2.34757 -4.79296 0
M  V30 289 O 23.8117 3.54411 -4.46933 0
M  V30 290 O 22.7457 2.02115 -5.66951 0
M  V30 291 H 26.5717 0.0195879 -3.03694 0
M  V30 292 H 24.1567 -0.0560868 -1.49295 0
M  V30 293 H 26.0387 2.43973 -3.43592 0
M  V30 294 H 24.7137 2.33209 -2.24488 0
M  V30 295 H 23.6207 0.531104 -3.70311 0
M  V30 296 H 24.9537 0.718252 -4.86931 0
M  V30 297 N 26.6058 1.57591 -0.0167156 0
M  V30 298 C 27.5358 2.12496 0.967858 0
M  V30 299 C 28.5168 1.03807 1.34752 0
M  V30 300 O 29.7018 1.31577 1.42833 0
M  V30 301 C 26.8318 2.64194 2.25431 0
M  V30 302 C 25.7858 3.77559 2.01576 0
M  V30 303 C 25.1118 4.15636 3.36379 0
M  V30 304 C 26.4118 5.04151 1.36489 0
M  V30 305 H 28.1058 2.95013 0.510643 0
M  V30 306 H 25.6518 1.41915 0.244181 0
M  V30 307 H 27.6048 3.01236 2.94678 0
M  V30 308 H 26.3288 1.78821 2.73296 0
M  V30 309 H 24.9878 3.40937 1.34751 0
M  V30 310 H 24.6358 3.27263 3.81979 0
M  V30 311 H 24.3358 4.92022 3.21229 0
M  V30 312 H 25.8598 4.5525 4.06915 0
M  V30 313 H 27.2738 5.38857 1.95718 0
M  V30 314 H 25.6708 5.85453 1.31776 0
M  V30 315 H 26.7408 4.83733 0.336219 0
M  V30 316 N 28.0839 -0.256276 1.55502 0
M  V30 317 C 29.0469 -1.30047 1.88734 0
M  V30 318 C 30.0469 -1.4154 0.763086 0
M  V30 319 O 31.2369 -1.40403 1.03115 0
M  V30 320 C 28.3689 -2.67953 2.10747 0
M  V30 321 H 29.5619 -1.01802 2.82093 0
M  V30 322 H 27.1149 -0.495134 1.4825 0
M  V30 323 H 27.8499 -3.01351 1.19825 0
M  V30 324 H 27.6349 -2.60993 2.92617 0
M  V30 325 H 29.1249 -3.43368 2.37673 0
M  V30 326 N 29.562 -1.4872 -0.521534 0
M  V30 327 C 30.978 -1.35028 -0.850855 0
M  V30 328 C 31.178 -0.367712 -1.98116 0
M  V30 329 O 30.234 0.208037 -2.51642 0
M  V30 330 C 31.547 -2.75263 -1.21041 0
M  V30 331 C 33.095 -2.83813 -1.31981 0
M  V30 332 C 33.57 -4.24769 -1.71276 0
M  V30 333 N 35.061 -4.27482 -1.78363 0
M  V30 334 C 35.796 -5.33494 -2.1017 0
M  V30 335 N 35.292 -6.49775 -2.40343 0
M  V30 336 N 37.085 -5.20894 -2.11248 0
M  V30 337 H 29.236 -2.11214 0.22413 0
M  V30 338 H 31.499 -0.947252 0.0376439 0
M  V30 339 H 31.205 -3.48765 -0.453415 0
M  V30 340 H 31.079 -3.09327 -2.15863 0
M  V30 341 H 33.466 -2.10561 -2.06756 0
M  V30 342 H 33.547 -2.53358 -0.352596 0
M  V30 343 H 33.191 -4.9854 -0.970588 0
M  V30 344 H 33.121 -4.52673 -2.69062 0
M  V30 345 H 35.612 -3.43611 -1.57288 0
M  V30 346 H 35.925 -7.26402 -2.63743 0
M  V30 347 H 34.27 -6.53035 -2.37844 0
M  V30 348 H 37.461 -4.29065 -1.87139 0
M  V30 349 H 37.634 -6.03612 -2.35704 0
M  V30 350 N 31.0401 0.771051 -1.3745 0
M  V30 351 C 31.9871 1.88435 -1.3327 0
M  V30 352 C 32.9571 1.64914 -0.198136 0
M  V30 353 O 34.1421 1.86821 -0.387606 0
M  V30 354 C 31.2821 3.25509 -1.14622 0
M  V30 355 C 30.3951 3.60979 -2.37314 0
M  V30 356 C 29.5301 4.87265 -2.11533 0
M  V30 357 C 28.5691 5.15469 -3.30088 0
M  V30 358 N 27.7061 6.32944 -3.03853 0
M  V30 359 H 32.5461 1.91344 -2.28455 0
M  V30 360 H 30.0831 0.935466 -1.13523 0
M  V30 361 H 32.0411 4.04582 -1.01831 0
M  V30 362 H 30.6711 3.21974 -0.230837 0
M  V30 363 H 29.7231 2.76885 -2.60842 0
M  V30 364 H 31.0351 3.77759 -3.25729 0
M  V30 365 H 30.1891 5.74244 -1.95777 0
M  V30 366 H 28.9281 4.7259 -1.20457 0
M  V30 367 H 27.9331 4.26966 -3.46382 0
M  V30 368 H 29.1581 5.32052 -4.22016 0
M  V30 369 H 27.1041 6.19625 -2.15407 0
M  V30 370 H 27.0211 6.50143 -3.85812 0
M  V30 371 H 28.2891 7.22857 -2.91716 0
M  V30 372 N 32.5182 1.22032 0.997298 0
M  V30 373 C 33.7662 1.04016 1.73278 0
M  V30 374 C 34.0872 -0.426255 1.90284 0
M  V30 375 O 33.3572 -1.30694 1.45931 0
M  V30 376 H 31.9372 0.381897 0.642 0
M  V30 377 H 34.5992 1.5347 1.20137 0
M  V30 378 H 33.6952 1.51441 2.72896 0
M  V30 379 N 33.9963 -1.19345 1.0293 0
M  V30 380 C 35.2453 -1.88363 0.721256 0
M  V30 381 C 35.5583 -1.80514 -0.753254 0
M  V30 382 O 36.7643 -2.44788 -1.17436 0
M  V30 383 C 35.2203 -3.37872 1.23978 0
M  V30 384 C 34.8283 -3.54278 2.74211 0
M  V30 385 C 36.5723 -4.12365 1.00775 0
M  V30 386 C 34.4793 -4.97682 3.19479 0
M  V30 387 H 33.4093 -0.705484 0.266098 0
M  V30 388 H 36.0603 -1.34928 1.24365 0
M  V30 389 H 34.4423 -3.90707 0.6453 0
M  V30 390 H 35.6163 -3.11769 3.39318 0
M  V30 391 H 33.9313 -2.93174 2.95699 0
M  V30 392 H 36.5283 -5.18119 1.32123 0
M  V30 393 H 36.8713 -4.16263 -0.0554308 0
M  V30 394 H 37.4043 -3.65668 1.56625 0
M  V30 395 H 34.1433 -4.98945 4.25128 0
M  V30 396 H 33.6633 -5.4095 2.591 0
M  V30 397 H 35.3423 -5.66337 3.12845 0
M  V30 398 N 35.4744 -0.807222 -1.35358 0
M  V30 399 C 36.4374 -0.223665 -2.28106 0
M  V30 400 C 37.4374 0.589354 -1.4961 0
M  V30 401 O 38.6274 0.407745 -1.69361 0
M  V30 402 C 35.7594 0.688149 -3.33882 0
M  V30 403 H 36.9524 -1.04169 -2.81227 0
M  V30 404 H 34.5054 -0.577921 -1.45223 0
M  V30 405 H 35.2404 1.52984 -2.85948 0
M  V30 406 H 35.0254 0.10687 -3.91954 0
M  V30 407 H 36.5154 1.09075 -4.03104 0
M  V30 408 N 36.9525 1.47285 -0.560781 0
M  V30 409 C 38.3685 1.58065 -0.22081 0
M  V30 410 C 38.5685 1.55892 1.27671 0
M  V30 411 O 37.6245 1.46422 2.0571 0
M  V30 412 C 38.9375 2.88418 -0.850625 0
M  V30 413 C 40.4855 3.02009 -0.822184 0
M  V30 414 C 40.9605 4.35066 -1.43113 0
M  V30 415 N 42.4515 4.41711 -1.39448 0
M  V30 416 C 43.1865 5.43237 -1.83525 0
M  V30 417 N 42.6825 6.51555 -2.35474 0
M  V30 418 N 44.4755 5.34304 -1.74574 0
M  V30 419 H 36.6265 1.46941 -1.53369 0
M  V30 420 H 38.8895 0.699558 -0.639783 0
M  V30 421 H 38.5955 2.95755 -1.9032 0
M  V30 422 H 38.4695 3.75612 -0.345773 0
M  V30 423 H 40.8565 2.94266 0.221714 0
M  V30 424 H 40.9375 2.16347 -1.36483 0
M  V30 425 H 40.5815 4.43565 -2.47412 0
M  V30 426 H 40.5115 5.19465 -0.863899 0
M  V30 427 H 43.0025 3.64027 -1.01452 0
M  V30 428 H 43.3155 7.25203 -2.67021 0
M  V30 429 H 41.6605 6.52435 -2.39487 0
M  V30 430 H 44.8515 4.48581 -1.33763 0
M  V30 431 H 45.0245 6.13288 -2.09242 0
M  V30 432 N 38.4306 0.297415 1.54768 0
M  V30 433 C 39.3936 -0.567375 2.22066 0
M  V30 434 C 40.3936 -1.06409 1.20556 0
M  V30 435 O 41.5836 -0.960691 1.45315 0
M  V30 436 C 38.7156 -1.78517 2.90421 0
M  V30 437 H 39.9086 0.0205534 2.99893 0
M  V30 438 H 37.4616 0.0482163 1.56226 0
M  V30 439 H 38.1966 -2.41303 2.16664 0
M  V30 440 H 37.9816 -1.43669 3.64831 0
M  V30 441 H 39.4716 -2.39964 3.41771 0
M  V30 442 N 39.9087 -1.5758 0.0250728 0
M  V30 443 C 40.8557 -2.09973 -0.958129 0
M  V30 444 C 41.8257 -1.00085 -1.3256 0
M  V30 445 O 43.0107 -1.27481 -1.41962 0
M  V30 446 C 40.1507 -2.62812 -2.2366 0
M  V30 447 C 39.2637 -3.86693 -1.92594 0
M  V30 448 C 38.3987 -4.27941 -3.14707 0
M  V30 449 C 37.4377 -5.44591 -2.79442 0
M  V30 450 N 36.5747 -5.81014 -3.94167 0
M  V30 451 H 41.4147 -2.937 -0.504428 0
M  V30 452 H 38.9517 -1.45172 -0.237392 0
M  V30 453 H 40.9097 -2.91536 -2.98434 0
M  V30 454 H 39.5397 -1.81922 -2.66654 0
M  V30 455 H 38.5917 -3.64723 -1.0808 0
M  V30 456 H 39.9037 -4.71547 -1.62619 0
M  V30 457 H 39.0577 -4.58079 -3.97804 0
M  V30 458 H 37.7967 -3.41845 -3.4784 0
M  V30 459 H 36.8017 -5.1415 -1.94755 0
M  V30 460 H 38.0267 -6.32382 -2.47528 0
M  V30 461 H 35.9727 -4.97874 -4.2715 0
M  V30 462 H 35.8897 -6.60498 -3.67801 0
M  V30 463 H 37.1577 -6.15756 -4.7798 0
M  V30 464 N 41.3868 0.248026 -1.55636 0
M  V30 465 C 42.6118 0.998028 -1.81808 0
M  V30 466 C 43.0368 1.78207 -0.601979 0
M  V30 467 O 42.3948 1.75653 0.448961 0
M  V30 468 C 42.4428 1.9125 -3.05705 0
M  V30 469 O 41.5468 3.00406 -2.82542 0
M  V30 470 H 40.8878 0.284045 -0.600179 0
M  V30 471 H 43.4178 0.269357 -2.02819 0
M  V30 472 H 43.4278 2.32737 -3.35108 0
M  V30 473 H 42.1028 1.33602 -3.93857 0
M  V30 474 H 40.6798 2.63056 -2.64303 0
M  V30 475 N 42.8649 1.48995 0.513639 0
M  V30 476 C 44.1109 1.58076 1.27042 0
M  V30 477 C 44.4439 0.261026 1.92438 0
M  V30 478 O 43.7189 -0.734393 1.80103 0
M  V30 479 C 44.0019 2.73091 2.34719 0
M  V30 480 C 43.8549 4.14821 1.73907 0
M  V30 481 C 45.1739 2.83796 3.36375 0
M  V30 482 H 42.2929 0.575391 0.460536 0
M  V30 483 H 44.9349 1.81232 0.570516 0
M  V30 484 H 43.0849 2.53479 2.94416 0
M  V30 485 H 44.7569 4.45917 1.18135 0
M  V30 486 H 42.9999 4.21058 1.0437 0
M  V30 487 H 43.6709 4.91147 2.51949 0
M  V30 488 H 46.1469 3.01611 2.86653 0
M  V30 489 H 45.0229 3.65971 4.09093 0
M  V30 490 H 45.2839 1.92624 3.9793 0
M  V30 491 N 44.343 -0.763751 1.37857 0
M  V30 492 C 45.589 -1.52483 1.33704 0
M  V30 493 C 45.922 -1.94051 -0.0759612 0
M  V30 494 O 45.197 -1.64675 -1.03501 0
M  V30 495 C 45.48 -2.78441 2.28348 0
M  V30 496 C 45.333 -2.43075 3.78463 0
M  V30 497 C 46.652 -3.80415 2.21298 0
M  V30 498 H 43.771 -0.553169 0.487005 0
M  V30 499 H 46.413 -0.875562 1.68624 0
M  V30 500 H 44.563 -3.33842 1.987 0
M  V30 501 H 46.235 -1.93527 4.18742 0
M  V30 502 H 44.478 -1.75666 3.96641 0
M  V30 503 H 45.149 -3.33149 4.40132 0
M  V30 504 H 47.625 -3.34527 2.47449 0
M  V30 505 H 46.501 -4.66257 2.89647 0
M  V30 506 H 46.762 -4.25262 1.20849 0
M  V30 507 N 45.8211 -1.22559 -0.990812 0
M  V30 508 C 46.7841 -0.998863 -2.0629 0
M  V30 509 C 47.7841 0.0354834 -1.60761 0
M  V30 510 O 48.9741 -0.203231 -1.7301 0
M  V30 511 C 46.1061 -0.509203 -3.37076 0
M  V30 512 H 47.2991 -1.95014 -2.27837 0
M  V30 513 H 44.8521 -1.04456 -1.16269 0
M  V30 514 H 45.5871 0.446335 -3.21214 0
M  V30 515 H 45.3721 -1.25547 -3.71457 0
M  V30 516 H 46.8621 -0.370888 -4.1595 0
M  V30 517 N 47.2992 1.18797 -1.03562 0
M  V30 518 C 48.2292 2.24472 -0.643019 0
M  V30 519 C 49.2102 1.66433 0.351283 0
M  V30 520 O 50.3952 1.92803 0.232505 0
M  V30 521 C 47.5252 3.473 4.24935e-05 0
M  V30 522 C 46.4792 4.18055 -0.917257 0
M  V30 523 C 45.8052 5.34519 -0.138941 0
M  V30 524 C 47.1052 4.72109 -2.23407 0
M  V30 525 H 48.7992 2.57566 -1.52643 0
M  V30 526 H 46.3452 1.23806 -0.735394 0
M  V30 527 H 48.2982 4.20426 0.286383 0
M  V30 528 H 47.0222 3.13424 0.918299 0
M  V30 529 H 45.6812 3.46821 -1.1879 0
M  V30 530 H 45.3292 4.96891 0.781562 0
M  V30 531 H 45.0292 5.82794 -0.750005 0
M  V30 532 H 46.5532 6.10438 0.1405 0
M  V30 533 H 47.9672 5.36955 -2.00879 0
M  V30 534 H 46.3642 5.30897 -2.79765 0
M  V30 535 H 47.4342 3.89807 -2.88407 0
M  V30 536 N 48.7773 0.814389 1.34928 0
M  V30 537 C 49.7403 0.235759 2.27984 0
M  V30 538 C 50.7403 -0.581412 1.49921 0
M  V30 539 O 51.9303 -0.398758 1.69575 0
M  V30 540 C 49.0623 -0.670433 3.34242 0
M  V30 541 H 50.2553 1.05659 2.80671 0
M  V30 542 H 47.8083 0.585614 1.44915 0
M  V30 543 H 48.5433 -1.51466 2.86755 0
M  V30 544 H 48.3283 -0.0860822 3.92005 0
M  V30 545 H 49.8183 -1.06935 4.03676 0
M  V30 546 N 50.2554 -1.46986 0.568584 0
M  V30 547 C 51.4854 -2.0653 0.0539173 0
M  V30 548 C 51.8934 -1.42004 -1.25026 0
M  V30 549 O 51.2364 -0.514541 -1.76347 0
M  V30 550 C 51.2984 -3.58938 -0.200854 0
M  V30 551 C 50.9624 -4.45572 1.01559 0
M  V30 552 C 51.9594 -4.82986 1.92407 0
M  V30 553 C 49.6444 -4.8692 1.23346 0
M  V30 554 C 51.6384 -5.60559 3.03402 0
M  V30 555 C 49.3254 -5.64255 2.34649 0
M  V30 556 C 50.3234 -6.00986 3.24507 0
M  V30 557 O 50.0114 -6.76761 4.33878 0
M  V30 558 H 49.7434 -0.674292 0.0480234 0
M  V30 559 H 52.2974 -1.89812 0.784896 0
M  V30 560 H 50.5274 -3.73911 -0.986279 0
M  V30 561 H 52.2164 -4.0046 -0.662294 0
M  V30 562 H 52.9824 -4.51633 1.76785 0
M  V30 563 H 48.8614 -4.57789 0.543178 0
M  V30 564 H 52.4054 -5.89147 3.73565 0
M  V30 565 H 48.3024 -5.95021 2.5024 0
M  V30 566 H 49.0704 -6.95168 4.32068 0
M  V30 567 N 51.7335 -0.305618 -1.54608 0
M  V30 568 C 52.6965 0.555591 -2.22364 0
M  V30 569 C 53.6965 1.05768 -1.21119 0
M  V30 570 O 54.8865 0.952972 -1.45822 0
M  V30 571 C 52.0185 1.76974 -2.91364 0
M  V30 572 H 53.2115 -0.0364572 -2.99878 0
M  V30 573 H 50.7645 -0.0565007 -1.56198 0
M  V30 574 H 51.4995 2.40151 -2.17941 0
M  V30 575 H 51.2845 1.41732 -3.65588 0
M  V30 576 H 52.7745 2.38148 -3.43038 0
M  V30 577 N 53.2116 1.57565 -0.0334293 0
M  V30 578 C 54.4596 1.91598 0.642999 0
M  V30 579 C 54.7806 0.910847 1.7242 0
M  V30 580 O 54.0506 -0.0469931 1.95844 0
M  V30 581 H 52.6306 0.707228 0.240496 0
M  V30 582 H 55.2926 1.94726 -0.0822488 0
M  V30 583 H 54.3886 2.92336 1.09298 0
M  V30 584 N 54.6897 -0.239769 1.55765 0
M  V30 585 C 55.9377 -0.964892 1.77579 0
M  V30 586 C 56.2587 -1.85582 0.598699 0
M  V30 587 O 55.5287 -1.92075 -0.385226 0
M  V30 588 H 54.1087 -0.359265 0.654933 0
M  V30 589 H 56.7707 -0.256001 1.93211 0
M  V30 590 H 55.8667 -1.58243 2.69009 0
M  V30 591 N 56.1678 -1.49265 -0.50573 0
M  V30 592 C 57.4138 -1.58748 -1.26202 0
M  V30 593 C 57.7468 -0.271227 -1.92297 0
M  V30 594 O 57.0218 0.724831 -1.80489 0
M  V30 595 C 57.3048 -2.74332 -2.33268 0
M  V30 596 C 57.1578 -4.15737 -1.71705 0
M  V30 597 C 58.4768 -2.85576 -3.34865 0
M  V30 598 H 55.5958 -0.577826 -0.457478 0
M  V30 599 H 58.2378 -1.81532 -0.560897 0
M  V30 600 H 56.3878 -2.55036 -2.93068 0
M  V30 601 H 58.0598 -4.46537 -1.15769 0
M  V30 602 H 56.3028 -4.21605 -1.02135 0
M  V30 603 H 56.9738 -4.92477 -2.49341 0
M  V30 604 H 59.4498 -3.03127 -2.8505 0
M  V30 605 H 58.3258 -3.68135 -4.07146 0
M  V30 606 H 58.5868 -1.94732 -3.96903 0
M  V30 607 N 57.6459 0.756429 -1.3826 0
M  V30 608 C 58.5759 1.88374 -1.37976 0
M  V30 609 C 59.5569 1.68311 -0.246082 0
M  V30 610 O 60.7419 1.88944 -0.44874 0
M  V30 611 C 57.8719 3.25864 -1.20125 0
M  V30 612 C 56.8259 3.60523 -2.30666 0
M  V30 613 C 56.1519 4.9672 -1.97923 0
M  V30 614 C 57.4519 3.65692 -3.72916 0
M  V30 615 H 59.1459 1.88869 -2.32312 0
M  V30 616 H 56.6919 0.907272 -1.11824 0
M  V30 617 H 58.6449 4.0438 -1.18552 0
M  V30 618 H 57.3689 3.25841 -0.222498 0
M  V30 619 H 56.0279 2.84324 -2.3142 0
M  V30 620 H 55.6759 4.93253 -0.985393 0
M  V30 621 H 55.3759 5.20878 -2.71955 0
M  V30 622 H 56.8999 5.77618 -1.97964 0
M  V30 623 H 58.3139 4.34328 -3.74208 0
M  V30 624 H 56.7109 4.01358 -4.4613 0
M  V30 625 H 57.7809 2.65987 -4.05436 0
M  V30 626 N 59.124 1.23083 0.984299 0
M  V30 627 C 60.371 1.06057 1.72505 0
M  V30 628 C 60.699 -0.403105 1.90277 0
M  V30 629 O 59.954 -1.3149 1.44944 0
M  V30 630 C 60.253 1.72673 3.1292 0
M  V30 631 C 59.919 3.22586 3.15038 0
M  V30 632 C 58.581 3.63489 3.15324 0
M  V30 633 C 60.933 4.185 3.10657 0
M  V30 634 C 58.261 4.98772 3.08939 0
M  V30 635 C 60.613 5.53769 3.05814 0
M  V30 636 C 59.277 5.94041 3.04419 0
M  V30 637 H 58.547 0.388091 0.631242 0
M  V30 638 H 61.194 1.52963 1.15215 0
M  V30 639 H 59.499 1.18116 3.73572 0
M  V30 640 H 61.196 1.56982 3.68996 0
M  V30 641 H 57.786 2.90022 3.15571 0
M  V30 642 H 61.97 3.87911 3.09579 0
M  V30 643 H 57.226 5.29193 3.0621 0
M  V30 644 H 61.4 6.27808 3.0138 0
M  V30 645 H 59.027 6.98833 2.99227 0
M  V30 646 N 60.6021 -1.18246 1.0419 0
M  V30 647 C 61.8481 -1.88536 0.747122 0
M  V30 648 C 62.1811 -1.80223 -0.723409 0
M  V30 649 O 61.4561 -1.20337 -1.52804 0
M  V30 650 C 61.7391 -3.38968 1.21544 0
M  V30 651 C 61.5921 -3.56084 2.74816 0
M  V30 652 C 62.9111 -4.32648 0.806482 0
M  V30 653 H 60.0301 -0.684619 0.272883 0
M  V30 654 H 62.6721 -1.39113 1.29413 0
M  V30 655 H 60.8221 -3.8119 0.750081 0
M  V30 656 H 62.4941 -3.22946 3.29399 0
M  V30 657 H 60.7371 -2.98699 3.14582 0
M  V30 658 H 61.4081 -4.61639 3.02644 0
M  V30 659 H 63.8841 -3.98211 1.20695 0
M  V30 660 H 62.7601 -5.36462 1.1619 0
M  V30 661 H 63.0211 -4.41146 -0.29029 0
M  V30 662 N 62.0802 -0.821533 -1.34494 0
M  V30 663 C 63.0432 -0.247847 -2.27856 0
M  V30 664 C 64.0432 0.573453 -1.50227 0
M  V30 665 O 65.2332 0.389759 -1.69784 0
M  V30 666 C 62.3652 0.652698 -3.34593 0
M  V30 667 H 63.5582 -1.07146 -2.80107 0
M  V30 668 H 61.1112 -0.593291 -1.44602 0
M  V30 669 H 61.8462 1.49943 -2.87555 0
M  V30 670 H 61.6312 0.065292 -3.92046 0
M  V30 671 H 63.1212 1.04793 -4.04238 0
M  V30 672 N 63.5583 1.46682 -0.576371 0
M  V30 673 C 64.4683 2.34032 0.163141 0
M  V30 674 C 65.4843 1.49367 0.892501 0
M  V30 675 O 66.6603 1.82252 0.857106 0
M  V30 676 C 63.7253 3.26435 1.16795 0
M  V30 677 C 62.7863 4.26998 0.443944 0
M  V30 678 C 62.0193 5.14986 1.40088 0
M  V30 679 O 62.2423 5.05785 2.637 0
M  V30 680 O 61.1763 5.94906 0.914917 0
M  V30 681 H 65.0023 2.98607 -0.55388 0
M  V30 682 H 62.5873 1.45554 -0.336821 0
M  V30 683 H 64.4693 3.83459 1.74748 0
M  V30 684 H 63.1443 2.64465 1.86655 0
M  V30 685 H 62.0513 3.7368 -0.177271 0
M  V30 686 H 63.3843 4.91736 -0.213566 0
M  V30 687 N 65.0364 0.313813 1.54444 0
M  V30 688 C 65.9844 -0.572171 2.25453 0
M  V30 689 C 66.9784 -1.12657 1.2651 0
M  V30 690 O 68.1844 -1.07573 1.44319 0
M  V30 691 H 64.5594 -0.203146 0.724041 0
M  V30 692 H 66.5304 0.0491145 2.9836 0
M  V30 693 C 65.2794 -1.72626 3.0182 0
M  V30 694 H 64.6024 -1.30891 3.77767 0
M  V30 695 H 66.0424 -2.32199 3.54767 0
M  V30 696 C 64.5014 -2.63806 2.09542 0
M  V30 697 O 65.0314 -3.65256 1.67185 0
M  V30 698 N 63.2374 -2.31824 1.75232 0
M  V30 699 H 62.7844 -1.49368 2.09873 0
M  V30 700 H 62.7424 -2.93095 1.13767 0
M  V30 701 N 66.5145 -1.57545 0.0417849 0
M  V30 702 C 67.9255 -1.80011 -0.495259 0
M  V30 703 C 68.2765 -0.953199 -1.71489 0
M  V30 704 O 67.4015 -0.167138 -2.15754 0
M  V30 705 C 67.9965 -3.26482 -0.905265 0
M  V30 706 C 66.5555 -3.499 -1.38734 0
M  V30 707 C 65.7025 -2.74979 -0.358056 0
M  V30 708 H 68.6535 -1.56425 0.267736 0
M  V30 709 H 68.6745 -3.36887 -1.76882 0
M  V30 710 H 68.1865 -3.88096 -0.017401 0
M  V30 711 H 66.2875 -2.93553 -2.29471 0
M  V30 712 H 66.4005 -4.58615 -1.38598 0
M  V30 713 H 64.7645 -2.40834 -0.828912 0
M  V30 714 H 65.5475 -3.39315 0.521561 0
M  V30 715 N 67.9926 0.231505 -1.5589 0
M  V30 716 C 69.2176 0.978689 -1.82856 0
M  V30 717 C 69.6426 1.77559 -0.620846 0
M  V30 718 O 69.0006 1.76119 0.430305 0
M  V30 719 C 69.0486 1.87997 -3.07716 0
M  V30 720 O 68.1526 2.97393 -2.85712 0
M  V30 721 H 67.4936 0.277663 -0.603158 0
M  V30 722 H 70.0236 0.24783 -2.03093 0
M  V30 723 H 70.0336 2.2917 -3.37558 0
M  V30 724 H 68.7086 1.29417 -3.95252 0
M  V30 725 H 67.2856 2.60238 -2.67078 0
M  V30 726 N 69.4707 1.49531 0.497807 0
M  V30 727 C 70.8867 1.36365 0.829266 0
M  V30 728 C 71.0867 0.399184 1.97506 0
M  V30 729 O 70.1427 -0.167977 2.51941 0
M  V30 730 C 71.4557 2.77153 1.16647 0
M  V30 731 C 73.0037 2.85877 1.27449 0
M  V30 732 C 73.4787 4.2744 1.64497 0
M  V30 733 N 74.9697 4.30265 1.7154 0
M  V30 734 C 75.7047 5.3677 2.01656 0
M  V30 735 N 75.2007 6.53516 2.29976 0
M  V30 736 N 76.9937 5.24189 2.02934 0
M  V30 737 H 69.1447 2.10831 -0.257703 0
M  V30 738 H 71.4077 0.946534 -0.0527091 0
M  V30 739 H 71.1137 3.49442 0.397872 0
M  V30 740 H 70.9877 3.12722 2.10915 0
M  V30 741 H 73.3747 2.13824 2.0338 0
M  V30 742 H 73.4557 2.53887 0.312244 0
M  V30 743 H 73.0997 5.00021 0.891151 0
M  V30 744 H 73.0297 4.56896 2.61827 0
M  V30 745 H 75.5207 3.4607 1.51802 0
M  V30 746 H 75.8337 7.30506 2.52153 0
M  V30 747 H 74.1787 6.56737 2.27425 0
M  V30 748 H 77.3697 4.31988 1.80289 0
M  V30 749 H 77.5427 6.07286 2.26071 0
M  V30 750 N 70.9488 -0.749086 1.3866 0
M  V30 751 C 72.1738 -1.54344 1.38538 0
M  V30 752 C 72.5988 -1.88088 -0.0216655 0
M  V30 753 O 71.9568 -1.50899 -1.00494 0
M  V30 754 C 72.0048 -2.8164 2.25192 0
M  V30 755 O 71.1088 -3.7698 1.67212 0
M  V30 756 H 70.4498 -0.466654 0.472367 0
M  V30 757 H 72.9798 -0.925355 1.82478 0
M  V30 758 H 72.9898 -3.30519 2.3921 0
M  V30 759 H 71.6648 -2.56411 3.27454 0
M  V30 760 H 70.2418 -3.35699 1.6236 0
M  V30 761 N 72.4269 -1.23603 -0.977757 0
M  V30 762 C 73.3569 -1.04401 -2.0886 0
M  V30 763 C 74.3379 0.0399052 -1.70053 0
M  V30 764 O 75.5229 -0.125246 -1.93796 0
M  V30 765 C 72.6529 -0.637269 -3.41403 0
M  V30 766 C 71.6069 -1.66883 -3.94124 0
M  V30 767 C 70.9329 -1.11745 -5.22893 0
M  V30 768 C 72.2329 -3.06247 -4.23096 0
M  V30 769 H 73.9269 -1.97316 -2.25182 0
M  V30 770 H 71.4729 -0.950096 -1.08209 0
M  V30 771 H 73.4259 -0.48998 -4.18542 0
M  V30 772 H 72.1499 0.327557 -3.24953 0
M  V30 773 H 70.8089 -1.80416 -3.19133 0
M  V30 774 H 70.4569 -0.143527 -5.02795 0
M  V30 775 H 70.1569 -1.80672 -5.59134 0
M  V30 776 H 71.6809 -0.982067 -6.02651 0
M  V30 777 H 73.0949 -2.96001 -4.90975 0
M  V30 778 H 71.4919 -3.72436 -4.70544 0
M  V30 779 H 72.5619 -3.55041 -3.30263 0
M  V30 780 N 73.905 1.17692 -1.04816 0
M  V30 781 C 74.837 2.21103 -0.603822 0
M  V30 782 C 75.85 1.59411 0.33046 0
M  V30 783 O 77.039 1.7807 0.12379 0
M  V30 784 C 74.139 3.38623 0.136898 0
M  V30 785 C 73.312 4.29888 -0.807137 0
M  V30 786 C 72.371 5.26088 -0.10836 0
M  V30 787 O 71.397 5.64353 -0.741232 0
M  V30 788 N 72.599 5.68882 1.15558 0
M  V30 789 H 75.364 2.59848 -1.49329 0
M  V30 790 H 72.925 1.32553 -0.929587 0
M  V30 791 H 74.917 4.00009 0.614401 0
M  V30 792 H 73.487 2.98508 0.927993 0
M  V30 793 H 72.707 3.65993 -1.46434 0
M  V30 794 H 73.995 4.87759 -1.44807 0
M  V30 795 H 73.393 5.39861 1.69015 0
M  V30 796 H 71.95 6.32429 1.57722 0
M  V30 797 N 75.3831 0.828654 1.34056 0
M  V30 798 C 76.3301 0.252567 2.29414 0
M  V30 799 C 77.3001 -0.62588 1.53857 0
M  V30 800 O 78.4851 -0.566312 1.82202 0
M  V30 801 C 75.6251 -0.574831 3.40279 0
M  V30 802 C 74.7381 0.326499 4.30764 0
M  V30 803 C 73.8731 -0.511016 5.28736 0
M  V30 804 C 72.9121 0.389342 6.1086 0
M  V30 805 N 72.0491 -0.409439 7.00905 0
M  V30 806 H 76.8891 1.07108 2.78086 0
M  V30 807 H 74.4261 0.539677 1.36843 0
M  V30 808 H 76.3841 -1.06992 4.03248 0
M  V30 809 H 75.0141 -1.35841 2.92826 0
M  V30 810 H 74.0661 0.939837 3.68607 0
M  V30 811 H 75.3781 1.01857 4.88289 0
M  V30 812 H 74.5321 -1.07035 5.97184 0
M  V30 813 H 73.2711 -1.23657 4.71763 0
M  V30 814 H 72.2761 0.960769 5.4134 0
M  V30 815 H 73.5011 1.1131 6.69916 0
M  V30 816 H 71.4471 -1.11856 6.46393 0
M  V30 817 H 71.3641 0.224126 7.55668 0
M  V30 818 H 72.6321 -0.951336 7.73673 0
M  V30 819 N 76.8612 -1.46375 0.584142 0
M  V30 820 C 78.1102 -2.01585 0.0679741 0
M  V30 821 C 78.4232 -1.46109 -1.30045 0
M  V30 822 O 79.6292 -1.93148 -1.90804 0
M  V30 823 C 78.0852 -3.5983 0.0709207 0
M  V30 824 C 77.6932 -4.24303 1.43775 0
M  V30 825 C 79.4372 -4.22693 -0.391228 0
M  V30 826 C 77.3442 -5.74631 1.39834 0
M  V30 827 H 76.2742 -0.753689 0.0216421 0
M  V30 828 H 78.9252 -1.68093 0.736001 0
M  V30 829 H 77.3072 -3.90405 -0.663299 0
M  V30 830 H 78.4812 -4.05335 2.19181 0
M  V30 831 H 76.7962 -3.73539 1.84004 0
M  V30 832 H 79.3932 -5.3289 -0.439524 0
M  V30 833 H 79.7362 -3.91728 -1.40906 0
M  V30 834 H 80.2692 -3.96749 0.288974 0
M  V30 835 H 77.0082 -6.10258 2.39303 0
M  V30 836 H 76.5282 -5.95858 0.686505 0
M  V30 837 H 78.2072 -6.37375 1.11187 0
M  V30 838 N 78.3393 -0.321999 -1.54275 0
M  V30 839 C 79.5643 0.285791 -2.05422 0
M  V30 840 C 79.9893 1.45124 -1.19669 0
M  V30 841 O 79.3473 1.80132 -0.205441 0
M  V30 842 C 79.3953 0.69956 -3.53749 0
M  V30 843 O 78.4993 1.8021 -3.70942 0
M  V30 844 H 77.8403 0.0518962 -0.661969 0
M  V30 845 H 80.3703 -0.469954 -1.9913 0
M  V30 846 H 80.3803 0.982649 -3.9599 0
M  V30 847 H 79.0553 -0.152864 -4.15619 0
M  V30 848 H 77.6323 1.51794 -3.40607 0
M  V30 849 N 79.8174 1.5752 -0.0501392 0
M  V30 850 C 80.7274 2.14952 0.939827 0
M  V30 851 C 81.7434 1.10706 1.34239 0
M  V30 852 O 82.9194 1.42869 1.41952 0
M  V30 853 C 79.9844 2.68232 2.19665 0
M  V30 854 C 79.0454 3.87272 1.85253 0
M  V30 855 C 78.2784 4.38002 3.04943 0
M  V30 856 O 78.5014 3.87811 4.18281 0
M  V30 857 O 77.4354 5.29602 2.86017 0
M  V30 858 H 81.2614 2.9986 0.481392 0
M  V30 859 H 78.8464 1.4841 0.171699 0
M  V30 860 H 80.7284 3.02475 2.93406 0
M  V30 861 H 79.4034 1.86395 2.64648 0
M  V30 862 H 78.3104 3.5792 1.0883 0
M  V30 863 H 79.6434 4.70336 1.4507 0
M  V30 864 N 81.2955 -0.223234 1.56011 0
M  V30 865 C 82.2255 -1.27988 1.95298 0
M  V30 866 C 83.2065 -1.48976 0.820979 0
M  V30 867 O 84.3915 -1.61188 1.08315 0
M  V30 868 C 81.5215 -2.63 2.26822 0
M  V30 869 C 80.4755 -2.56671 3.42497 0
M  V30 870 C 79.8015 -3.95697 3.59622 0
M  V30 871 C 81.1015 -2.11601 4.77517 0
M  V30 872 H 82.7955 -0.953525 2.8381 0
M  V30 873 H 80.3415 -0.457244 1.36548 0
M  V30 874 H 82.2945 -3.37077 2.52898 0
M  V30 875 H 81.0185 -2.9732 1.35161 0
M  V30 876 H 79.6775 -1.85051 3.16467 0
M  V30 877 H 79.3255 -4.27322 2.6534 0
M  V30 878 H 79.0255 -3.92345 4.37424 0
M  V30 879 H 80.5495 -4.71438 3.88044 0
M  V30 880 H 81.9635 -2.7542 5.02809 0
M  V30 881 H 80.3605 -2.19311 5.5859 0
M  V30 882 H 81.4305 -1.06824 4.72987 0
M  V30 883 N 82.7736 -1.49793 -0.48987 0
M  V30 884 C 84.0036 -1.6333 -1.26518 0
M  V30 885 C 84.4116 -0.308392 -1.8667 0
M  V30 886 O 83.7546 0.717512 -1.69108 0
M  V30 887 C 83.8166 -2.6522 -2.4269 0
M  V30 888 C 83.4806 -4.09279 -2.03321 0
M  V30 889 C 84.4776 -4.95738 -1.56652 0
M  V30 890 C 82.1626 -4.55082 -2.12616 0
M  V30 891 C 84.1566 -6.26041 -1.19795 0
M  V30 892 C 81.8436 -5.85396 -1.75371 0
M  V30 893 C 82.8416 -6.707 -1.29036 0
M  V30 894 O 82.5296 -7.98584 -0.92299 0
M  V30 895 H 82.2616 -0.552502 -0.389509 0
M  V30 896 H 84.8156 -1.96642 -0.593381 0
M  V30 897 H 83.0456 -2.27112 -3.12981 0
M  V30 898 H 84.7346 -2.68171 -3.04695 0
M  V30 899 H 85.5006 -4.61575 -1.48908 0
M  V30 900 H 81.3796 -3.88844 -2.47631 0
M  V30 901 H 84.9236 -6.92578 -0.835582 0
M  V30 902 H 80.8206 -6.19085 -1.82768 0
M  V30 903 H 81.5886 -8.11692 -1.05349 0
M  V30 904 N 84.2517 0.741722 -1.39055 0
M  V30 905 C 85.5287 1.49252 -1.26425 0
M  V30 906 C 85.9087 2.10705 0.129144 0
M  V30 907 O 85.2567 1.98045 1.13976 0
M  V30 908 C 85.4667 2.54934 -2.38347 0
M  V30 909 C 86.8147 3.21506 -2.77343 0
M  V30 910 O 87.8387 2.65245 -2.37747 0
M  V30 911 O 86.6977 4.23294 -3.45665 0
M  V30 912 H 83.7917 0.662451 -0.495064 0
M  V30 913 H 86.3377 0.776121 -1.50912 0
M  V30 914 H 85.1097 2.07857 -3.31529 0
M  V30 915 H 84.7327 3.34141 -2.15489 0
M  V30 916 N 85.7298 1.2412 0.971189 0
M  V30 917 C 87.1458 1.00584 1.23916 0
M  V30 918 C 87.3458 -0.287481 1.99439 0
M  V30 919 O 86.4018 -1.00454 2.31658 0
M  V30 920 C 87.7148 2.21864 2.0297 0
M  V30 921 C 89.2628 2.26452 2.16076 0
M  V30 922 C 89.7378 3.47343 2.98524 0
M  V30 923 N 91.2288 3.47639 3.06107 0
M  V30 924 C 91.9638 4.37837 3.70251 0
M  V30 925 N 91.4598 5.38286 4.36142 0
M  V30 926 N 93.2528 4.25558 3.67228 0
M  V30 927 H 85.4038 2.07236 0.465499 0
M  V30 928 H 87.6668 0.909236 0.268315 0
M  V30 929 H 87.3728 3.15771 1.54861 0
M  V30 930 H 87.2468 2.23698 3.03709 0
M  V30 931 H 89.6338 1.33078 2.6339 0
M  V30 932 H 89.7148 2.28645 1.14696 0
M  V30 933 H 89.3588 4.41029 2.51905 0
M  V30 934 H 89.2888 3.42393 4.00093 0
M  V30 935 H 91.7798 2.74966 2.59233 0
M  V30 936 H 92.0928 6.03352 4.82894 0
M  V30 937 H 90.4378 5.42176 4.34822 0
M  V30 938 H 93.6288 3.46322 3.14927 0
M  V30 939 H 93.8018 4.96054 4.16935 0
M  V30 940 N 87.2079 -1.17134 1.05439 0
M  V30 941 C 88.4539 -1.87733 0.767077 0
M  V30 942 C 88.7869 -1.8098 -0.704253 0
M  V30 943 O 88.0619 -1.21951 -1.5152 0
M  V30 944 C 88.3449 -3.37659 1.25133 0
M  V30 945 C 88.1979 -3.53149 2.78578 0
M  V30 946 C 89.5169 -4.31768 0.852324 0
M  V30 947 H 86.6359 -0.681687 0.280129 0
M  V30 948 H 89.2779 -1.37732 1.30881 0
M  V30 949 H 87.4279 -3.80373 0.790469 0
M  V30 950 H 89.0999 -3.19434 3.32806 0
M  V30 951 H 87.3429 -2.95345 3.17732 0
M  V30 952 H 88.0139 -4.58403 3.07523 0
M  V30 953 H 90.4899 -3.96909 1.24911 0
M  V30 954 H 89.3659 -5.35199 1.21873 0
M  V30 955 H 89.6269 -4.41429 -0.243485 0
M  V30 956 N 88.686 -0.835752 -1.33615 0
M  V30 957 C 89.934 -0.429109 -1.97492 0
M  V30 958 C 90.255 1.01433 -1.66543 0
M  V30 959 O 89.525 1.70611 -0.962744 0
M  V30 960 H 88.105 -0.155686 -0.730596 0
M  V30 961 H 90.767 -1.06802 -1.63031 0
M  V30 962 H 89.863 -0.55861 -3.0706 0
M  V30 963 N 90.1641 1.46063 -0.591896 0
M  V30 964 C 91.4111 2.02338 -0.0809991 0
M  V30 965 C 91.7391 1.46228 1.28249 0
M  V30 966 O 90.9941 0.620818 1.85592 0
M  V30 967 C 91.2931 3.57391 0.0249813 0
M  V30 968 C 90.9591 4.32583 -1.27211 0
M  V30 969 C 89.6211 4.52844 -1.62745 0
M  V30 970 C 91.9731 4.75687 -2.13005 0
M  V30 971 C 89.3011 5.13462 -2.83855 0
M  V30 972 C 91.6531 5.37644 -3.3335 0
M  V30 973 C 90.3171 5.5613 -3.69155 0
M  V30 974 H 89.5871 0.740407 -0.0296397 0
M  V30 975 H 92.2341 1.75321 -0.770374 0
M  V30 976 H 90.5391 3.83597 0.797537 0
M  V30 977 H 92.2361 3.98621 0.436184 0
M  V30 978 H 88.8261 4.17116 -0.985499 0
M  V30 979 H 93.0101 4.59782 -1.86855 0
M  V30 980 H 88.2661 5.25965 -3.11722 0
M  V30 981 H 92.4401 5.7 -4.00092 0
M  V30 982 H 90.0671 6.0287 -4.63089 0
M  V30 983 N 91.6422 0.330177 1.54103 0
M  V30 984 C 92.6052 -0.520144 2.2322 0
M  V30 985 C 93.6052 -1.03828 1.22786 0
M  V30 986 O 94.7952 -0.929652 1.4732 0
M  V30 987 C 91.9272 -1.72317 2.94142 0
M  V30 988 H 93.1202 0.0841605 2.99782 0
M  V30 989 H 90.6732 0.0813433 1.56088 0
M  V30 990 H 91.4082 -2.36653 2.21734 0
M  V30 991 H 91.1932 -1.35898 3.67796 0
M  V30 992 H 92.6832 -2.3266 3.46784 0
M  V30 993 N 93.1203 -1.57491 0.0584922 0
M  V30 994 C 94.0833 -2.1085 -0.898617 0
M  V30 995 C 95.0833 -1.02964 -1.23511 0
M  V30 996 O 96.2733 -1.29007 -1.17059 0
M  V30 997 C 93.4053 -2.59881 -2.20623 0
M  V30 998 H 94.5983 -2.96715 -0.435936 0
M  V30 999 H 92.1513 -1.55141 -0.190023 0
M  V30 1000 H 92.8863 -1.77431 -2.71457 0
M  V30 1001 H 92.6713 -3.38727 -1.97501 0
M  V30 1002 H 94.1613 -3.01285 -2.89166 0
M  V30 1003 N 94.5984 0.214957 -1.56127 0
M  V30 1004 C 95.5614 1.24997 -1.92116 0
M  V30 1005 C 96.5614 1.39467 -0.800344 0
M  V30 1006 O 97.7514 1.37619 -1.06802 0
M  V30 1007 C 94.8834 2.62271 -2.17777 0
M  V30 1008 H 96.0764 0.942875 -2.84693 0
M  V30 1009 H 93.6294 0.455654 -1.49511 0
M  V30 1010 H 94.3644 2.98068 -1.27773 0
M  V30 1011 H 94.1494 2.53143 -2.99434 0
M  V30 1012 H 95.6394 3.36946 -2.46693 0
M  V30 1013 N 96.0765 1.50051 0.48192 0
M  V30 1014 C 97.3245 1.60181 1.23234 0
M  V30 1015 C 97.6455 0.299176 1.92691 0
M  V30 1016 O 96.9155 -0.682708 1.83619 0
M  V30 1017 H 95.4955 0.590232 0.457859 0
M  V30 1018 H 98.1575 1.86775 0.556881 0
M  V30 1019 H 97.2535 2.40753 1.98607 0
M  V30 1020 N 97.5546 -0.734337 1.39446 0
M  V30 1021 C 98.5016 -1.84835 1.38219 0
M  V30 1022 C 99.4716 -1.64331 0.24179 0
M  V30 1023 O 100.657 -1.85728 0.437002 0
M  V30 1024 C 97.7966 -3.22355 1.23212 0
M  V30 1025 C 96.9096 -3.5456 2.46801 0
M  V30 1026 C 96.0446 -4.81485 2.24377 0
M  V30 1027 C 95.0836 -5.06536 3.43639 0
M  V30 1028 N 94.2206 -6.24665 3.20528 0
M  V30 1029 H 99.0606 -1.85219 2.33448 0
M  V30 1030 H 96.5976 -0.905039 1.15963 0
M  V30 1031 H 98.5556 -4.0174 1.12522 0
M  V30 1032 H 97.1856 -3.21248 0.316121 0
M  V30 1033 H 96.2376 -2.69872 2.68092 0
M  V30 1034 H 97.5496 -3.6899 3.3563 0
M  V30 1035 H 96.7036 -5.68852 2.10933 0
M  V30 1036 H 95.4426 -4.6923 1.32944 0
M  V30 1037 H 94.4476 -4.17632 3.5758 0
M  V30 1038 H 95.6726 -5.20676 4.35974 0
M  V30 1039 H 93.6186 -6.13696 2.3176 0
M  V30 1040 H 93.5356 -6.39685 4.02913 0
M  V30 1041 H 94.8036 -7.14868 3.10779 0
M  V30 1042 N 99.0327 -1.24633 -0.964593 0
M  V30 1043 C 100.28 -1.08788 -1.70796 0
M  V30 1044 C 100.608 0.372783 -1.90894 0
M  V30 1045 O 99.8627 1.29167 -1.47018 0
M  V30 1046 C 100.162 -1.7763 -3.10133 0
M  V30 1047 C 99.8277 -3.27557 -3.09866 0
M  V30 1048 C 98.4897 -3.6846 -3.09501 0
M  V30 1049 C 100.842 -4.23389 -3.03959 0
M  V30 1050 C 98.1697 -5.03624 -3.00965 0
M  V30 1051 C 100.522 -5.58565 -2.96965 0
M  V30 1052 C 99.1857 -5.98809 -2.9493 0
M  V30 1053 H 98.4557 -0.398084 -0.624988 0
M  V30 1054 H 101.103 -1.54777 -1.12767 0
M  V30 1055 H 99.4077 -1.24044 -3.71645 0
M  V30 1056 H 101.105 -1.62832 -3.66451 0
M  V30 1057 H 97.6947 -2.95006 -3.10917 0
M  V30 1058 H 101.879 -3.92787 -3.03368 0
M  V30 1059 H 97.1347 -5.33998 -2.97752 0
M  V30 1060 H 101.309 -6.32523 -2.91354 0
M  V30 1061 H 98.9357 -7.03505 -2.88071 0
M  V30 1062 N 100.511 1.16574 -1.06058 0
M  V30 1063 C 101.459 2.22941 -0.663343 0
M  V30 1064 C 102.453 1.66358 0.319593 0
M  V30 1065 O 103.659 1.7905 0.184713 0
M  V30 1066 H 100.034 0.725907 -0.196376 0
M  V30 1067 H 102.005 2.53736 -1.57037 0
M  V30 1068 C 100.754 3.47642 -0.0632808 0
M  V30 1069 H 100.077 3.91493 -0.810733 0
M  V30 1070 H 101.517 4.2363 0.177177 0
M  V30 1071 C 99.9758 3.1509 1.19248 0
M  V30 1072 O 100.506 3.30673 2.28075 0
M  V30 1073 N 98.7118 2.6924 1.09353 0
M  V30 1074 H 98.2588 2.5676 0.207912 0
M  V30 1075 H 98.2168 2.47833 1.93458 0
M  V30 1076 N 101.989 0.842826 1.3317 0
M  V30 1077 C 102.899 0.281444 2.32906 0
M  V30 1078 C 103.915 -0.594587 1.63526 0
M  V30 1079 O 105.091 -0.49777 1.95152 0
M  V30 1080 C 102.156 -0.530929 3.42611 0
M  V30 1081 C 101.217 0.369843 4.27704 0
M  V30 1082 C 100.45 -0.403853 5.3217 0
M  V30 1083 O 100.673 -1.63513 5.46461 0
M  V30 1084 O 99.6069 0.224199 6.01482 0
M  V30 1085 H 103.433 1.10744 2.82789 0
M  V30 1086 H 101.018 0.60545 1.36582 0
M  V30 1087 H 102.9 -0.992437 4.09547 0
M  V30 1088 H 101.575 -1.33392 2.94938 0
M  V30 1089 H 100.482 0.879275 3.6362 0
M  V30 1090 H 101.815 1.13771 4.78871 0
M  V30 1091 N 103.467 -1.45747 0.599634 0
M  V30 1092 C 104.714 -2.02292 0.0917284 0
M  V30 1093 C 105.042 -1.46906 -1.27472 0
M  V30 1094 O 104.297 -0.630652 -1.8526 0
M  V30 1095 C 104.596 -3.57399 -0.00602758 0
M  V30 1096 C 104.262 -4.31902 1.29503 0
M  V30 1097 C 102.924 -4.51974 1.65144 0
M  V30 1098 C 105.276 -4.74551 2.15525 0
M  V30 1099 C 102.604 -5.11949 2.86574 0
M  V30 1100 C 104.956 -5.35868 3.36196 0
M  V30 1101 C 103.62 -5.54165 3.72099 0
M  V30 1102 H 102.89 -0.740239 0.0335658 0
M  V30 1103 H 105.537 -1.7491 0.779661 0
M  V30 1104 H 103.842 -3.84014 -0.777183 0
M  V30 1105 H 105.539 -3.98846 -0.415038 0
M  V30 1106 H 102.129 -4.16588 1.00761 0
M  V30 1107 H 106.313 -4.58784 1.8929 0
M  V30 1108 H 101.569 -5.24305 3.14507 0
M  V30 1109 H 105.743 -5.6787 4.03109 0
M  V30 1110 H 103.37 -6.00406 4.6628 0
M  V30 1111 N 104.945 -0.338344 -1.53925 0
M  V30 1112 C 106.222 0.314774 -1.93051 0
M  V30 1113 C 106.602 1.68669 -1.26941 0
M  V30 1114 O 105.95 2.24636 -0.418445 0
M  V30 1115 C 106.16 0.392249 -3.46789 0
M  V30 1116 C 107.508 0.645554 -4.19664 0
M  V30 1117 O 108.532 0.474575 -3.53024 0
M  V30 1118 O 107.391 0.976408 -5.37707 0
M  V30 1119 H 104.485 0.182598 -0.80659 0
M  V30 1120 H 107.031 -0.389141 -1.65178 0
M  V30 1121 H 105.803 -0.570702 -3.87116 0
M  V30 1122 H 105.426 1.14316 -3.80812 0
M  V30 1123 N 106.423 1.57458 -0.0668435 0
M  V30 1124 C 107.371 2.13639 0.919851 0
M  V30 1125 C 108.365 1.07204 1.31163 0
M  V30 1126 O 109.571 1.25591 1.28945 0
M  V30 1127 H 105.946 0.683048 0.314562 0
M  V30 1128 H 107.917 2.95415 0.421047 0
M  V30 1129 C 106.666 2.70892 2.17975 0
M  V30 1130 H 105.989 3.5246 1.88711 0
M  V30 1131 H 107.429 3.13803 2.85138 0
M  V30 1132 C 105.888 1.65414 2.93496 0
M  V30 1133 O 106.418 1.07619 3.87015 0
M  V30 1134 N 104.624 1.36564 2.56512 0
M  V30 1135 H 104.171 1.83751 1.80536 0
M  V30 1136 H 104.129 0.66223 3.07347 0
M  V30 1137 N 107.901 -0.206675 1.56239 0
M  V30 1138 C 108.831 -1.25909 1.96645 0
M  V30 1139 C 109.812 -1.48097 0.836734 0
M  V30 1140 O 110.997 -1.6003 1.10019 0
M  V30 1141 C 108.127 -2.6058 2.29599 0
M  V30 1142 C 107.081 -2.53024 3.452 0
M  V30 1143 C 106.407 -3.91861 3.63798 0
M  V30 1144 C 107.707 -2.06524 4.79734 0
M  V30 1145 H 109.401 -0.923369 2.84806 0
M  V30 1146 H 106.947 -0.442735 1.37025 0
M  V30 1147 H 108.9 -3.34375 2.56459 0
M  V30 1148 H 107.624 -2.95869 1.38307 0
M  V30 1149 H 106.283 -1.81684 3.18412 0
M  V30 1150 H 105.931 -4.24483 2.69857 0
M  V30 1151 H 105.631 -3.87683 4.4156 0
M  V30 1152 H 107.155 -4.67296 3.93022 0
M  V30 1153 H 108.569 -2.70072 5.05702 0
M  V30 1154 H 106.966 -2.13374 5.60885 0
M  V30 1155 H 108.036 -1.01802 4.74093 0
M  V30 1156 N 109.379 -1.50304 -0.473955 0
M  V30 1157 C 110.795 -1.37667 -0.807466 0
M  V30 1158 C 110.995 -0.430555 -1.96846 0
M  V30 1159 O 110.051 0.127874 -2.52176 0
M  V30 1160 C 111.364 -2.78974 -1.12223 0
M  V30 1161 C 112.912 -2.87868 -1.22885 0
M  V30 1162 C 113.387 -4.30003 -1.57676 0
M  V30 1163 N 114.878 -4.3294 -1.64673 0
M  V30 1164 C 115.613 -5.3991 -1.93091 0
M  V30 1165 N 115.109 -6.57092 -2.1955 0
M  V30 1166 N 116.902 -5.27351 -1.94569 0
M  V30 1167 H 109.053 -2.10394 0.291212 0
M  V30 1168 H 111.316 -0.945575 0.0677609 0
M  V30 1169 H 111.022 -3.50031 -0.342229 0
M  V30 1170 H 110.896 -3.16038 -2.05913 0
M  V30 1171 H 113.283 -2.17032 -1.99953 0
M  V30 1172 H 113.364 -2.54352 -0.271814 0
M  V30 1173 H 113.008 -5.01375 -0.81149 0
M  V30 1174 H 112.938 -4.61004 -2.54525 0
M  V30 1175 H 115.429 -3.48441 -1.46277 0
M  V30 1176 H 115.742 -7.34425 -2.405 0
M  V30 1177 H 114.087 -6.60272 -2.16948 0
M  V30 1178 H 117.278 -4.34801 -1.73394 0
M  V30 1179 H 117.451 -6.10805 -2.16381 0
M  V30 1180 N 110.857 0.726932 -1.39834 0
M  V30 1181 C 112.273 1.03354 -1.21615 0
M  V30 1182 C 112.473 2.01327 -0.08338 0
M  V30 1183 O 111.529 2.46158 0.56238 0
M  V30 1184 C 112.842 1.58811 -2.55342 0
M  V30 1185 C 114.39 1.70851 -2.62257 0
M  V30 1186 C 114.865 2.29716 -3.96225 0
M  V30 1187 N 116.356 2.37116 -3.97907 0
M  V30 1188 C 117.091 2.83619 -4.98345 0
M  V30 1189 N 116.587 3.29958 -6.09179 0
M  V30 1190 N 118.38 2.82901 -4.8572 0
M  V30 1191 H 110.531 0.0773069 -2.12259 0
M  V30 1192 H 112.794 0.0969102 -0.943034 0
M  V30 1193 H 112.5 0.942855 -3.38826 0
M  V30 1194 H 112.374 2.57502 -2.75632 0
M  V30 1195 H 114.761 2.34497 -1.79152 0
M  V30 1196 H 114.842 0.707913 -2.45809 0
M  V30 1197 H 114.486 1.66696 -4.79765 0
M  V30 1198 H 114.416 3.30469 -4.09997 0
M  V30 1199 H 116.907 2.04374 -3.17868 0
M  V30 1200 H 117.22 3.63976 -6.8172 0
M  V30 1201 H 115.565 3.27946 -6.12761 0
M  V30 1202 H 118.756 2.46027 -3.98231 0
M  V30 1203 H 118.929 3.18827 -5.6414 0
M  V30 1204 N 112.336 1.25143 0.95797 0
M  V30 1205 C 113.584 1.09476 1.69881 0
M  V30 1206 C 113.905 -0.365502 1.91544 0
M  V30 1207 O 113.175 -1.25985 1.50015 0
M  V30 1208 H 111.755 0.402128 0.629525 0
M  V30 1209 H 114.417 1.57214 1.15194 0
M  V30 1210 H 113.513 1.60046 2.6794 0
M  V30 1211 N 113.814 -1.1601 1.06675 0
M  V30 1212 C 115.062 -1.86264 0.784229 0
M  V30 1213 C 115.383 -1.82328 -0.691488 0
M  V30 1214 O 114.653 -1.25947 -1.50047 0
M  V30 1215 H 113.233 -0.689621 0.28711 0
M  V30 1216 H 115.895 -1.40664 1.34906 0
M  V30 1217 H 114.991 -2.91595 1.11259 0
M  V30 1218 N 115.292 -0.849877 -1.32721 0
M  V30 1219 C 116.541 -0.447175 -1.96681 0
M  V30 1220 C 116.854 1.00135 -1.68025 0
M  V30 1221 O 118.06 1.50926 -2.25685 0
M  V30 1222 C 116.516 -0.7487 -3.52026 0
M  V30 1223 C 116.124 -2.21264 -3.89546 0
M  V30 1224 C 117.868 -0.413487 -4.22481 0
M  V30 1225 C 115.775 -2.45763 -5.37917 0
M  V30 1226 H 114.705 -0.163486 -0.736063 0
M  V30 1227 H 117.356 -1.03999 -1.51183 0
M  V30 1228 H 115.738 -0.0853727 -3.95908 0
M  V30 1229 H 116.912 -2.91736 -3.56689 0
M  V30 1230 H 115.227 -2.5119 -3.32103 0
M  V30 1231 H 117.824 -0.574017 -5.3161 0
M  V30 1232 H 118.167 0.644492 -4.11281 0
M  V30 1233 H 118.7 -1.03251 -3.84167 0
M  V30 1234 H 115.439 -3.50168 -5.54132 0
M  V30 1235 H 114.959 -1.79864 -5.72197 0
M  V30 1236 H 116.638 -2.29471 -6.0494 0
M  V30 1237 N 116.77 1.45427 -0.607355 0
M  V30 1238 C 117.702 2.2871 0.149752 0
M  V30 1239 C 118.715 1.39937 0.831958 0
M  V30 1240 O 119.904 1.64313 0.697385 0
M  V30 1241 C 117.004 3.15673 1.23304 0
M  V30 1242 C 116.177 4.32722 0.637996 0
M  V30 1243 C 115.236 5.00895 1.61215 0
M  V30 1244 O 114.262 5.57697 1.13854 0
M  V30 1245 N 115.464 5.00159 2.94655 0
M  V30 1246 H 118.229 2.94328 -0.564882 0
M  V30 1247 H 115.79 1.55612 -0.446823 0
M  V30 1248 H 117.782 3.58144 1.88454 0
M  V30 1249 H 116.352 2.51965 1.8502 0
M  V30 1250 H 115.572 3.93734 -0.191572 0
M  V30 1251 H 116.86 5.08321 0.220665 0
M  V30 1252 H 116.258 4.553 3.35735 0
M  V30 1253 H 114.815 5.46495 3.55228 0
M  V30 1254 N 118.248 0.346503 1.53744 0
M  V30 1255 C 119.495 -0.249104 2.00962 0
M  V30 1256 C 119.823 -1.5032 1.23426 0
M  V30 1257 O 119.078 -1.93217 0.310761 0
M  V30 1258 C 119.377 -0.605809 3.52228 0
M  V30 1259 C 119.043 0.551747 4.47512 0
M  V30 1260 C 117.705 0.86941 4.73281 0
M  V30 1261 C 120.057 1.32818 5.03993 0
M  V30 1262 C 117.385 1.96582 5.52786 0
M  V30 1263 C 119.737 2.41486 5.84694 0
M  V30 1264 C 118.401 2.73808 6.08757 0
M  V30 1265 H 117.671 -0.0911538 0.735372 0
M  V30 1266 H 120.318 0.475027 1.85515 0
M  V30 1267 H 118.623 -1.4107 3.65522 0
M  V30 1268 H 120.32 -1.07858 3.86222 0
M  V30 1269 H 116.91 0.294102 4.2759 0
M  V30 1270 H 121.094 1.09602 4.84047 0
M  V30 1271 H 116.35 2.22045 5.69654 0
M  V30 1272 H 120.524 3.02078 6.27473 0
M  V30 1273 H 118.151 3.58892 6.7015 0
M  V30 1274 N 119.726 -1.57421 0.075193 0
M  V30 1275 C 120.689 -2.11791 -0.876203 0
M  V30 1276 C 121.689 -1.04268 -1.22412 0
M  V30 1277 O 122.879 -1.30242 -1.15684 0
M  V30 1278 C 120.011 -2.62207 -2.17854 0
M  V30 1279 H 121.204 -2.9716 -0.40444 0
M  V30 1280 H 118.757 -1.55333 -0.173557 0
M  V30 1281 H 119.492 -1.803 -2.6956 0
M  V30 1282 H 119.277 -3.40802 -1.93897 0
M  V30 1283 H 120.767 -3.04335 -2.85955 0
M  V30 1284 N 121.204 0.198386 -1.56346 0
M  V30 1285 C 122.481 0.944982 -1.71258 0
M  V30 1286 C 122.861 2.0151 -0.629048 0
M  V30 1287 O 122.209 2.25639 0.360473 0
M  V30 1288 C 122.419 1.5344 -3.1346 0
M  V30 1289 C 123.767 2.01778 -3.73591 0
M  V30 1290 O 124.791 1.63288 -3.16568 0
M  V30 1291 O 123.65 2.72594 -4.73661 0
M  V30 1292 H 120.744 0.442939 -0.69838 0
M  V30 1293 H 123.29 0.188342 -1.68652 0
M  V30 1294 H 122.062 0.762869 -3.83792 0
M  V30 1295 H 121.685 2.35596 -3.20282 0
M  V30 1296 N 122.682 1.50554 0.465978 0
M  V30 1297 C 123.91 1.65563 1.24083 0
M  V30 1298 C 124.325 0.341051 1.85694 0
M  V30 1299 O 123.682 -0.677543 1.69457 0
M  V30 1300 C 123.733 2.75051 2.34583 0
M  V30 1301 O 123.454 4.01413 1.75497 0
M  V30 1302 C 124.955 3.01078 3.25372 0
M  V30 1303 H 122.175 0.55638 0.375077 0
M  V30 1304 H 124.719 1.96807 0.555624 0
M  V30 1305 H 122.874 2.46486 2.9887 0
M  V30 1306 H 123.288 4.62002 2.48303 0
M  V30 1307 H 124.762 3.81339 3.99105 0
M  V30 1308 H 125.239 2.12349 3.84453 0
M  V30 1309 H 125.845 3.31194 2.66816 0
M  V30 1310 N 124.16 -0.719506 1.40217 0
M  V30 1311 C 125.576 -1.02707 1.22161 0
M  V30 1312 C 125.776 -2.0128 0.0940557 0
M  V30 1313 O 124.832 -2.46452 -0.549318 0
M  V30 1314 C 126.145 -1.57454 2.56181 0
M  V30 1315 C 127.693 -1.69458 2.63159 0
M  V30 1316 C 128.168 -2.27611 3.97438 0
M  V30 1317 N 129.659 -2.35002 3.99159 0
M  V30 1318 C 130.394 -2.80972 4.99842 0
M  V30 1319 N 129.89 -3.26723 6.10921 0
M  V30 1320 N 131.683 -2.80321 4.87213 0
M  V30 1321 H 123.834 -0.0660492 2.12297 0
M  V30 1322 H 126.097 -0.0919077 0.943534 0
M  V30 1323 H 125.803 -0.924873 3.39321 0
M  V30 1324 H 125.677 -2.56036 2.76993 0
M  V30 1325 H 128.064 -2.33543 1.80393 0
M  V30 1326 H 128.145 -0.694867 2.46181 0
M  V30 1327 H 127.789 -1.6415 4.80643 0
M  V30 1328 H 127.719 -3.2829 4.11744 0
M  V30 1329 H 130.21 -2.02685 3.18947 0
M  V30 1330 H 130.523 -3.60355 6.8364 0
M  V30 1331 H 128.868 -3.24692 6.14492 0
M  V30 1332 H 132.059 -2.43912 3.9953 0
M  V30 1333 H 132.232 -3.15831 5.65822 0
M  V30 1334 N 125.638 -1.25649 -0.95132 0
M  V30 1335 C 126.886 -1.10375 -1.69298 0
M  V30 1336 C 127.207 0.355339 -1.91735 0
M  V30 1337 O 126.477 1.25188 -1.50681 0
M  V30 1338 H 125.057 -0.405461 -0.627384 0
M  V30 1339 H 127.719 -1.57823 -1.14358 0
M  V30 1340 H 126.815 -1.61465 -2.67087 0
M  V30 1341 N 127.117 1.15442 -1.07289 0
M  V30 1342 C 128.347 1.89821 -0.815576 0
M  V30 1343 C 128.755 1.7823 0.634867 0
M  V30 1344 O 128.098 1.13152 1.44715 0
M  V30 1345 C 128.16 3.40817 -1.14385 0
M  V30 1346 C 127.824 3.76193 -2.59476 0
M  V30 1347 C 128.821 3.77269 -3.57721 0
M  V30 1348 C 126.506 4.0652 -2.95037 0
M  V30 1349 C 128.5 4.08176 -4.89562 0
M  V30 1350 C 126.187 4.37092 -4.27076 0
M  V30 1351 C 127.185 4.37902 -5.24148 0
M  V30 1352 O 126.873 4.67741 -6.53815 0
M  V30 1353 H 126.605 0.608465 -0.294528 0
M  V30 1354 H 129.159 1.472 -1.43252 0
M  V30 1355 H 127.389 3.83835 -0.469865 0
M  V30 1356 H 129.078 3.96485 -0.869179 0
M  V30 1357 H 129.844 3.5394 -3.3159 0
M  V30 1358 H 125.723 4.05049 -2.20128 0
M  V30 1359 H 129.267 4.08723 -5.65324 0
M  V30 1360 H 125.164 4.59889 -4.5296 0
M  V30 1361 H 125.932 4.85509 -6.58957 0
M  V30 1362 N 128.595 0.856903 1.32268 0
M  V30 1363 C 129.558 0.308171 2.27119 0
M  V30 1364 C 130.558 -0.533421 1.51695 0
M  V30 1365 O 131.748 -0.344607 1.70757 0
M  V30 1366 C 128.88 -0.563757 3.36206 0
M  V30 1367 H 130.073 1.14535 2.77167 0
M  V30 1368 H 127.626 0.631421 1.42978 0
M  V30 1369 H 128.361 -1.42266 2.91429 0
M  V30 1370 H 128.146 0.0386749 3.92081 0
M  V30 1371 H 129.636 -0.940386 4.06874 0
M  V30 1372 N 130.073 -1.45103 0.615059 0
M  V30 1373 C 131.303 -2.06254 0.119596 0
M  V30 1374 C 131.711 -1.4591 -1.20445 0
M  V30 1375 O 131.054 -0.570384 -1.7462 0
M  V30 1376 C 131.116 -3.59396 -0.0865591 0
M  V30 1377 C 130.78 -4.42116 1.15683 0
M  V30 1378 C 131.777 -4.7662 2.07676 0
M  V30 1379 C 129.462 -4.82749 1.38775 0
M  V30 1380 C 131.456 -5.50622 3.21082 0
M  V30 1381 C 129.143 -5.56504 2.52481 0
M  V30 1382 C 130.141 -5.90358 3.43463 0
M  V30 1383 O 129.829 -6.62615 4.55189 0
M  V30 1384 H 129.561 -0.672423 0.0694512 0
M  V30 1385 H 132.115 -1.87219 0.844885 0
M  V30 1386 H 130.345 -3.76859 -0.866823 0
M  V30 1387 H 132.034 -4.02365 -0.534555 0
M  V30 1388 H 132.8 -4.4578 1.91063 0
M  V30 1389 H 128.679 -4.55829 0.688545 0
M  V30 1390 H 132.223 -5.76965 3.92119 0
M  V30 1391 H 128.12 -5.86759 2.69043 0
M  V30 1392 H 128.888 -6.81071 4.53966 0
M  V30 1393 N 131.551 -0.354651 -1.53558 0
M  V30 1394 C 132.828 0.294281 -1.93374 0
M  V30 1395 C 133.208 1.67313 -1.28723 0
M  V30 1396 O 132.556 2.24179 -0.442247 0
M  V30 1397 C 132.766 0.355445 -3.47185 0
M  V30 1398 C 134.114 0.601007 -4.20325 0
M  V30 1399 O 135.138 0.437106 -3.53508 0
M  V30 1400 O 133.997 0.919322 -5.38712 0
M  V30 1401 H 131.091 0.174033 -0.808481 0
M  V30 1402 H 133.637 -0.406638 -1.64756 0
M  V30 1403 H 132.409 -0.611729 -3.86489 0
M  V30 1404 H 132.032 1.1027 -3.82003 0
M  V30 1405 N 133.029 1.57378 -0.0835403 0
M  V30 1406 C 134.445 1.57246 0.273109 0
M  V30 1407 C 134.645 1.09385 1.69225 0
M  V30 1408 O 133.701 0.765051 2.40631 0
M  V30 1409 C 135.014 3.00614 0.0720628 0
M  V30 1410 C 136.562 3.12684 0.1407 0
M  V30 1411 C 137.037 4.57989 -0.0322094 0
M  V30 1412 N 138.528 4.63194 0.0230085 0
M  V30 1413 C 139.263 5.73335 -0.0861941 0
M  V30 1414 N 138.759 6.9235 -0.24958 0
M  V30 1415 N 140.552 5.62093 -0.0282886 0
M  V30 1416 H 132.703 1.86801 -1.0109 0
M  V30 1417 H 134.966 0.861687 -0.395222 0
M  V30 1418 H 134.672 3.39786 -0.907662 0
M  V30 1419 H 134.546 3.68193 0.81936 0
M  V30 1420 H 136.933 2.73391 1.11092 0
M  V30 1421 H 137.014 2.47719 -0.637896 0
M  V30 1422 H 136.658 4.97973 -0.999247 0
M  V30 1423 H 136.588 5.21 0.765937 0
M  V30 1424 H 139.079 3.77613 0.14722 0
M  V30 1425 H 139.392 7.72117 -0.324733 0
M  V30 1426 H 137.737 6.94415 -0.285097 0
M  V30 1427 H 140.928 4.67997 0.0981408 0
M  V30 1428 H 141.101 6.47895 -0.116845 0
M  V30 1429 N 134.507 -0.190092 1.56449 0
M  V30 1430 C 135.923 -0.54113 1.50146 0
M  V30 1431 C 136.123 -1.85603 0.784465 0
M  V30 1432 O 135.179 -2.5024 0.337051 0
M  V30 1433 C 136.492 -0.591241 2.9483 0
M  V30 1434 C 138.04 -0.679732 3.0553 0
M  V30 1435 C 138.515 -0.760908 4.51635 0
M  V30 1436 N 140.006 -0.824302 4.55806 0
M  V30 1437 C 140.741 -0.907365 5.66175 0
M  V30 1438 N 140.237 -0.952422 6.86222 0
M  V30 1439 N 142.03 -0.94494 5.541 0
M  V30 1440 H 134.181 0.67235 2.01478 0
M  V30 1441 H 136.444 0.240127 0.917084 0
M  V30 1442 H 136.15 0.305905 3.50367 0
M  V30 1443 H 136.024 -1.44422 3.48457 0
M  V30 1444 H 138.411 -1.56731 2.50039 0
M  V30 1445 H 138.492 0.199549 2.5502 0
M  V30 1446 H 138.136 0.122336 5.07753 0
M  V30 1447 H 138.066 -1.65606 4.99882 0
M  V30 1448 H 140.557 -0.798526 3.69367 0
M  V30 1449 H 140.87 -1.01645 7.66086 0
M  V30 1450 H 139.215 -0.921014 6.8887 0
M  V30 1451 H 142.406 -0.906612 4.59236 0
M  V30 1452 H 142.579 -1.00622 6.4014 0
M  V30 1453 N 135.985 -1.50799 -0.457987 0
M  V30 1454 C 137.262 -1.52968 -1.21902 0
M  V30 1455 C 137.642 -0.281906 -2.09209 0
M  V30 1456 O 136.99 0.734076 -2.16388 0
M  V30 1457 C 137.2 -2.8326 -2.03875 0
M  V30 1458 C 138.548 -3.34425 -2.6162 0
M  V30 1459 O 139.572 -2.8467 -2.14106 0
M  V30 1460 O 138.431 -4.21188 -3.48228 0
M  V30 1461 H 135.525 -0.614129 -0.553873 0
M  V30 1462 H 138.071 -1.63098 -0.468739 0
M  V30 1463 H 136.843 -3.65543 -1.39621 0
M  V30 1464 H 136.466 -2.76195 -2.8601 0
M  V30 1465 N 137.463 0.71206 -1.40597 0
M  V30 1466 C 138.709 1.47416 -1.39271 0
M  V30 1467 C 139.042 1.942 0.00388791 0
M  V30 1468 O 138.317 1.68403 0.973179 0
M  V30 1469 C 138.6 2.69774 -2.38525 0
M  V30 1470 C 138.453 2.28861 -3.87224 0
M  V30 1471 C 139.772 3.71939 -2.35264 0
M  V30 1472 H 136.891 0.534713 -0.5072 0
M  V30 1473 H 139.533 0.812375 -1.71757 0
M  V30 1474 H 137.683 3.26238 -2.10953 0
M  V30 1475 H 139.355 1.77852 -4.25636 0
M  V30 1476 H 137.598 1.60824 -4.02887 0
M  V30 1477 H 138.269 3.16584 -4.52193 0
M  V30 1478 H 140.745 3.25113 -2.59694 0
M  V30 1479 H 139.621 4.55186 -3.06753 0
M  V30 1480 H 139.882 4.20484 -1.36549 0
M  V30 1481 N 138.941 1.26152 0.944643 0
M  V30 1482 C 140.169 1.14259 1.72489 0
M  V30 1483 C 140.584 -0.302555 1.8636 0
M  V30 1484 O 139.941 -1.20741 1.36849 0
M  V30 1485 C 139.992 1.80266 3.13347 0
M  V30 1486 O 139.713 3.19133 3.00143 0
M  V30 1487 C 141.214 1.74283 4.07603 0
M  V30 1488 H 138.434 0.398051 0.540181 0
M  V30 1489 H 140.978 1.66706 1.18446 0
M  V30 1490 H 139.133 1.31766 3.64303 0
M  V30 1491 H 139.547 3.51744 3.89071 0
M  V30 1492 H 141.021 2.25111 5.04013 0
M  V30 1493 H 141.498 0.708631 4.33446 0
M  V30 1494 H 142.104 2.22319 3.62567 0
M  V30 1495 N 140.419 -1.14872 1.07899 0
M  V30 1496 C 141.667 -1.85422 0.803941 0
M  V30 1497 C 141.988 -1.83051 -0.67211 0
M  V30 1498 O 141.258 -1.27532 -1.48703 0
M  V30 1499 H 139.838 -0.686537 0.294408 0
M  V30 1500 H 142.5 -1.39226 1.3639 0
M  V30 1501 H 141.596 -2.90399 1.14346 0
M  V30 1502 N 141.898 -0.863906 -1.31812 0
M  V30 1503 C 143.314 -0.555004 -1.49639 0
M  V30 1504 C 143.514 0.912266 -1.79666 0
M  V30 1505 O 142.57 1.69479 -1.87171 0
M  V30 1506 C 143.883 -1.44998 -2.63431 0
M  V30 1507 C 145.431 -1.45138 -2.77316 0
M  V30 1508 C 145.906 -2.33179 -3.94197 0
M  V30 1509 N 147.397 -2.31025 -4.01474 0
M  V30 1510 C 148.132 -2.95871 -4.9117 0
M  V30 1511 N 147.628 -3.69863 -5.8581 0
M  V30 1512 N 149.421 -2.85211 -4.84367 0
M  V30 1513 H 141.572 -1.81339 -1.10589 0
M  V30 1514 H 143.835 -0.77505 -0.545895 0
M  V30 1515 H 143.541 -2.49377 -2.48 0
M  V30 1516 H 143.415 -1.14409 -3.59431 0
M  V30 1517 H 145.802 -0.415201 -2.92164 0
M  V30 1518 H 145.883 -1.79747 -1.82001 0
M  V30 1519 H 145.527 -3.3687 -3.80107 0
M  V30 1520 H 145.457 -1.95897 -4.88807 0
M  V30 1521 H 147.948 -1.77238 -3.33759 0
M  V30 1522 H 148.261 -4.16486 -6.50968 0
M  V30 1523 H 146.606 -3.73971 -5.85808 0
M  V30 1524 H 149.797 -2.26948 -4.09405 0
M  V30 1525 H 149.97 -3.36027 -5.54066 0
M  V30 1526 N 143.376 1.44774 -0.622745 0
M  V30 1527 C 144.308 2.28856 0.125485 0
M  V30 1528 C 145.321 1.40811 0.817069 0
M  V30 1529 O 146.51 1.65044 0.679918 0
M  V30 1530 C 143.61 3.16963 1.19949 0
M  V30 1531 C 142.783 4.33374 0.592064 0
M  V30 1532 C 141.842 5.02577 1.55893 0
M  V30 1533 O 140.868 5.58873 1.07933 0
M  V30 1534 N 142.07 5.03256 2.89334 0
M  V30 1535 H 144.835 2.93713 -0.596068 0
M  V30 1536 H 142.396 1.55129 -0.463303 0
M  V30 1537 H 144.388 3.60123 1.84644 0
M  V30 1538 H 142.958 2.53913 1.82337 0
M  V30 1539 H 142.178 3.93509 -0.233322 0
M  V30 1540 H 143.466 5.08527 0.166738 0
M  V30 1541 H 142.864 4.58836 3.30887 0
M  V30 1542 H 141.421 5.50232 3.49412 0
M  V30 1543 N 144.854 0.36279 1.53368 0
M  V30 1544 C 145.784 -0.476976 2.28576 0
M  V30 1545 C 146.765 -1.08631 1.30894 0
M  V30 1546 O 147.95 -1.10409 1.59761 0
M  V30 1547 C 145.08 -1.61828 3.07293 0
M  V30 1548 C 144.034 -1.13633 4.1264 0
M  V30 1549 C 143.36 -2.36766 4.79423 0
M  V30 1550 C 144.66 -0.223061 5.21823 0
M  V30 1551 H 146.354 0.150474 2.99022 0
M  V30 1552 H 143.9 0.0738103 1.43811 0
M  V30 1553 H 145.853 -2.21237 3.58653 0
M  V30 1554 H 144.577 -2.27292 2.34533 0
M  V30 1555 H 143.236 -0.564945 3.62221 0
M  V30 1556 H 142.884 -3.0068 4.03238 0
M  V30 1557 H 142.584 -2.05192 5.50609 0
M  V30 1558 H 144.108 -2.96865 5.33576 0
M  V30 1559 H 145.522 -0.724545 5.68703 0
M  V30 1560 H 143.919 0.001678 6.001 0
M  V30 1561 H 144.989 0.735553 4.79289 0
M  V30 1562 N 146.332 -1.57332 0.0918853 0
M  V30 1563 C 147.295 -2.12708 -0.85369 0
M  V30 1564 C 148.295 -1.05561 -1.213 0
M  V30 1565 O 149.485 -1.31461 -1.14296 0
M  V30 1566 C 146.617 -2.64503 -2.15061 0
M  V30 1567 H 147.81 -2.97573 -0.3729 0
M  V30 1568 H 145.363 -1.55509 -0.157072 0
M  V30 1569 H 146.098 -1.83149 -2.67632 0
M  V30 1570 H 145.883 -3.4284 -1.90272 0
M  V30 1571 H 147.373 -3.07351 -2.82711 0
M  V30 1572 N 147.81 0.181792 -1.56548 0
M  V30 1573 C 148.758 1.24461 -1.965 0
M  V30 1574 C 149.752 1.464 -0.852261 0
M  V30 1575 O 150.958 1.47103 -1.03733 0
M  V30 1576 H 147.333 0.418138 -0.625031 0
M  V30 1577 H 149.304 0.880714 -2.85107 0
M  V30 1578 C 148.053 2.57891 -2.33212 0
M  V30 1579 H 147.376 2.41829 -3.18369 0
M  V30 1580 H 148.816 3.3097 -2.65019 0
M  V30 1581 C 147.275 3.15871 -1.17163 0
M  V30 1582 O 147.805 3.9913 -0.453708 0
M  V30 1583 N 146.011 2.74808 -0.944936 0
M  V30 1584 H 145.558 2.07205 -1.53049 0
M  V30 1585 H 145.516 3.13939 -0.170286 0
M  V30 1586 N 149.288 1.51039 0.449983 0
M  V30 1587 C 150.534 1.63322 1.20223 0
M  V30 1588 C 150.867 0.34241 1.91158 0
M  V30 1589 O 150.142 -0.657344 1.83055 0
M  V30 1590 C 150.425 2.82801 2.22925 0
M  V30 1591 C 150.278 4.21823 1.56157 0
M  V30 1592 C 151.597 2.97807 3.24035 0
M  V30 1593 H 148.716 0.594407 0.435718 0
M  V30 1594 H 151.358 1.83489 0.493136 0
M  V30 1595 H 149.508 2.65738 2.834 0
M  V30 1596 H 151.18 4.50526 0.991162 0
M  V30 1597 H 149.423 4.25105 0.864172 0
M  V30 1598 H 150.094 5.01391 2.30891 0
M  V30 1599 H 152.57 3.13497 2.73603 0
M  V30 1600 H 151.446 3.82992 3.93202 0
M  V30 1601 H 151.707 2.09328 3.89402 0
M  V30 1602 N 150.766 -0.704594 1.40972 0
M  V30 1603 C 151.996 -1.49138 1.42974 0
M  V30 1604 C 152.404 -1.89175 0.0308406 0
M  V30 1605 O 151.747 -1.56734 -0.958138 0
M  V30 1606 C 151.809 -2.79016 2.26694 0
M  V30 1607 C 151.473 -2.61236 3.74973 0
M  V30 1608 C 152.47 -2.27773 4.67349 0
M  V30 1609 C 150.155 -2.77158 4.18914 0
M  V30 1610 C 152.149 -2.10457 6.01653 0
M  V30 1611 C 149.836 -2.59459 5.53285 0
M  V30 1612 C 150.834 -2.26158 6.4447 0
M  V30 1613 O 150.522 -2.08605 7.76363 0
M  V30 1614 H 150.254 -0.466443 0.489292 0
M  V30 1615 H 152.808 -0.8758 1.85793 0
M  V30 1616 H 151.038 -3.42947 1.78673 0
M  V30 1617 H 152.727 -3.40782 2.20504 0
M  V30 1618 H 153.493 -2.15095 4.34694 0
M  V30 1619 H 149.372 -3.02064 3.48251 0
M  V30 1620 H 152.916 -1.84387 6.72791 0
M  V30 1621 H 148.813 -2.71725 5.85522 0
M  V30 1622 H 149.581 -2.23439 7.87412 0
M  V30 1623 N 152.244 -1.26651 -0.937939 0
M  V30 1624 C 153.207 -1.08546 -2.01867 0
M  V30 1625 C 154.207 -0.0327327 -1.60767 0
M  V30 1626 O 155.397 -0.276427 -1.71993 0
M  V30 1627 C 152.529 -0.651711 -3.34613 0
M  V30 1628 H 153.722 -2.04502 -2.1936 0
M  V30 1629 H 151.275 -1.09294 -1.11734 0
M  V30 1630 H 152.01 0.309696 -3.22818 0
M  V30 1631 H 151.795 -1.41189 -3.65798 0
M  V30 1632 H 153.285 -0.546973 -4.14002 0
M  V30 1633 N 153.722 1.14298 -1.08507 0
M  V30 1634 C 154.654 2.1907 -0.673859 0
M  V30 1635 C 155.667 1.60381 0.279577 0
M  V30 1636 O 156.856 1.78374 0.0670754 0
M  V30 1637 C 153.956 3.38888 0.0290979 0
M  V30 1638 C 153.129 4.27103 -0.943494 0
M  V30 1639 C 152.188 5.25477 -0.275676 0
M  V30 1640 O 151.214 5.61709 -0.920401 0
M  V30 1641 N 152.416 5.7227 0.974013 0
M  V30 1642 H 155.181 2.54965 -1.57521 0
M  V30 1643 H 152.742 1.29528 -0.971287 0
M  V30 1644 H 154.734 4.01761 0.48683 0
M  V30 1645 H 153.304 3.01309 0.832555 0
M  V30 1646 H 152.524 3.61149 -1.58004 0
M  V30 1647 H 153.812 4.82905 -1.60251 0
M  V30 1648 H 153.21 5.44965 1.51755 0
M  V30 1649 H 151.767 6.37127 1.37522 0
M  V30 1650 N 155.201 0.870884 1.31352 0
M  V30 1651 C 156.429 0.49677 2.00848 0
M  V30 1652 C 156.844 -0.910998 1.65367 0
M  V30 1653 O 156.201 -1.59696 0.883374 0
M  V30 1654 C 156.252 0.645308 3.55694 0
M  V30 1655 O 155.973 1.99764 3.89905 0
M  V30 1656 C 157.474 0.272326 4.42463 0
M  V30 1657 H 154.694 0.193462 0.642506 0
M  V30 1658 H 157.238 1.1723 1.67563 0
M  V30 1659 H 155.393 0.0173176 3.87396 0
M  V30 1660 H 155.807 2.00607 4.84621 0
M  V30 1661 H 157.281 0.427208 5.50344 0
M  V30 1662 H 157.758 -0.788587 4.32062 0
M  V30 1663 H 158.364 0.876054 4.1618 0
M  V30 1664 N 156.679 -1.44442 0.630414 0
M  V30 1665 C 157.609 -2.33418 -0.0618083 0
M  V30 1666 C 158.59 -1.48165 -0.835541 0
M  V30 1667 O 159.775 -1.76886 -0.801564 0
M  V30 1668 C 156.905 -3.31222 -1.04449 0
M  V30 1669 C 155.859 -4.26288 -0.382436 0
M  V30 1670 C 155.185 -5.13954 -1.47497 0
M  V30 1671 C 156.485 -5.1744 0.710865 0
M  V30 1672 H 158.179 -2.91548 0.681184 0
M  V30 1673 H 155.725 -1.40191 0.329026 0
M  V30 1674 H 157.678 -3.92351 -1.53748 0
M  V30 1675 H 156.402 -2.71299 -1.81836 0
M  V30 1676 H 155.061 -3.6649 0.0899054 0
M  V30 1677 H 154.709 -4.50385 -2.2397 0
M  V30 1678 H 154.409 -5.7837 -1.03737 0
M  V30 1679 H 155.933 -5.77955 -1.96979 0
M  V30 1680 H 157.347 -5.72509 0.300996 0
M  V30 1681 H 155.744 -5.90455 1.07156 0
M  V30 1682 H 156.814 -4.58496 1.57829 0
M  V30 1683 N 158.157 -0.370918 -1.53173 0
M  V30 1684 C 159.405 0.216673 -2.00935 0
M  V30 1685 C 159.726 1.48845 -1.25977 0
M  V30 1686 O 158.996 1.92286 -0.374551 0
M  V30 1687 H 157.576 0.0830565 -0.742368 0
M  V30 1688 H 160.238 -0.49838 -1.8842 0
M  V30 1689 H 159.334 0.439893 -3.08984 0
M  V30 1690 N 159.635 1.57281 -0.100228 0
M  V30 1691 C 160.863 1.98879 0.570509 0
M  V30 1692 C 161.278 0.979476 1.61405 0
M  V30 1693 O 160.635 -0.0302288 1.82475 0
M  V30 1694 C 160.686 3.4052 1.2136 0
M  V30 1695 O 160.407 4.37588 0.211786 0
M  V30 1696 C 161.908 3.97149 1.96945 0
M  V30 1697 H 159.128 0.653428 0.152555 0
M  V30 1698 H 161.672 2.03697 -0.18103 0
M  V30 1699 H 159.827 3.367 1.91603 0
M  V30 1700 H 160.241 5.20118 0.676607 0
M  V30 1701 H 161.715 4.98393 2.37294 0
M  V30 1702 H 162.192 3.3525 2.83733 0
M  V30 1703 H 162.798 4.04458 1.31506 0
M  V30 1704 N 161.113 -0.173488 1.56642 0
M  V30 1705 C 162.362 -0.888758 1.81063 0
M  V30 1706 C 162.675 -1.83506 0.67712 0
M  V30 1707 O 163.881 -2.59254 0.806206 0
M  V30 1708 C 162.337 -1.63091 3.20826 0
M  V30 1709 C 161.945 -0.728357 4.4204 0
M  V30 1710 C 163.689 -2.33454 3.54541 0
M  V30 1711 C 161.596 -1.47062 5.72823 0
M  V30 1712 H 160.526 -0.335618 0.675186 0
M  V30 1713 H 163.177 -0.141712 1.82952 0
M  V30 1714 H 161.559 -2.42263 3.13248 0
M  V30 1715 H 162.733 0.0262449 4.60793 0
M  V30 1716 H 161.048 -0.134492 4.16183 0
M  V30 1717 H 163.645 -2.89578 4.49498 0
M  V30 1718 H 163.988 -3.08687 2.79317 0
M  V30 1719 H 164.521 -1.61227 3.63663 0
M  V30 1720 H 161.26 -0.760658 6.51072 0
M  V30 1721 H 160.78 -2.1986 5.58052 0
M  V30 1722 H 162.459 -2.01868 6.14702 0
M  V30 1723 N 162.591 -1.51276 -0.441967 0
M  V30 1724 C 163.838 -1.63715 -1.19179 0
M  V30 1725 C 164.166 -0.351175 -1.91303 0
M  V30 1726 O 163.421 0.664524 -1.84072 0
M  V30 1727 C 163.72 -2.78746 -2.23686 0
M  V30 1728 C 163.386 -4.18189 -1.68607 0
M  V30 1729 C 162.048 -4.56125 -1.53308 0
M  V30 1730 C 164.4 -5.05222 -1.28062 0
M  V30 1731 C 161.728 -5.78804 -0.959317 0
M  V30 1732 C 164.08 -6.28476 -0.721162 0
M  V30 1733 C 162.744 -6.65188 -0.55504 0
M  V30 1734 H 162.014 -0.599076 -0.436106 0
M  V30 1735 H 164.661 -1.85296 -0.48351 0
M  V30 1736 H 162.966 -2.51369 -3.00535 0
M  V30 1737 H 164.663 -2.8557 -2.81515 0
M  V30 1738 H 161.253 -3.88277 -1.8149 0
M  V30 1739 H 165.437 -4.76524 -1.38704 0
M  V30 1740 H 160.693 -6.05899 -0.81833 0
M  V30 1741 H 164.867 -6.95259 -0.398458 0
M  V30 1742 H 162.494 -7.60123 -0.108311 0
M  V30 1743 N 164.069 0.697108 -1.41344 0
M  V30 1744 C 165.297 1.48593 -1.43972 0
M  V30 1745 C 165.712 1.88747 -0.0445612 0
M  V30 1746 O 165.069 1.56682 0.935785 0
M  V30 1747 C 165.12 2.74946 -2.34706 0
M  V30 1748 O 164.841 2.36484 -3.68791 0
M  V30 1749 C 166.342 3.687 -2.46121 0
M  V30 1750 H 163.562 0.457964 -0.490418 0
M  V30 1751 H 166.106 0.858429 -1.8561 0
M  V30 1752 H 164.261 3.33937 -1.9638 0
M  V30 1753 H 164.675 3.17918 -4.17167 0
M  V30 1754 H 166.149 4.54145 -3.13777 0
M  V30 1755 H 166.626 4.13081 -1.49199 0
M  V30 1756 H 167.232 3.15613 -2.85076 0
M  V30 1757 N 165.547 1.27147 0.931209 0
M  V30 1758 C 166.457 1.11372 2.06478 0
M  V30 1759 C 167.473 0.044645 1.73943 0
M  V30 1760 O 168.649 0.250417 1.99837 0
M  V30 1761 C 165.714 0.758838 3.38294 0
M  V30 1762 C 164.775 1.90841 3.84549 0
M  V30 1763 C 164.008 1.57036 5.10074 0
M  V30 1764 O 164.231 0.476645 5.68405 0
M  V30 1765 O 163.165 2.40839 5.51616 0
M  V30 1766 H 166.991 2.06493 2.22698 0
M  V30 1767 H 164.576 1.06301 1.04978 0
M  V30 1768 H 166.458 0.574098 4.17471 0
M  V30 1769 H 165.133 -0.162879 3.2329 0
M  V30 1770 H 164.04 2.14819 3.06274 0
M  V30 1771 H 165.373 2.81021 4.04089 0
M  V30 1772 N 167.025 -1.13721 1.09112 0
M  V30 1773 C 167.957 -2.1871 0.685467 0
M  V30 1774 C 168.97 -1.60527 -0.271068 0
M  V30 1775 O 170.159 -1.78407 -0.0576148 0
M  V30 1776 C 167.259 -3.38898 -0.0111255 0
M  V30 1777 C 166.432 -4.26597 0.966131 0
M  V30 1778 C 165.491 -5.25324 0.303539 0
M  V30 1779 O 164.517 -5.61213 0.950177 0
M  V30 1780 N 165.719 -5.72779 -0.943651 0
M  V30 1781 H 168.484 -2.54126 1.58871 0
M  V30 1782 H 166.045 -1.29012 0.978143 0
M  V30 1783 H 168.037 -4.02014 -0.465517 0
M  V30 1784 H 166.607 -3.01747 -0.816565 0
M  V30 1785 H 165.827 -3.60306 1.59917 0
M  V30 1786 H 167.115 -4.82048 1.6281 0
M  V30 1787 H 166.513 -5.45762 -1.48862 0
M  V30 1788 H 165.07 -6.37847 -1.34142 0
M  V30 1789 N 168.503 -0.877838 -1.30888 0
M  V30 1790 C 169.466 -0.344265 -2.266 0
M  V30 1791 C 170.466 0.50922 -1.52524 0
M  V30 1792 O 171.656 0.317398 -1.71284 0
M  V30 1793 C 168.788 0.510198 -3.37061 0
M  V30 1794 H 169.981 -1.1893 -2.7531 0
M  V30 1795 H 167.534 -0.654088 -1.41956 0
M  V30 1796 H 168.269 1.37612 -2.93655 0
M  V30 1797 H 168.054 -0.101047 -3.9197 0
M  V30 1798 H 169.544 0.875537 -4.08319 0
M  V30 1799 N 169.982 1.44106 -0.638065 0
M  V30 1800 C 170.929 2.30715 0.062701 0
M  V30 1801 C 171.899 1.43882 0.829883 0
M  V30 1802 O 173.084 1.72775 0.809532 0
M  V30 1803 C 170.224 3.29258 1.03358 0
M  V30 1804 C 169.337 4.31192 0.26409 0
M  V30 1805 C 168.472 5.16825 1.22741 0
M  V30 1806 C 167.511 6.10462 0.447475 0
M  V30 1807 N 166.648 6.8877 1.36161 0
M  V30 1808 H 171.488 2.90096 -0.681781 0
M  V30 1809 H 169.025 1.42925 -0.347988 0
M  V30 1810 H 170.983 3.84886 1.60992 0
M  V30 1811 H 169.613 2.71562 1.74511 0
M  V30 1812 H 168.665 3.77981 -0.428295 0
M  V30 1813 H 169.977 4.97619 -0.343052 0
M  V30 1814 H 169.131 5.77004 1.87487 0
M  V30 1815 H 167.87 4.50488 1.86847 0
M  V30 1816 H 166.875 5.49386 -0.213433 0
M  V30 1817 H 168.1 6.78837 -0.188968 0
M  V30 1818 H 166.046 6.25096 1.98975 0
M  V30 1819 H 165.963 7.51663 0.808656 0
M  V30 1820 H 167.231 7.53467 1.99769 0
M  V30 1821 N 171.46 0.379036 1.52974 0
M  V30 1822 C 172.871 -0.0972525 1.86447 0
M  V30 1823 C 173.222 -1.47027 1.29914 0
M  V30 1824 O 172.347 -2.07135 0.626433 0
M  V30 1825 C 172.942 -0.183248 3.38304 0
M  V30 1826 C 171.501 -0.603812 3.71525 0
M  V30 1827 C 170.648 0.240632 2.76254 0
M  V30 1828 H 173.599 0.597316 1.4703 0
M  V30 1829 H 173.62 -1.00432 3.67006 0
M  V30 1830 H 173.132 0.816191 3.79421 0
M  V30 1831 H 171.233 -1.61099 3.35973 0
M  V30 1832 H 171.346 -0.369086 4.77676 0
M  V30 1833 H 169.71 -0.292548 2.53014 0
M  V30 1834 H 170.493 1.23786 3.20206 0
M  V30 1835 N 172.938 -1.57226 0.108567 0
M  V30 1836 C 174.168 -1.9889 -0.559142 0
M  V30 1837 C 174.576 -0.986889 -1.61422 0
M  V30 1838 O 173.919 0.0298705 -1.83676 0
M  V30 1839 C 173.981 -3.36952 -1.25315 0
M  V30 1840 C 173.645 -4.55679 -0.347248 0
M  V30 1841 C 174.642 -5.18281 0.409996 0
M  V30 1842 C 172.327 -5.0162 -0.261367 0
M  V30 1843 C 174.321 -6.25203 1.24096 0
M  V30 1844 C 172.008 -6.08405 0.573238 0
M  V30 1845 C 173.006 -6.70063 1.32304 0
M  V30 1846 O 172.694 -7.74788 2.14381 0
M  V30 1847 H 172.426 -0.658343 -0.153492 0
M  V30 1848 H 174.98 -2.04532 0.188584 0
M  V30 1849 H 173.21 -3.28032 -2.04773 0
M  V30 1850 H 174.899 -3.62974 -1.81673 0
M  V30 1851 H 175.665 -4.8371 0.353457 0
M  V30 1852 H 171.544 -4.53381 -0.834656 0
M  V30 1853 H 175.088 -6.73259 1.82669 0
M  V30 1854 H 170.985 -6.42406 0.631208 0
M  V30 1855 H 171.753 -7.91837 2.07209 0
M  V30 1856 N 174.416 0.165178 -1.56732 0
M  V30 1857 C 175.326 1.22423 -2.00125 0
M  V30 1858 C 176.342 1.48084 -0.913619 0
M  V30 1859 O 177.518 1.60112 -1.22172 0
M  V30 1860 C 174.583 2.54197 -2.35764 0
M  V30 1861 C 173.644 2.36343 -3.58386 0
M  V30 1862 C 172.877 3.61834 -3.92316 0
M  V30 1863 O 173.1 4.67267 -3.27135 0
M  V30 1864 O 172.034 3.55579 -4.85641 0
M  V30 1865 H 175.86 0.885886 -2.90492 0
M  V30 1866 H 173.445 0.372518 -1.44681 0
M  V30 1867 H 175.327 3.3192 -2.59629 0
M  V30 1868 H 174.002 2.87598 -1.48557 0
M  V30 1869 H 172.909 1.56632 -3.39731 0
M  V30 1870 H 174.242 2.07865 -4.46154 0
M  V30 1871 N 175.894 1.51508 0.433938 0
M  V30 1872 C 177.14 1.64588 1.18484 0
M  V30 1873 C 177.473 0.362666 1.90784 0
M  V30 1874 O 176.748 -0.637892 1.83742 0
M  V30 1875 C 177.031 2.85149 2.19913 0
M  V30 1876 C 176.884 4.23456 1.51674 0
M  V30 1877 C 178.203 3.01227 3.20858 0
M  V30 1878 H 175.322 0.598994 0.429389 0
M  V30 1879 H 177.964 1.84002 0.473647 0
M  V30 1880 H 176.114 2.68729 2.80566 0
M  V30 1881 H 177.786 4.51552 0.943322 0
M  V30 1882 H 176.029 4.25998 0.819035 0
M  V30 1883 H 176.7 5.03812 2.2556 0
M  V30 1884 H 179.176 3.16382 2.70263 0
M  V30 1885 H 178.052 3.87141 3.89118 0
M  V30 1886 H 178.313 2.13447 3.8716 0
M  V30 1887 N 177.372 -0.689602 1.41712 0
M  V30 1888 C 178.282 -1.83314 1.46401 0
M  V30 1889 C 179.298 -1.7036 0.35405 0
M  V30 1890 O 180.474 -1.92171 0.602692 0
M  V30 1891 C 177.539 -3.19344 1.34982 0
M  V30 1892 C 176.6 -3.44363 2.56344 0
M  V30 1893 C 175.833 -4.73904 2.45461 0
M  V30 1894 O 176.056 -5.508 1.48241 0
M  V30 1895 O 174.99 -4.99839 3.35328 0
M  V30 1896 H 178.816 -1.82314 2.42889 0
M  V30 1897 H 176.401 -0.843438 1.23315 0
M  V30 1898 H 178.283 -4.00547 1.3092 0
M  V30 1899 H 176.958 -3.21014 0.41612 0
M  V30 1900 H 175.865 -2.63067 2.65982 0
M  V30 1901 H 177.198 -3.47512 3.48563 0
M  V30 1902 N 178.85 -1.27639 -0.924453 0
M  V30 1903 C 179.78 -1.13166 -2.04244 0
M  V30 1904 C 180.761 -0.032256 -1.70069 0
M  V30 1905 O 181.946 -0.207328 -1.9309 0
M  V30 1906 C 179.076 -0.781496 -3.38393 0
M  V30 1907 C 178.03 -1.83449 -3.86692 0
M  V30 1908 C 177.356 -1.33822 -5.17683 0
M  V30 1909 C 178.656 -3.23917 -4.09726 0
M  V30 1910 H 180.35 -2.06689 -2.1661 0
M  V30 1911 H 177.896 -0.995136 -1.04082 0
M  V30 1912 H 179.849 -0.667057 -4.16087 0
M  V30 1913 H 178.573 0.189439 -3.2605 0
M  V30 1914 H 177.232 -1.93789 -3.11193 0
M  V30 1915 H 176.88 -0.35665 -5.01734 0
M  V30 1916 H 176.58 -2.04224 -5.50968 0
M  V30 1917 H 178.104 -1.23679 -5.97943 0
M  V30 1918 H 179.518 -3.16559 -4.77978 0
M  V30 1919 H 177.915 -3.92059 -4.54324 0
M  V30 1920 H 178.985 -3.68729 -3.14908 0
M  V30 1921 N 180.328 1.1314 -1.09713 0
M  V30 1922 C 181.568 1.8613 -0.844683 0
M  V30 1923 C 181.932 1.81765 0.618491 0
M  V30 1924 O 183.133 2.50024 0.98699 0
M  V30 1925 C 181.404 3.30151 -1.36877 0
M  V30 1926 S 182.963 4.206 -1.25064 0
M  V30 1927 H 179.781 0.642056 -0.305427 0
M  V30 1928 H 182.383 1.36343 -1.4011 0
M  V30 1929 H 181.087 3.30883 -2.42786 0
M  V30 1930 H 180.618 3.85 -0.808614 0
M  V30 1931 H 182.633 4.95783 -0.203486 0
M  V30 1932 N 181.806 0.884767 1.30421 0
M  V30 1933 C 183.052 0.503851 1.96441 0
M  V30 1934 C 183.385 -0.944518 1.69684 0
M  V30 1935 O 182.66 -1.66737 1.00145 0
M  V30 1936 C 182.943 0.779085 3.51571 0
M  V30 1937 C 182.796 2.27807 3.87846 0
M  V30 1938 C 184.115 0.255452 4.39358 0
M  V30 1939 H 181.234 0.184533 0.713524 0
M  V30 1940 H 183.876 1.10872 1.54297 0
M  V30 1941 H 182.026 0.264274 3.876 0
M  V30 1942 H 183.698 2.86127 3.61841 0
M  V30 1943 H 181.941 2.74479 3.35922 0
M  V30 1944 H 182.612 2.42125 4.96064 0
M  V30 1945 H 185.088 0.696079 4.10236 0
M  V30 1946 H 183.964 0.477361 5.4682 0
M  V30 1947 H 184.225 -0.843293 4.33983 0
M  V30 1948 N 183.284 -1.43765 0.645699 0
M  V30 1949 C 184.247 -2.29163 -0.0409488 0
M  V30 1950 C 185.247 -1.41813 -0.757996 0
M  V30 1951 O 186.437 -1.63527 -0.600382 0
M  V30 1952 C 183.569 -3.23716 -1.06869 0
M  V30 1953 H 184.762 -2.91366 0.710345 0
M  V30 1954 H 182.315 -1.5092 0.406547 0
M  V30 1955 H 183.05 -2.66393 -1.84947 0
M  V30 1956 H 182.835 -3.88105 -0.558277 0
M  V30 1957 H 184.325 -3.87831 -1.54845 0
M  V30 1958 N 184.763 -0.387143 -1.52771 0
M  V30 1959 C 185.673 0.456442 -2.30117 0
M  V30 1960 C 186.689 1.07342 -1.36944 0
M  V30 1961 O 187.865 1.07971 -1.70013 0
M  V30 1962 C 184.93 1.56957 -3.09136 0
M  V30 1963 C 183.991 0.977916 -4.18014 0
M  V30 1964 C 183.224 2.038 -4.93256 0
M  V30 1965 O 183.447 3.25271 -4.68567 0
M  V30 1966 O 182.381 1.6565 -5.78657 0
M  V30 1967 H 186.207 -0.17359 -3.03203 0
M  V30 1968 H 183.792 -0.150919 -1.48636 0
M  V30 1969 H 185.674 2.21628 -3.58412 0
M  V30 1970 H 184.349 2.18461 -2.38865 0
M  V30 1971 H 183.256 0.294525 -3.72939 0
M  V30 1972 H 184.589 0.407128 -4.90513 0
M  V30 1973 N 186.241 1.57166 -0.116904 0
M  V30 1974 C 187.487 1.95412 0.542405 0
M  V30 1975 C 187.82 1.00019 1.66463 0
M  V30 1976 O 187.095 0.0370346 1.94465 0
M  V30 1977 C 187.378 3.43615 1.07708 0
M  V30 1978 C 187.231 4.49781 -0.0415868 0
M  V30 1979 C 188.55 3.93616 1.96861 0
M  V30 1980 H 185.669 0.710543 0.195696 0
M  V30 1981 H 188.311 1.89027 -0.192038 0
M  V30 1982 H 186.461 3.49187 1.70296 0
M  V30 1983 H 188.133 4.56308 -0.676793 0
M  V30 1984 H 186.376 4.28033 -0.705019 0
M  V30 1985 H 187.047 5.50733 0.373717 0
M  V30 1986 H 189.523 3.90335 1.44146 0
M  V30 1987 H 188.399 4.97838 2.3119 0
M  V30 1988 H 188.66 3.34188 2.89432 0
M  V30 1989 N 187.719 -0.156864 1.56817 0
M  V30 1990 C 188.682 -1.17781 1.96622 0
M  V30 1991 C 189.682 -1.36401 0.851555 0
M  V30 1992 O 190.872 -1.33561 1.11836 0
M  V30 1993 C 188.004 -2.54008 2.27361 0
M  V30 1994 H 189.197 -0.836564 2.87996 0
M  V30 1995 H 186.75 -0.39985 1.51099 0
M  V30 1996 H 187.485 -2.9312 1.38748 0
M  V30 1997 H 187.27 -2.41856 3.08623 0
M  V30 1998 H 188.76 -3.27558 2.59029 0
M  V30 1999 N 189.197 -1.51736 -0.425897 0
M  V30 2000 C 190.147 -1.70258 -1.51645 0
M  V30 2001 C 191.131 -0.556488 -1.5097 0
M  V30 2002 O 192.323 -0.812879 -1.5723 0
M  V30 2003 C 189.452 -1.84143 -2.89735 0
M  V30 2004 C 188.538 -3.04572 -2.95122 0
M  V30 2005 N 188.929 -4.2756 -2.70233 0
M  V30 2006 C 187.227 -3.04061 -3.26286 0
M  V30 2007 C 187.928 -5.08908 -2.81757 0
M  V30 2008 N 186.904 -4.43797 -3.13919 0
M  V30 2009 H 190.706 -2.63004 -1.31172 0
M  V30 2010 H 188.22 -1.4954 -0.633375 0
M  V30 2011 H 190.217 -1.95525 -3.68206 0
M  V30 2012 H 188.877 -0.925857 -3.1122 0
M  V30 2013 H 189.888 -4.56315 -2.44943 0
M  V30 2014 H 186.565 -2.22179 -3.53473 0
M  V30 2015 H 187.955 -6.16843 -2.66372 0
M  V30 2016 N 190.675 0.682077 -1.42076 0
M  V30 2017 C 191.905 1.46844 -1.45329 0
M  V30 2018 C 192.313 1.89102 -0.0609328 0
M  V30 2019 O 191.656 1.58238 0.933082 0
M  V30 2020 C 191.718 2.75375 -2.31104 0
M  V30 2021 C 191.382 2.55238 -3.79081 0
M  V30 2022 C 192.379 2.20309 -4.70914 0
M  V30 2023 C 190.064 2.70459 -4.2327 0
M  V30 2024 C 192.058 2.00859 -6.04925 0
M  V30 2025 C 189.745 2.50624 -5.57343 0
M  V30 2026 C 190.743 2.15876 -6.47986 0
M  V30 2027 O 190.431 1.96227 -7.79583 0
M  V30 2028 H 190.163 0.4586 -0.496651 0
M  V30 2029 H 192.717 0.846131 -1.87162 0
M  V30 2030 H 190.947 3.40061 -1.84107 0
M  V30 2031 H 192.636 3.37231 -2.25898 0
M  V30 2032 H 193.402 2.08153 -4.38061 0
M  V30 2033 H 189.281 2.96485 -3.53012 0
M  V30 2034 H 192.825 1.7366 -6.75639 0
M  V30 2035 H 188.722 2.62375 -5.89771 0
M  V30 2036 H 189.49 2.10883 -7.90867 0
M  V30 2037 N 192.153 1.28127 0.917671 0
M  V30 2038 C 193.401 1.14825 1.66312 0
M  V30 2039 C 193.722 -0.304379 1.9261 0
M  V30 2040 O 192.992 -1.21149 1.53947 0
M  V30 2041 H 191.572 0.421953 0.616413 0
M  V30 2042 H 194.234 1.608 1.10134 0
M  V30 2043 H 193.33 1.68489 2.62712 0
M  V30 2044 N 193.631 -1.12557 1.10312 0
M  V30 2045 C 194.541 -2.21841 0.763142 0
M  V30 2046 C 195.557 -1.72354 -0.238801 0
M  V30 2047 O 196.733 -2.01249 -0.0778746 0
M  V30 2048 C 193.798 -3.46131 0.198632 0
M  V30 2049 C 192.859 -4.10464 1.25769 0
M  V30 2050 C 192.092 -5.28821 0.72002 0
M  V30 2051 O 192.315 -5.6859 -0.453993 0
M  V30 2052 O 191.249 -5.83437 1.47935 0
M  V30 2053 H 195.075 -2.53312 1.67532 0
M  V30 2054 H 192.66 -1.20867 0.878157 0
M  V30 2055 H 194.542 -4.2125 -0.112401 0
M  V30 2056 H 193.217 -3.16338 -0.686419 0
M  V30 2057 H 192.124 -3.3713 1.62156 0
M  V30 2058 H 193.457 -4.44408 2.11571 0
M  V30 2059 N 195.109 -0.891671 -1.2995 0
M  V30 2060 C 196.337 -0.52866 -2.00032 0
M  V30 2061 C 196.752 0.884574 -1.66795 0
M  V30 2062 O 196.109 1.5827 -0.908669 0
M  V30 2063 C 196.16 -0.701814 -3.54622 0
M  V30 2064 O 195.881 -2.05942 -3.86678 0
M  V30 2065 C 197.382 -0.342683 -4.41973 0
M  V30 2066 H 194.602 -0.203659 -0.639347 0
M  V30 2067 H 197.146 -1.19881 -1.65677 0
M  V30 2068 H 195.301 -0.0789468 -3.8732 0
M  V30 2069 H 195.715 -2.08291 -4.81368 0
M  V30 2070 H 197.189 -0.514709 -5.49595 0
M  V30 2071 H 197.666 0.71975 -4.33262 0
M  V30 2072 H 198.272 -0.942154 -4.14733 0
M  V30 2073 N 196.587 1.43421 -0.653314 0
M  V30 2074 C 197.534 2.30768 0.0382271 0
M  V30 2075 C 198.504 1.44755 0.814576 0
M  V30 2076 O 199.689 1.73624 0.791162 0
M  V30 2077 C 196.829 3.30336 0.998599 0
M  V30 2078 C 195.942 4.31448 0.218342 0
M  V30 2079 C 195.077 5.18098 1.17252 0
M  V30 2080 C 194.116 6.10902 0.382702 0
M  V30 2081 N 193.253 6.90176 1.28848 0
M  V30 2082 H 198.093 2.89357 -0.712511 0
M  V30 2083 H 195.63 1.42548 -0.363128 0
M  V30 2084 H 197.588 3.86572 1.56901 0
M  V30 2085 H 196.218 2.73397 1.71621 0
M  V30 2086 H 195.27 3.77506 -0.46836 0
M  V30 2087 H 196.582 4.97227 -0.395812 0
M  V30 2088 H 195.736 5.7896 1.81356 0
M  V30 2089 H 194.475 4.52444 1.82058 0
M  V30 2090 H 193.48 5.49128 -0.27169 0
M  V30 2091 H 194.705 6.78598 -0.260957 0
M  V30 2092 H 192.651 6.27171 1.92334 0
M  V30 2093 H 192.568 7.52478 0.728887 0
M  V30 2094 H 193.836 7.55543 1.91766 0
M  V30 2095 N 198.065 0.39524 1.52563 0
M  V30 2096 C 199.481 0.0454682 1.59535 0
M  V30 2097 C 199.681 -1.44056 1.4089 0
M  V30 2098 O 198.737 -2.20579 1.22888 0
M  V30 2099 C 200.05 0.527963 2.96029 0
M  V30 2100 C 201.598 0.484733 3.09224 0
M  V30 2101 C 202.073 0.943512 4.48176 0
M  V30 2102 N 203.564 0.899765 4.54377 0
M  V30 2103 C 204.299 1.22609 5.60138 0
M  V30 2104 N 203.795 1.62319 6.73516 0
M  V30 2105 N 205.588 1.14696 5.50274 0
M  V30 2106 H 197.739 1.36261 1.62931 0
M  V30 2107 H 200.002 0.558887 0.765735 0
M  V30 2108 H 199.708 1.56607 3.14908 0
M  V30 2109 H 199.582 -0.0698056 3.77135 0
M  V30 2110 H 201.969 -0.544298 2.90037 0
M  V30 2111 H 202.05 1.11838 2.30056 0
M  V30 2112 H 201.694 1.9708 4.68104 0
M  V30 2113 H 201.624 0.286817 5.25818 0
M  V30 2114 H 204.115 0.607632 3.72983 0
M  V30 2115 H 204.428 1.85567 7.5019 0
M  V30 2116 H 202.773 1.66211 6.74833 0
M  V30 2117 H 205.964 0.835701 4.6058 0
M  V30 2118 H 206.137 1.40459 6.32594 0
M  V30 2119 N 199.544 -1.57102 0.125237 0
M  V30 2120 C 200.955 -1.82384 -0.399142 0
M  V30 2121 C 201.306 -1.04276 -1.66195 0
M  V30 2122 O 200.431 -0.281269 -2.14564 0
M  V30 2123 C 201.026 -3.30821 -0.730932 0
M  V30 2124 C 199.585 -3.56762 -1.19992 0
M  V30 2125 C 198.732 -2.7649 -0.211792 0
M  V30 2126 H 201.683 -1.54786 0.350277 0
M  V30 2127 H 201.704 -3.4579 -1.58775 0
M  V30 2128 H 201.216 -3.87643 0.188345 0
M  V30 2129 H 199.317 -3.05305 -2.13588 0
M  V30 2130 H 199.43 -4.65317 -1.14093 0
M  V30 2131 H 197.794 -2.4489 -0.700085 0
M  V30 2132 H 198.577 -3.36073 0.700691 0
M  V30 2133 N 201.022 0.148545 -1.56898 0
M  V30 2134 C 201.932 1.20293 -2.01412 0
M  V30 2135 C 202.948 1.47107 -0.929273 0
M  V30 2136 O 204.124 1.58807 -1.23863 0
M  V30 2137 C 201.189 2.51682 -2.38447 0
M  V30 2138 C 200.25 2.32529 -3.60872 0
M  V30 2139 C 199.483 3.57653 -3.96132 0
M  V30 2140 O 199.706 4.63771 -3.32073 0
M  V30 2141 O 198.64 3.50408 -4.89385 0
M  V30 2142 H 202.466 0.855025 -2.91416 0
M  V30 2143 H 200.051 0.357151 -1.45068 0
M  V30 2144 H 201.933 3.29147 -2.63135 0
M  V30 2145 H 200.608 2.86006 -1.51599 0
M  V30 2146 H 199.515 1.53019 -3.41373 0
M  V30 2147 H 200.848 2.03121 -4.48333 0
M  V30 2148 N 202.5 1.5196 0.417844 0
M  V30 2149 C 203.43 1.77634 1.51554 0
M  V30 2150 C 204.411 0.626918 1.58126 0
M  V30 2151 O 205.596 0.871632 1.7354 0
M  V30 2152 C 202.726 1.91911 2.8946 0
M  V30 2153 C 201.68 3.07463 2.97743 0
M  V30 2154 C 201.006 3.06951 4.37819 0
M  V30 2155 C 202.306 4.47082 2.70027 0
M  V30 2156 H 204 2.6955 1.3032 0
M  V30 2157 H 201.546 1.29706 0.625492 0
M  V30 2158 H 203.499 2.08455 3.6623 0
M  V30 2159 H 202.223 0.966598 3.11969 0
M  V30 2160 H 200.882 2.90656 2.23416 0
M  V30 2161 H 200.53 2.09438 4.57323 0
M  V30 2162 H 200.23 3.84556 4.44286 0
M  V30 2163 H 201.754 3.25613 5.16535 0
M  V30 2164 H 203.168 4.6414 3.36522 0
M  V30 2165 H 201.565 5.2654 2.87881 0
M  V30 2166 H 202.635 4.55777 1.65514 0
M  V30 2167 N 203.978 -0.674533 1.42435 0
M  V30 2168 C 205.208 -1.46071 1.46105 0
M  V30 2169 C 205.616 -1.89067 0.0709605 0
M  V30 2170 O 204.959 -1.58731 -0.924677 0
M  V30 2171 C 205.021 -2.74145 2.32561 0
M  V30 2172 C 204.685 -2.53224 3.8043 0
M  V30 2173 C 205.682 -2.17809 4.72075 0
M  V30 2174 C 203.367 -2.6821 4.24698 0
M  V30 2175 C 205.361 -1.97648 6.05982 0
M  V30 2176 C 203.048 -2.47665 5.58664 0
M  V30 2177 C 204.046 -2.12437 6.49122 0
M  V30 2178 O 203.734 -1.9209 7.80613 0
M  V30 2179 H 203.466 -0.455959 0.499076 0
M  V30 2180 H 206.02 -0.836193 1.87609 0
M  V30 2181 H 204.25 -3.3908 1.85908 0
M  V30 2182 H 205.939 -3.36028 2.27683 0
M  V30 2183 H 206.705 -2.05826 4.39159 0
M  V30 2184 H 202.584 -2.94609 3.54579 0
M  V30 2185 H 206.128 -1.70075 6.7655 0
M  V30 2186 H 202.025 -2.59244 5.91154 0
M  V30 2187 H 202.793 -2.06686 7.91974 0
M  V30 2188 N 205.456 -1.28612 -0.910864 0
M  V30 2189 C 206.872 -1.06381 -1.18976 0
M  V30 2190 C 207.072 0.191998 -2.00583 0
M  V30 2191 O 206.128 0.892869 -2.36187 0
M  V30 2192 C 207.441 -2.31295 -1.92154 0
M  V30 2193 C 208.989 -2.36503 -2.05025 0
M  V30 2194 C 209.464 -3.61191 -2.81612 0
M  V30 2195 N 210.955 -3.61847 -2.89172 0
M  V30 2196 C 211.69 -4.55004 -3.4894 0
M  V30 2197 N 211.186 -5.58482 -4.09963 0
M  V30 2198 N 212.979 -4.42594 -3.46506 0
M  V30 2199 H 205.13 -2.09221 -0.366094 0
M  V30 2200 H 207.393 -0.921003 -0.224629 0
M  V30 2201 H 207.099 -3.228 -1.39618 0
M  V30 2202 H 206.973 -2.37934 -2.9269 0
M  V30 2203 H 209.36 -1.45494 -2.5674 0
M  V30 2204 H 209.441 -2.33857 -1.03657 0
M  V30 2205 H 209.085 -4.52545 -2.30576 0
M  V30 2206 H 209.015 -3.61092 -3.83302 0
M  V30 2207 H 211.506 -2.87022 -2.45819 0
M  V30 2208 H 211.819 -6.25704 -4.53557 0
M  V30 2209 H 210.164 -5.62305 -4.08459 0
M  V30 2210 H 213.355 -3.60953 -2.98045 0
M  V30 2211 H 213.528 -5.15381 -3.92793 0
M  V30 2212 N 206.934 1.1197 -1.10907 0
M  V30 2213 C 208.183 1.82947 -0.849302 0
M  V30 2214 C 208.496 1.85275 0.627112 0
M  V30 2215 O 209.702 2.52296 1.00295 0
M  V30 2216 C 208.158 3.28529 -1.46959 0
M  V30 2217 C 207.766 3.34546 -2.97965 0
M  V30 2218 C 209.51 4.04443 -1.28942 0
M  V30 2219 C 207.417 4.74491 -3.53004 0
M  V30 2220 H 206.347 0.685477 -0.314065 0
M  V30 2221 H 208.998 1.2604 -1.33365 0
M  V30 2222 H 207.38 3.85333 -0.912917 0
M  V30 2223 H 208.554 2.87654 -3.59989 0
M  V30 2224 H 206.869 2.72108 -3.15192 0
M  V30 2225 H 209.466 5.07787 -1.67502 0
M  V30 2226 H 209.809 4.15656 -0.231456 0
M  V30 2227 H 210.342 3.5401 -1.81443 0
M  V30 2228 H 207.081 4.68474 -4.58489 0
M  V30 2229 H 206.601 5.21816 -2.9575 0
M  V30 2230 H 208.28 5.4344 -3.51115 0
M  V30 2231 N 208.412 0.89855 1.29475 0
M  V30 2232 C 209.64 0.539261 1.99749 0
M  V30 2233 C 210.055 -0.875716 1.67262 0
M  V30 2234 O 209.412 -1.57786 0.917049 0
M  V30 2235 C 209.463 0.72061 3.54245 0
M  V30 2236 O 209.184 2.07989 3.8558 0
M  V30 2237 C 210.685 0.366118 4.41786 0
M  V30 2238 H 207.905 0.207047 0.638258 0
M  V30 2239 H 210.449 1.20758 1.65039 0
M  V30 2240 H 208.604 0.0994862 3.87272 0
M  V30 2241 H 209.018 2.10841 4.80257 0
M  V30 2242 H 210.492 0.543848 5.49314 0
M  V30 2243 H 210.969 -0.696763 4.33638 0
M  V30 2244 H 211.575 0.964135 4.14228 0
M  V30 2245 N 209.89 -1.43072 0.660911 0
M  V30 2246 C 211.12 -2.05769 0.185153 0
M  V30 2247 C 211.528 -1.49668 -1.15742 0
M  V30 2248 O 210.871 -0.625649 -1.72717 0
M  V30 2249 C 210.933 -3.59489 0.0278237 0
M  V30 2250 C 210.597 -4.38212 1.2969 0
M  V30 2251 C 211.594 -4.69772 2.22734 0
M  V30 2252 C 209.279 -4.7809 1.54063 0
M  V30 2253 C 211.273 -5.40129 3.38437 0
M  V30 2254 C 208.96 -5.4819 2.70058 0
M  V30 2255 C 209.958 -5.79132 3.62071 0
M  V30 2256 O 209.646 -6.47798 4.76039 0
M  V30 2257 H 209.378 -0.669873 0.0908086 0
M  V30 2258 H 211.932 -1.84436 0.90402 0
M  V30 2259 H 210.162 -3.79426 -0.746489 0
M  V30 2260 H 211.851 -4.03862 -0.406275 0
M  V30 2261 H 212.617 -4.39476 2.05149 0
M  V30 2262 H 208.496 -4.53408 0.833215 0
M  V30 2263 H 212.04 -5.64198 4.10277 0
M  V30 2264 H 207.937 -5.77902 2.87574 0
M  V30 2265 H 208.705 -6.66283 4.75404 0
M  V30 2266 N 211.368 -0.403325 -1.52352 0
M  V30 2267 C 212.645 0.232611 -1.94212 0
M  V30 2268 C 213.025 1.63133 -1.33981 0
M  V30 2269 O 212.373 2.22659 -0.513344 0
M  V30 2270 C 212.583 0.244811 -3.4814 0
M  V30 2271 C 213.931 0.46698 -4.22024 0
M  V30 2272 O 214.955 0.324419 -3.5472 0
M  V30 2273 O 213.814 0.74747 -5.41364 0
M  V30 2274 H 210.908 0.148223 -0.813609 0
M  V30 2275 H 213.454 -0.458848 -1.63379 0
M  V30 2276 H 212.226 -0.734378 -3.84347 0
M  V30 2277 H 211.849 0.980611 -3.85318 0
M  V30 2278 N 212.846 1.57033 -0.133567 0
M  V30 2279 C 214.094 1.953 0.519848 0
M  V30 2280 C 214.415 1.01866 1.66278 0
M  V30 2281 O 213.685 0.0776513 1.95746 0
M  V30 2282 H 212.265 0.721091 0.195032 0
M  V30 2283 H 214.927 1.93809 -0.205921 0
M  V30 2284 H 214.023 2.98695 0.904854 0
M  V30 2285 N 214.325 -0.140222 1.56975 0
M  V30 2286 C 215.55 -0.870414 1.88251 0
M  V30 2287 C 215.975 -1.73637 0.723312 0
M  V30 2288 O 215.333 -1.78329 -0.32689 0
M  V30 2289 C 215.381 -1.69737 3.18154 0
M  V30 2290 O 214.485 -2.80229 3.02565 0
M  V30 2291 H 213.826 -0.242025 0.61832 0
M  V30 2292 H 216.356 -0.128999 2.04193 0
M  V30 2293 H 216.366 -2.09099 3.50345 0
M  V30 2294 H 215.041 -1.06152 4.02125 0
M  V30 2295 H 213.618 -2.44224 2.81796 0
M  V30 2296 N 215.803 -1.52179 -0.40978 0
M  V30 2297 C 217.052 -1.65434 -1.15388 0
M  V30 2298 C 217.365 -0.390056 -1.91671 0
M  V30 2299 O 218.571 -0.402399 -2.68501 0
M  V30 2300 C 217.027 -2.92279 -2.10003 0
M  V30 2301 C 216.635 -4.25813 -1.39239 0
M  V30 2302 C 218.379 -3.14897 -2.84675 0
M  V30 2303 C 216.286 -5.43782 -2.32498 0
M  V30 2304 H 215.216 -0.616267 -0.434432 0
M  V30 2305 H 217.867 -1.78666 -0.418401 0
M  V30 2306 H 216.249 -2.72744 -2.871 0
M  V30 2307 H 217.423 -4.55828 -0.675099 0
M  V30 2308 H 215.738 -4.09292 -0.766097 0
M  V30 2309 H 218.335 -4.0021 -3.54593 0
M  V30 2310 H 218.678 -2.29103 -3.47588 0
M  V30 2311 H 219.211 -3.34901 -2.14677 0
M  V30 2312 H 215.95 -6.3192 -1.74233 0
M  V30 2313 H 215.47 -5.18106 -3.02201 0
M  V30 2314 H 217.149 -5.76834 -2.93038 0
M  V30 2315 N 217.281 0.66697 -1.42791 0
M  V30 2316 C 218.244 1.76211 -1.46568 0
M  V30 2317 C 219.244 1.56896 -0.352196 0
M  V30 2318 O 220.434 1.63044 -0.613364 0
M  V30 2319 C 217.566 3.14935 -1.30494 0
M  V30 2320 H 218.759 1.74247 -2.44086 0
M  V30 2321 H 216.312 0.877342 -1.29354 0
M  V30 2322 H 217.047 3.2252 -0.339301 0
M  V30 2323 H 216.832 3.30359 -2.11199 0
M  V30 2324 H 218.322 3.94821 -1.36038 0
M  V30 2325 N 218.759 1.29093 0.90403 0
M  V30 2326 C 220.036 1.075 1.63411 0
M  V30 2327 C 220.416 -0.382346 2.07609 0
M  V30 2328 O 219.764 -1.37031 1.82851 0
M  V30 2329 C 219.974 2.05858 2.81822 0
M  V30 2330 C 221.322 2.36539 3.52611 0
M  V30 2331 O 222.346 2.04019 2.91984 0
M  V30 2332 O 221.205 2.92085 4.61897 0
M  V30 2333 H 218.299 0.411547 0.717327 0
M  V30 2334 H 220.845 1.40449 0.952479 0
M  V30 2335 H 219.617 3.04037 2.46327 0
M  V30 2336 H 219.24 1.73613 3.57693 0
M  V30 2337 N 220.237 -1.11381 1.11499 0
M  V30 2338 C 221.147 -2.21019 0.786628 0
M  V30 2339 C 222.163 -1.72597 -0.220507 0
M  V30 2340 O 223.339 -2.01321 -0.0565251 0
M  V30 2341 C 220.404 -3.459 0.235333 0
M  V30 2342 C 219.465 -4.09107 1.30115 0
M  V30 2343 C 218.698 -5.28027 0.776068 0
M  V30 2344 O 218.921 -5.6904 -0.393661 0
M  V30 2345 O 217.855 -5.81835 1.54114 0
M  V30 2346 H 221.681 -2.51521 1.70209 0
M  V30 2347 H 219.266 -1.19928 0.890928 0
M  V30 2348 H 221.148 -4.21346 -0.067715 0
M  V30 2349 H 219.823 -3.17049 -0.652828 0
M  V30 2350 H 218.73 -3.35391 1.65722 0
M  V30 2351 H 220.063 -4.42139 2.16273 0
M  V30 2352 N 221.715 -0.905404 -1.28997 0
M  V30 2353 C 223.126 -0.581953 -1.77398 0
M  V30 2354 C 223.477 0.902552 -1.74208 0
M  V30 2355 O 222.602 1.70584 -1.33154 0
M  V30 2356 C 223.197 -1.04961 -3.22131 0
M  V30 2357 C 221.756 -0.777229 -3.68288 0
M  V30 2358 C 220.903 -1.22109 -2.48967 0
M  V30 2359 H 223.854 -1.08754 -1.15578 0
M  V30 2360 H 223.875 -0.387387 -3.78523 0
M  V30 2361 H 223.387 -2.13008 -3.24421 0
M  V30 2362 H 221.488 0.290383 -3.71467 0
M  V30 2363 H 221.601 -1.37911 -4.58822 0
M  V30 2364 H 219.965 -0.639971 -2.46529 0
M  V30 2365 H 220.748 -2.30972 -2.53982 0
M  V30 2366 N 223.193 1.4272 -0.668489 0
M  V30 2367 C 224.143 2.27971 0.0363806 0
M  V30 2368 C 225.127 1.40741 0.779794 0
M  V30 2369 O 226.319 1.64245 0.659745 0
M  V30 2370 C 223.448 3.28673 0.991398 0
M  V30 2371 C 222.534 4.23388 0.245658 0
M  V30 2372 N 222.925 5.00267 -0.746069 0
M  V30 2373 C 221.223 4.43355 0.484988 0
M  V30 2374 C 221.924 5.69396 -1.19009 0
M  V30 2375 N 220.9 5.41095 -0.521287 0
M  V30 2376 H 224.702 2.84833 -0.724394 0
M  V30 2377 H 222.216 1.54607 -0.497028 0
M  V30 2378 H 224.213 3.88543 1.51129 0
M  V30 2379 H 222.873 2.73373 1.75207 0
M  V30 2380 H 223.884 5.05525 -1.12537 0
M  V30 2381 H 220.561 3.99104 1.22565 0
M  V30 2382 H 221.951 6.41083 -2.01153 0
M  V30 2383 N 224.671 0.411399 1.52136 0
M  V30 2384 C 225.918 -0.163645 2.01838 0
M  V30 2385 C 226.246 -1.4495 1.29691 0
M  V30 2386 O 225.501 -1.91725 0.392431 0
M  V30 2387 C 225.8 -0.455872 3.54481 0
M  V30 2388 C 225.466 0.741055 4.44769 0
M  V30 2389 C 224.128 1.06936 4.69167 0
M  V30 2390 C 226.48 1.54075 4.97906 0
M  V30 2391 C 223.808 2.19851 5.43951 0
M  V30 2392 C 226.16 2.66067 5.73926 0
M  V30 2393 C 224.824 2.99381 5.96596 0
M  V30 2394 H 224.094 -0.0598821 0.738576 0
M  V30 2395 H 226.741 0.553283 1.83333 0
M  V30 2396 H 225.046 -1.2544 3.71177 0
M  V30 2397 H 226.743 -0.913802 3.90449 0
M  V30 2398 H 223.333 0.475192 4.25958 0
M  V30 2399 H 227.517 1.30033 4.78963 0
M  V30 2400 H 222.773 2.46006 5.59724 0
M  V30 2401 H 226.947 3.28419 6.14096 0
M  V30 2402 H 224.574 3.86992 6.54325 0
M  V30 2403 N 226.149 -1.5696 0.141893 0
M  V30 2404 C 227.395 -1.9625 -0.511248 0
M  V30 2405 C 227.728 -1.02654 -1.64851 0
M  V30 2406 O 227.003 -0.0679676 -1.94381 0
M  V30 2407 C 227.286 -3.45285 -1.02227 0
M  V30 2408 C 227.139 -4.49658 0.113138 0
M  V30 2409 C 228.458 -3.96698 -1.90574 0
M  V30 2410 H 225.577 -0.713567 -0.184367 0
M  V30 2411 H 228.219 -1.88698 0.222087 0
M  V30 2412 H 226.369 -3.51852 -1.64719 0
M  V30 2413 H 228.041 -4.55174 0.749302 0
M  V30 2414 H 226.284 -4.26857 0.773026 0
M  V30 2415 H 226.955 -5.51258 -0.286053 0
M  V30 2416 H 229.431 -3.92578 -1.37918 0
M  V30 2417 H 228.307 -5.01453 -2.2324 0
M  V30 2418 H 228.568 -3.3875 -2.84079 0
M  V30 2419 N 227.627 0.131896 -1.57047 0
M  V30 2420 C 228.873 0.843179 -1.84441 0
M  V30 2421 C 229.206 1.80129 -0.725749 0
M  V30 2422 O 228.481 1.92624 0.269469 0
M  V30 2423 C 228.764 1.60442 -3.22382 0
M  V30 2424 C 228.617 0.666782 -4.4483 0
M  V30 2425 C 229.936 2.56354 -3.5773 0
M  V30 2426 H 227.055 0.305081 -0.670891 0
M  V30 2427 H 229.697 0.107839 -1.89694 0
M  V30 2428 H 227.847 2.23128 -3.18035 0
M  V30 2429 H 229.519 0.0497646 -4.61273 0
M  V30 2430 H 227.762 -0.022609 -4.33794 0
M  V30 2431 H 228.433 1.23579 -5.37989 0
M  V30 2432 H 230.909 2.0378 -3.62785 0
M  V30 2433 H 229.785 3.06657 -4.5525 0
M  V30 2434 H 230.046 3.38419 -2.84473 0
M  V30 2435 N 229.106 1.52395 0.401703 0
M  V30 2436 C 230.039 1.70999 1.51111 0
M  V30 2437 C 231.017 0.55765 1.52738 0
M  V30 2438 O 232.201 0.785912 1.71335 0
M  V30 2439 C 229.328 1.75607 2.8962 0
M  V30 2440 C 228.374 2.97227 3.05873 0
M  V30 2441 S 229.207 4.57439 2.78405 0
M  V30 2442 C 230.363 4.64844 4.19131 0
M  V30 2443 H 230.596 2.6483 1.35102 0
M  V30 2444 H 228.129 1.42527 0.593762 0
M  V30 2445 H 230.087 1.78947 3.69443 0
M  V30 2446 H 228.748 0.828914 3.02965 0
M  V30 2447 H 227.941 2.96955 4.07227 0
M  V30 2448 H 227.543 2.91813 2.33925 0
M  V30 2449 H 229.835 4.42677 5.12877 0
M  V30 2450 H 230.778 5.66807 4.24424 0
M  V30 2451 H 231.186 3.93804 4.04448 0
M  V30 2452 N 230.584 -0.659388 1.43143 0
M  V30 2453 C 231.832 -1.41654 1.44147 0
M  V30 2454 C 232.153 -1.94893 0.0645739 0
M  V30 2455 O 231.423 -1.74044 -0.899198 0
M  V30 2456 H 230.003 -0.525708 0.530697 0
M  V30 2457 H 232.665 -0.778097 1.78694 0
M  V30 2458 H 231.761 -2.26195 2.1504 0
M  V30 2459 N 232.062 -1.29571 -0.897171 0
M  V30 2460 C 233.31 -1.17456 -1.64464 0
M  V30 2461 C 233.631 0.273698 -1.9307 0
M  V30 2462 O 232.901 1.18684 -1.55855 0
M  V30 2463 H 231.481 -0.431706 -0.609622 0
M  V30 2464 H 234.143 -1.62531 -1.07562 0
M  V30 2465 H 233.239 -1.72648 -2.59998 0
M  V30 2466 N 233.54 1.10788 -1.12088 0
M  V30 2467 C 234.768 1.86461 -0.896651 0
M  V30 2468 C 235.183 1.80492 0.553912 0
M  V30 2469 O 234.54 1.19102 1.38278 0
M  V30 2470 C 234.591 3.35006 -1.35843 0
M  V30 2471 O 234.312 3.40866 -2.75213 0
M  V30 2472 C 235.813 4.27565 -1.1706 0
M  V30 2473 H 233.033 0.589425 -0.320654 0
M  V30 2474 H 235.577 1.40076 -1.48993 0
M  V30 2475 H 233.732 3.7887 -0.808458 0
M  V30 2476 H 234.146 4.33411 -2.9539 0
M  V30 2477 H 235.62 5.30007 -1.54263 0
M  V30 2478 H 236.097 4.3906 -0.110814 0
M  V30 2479 H 236.703 3.89501 -1.70789 0
M  V30 2480 N 235.018 0.912232 1.28515 0
M  V30 2481 C 236.246 0.560416 1.99166 0
M  V30 2482 C 236.661 -0.857927 1.68182 0
M  V30 2483 O 236.018 -1.56805 0.933733 0
M  V30 2484 C 236.069 0.758142 3.53461 0
M  V30 2485 O 235.79 2.12067 3.83352 0
M  V30 2486 C 237.291 0.412954 4.41372 0
M  V30 2487 H 234.511 0.213805 0.636026 0
M  V30 2488 H 237.055 1.22502 1.63749 0
M  V30 2489 H 235.21 0.140556 3.87145 0
M  V30 2490 H 235.624 2.15923 4.77993 0
M  V30 2491 H 237.098 0.60208 5.48707 0
M  V30 2492 H 237.575 -0.65073 4.34353 0
M  V30 2493 H 238.181 1.00802 4.13182 0
M  V30 2494 N 236.496 -1.42363 0.676048 0
M  V30 2495 C 237.406 -2.346 -0.00153389 0
M  V30 2496 C 238.422 -1.5516 -0.787485 0
M  V30 2497 O 239.598 -1.87723 -0.729521 0
M  V30 2498 C 236.663 -3.33705 -0.940298 0
M  V30 2499 C 235.724 -4.29042 -0.148739 0
M  V30 2500 C 234.957 -5.23413 -1.04279 0
M  V30 2501 O 235.18 -5.22749 -2.28232 0
M  V30 2502 O 234.114 -5.99795 -0.502925 0
M  V30 2503 H 237.94 -2.94082 0.758268 0
M  V30 2504 H 235.525 -1.42888 0.436289 0
M  V30 2505 H 237.407 -3.94586 -1.47917 0
M  V30 2506 H 236.082 -2.76695 -1.67993 0
M  V30 2507 H 234.989 -3.71571 0.43427 0
M  V30 2508 H 236.322 -4.89097 0.551805 0
M  V30 2509 N 237.974 -0.419461 -1.51915 0
M  V30 2510 C 239.385 0.0477853 -1.86639 0
M  V30 2511 C 239.736 1.43531 -1.33766 0
M  V30 2512 O 238.861 2.05401 -0.68113 0
M  V30 2513 C 239.456 0.0934885 -3.38671 0
M  V30 2514 C 238.015 0.505097 -3.72996 0
M  V30 2515 C 237.162 -0.313792 -2.75519 0
M  V30 2516 H 240.113 -0.636088 -1.45395 0
M  V30 2517 H 240.134 0.906667 -3.6954 0
M  V30 2518 H 239.646 -0.916501 -3.77123 0
M  V30 2519 H 237.747 1.52135 -3.40126 0
M  V30 2520 H 237.86 0.242309 -4.78487 0
M  V30 2521 H 236.224 0.225363 -2.53701 0
M  V30 2522 H 237.007 -1.32232 -3.16812 0
M  V30 2523 N 239.452 1.56882 -0.150215 0
M  V30 2524 C 240.701 1.95403 0.500071 0
M  V30 2525 C 241.014 1.03777 1.658 0
M  V30 2526 O 242.22 1.31889 2.37313 0
M  V30 2527 C 240.676 3.4738 0.941018 0
M  V30 2528 C 240.284 4.47596 -0.190158 0
M  V30 2529 C 242.028 3.9476 1.56091 0
M  V30 2530 C 239.935 5.90787 0.269237 0
M  V30 2531 H 238.865 0.729515 0.190588 0
M  V30 2532 H 241.516 1.81988 -0.235074 0
M  V30 2533 H 239.898 3.56138 1.73152 0
M  V30 2534 H 241.072 4.50536 -0.967157 0
M  V30 2535 H 239.387 4.10151 -0.718666 0
M  V30 2536 H 241.984 4.99181 1.9163 0
M  V30 2537 H 242.327 3.36494 2.45107 0
M  V30 2538 H 242.86 3.88932 0.835249 0
M  V30 2539 H 239.599 6.52879 -0.585621 0
M  V30 2540 H 239.119 5.912 1.01204 0
M  V30 2541 H 240.798 6.42979 0.720176 0
M  V30 2542 N 240.93 -0.123565 1.57115 0
M  V30 2543 C 241.893 -1.13583 1.99076 0
M  V30 2544 C 242.893 -1.34564 0.880296 0
M  V30 2545 O 244.083 -1.31158 1.14644 0
M  V30 2546 C 241.215 -2.49128 2.32698 0
M  V30 2547 H 242.408 -0.775287 2.89706 0
M  V30 2548 H 239.961 -0.36771 1.51913 0
M  V30 2549 H 240.696 -2.90111 1.44934 0
M  V30 2550 H 240.481 -2.35255 3.13684 0
M  V30 2551 H 241.971 -3.2199 2.65918 0
M  V30 2552 N 242.408 -1.52605 -0.393616 0
M  V30 2553 C 243.356 -1.77688 -1.50099 0
M  V30 2554 C 244.35 -0.644615 -1.56656 0
M  V30 2555 O 245.556 -0.826997 -1.59877 0
M  V30 2556 H 241.931 -0.562159 -0.499481 0
M  V30 2557 H 243.902 -2.7043 -1.26135 0
M  V30 2558 C 242.651 -1.95858 -2.87289 0
M  V30 2559 H 241.974 -2.8241 -2.82992 0
M  V30 2560 H 243.414 -2.174 -3.64024 0
M  V30 2561 C 241.873 -0.729848 -3.28899 0
M  V30 2562 O 242.403 0.0949217 -4.01588 0
M  V30 2563 N 240.609 -0.561283 -2.85128 0
M  V30 2564 H 240.156 -1.23357 -2.26143 0
M  V30 2565 H 240.114 0.2595 -3.13327 0
M  V30 2566 N 243.887 0.651787 -1.4349 0
M  V30 2567 C 244.85 1.74647 -1.48429 0
M  V30 2568 C 245.85 1.56513 -0.368817 0
M  V30 2569 O 247.04 1.62385 -0.630623 0
M  V30 2570 C 244.172 3.13533 -1.33827 0
M  V30 2571 H 245.365 1.71649 -2.4592 0
M  V30 2572 H 242.918 0.863573 -1.30277 0
M  V30 2573 H 243.653 3.22142 -0.37349 0
M  V30 2574 H 243.438 3.28101 -2.14691 0
M  V30 2575 H 244.928 3.93356 -1.40218 0
M  V30 2576 N 245.365 1.30045 0.890287 0
M  V30 2577 C 246.295 1.18541 2.01172 0
M  V30 2578 C 247.276 0.0773356 1.69924 0
M  V30 2579 O 248.461 0.25845 1.92473 0
M  V30 2580 C 245.591 0.870941 3.36202 0
M  V30 2581 C 244.545 1.93637 3.81692 0
M  V30 2582 C 243.871 1.475 5.13953 0
M  V30 2583 C 245.171 3.34666 4.00994 0
M  V30 2584 H 246.865 2.12359 2.11054 0
M  V30 2585 H 244.411 1.02238 1.01407 0
M  V30 2586 H 246.364 0.777141 4.14172 0
M  V30 2587 H 245.088 -0.102926 3.26438 0
M  V30 2588 H 243.747 2.01972 3.05946 0
M  V30 2589 H 243.395 0.489551 5.00612 0
M  V30 2590 H 243.095 2.1876 5.4536 0
M  V30 2591 H 244.619 1.39489 5.94454 0
M  V30 2592 H 246.033 3.2912 4.69417 0
M  V30 2593 H 244.43 4.03966 4.43769 0
M  V30 2594 H 245.5 3.76949 3.05021 0
M  V30 2595 N 246.843 -1.10192 1.12674 0
M  V30 2596 C 247.79 -2.16606 0.796906 0
M  V30 2597 C 248.76 -1.64394 -0.237476 0
M  V30 2598 O 249.945 -1.90474 -0.111484 0
M  V30 2599 C 247.085 -3.44116 0.26043 0
M  V30 2600 C 246.198 -4.10268 1.35293 0
M  V30 2601 C 245.333 -5.25507 0.775621 0
M  V30 2602 C 244.372 -5.83567 1.84706 0
M  V30 2603 N 243.509 -6.90179 1.28829 0
M  V30 2604 H 248.349 -2.44163 1.70846 0
M  V30 2605 H 245.886 -1.19846 0.85295 0
M  V30 2606 H 247.844 -4.17143 -0.0686814 0
M  V30 2607 H 246.474 -3.16901 -0.614274 0
M  V30 2608 H 245.526 -3.35184 1.79877 0
M  V30 2609 H 246.838 -4.4946 2.16303 0
M  V30 2610 H 245.992 -6.05398 0.397327 0
M  V30 2611 H 244.731 -4.87656 -0.0656581 0
M  V30 2612 H 243.736 -5.02344 2.23452 0
M  V30 2613 H 244.961 -6.23482 2.69161 0
M  V30 2614 H 242.907 -6.54322 0.468881 0
M  V30 2615 H 242.824 -7.28097 2.03497 0
M  V30 2616 H 244.092 -7.73844 0.937311 0
M  V30 2617 N 248.321 -0.919034 -1.28029 0
M  V30 2618 C 249.231 -0.416756 -2.30869 0
M  V30 2619 C 250.247 0.498235 -1.66714 0
M  V30 2620 O 251.423 0.383144 -1.97722 0
M  V30 2621 C 248.488 0.330274 -3.45123 0
M  V30 2622 C 247.549 -0.618578 -4.2482 0
M  V30 2623 C 246.782 0.0928959 -5.33619 0
M  V30 2624 O 247.005 1.31375 -5.55065 0
M  V30 2625 O 245.939 -0.574499 -5.99152 0
M  V30 2626 H 249.765 -1.27043 -2.75851 0
M  V30 2627 H 247.35 -0.684052 -1.3282 0
M  V30 2628 H 249.232 0.751972 -4.14636 0
M  V30 2629 H 247.907 1.1597 -3.02213 0
M  V30 2630 H 246.814 -1.08978 -3.57875 0
M  V30 2631 H 248.147 -1.41497 -4.71423 0
M  V30 2632 N 249.799 1.42003 -0.683588 0
M  V30 2633 C 251.024 2.06265 -0.216647 0
M  V30 2634 C 251.449 1.51059 1.12083 0
M  V30 2635 O 250.807 0.632638 1.69904 0
M  V30 2636 C 250.855 3.60191 -0.171759 0
M  V30 2637 O 249.959 4.03396 0.857069 0
M  V30 2638 H 249.3 0.65502 -0.108834 0
M  V30 2639 H 251.83 1.81982 -0.935077 0
M  V30 2640 H 251.84 4.08 0.0014303 0
M  V30 2641 H 250.515 3.99743 -1.14796 0
M  V30 2642 H 249.092 3.67117 0.654208 0
M  V30 2643 N 251.277 0.427512 1.51691 0
M  V30 2644 C 252.507 -0.140986 2.06118 0
M  V30 2645 C 252.915 -1.37854 1.29588 0
M  V30 2646 O 252.258 -1.80411 0.346036 0
M  V30 2647 C 252.32 -0.538276 3.55447 0
M  V30 2648 C 251.984 0.591095 4.53161 0
M  V30 2649 C 252.981 1.46027 4.98971 0
M  V30 2650 C 250.666 0.769028 4.96378 0
M  V30 2651 C 252.66 2.49216 5.8666 0
M  V30 2652 C 250.347 1.80421 5.83859 0
M  V30 2653 C 251.345 2.66417 6.28897 0
M  V30 2654 O 251.033 3.68159 7.14643 0
M  V30 2655 H 250.765 -0.0157455 0.675817 0
M  V30 2656 H 253.319 0.602495 1.96365 0
M  V30 2657 H 251.549 -1.33432 3.6295 0
M  V30 2658 H 253.238 -1.0368 3.92435 0
M  V30 2659 H 254.004 1.33429 4.66285 0
M  V30 2660 H 249.883 0.109273 4.6087 0
M  V30 2661 H 253.427 3.16372 6.21735 0
M  V30 2662 H 249.324 1.93042 6.15959 0
M  V30 2663 H 250.092 3.64622 7.32798 0
M  V30 2664 N 252.755 -1.56801 0.158532 0
M  V30 2665 C 253.718 -2.16138 -0.762705 0
M  V30 2666 C 254.718 -1.1061 -1.16713 0
M  V30 2667 O 255.908 -1.36191 -1.08617 0
M  V30 2668 C 253.04 -2.73386 -2.03649 0
M  V30 2669 H 254.233 -2.98886 -0.246354 0
M  V30 2670 H 251.786 -1.56035 -0.0909744 0
M  V30 2671 H 252.521 -1.94335 -2.59623 0
M  V30 2672 H 252.306 -3.50601 -1.75559 0
M  V30 2673 H 253.796 -3.19065 -2.6942 0
M  V30 2674 N 254.233 0.115231 -1.57178 0
M  V30 2675 C 255.143 1.15994 -2.03918 0
M  V30 2676 C 256.159 1.45103 -0.960268 0
M  V30 2677 O 257.335 1.56144 -1.27204 0
M  V30 2678 C 254.4 2.46568 -2.43732 0
M  V30 2679 C 253.461 2.24822 -3.65723 0
M  V30 2680 C 252.694 3.4917 -4.03629 0
M  V30 2681 O 252.917 4.56623 -3.41835 0
M  V30 2682 O 251.851 3.39949 -4.96708 0
M  V30 2683 H 255.677 0.793019 -2.93164 0
M  V30 2684 H 253.262 0.3263 -1.45793 0
M  V30 2685 H 255.144 3.23492 -2.70057 0
M  V30 2686 H 253.819 2.82726 -1.57631 0
M  V30 2687 H 252.726 1.45744 -3.44542 0
M  V30 2688 H 254.059 1.93566 -4.52541 0
M  V30 2689 N 255.711 1.52812 0.385517 0
M  V30 2690 C 256.659 1.78482 1.49155 0
M  V30 2691 C 257.653 0.652914 1.56312 0
M  V30 2692 O 258.859 0.835464 1.59436 0
M  V30 2693 H 255.234 0.5648 0.496493 0
M  V30 2694 H 257.205 2.71095 1.24699 0
M  V30 2695 C 255.954 1.97378 2.86247 0
M  V30 2696 H 255.277 2.83907 2.81491 0
M  V30 2697 H 256.717 2.19327 3.62866 0
M  V30 2698 C 255.176 0.74728 3.28508 0
M  V30 2699 O 255.706 -0.0736232 4.01633 0
M  V30 2700 N 253.912 0.576396 2.84826 0
M  V30 2701 H 253.459 1.24555 2.25486 0
M  V30 2702 H 253.417 -0.24288 3.1346 0
M  V30 2703 N 257.189 -0.644168 1.43834 0
M  V30 2704 C 258.152 -1.73857 1.49353 0
M  V30 2705 C 259.152 -1.56315 0.377112 0
M  V30 2706 O 260.342 -1.62048 0.639226 0
M  V30 2707 C 257.474 -3.12819 1.35488 0
M  V30 2708 H 258.667 -1.70342 2.46827 0
M  V30 2709 H 256.22 -0.856652 1.30733 0
M  V30 2710 H 256.955 -3.2194 0.390569 0
M  V30 2711 H 256.74 -3.26958 2.16428 0
M  V30 2712 H 258.23 -3.92606 1.42302 0
M  V30 2713 N 258.668 -1.30515 -0.883378 0
M  V30 2714 C 259.893 -1.22487 -1.67367 0
M  V30 2715 C 260.318 0.208767 -1.86938 0
M  V30 2716 O 259.676 1.15015 -1.40148 0
M  V30 2717 C 259.724 -1.96041 -3.02655 0
M  V30 2718 O 258.828 -1.28859 -3.91751 0
M  V30 2719 H 258.169 -0.423573 -0.511353 0
M  V30 2720 H 260.699 -1.72362 -1.10239 0
M  V30 2721 H 260.709 -2.05124 -3.52687 0
M  V30 2722 H 259.384 -3.00307 -2.8773 0
M  V30 2723 H 257.961 -1.28141 -3.50192 0
M  V30 2724 N 260.146 1.09593 -1.13257 0
M  V30 2725 C 261.076 2.18214 -0.830946 0
M  V30 2726 C 262.057 1.68812 0.208966 0
M  V30 2727 O 263.242 1.9408 0.0682666 0
M  V30 2728 C 260.372 3.46051 -0.294296 0
M  V30 2729 C 259.326 4.08778 -1.26826 0
M  V30 2730 C 258.652 5.31419 -0.591449 0
M  V30 2731 C 259.952 4.51476 -2.62615 0
M  V30 2732 H 261.646 2.43703 -1.73923 0
M  V30 2733 H 259.192 1.17128 -0.837675 0
M  V30 2734 H 261.145 4.2134 -0.0709606 0
M  V30 2735 H 259.869 3.20079 0.649366 0
M  V30 2736 H 258.528 3.35505 -1.47756 0
M  V30 2737 H 258.176 5.01727 0.357633 0
M  V30 2738 H 257.876 5.74341 -1.24123 0
M  V30 2739 H 259.4 6.09433 -0.377355 0
M  V30 2740 H 260.814 5.17999 -2.45663 0
M  V30 2741 H 259.211 5.05277 -3.23752 0
M  V30 2742 H 260.281 3.63962 -3.20406 0
M  V30 2743 N 261.624 0.925811 1.2754 0
M  V30 2744 C 262.852 0.581509 1.9856 0
M  V30 2745 C 263.267 -0.840041 1.69082 0
M  V30 2746 O 262.624 -1.55805 0.950312 0
M  V30 2747 C 262.675 0.795589 3.52637 0
M  V30 2748 O 262.396 2.16121 3.81082 0
M  V30 2749 C 263.897 0.459744 4.4091 0
M  V30 2750 H 261.117 0.220538 0.633722 0
M  V30 2751 H 263.661 1.24232 1.6244 0
M  V30 2752 H 261.816 0.18161 3.86974 0
M  V30 2753 H 262.23 2.2098 4.75676 0
M  V30 2754 H 263.704 0.660244 5.48037 0
M  V30 2755 H 264.181 -0.604625 4.35018 0
M  V30 2756 H 264.787 1.05178 4.12089 0
M  V30 2757 N 263.102 -1.41638 0.69111 0
M  V30 2758 C 264.379 -1.95036 0.148421 0
M  V30 2759 C 264.759 -1.63072 -1.34055 0
M  V30 2760 O 264.107 -0.93538 -2.08478 0
M  V30 2761 C 264.317 -3.46279 0.434951 0
M  V30 2762 C 265.665 -4.23069 0.360275 0
M  V30 2763 O 266.689 -3.54277 0.369613 0
M  V30 2764 O 265.548 -5.45583 0.316534 0
M  V30 2765 H 262.642 -0.826908 0.0123654 0
M  V30 2766 H 265.188 -1.5138 0.766963 0
M  V30 2767 H 263.96 -3.6281 1.46576 0
M  V30 2768 H 263.583 -3.97019 -0.214787 0
M  V30 2769 N 264.58 -0.43555 -1.51462 0
M  V30 2770 C 265.543 0.365137 -2.26273 0
M  V30 2771 C 266.543 0.951227 -1.29647 0
M  V30 2772 O 267.733 0.825958 -1.53374 0
M  V30 2773 C 264.865 1.51645 -3.05314 0
M  V30 2774 H 266.058 -0.290474 -2.9849 0
M  V30 2775 H 263.611 -0.188676 -1.55157 0
M  V30 2776 H 264.346 2.20816 -2.3751 0
M  V30 2777 H 264.131 1.10238 -3.76284 0
M  V30 2778 H 265.621 2.08218 -3.61987 0
M  V30 2779 N 266.058 1.56714 -0.166846 0
M  V30 2780 C 266.988 2.20754 0.760913 0
M  V30 2781 C 267.969 1.16178 1.24244 0
M  V30 2782 O 269.154 1.44592 1.29641 0
M  V30 2783 C 266.284 2.84478 1.99223 0
M  V30 2784 C 265.238 3.95053 1.64672 0
M  V30 2785 C 264.564 4.45805 2.95232 0
M  V30 2786 C 265.864 5.14865 0.878155 0
M  V30 2787 H 267.558 2.98537 0.22713 0
M  V30 2788 H 265.104 1.43596 0.107805 0
M  V30 2789 H 267.057 3.27951 2.64624 0
M  V30 2790 H 265.781 2.04056 2.55007 0
M  V30 2791 H 264.44 3.52228 1.01641 0
M  V30 2792 H 264.088 3.62181 3.49047 0
M  V30 2793 H 263.788 5.204 2.7287 0
M  V30 2794 H 265.312 4.91962 3.6167 0
M  V30 2795 H 266.726 5.55059 1.43466 0
M  V30 2796 H 265.123 5.95348 0.753738 0
M  V30 2797 H 266.193 4.84735 -0.126377 0
M  V30 2798 N 267.536 -0.106894 1.57237 0
M  V30 2799 C 268.952 -0.46078 1.52804 0
M  V30 2800 C 269.152 -1.81184 0.881746 0
M  V30 2801 O 268.208 -2.48102 0.469224 0
M  V30 2802 C 269.521 -0.434127 2.9755 0
M  V30 2803 C 271.069 -0.516821 3.08704 0
M  V30 2804 C 271.544 -0.520436 4.55033 0
M  V30 2805 N 273.035 -0.58153 4.59535 0
M  V30 2806 C 273.77 -0.605973 5.70189 0
M  V30 2807 N 273.266 -0.587331 6.90306 0
M  V30 2808 N 275.059 -0.649895 5.5833 0
M  V30 2809 H 267.21 0.778203 1.9763 0
M  V30 2810 H 269.473 0.288403 0.903066 0
M  V30 2811 H 269.179 0.491197 3.48253 0
M  V30 2812 H 269.053 -1.25748 3.55622 0
M  V30 2813 H 271.44 -1.43256 2.57995 0
M  V30 2814 H 271.521 0.334449 2.53604 0
M  V30 2815 H 271.165 0.391313 5.0639 0
M  V30 2816 H 271.095 -1.38876 5.07958 0
M  V30 2817 H 273.586 -0.60161 3.73081 0
M  V30 2818 H 273.899 -0.60894 7.70397 0
M  V30 2819 H 272.244 -0.554564 6.92784 0
M  V30 2820 H 275.435 -0.661907 4.63397 0
M  V30 2821 H 275.608 -0.665476 6.44574 0
M  V30 2822 N 269.014 -1.53014 -0.377408 0
M  V30 2823 C 270.263 -1.67845 -1.11853 0
M  V30 2824 C 270.576 -0.430625 -1.90801 0
M  V30 2825 O 271.782 -0.459261 -2.67587 0
M  V30 2826 C 270.238 -2.96668 -2.03756 0
M  V30 2827 C 269.846 -4.28671 -1.30175 0
M  V30 2828 C 271.59 -3.20865 -2.77932 0
M  V30 2829 C 269.497 -5.48591 -2.20911 0
M  V30 2830 H 268.427 -0.625343 -0.421263 0
M  V30 2831 H 271.078 -1.79514 -0.380409 0
M  V30 2832 H 269.46 -2.78773 -2.8125 0
M  V30 2833 H 270.634 -4.57157 -0.578259 0
M  V30 2834 H 268.949 -4.10825 -0.679108 0
M  V30 2835 H 271.546 -4.07642 -3.46024 0
M  V30 2836 H 271.889 -2.36424 -3.4265 0
M  V30 2837 H 272.422 -3.39379 -2.07525 0
M  V30 2838 H 269.161 -6.35474 -1.6079 0
M  V30 2839 H 268.681 -5.244 -2.91144 0
M  V30 2840 H 270.36 -5.8292 -2.80736 0
M  V30 2841 N 270.492 0.636531 -1.44174 0
M  V30 2842 C 271.455 1.73063 -1.50273 0
M  V30 2843 C 272.455 1.56113 -0.385397 0
M  V30 2844 O 273.645 1.61707 -0.64781 0
M  V30 2845 C 270.777 3.12096 -1.37145 0
M  V30 2846 H 271.97 1.69031 -2.47727 0
M  V30 2847 H 269.523 0.849706 -1.31186 0
M  V30 2848 H 270.258 3.21728 -0.407636 0
M  V30 2849 H 270.043 3.25805 -2.18159 0
M  V30 2850 H 271.533 3.91846 -1.44382 0
M  V30 2851 N 271.97 1.30982 0.876444 0
M  V30 2852 C 273.216 1.20474 1.63138 0
M  V30 2853 C 273.549 -0.238096 1.92735 0
M  V30 2854 O 272.824 -1.1692 1.55435 0
M  V30 2855 C 273.107 2.04244 2.96574 0
M  V30 2856 C 272.96 3.56793 2.73896 0
M  V30 2857 C 274.279 1.88684 3.97601 0
M  V30 2858 H 271.398 0.439001 0.591985 0
M  V30 2859 H 274.04 1.60704 1.01361 0
M  V30 2860 H 272.19 1.70063 3.493 0
M  V30 2861 H 273.862 4.01077 2.27892 0
M  V30 2862 H 272.105 3.80548 2.08245 0
M  V30 2863 H 272.776 4.10706 3.68815 0
M  V30 2864 H 275.252 2.18584 3.54062 0
M  V30 2865 H 274.128 2.4961 4.88862 0
M  V30 2866 H 274.389 0.848343 4.33884 0
M  V30 2867 N 273.449 -1.08991 1.13837 0
M  V30 2868 C 274.412 -2.13925 0.822715 0
M  V30 2869 C 275.412 -1.599 -0.1699 0
M  V30 2870 O 276.602 -1.74104 0.0577251 0
M  V30 2871 C 273.734 -3.40155 0.225318 0
M  V30 2872 H 274.927 -2.43358 1.75262 0
M  V30 2873 H 272.48 -1.24603 0.943594 0
M  V30 2874 H 273.215 -3.16352 -0.713594 0
M  V30 2875 H 273 -3.80661 0.940193 0
M  V30 2876 H 274.49 -4.17594 0.0214784 0
M  V30 2877 N 274.927 -0.932562 -1.27047 0
M  V30 2878 C 275.89 -0.440064 -2.24936 0
M  V30 2879 C 276.89 0.444071 -1.54547 0
M  V30 2880 O 278.08 0.244465 -1.72476 0
M  V30 2881 C 275.212 0.36678 -3.38921 0
M  V30 2882 H 276.405 -1.305 -2.70018 0
M  V30 2883 H 273.958 -0.713707 -1.39054 0
M  V30 2884 H 274.693 1.25033 -2.99228 0
M  V30 2885 H 274.478 -0.267204 -3.91188 0
M  V30 2886 H 275.968 0.701567 -4.11665 0
M  V30 2887 N 276.405 1.4127 -0.698611 0
M  V30 2888 C 277.335 2.33447 -0.049629 0
M  V30 2889 C 278.316 1.51982 0.763898 0
M  V30 2890 O 279.501 1.80509 0.716257 0
M  V30 2891 C 276.631 3.35828 0.885267 0
M  V30 2892 C 275.585 4.27627 0.178613 0
M  V30 2893 C 274.911 5.20406 1.22807 0
M  V30 2894 C 276.211 5.13459 -0.956933 0
M  V30 2895 H 277.905 2.87966 -0.81951 0
M  V30 2896 H 275.451 1.38461 -0.395538 0
M  V30 2897 H 277.404 3.9924 1.34854 0
M  V30 2898 H 276.128 2.79666 1.68685 0
M  V30 2899 H 274.787 3.65643 -0.26466 0
M  V30 2900 H 274.435 4.60558 2.02226 0
M  V30 2901 H 274.135 5.82661 0.760239 0
M  V30 2902 H 275.659 5.86695 1.69179 0
M  V30 2903 H 277.073 5.70421 -0.573805 0
M  V30 2904 H 275.47 5.8467 -1.35205 0
M  V30 2905 H 276.54 4.50443 -1.79524 0
M  V30 2906 N 277.883 0.443576 1.51229 0
M  V30 2907 C 279.299 0.0962001 1.5931 0
M  V30 2908 C 279.499 -1.39501 1.45402 0
M  V30 2909 O 278.555 -2.16557 1.29843 0
M  V30 2910 C 279.868 0.621875 2.94199 0
M  V30 2911 C 281.416 0.582865 3.07525 0
M  V30 2912 C 281.891 1.08562 4.44948 0
M  V30 2913 N 283.382 1.04387 4.51284 0
M  V30 2914 C 284.117 1.40368 5.55954 0
M  V30 2915 N 283.613 1.83664 6.68011 0
M  V30 2916 N 285.406 1.32145 5.46346 0
M  V30 2917 H 277.557 1.41376 1.58514 0
M  V30 2918 H 279.82 0.582965 0.747567 0
M  V30 2919 H 279.526 1.66546 3.09767 0
M  V30 2920 H 279.4 0.0502125 3.77167 0
M  V30 2921 H 281.787 -0.451749 2.91622 0
M  V30 2922 H 281.868 1.191 2.26382 0
M  V30 2923 H 281.512 2.11873 4.61598 0
M  V30 2924 H 281.442 0.453956 5.2464 0
M  V30 2925 H 283.933 0.725986 3.70861 0
M  V30 2926 H 284.246 2.0934 7.43906 0
M  V30 2927 H 282.591 1.87596 6.69203 0
M  V30 2928 H 285.782 0.981808 4.57688 0
M  V30 2929 H 285.955 1.60514 6.27805 0
M  V30 2930 N 279.361 -1.56624 0.175154 0
M  V30 2931 C 280.324 -2.16934 -0.739738 0
M  V30 2932 C 281.324 -1.11842 -1.15533 0
M  V30 2933 O 282.514 -1.37335 -1.07167 0
M  V30 2934 C 279.646 -2.75531 -2.00738 0
M  V30 2935 H 280.839 -2.99131 -0.214639 0
M  V30 2936 H 278.392 -1.56123 -0.0744197 0
M  V30 2937 H 279.127 -1.97078 -2.57548 0
M  V30 2938 H 278.912 -3.52444 -1.71831 0
M  V30 2939 H 280.402 -3.21904 -2.66021 0
M  V30 2940 N 280.839 0.0985539 -1.57292 0
M  V30 2941 C 282.087 0.801092 -1.85545 0
M  V30 2942 C 282.408 1.79438 -0.763353 0
M  V30 2943 O 281.678 1.94763 0.21073 0
M  V30 2944 H 280.258 0.29884 -0.684619 0
M  V30 2945 H 282.92 0.0810064 -1.94732 0
M  V30 2946 H 282.016 1.3338 -2.82163 0
M  V30 2947 N 282.317 1.53212 0.369288 0
M  V30 2948 C 283.542 1.73423 1.1375 0
M  V30 2949 C 283.967 0.460404 1.82378 0
M  V30 2950 O 283.325 -0.585298 1.71592 0
M  V30 2951 C 283.373 2.89769 2.1463 0
M  V30 2952 O 282.477 2.58119 3.21634 0
M  V30 2953 H 281.818 0.576061 0.330227 0
M  V30 2954 H 284.348 2.00083 0.427547 0
M  V30 2955 H 284.358 3.15829 2.58294 0
M  V30 2956 H 283.033 3.8217 1.64071 0
M  V30 2957 H 281.61 2.42864 2.82969 0
M  V30 2958 N 283.795 -0.628877 1.44509 0
M  V30 2959 C 284.758 -1.72263 1.51188 0
M  V30 2960 C 285.758 -1.55907 0.39367 0
M  V30 2961 O 286.948 -1.61361 0.656377 0
M  V30 2962 C 284.08 -3.11365 1.38798 0
M  V30 2963 H 285.273 -1.67714 2.4862 0
M  V30 2964 H 282.826 -0.842737 1.31634 0
M  V30 2965 H 283.561 -3.21507 0.424693 0
M  V30 2966 H 283.346 -3.24644 2.19884 0
M  V30 2967 H 284.836 -3.91075 1.46458 0
M  V30 2968 N 285.273 -1.31445 -0.869486 0
M  V30 2969 C 286.55 -1.11795 -1.60503 0
M  V30 2970 C 286.93 0.327168 -2.08549 0
M  V30 2971 O 286.278 1.32135 -1.8642 0
M  V30 2972 C 286.488 -2.13258 -2.76265 0
M  V30 2973 C 287.836 -2.45805 -3.46215 0
M  V30 2974 O 288.86 -2.11688 -2.86473 0
M  V30 2975 O 287.719 -3.04228 -4.5399 0
M  V30 2976 H 284.813 -0.430421 -0.706163 0
M  V30 2977 H 287.359 -1.42925 -0.914907 0
M  V30 2978 H 286.131 -3.10461 -2.3818 0
M  V30 2979 H 285.754 -1.83035 -3.52964 0
M  V30 2980 N 286.751 1.08385 -1.14413 0
M  V30 2981 C 287.979 1.84517 -0.936001 0
M  V30 2982 C 288.394 1.81626 0.515503 0
M  V30 2983 O 287.751 1.22008 1.35721 0
M  V30 2984 C 287.802 3.32049 -1.42918 0
M  V30 2985 O 287.523 3.34951 -2.82381 0
M  V30 2986 C 289.024 4.24986 -1.26103 0
M  V30 2987 H 286.244 0.582491 -0.333084 0
M  V30 2988 H 288.788 1.36885 -1.5193 0
M  V30 2989 H 286.943 3.7707 -0.888641 0
M  V30 2990 H 287.357 4.27048 -3.04517 0
M  V30 2991 H 288.831 5.26615 -1.6547 0
M  V30 2992 H 289.308 4.38726 -0.20392 0
M  V30 2993 H 289.914 3.85791 -1.79012 0
M  V30 2994 N 288.23 0.939286 1.26551 0
M  V30 2995 C 289.455 0.602008 1.98471 0
M  V30 2996 C 289.88 -0.815624 1.69497 0
M  V30 2997 O 289.238 -1.54912 0.941905 0
M  V30 2998 C 289.286 0.848407 3.50477 0
M  V30 2999 O 288.39 -0.0804009 4.12322 0
M  V30 3000 H 287.731 0.23049 0.622712 0
M  V30 3001 H 290.261 1.2617 1.61066 0
M  V30 3002 H 290.271 0.768553 4.00696 0
M  V30 3003 H 288.946 1.88171 3.70897 0
M  V30 3004 H 287.523 0.0503508 3.72866 0
M  V30 3005 N 289.708 -1.40897 0.706093 0
M  V30 3006 C 290.956 -2.00657 0.241054 0
M  V30 3007 C 291.277 -1.56241 -1.16678 0
M  V30 3008 O 290.547 -0.79765 -1.78926 0
M  V30 3009 H 289.127 -0.742018 0.0861308 0
M  V30 3010 H 291.789 -1.72372 0.909604 0
M  V30 3011 H 290.885 -3.10958 0.266705 0
M  V30 3012 N 291.186 -0.45159 -1.50991 0
M  V30 3013 C 292.434 0.109857 -2.01801 0
M  V30 3014 C 292.755 1.41958 -1.3369 0
M  V30 3015 O 292.025 1.9003 -0.475951 0
M  V30 3016 H 290.605 0.0435884 -0.745727 0
M  V30 3017 H 293.267 -0.597557 -1.85514 0
M  V30 3018 H 292.363 0.275489 -3.10882 0
M  V30 3019 N 292.664 1.56529 -0.183458 0
M  V30 3020 C 293.941 1.88959 0.50536 0
M  V30 3021 C 294.321 1.09523 1.80466 0
M  V30 3022 O 293.669 0.19278 2.27685 0
M  V30 3023 C 293.879 3.41162 0.73547 0
M  V30 3024 C 295.227 4.11155 1.06005 0
M  V30 3025 O 296.251 3.46548 0.823594 0
M  V30 3026 O 295.11 5.25318 1.50675 0
M  V30 3027 H 292.204 0.78441 0.261973 0
M  V30 3028 H 294.75 1.68231 -0.222802 0
M  V30 3029 H 293.522 3.90874 -0.182561 0
M  V30 3030 H 293.145 3.67543 1.51651 0
M  V30 3031 N 294.142 -0.090211 1.57342 0
M  V30 3032 C 295.074 -1.13541 1.99101 0
M  V30 3033 C 296.087 -1.3604 0.894258 0
M  V30 3034 O 297.276 -1.34606 1.17233 0
M  V30 3035 C 294.376 -2.49001 2.29895 0
M  V30 3036 C 293.549 -2.46712 3.61182 0
M  V30 3037 C 292.608 -3.64136 3.79857 0
M  V30 3038 O 291.634 -3.46405 4.51655 0
M  V30 3039 N 292.836 -4.83802 3.20806 0
M  V30 3040 H 295.601 -0.779942 2.89373 0
M  V30 3041 H 293.162 -0.279125 1.59476 0
M  V30 3042 H 295.154 -3.26166 2.39578 0
M  V30 3043 H 293.724 -2.76619 1.45605 0
M  V30 3044 H 292.944 -1.55058 3.62423 0
M  V30 3045 H 294.232 -2.42265 4.4742 0
M  V30 3046 H 293.63 -5.01112 2.62494 0
M  V30 3047 H 292.187 -5.58543 3.35966 0
M  V30 3048 N 295.62 -1.53406 -0.361157 0
M  V30 3049 C 297.031 -1.61442 -0.937728 0
M  V30 3050 C 297.382 -0.48461 -1.90121 0
M  V30 3051 O 296.507 0.388312 -2.12888 0
M  V30 3052 C 297.102 -2.92624 -1.70753 0
M  V30 3053 C 295.661 -3.02981 -2.23337 0
M  V30 3054 C 294.808 -2.5677 -1.04712 0
M  V30 3055 H 297.759 -1.58083 -0.139816 0
M  V30 3056 H 297.78 -2.80675 -2.56908 0
M  V30 3057 H 297.292 -3.74834 -1.00604 0
M  V30 3058 H 295.393 -2.25368 -2.96715 0
M  V30 3059 H 295.506 -4.0814 -2.50916 0
M  V30 3060 H 293.87 -2.11752 -1.41539 0
M  V30 3061 H 294.653 -3.41402 -0.360539 0
M  V30 3062 N 297.098 0.621204 -1.44841 0
M  V30 3063 C 298.326 1.40752 -1.51646 0
M  V30 3064 C 298.741 1.88246 -0.144549 0
M  V30 3065 O 298.098 1.61422 0.851416 0
M  V30 3066 C 298.149 2.62119 -2.4895 0
M  V30 3067 O 297.87 2.16602 -3.80808 0
M  V30 3068 C 299.371 3.55135 -2.65319 0
M  V30 3069 H 296.591 0.431325 -0.514004 0
M  V30 3070 H 299.135 0.758835 -1.899 0
M  V30 3071 H 297.29 3.23058 -2.13805 0
M  V30 3072 H 297.704 2.95358 -4.33433 0
M  V30 3073 H 299.178 4.36874 -3.37409 0
M  V30 3074 H 299.655 4.04592 -1.70886 0
M  V30 3075 H 300.261 3.00058 -3.01405 0
M  V30 3076 N 298.576 1.31904 0.862503 0
M  V30 3077 C 299.506 1.22782 1.98612 0
M  V30 3078 C 300.487 0.113362 1.69722 0
M  V30 3079 O 301.672 0.299218 1.91881 0
M  V30 3080 C 298.802 0.942058 3.34279 0
M  V30 3081 C 297.756 2.0169 3.77499 0
M  V30 3082 C 297.082 1.58369 5.10709 0
M  V30 3083 C 298.382 3.43096 3.93805 0
M  V30 3084 H 300.076 2.16788 2.06502 0
M  V30 3085 H 297.622 1.04366 0.992154 0
M  V30 3086 H 299.575 0.864818 4.1243 0
M  V30 3087 H 298.299 -0.0336603 3.26583 0
M  V30 3088 H 296.958 2.08416 3.01593 0
M  V30 3089 H 296.606 0.595628 4.99461 0
M  V30 3090 H 296.306 2.30279 5.40597 0
M  V30 3091 H 297.83 1.52067 5.91361 0
M  V30 3092 H 299.244 3.39003 4.62331 0
M  V30 3093 H 297.641 4.13288 4.35101 0
M  V30 3094 H 298.711 3.83334 2.96957 0
M  V30 3095 N 300.054 -1.07777 1.14986 0
M  V30 3096 C 301.302 -1.79934 0.920235 0
M  V30 3097 C 301.623 -1.86955 -0.554336 0
M  V30 3098 O 300.893 -1.36731 -1.40291 0
M  V30 3099 H 299.473 -0.666424 0.337473 0
M  V30 3100 H 302.135 -1.3027 1.44968 0
M  V30 3101 H 301.231 -2.82539 1.32583 0
M  V30 3102 N 301.532 -0.945985 -1.26051 0
M  V30 3103 C 302.778 -0.597002 -1.93814 0
M  V30 3104 C 303.111 0.862484 -1.73997 0
M  V30 3105 O 302.386 1.61769 -1.07986 0
M  V30 3106 C 302.669 -0.945937 -3.47454 0
M  V30 3107 C 302.522 -2.46052 -3.76535 0
M  V30 3108 C 303.841 -0.464785 -4.37639 0
M  V30 3109 H 300.96 -0.218366 -0.703907 0
M  V30 3110 H 303.602 -1.18107 -1.48831 0
M  V30 3111 H 301.752 -0.448902 -3.85898 0
M  V30 3112 H 303.424 -3.03065 -3.47778 0
M  V30 3113 H 301.667 -2.90194 -3.22444 0
M  V30 3114 H 302.338 -2.65517 -4.83947 0
M  V30 3115 H 304.814 -0.891016 -4.06448 0
M  V30 3116 H 303.69 -0.737712 -5.4392 0
M  V30 3117 H 303.951 0.635274 -4.37512 0
M  V30 3118 N 303.011 1.40521 -0.713556 0
M  V30 3119 C 303.974 2.29098 -0.0684347 0
M  V30 3120 C 304.974 1.45268 0.689472 0
M  V30 3121 O 306.164 1.66205 0.521677 0
M  V30 3122 C 303.296 3.28446 0.913024 0
M  V30 3123 H 304.489 2.87645 -0.84855 0
M  V30 3124 H 302.042 1.48809 -0.47809 0
M  V30 3125 H 302.777 2.74913 1.72027 0
M  V30 3126 H 302.562 3.90327 0.372472 0
M  V30 3127 H 304.052 3.94777 1.36165 0
M  V30 3128 N 304.489 0.459591 1.5075 0
M  V30 3129 C 305.714 -0.0996819 2.0716 0
M  V30 3130 C 306.139 -1.33761 1.32249 0
M  V30 3131 O 305.497 -1.77551 0.366786 0
M  V30 3132 C 305.545 -0.378226 3.58611 0
M  V30 3133 O 304.649 -1.46081 3.85661 0
M  V30 3134 H 303.99 0.00791392 0.663953 0
M  V30 3135 H 306.52 0.647329 1.9409 0
M  V30 3136 H 306.53 -0.622135 4.03229 0
M  V30 3137 H 305.205 0.526439 4.12555 0
M  V30 3138 H 303.782 -1.20511 3.5289 0
M  V30 3139 N 305.967 -1.56429 0.191757 0
M  V30 3140 C 306.897 -2.21937 -0.725696 0
M  V30 3141 C 307.878 -1.1814 -1.2238 0
M  V30 3142 O 309.063 -1.46636 -1.27325 0
M  V30 3143 C 306.193 -2.87611 -1.94672 0
M  V30 3144 C 305.147 -3.97623 -1.58366 0
M  V30 3145 C 304.473 -4.50446 -2.88102 0
M  V30 3146 C 305.773 -5.16197 -0.796133 0
M  V30 3147 H 307.467 -2.98861 -0.179606 0
M  V30 3148 H 305.013 -1.43749 -0.0849464 0
M  V30 3149 H 306.966 -3.3212 -2.59373 0
M  V30 3150 H 305.69 -2.08087 -2.51728 0
M  V30 3151 H 304.349 -3.53801 -0.960247 0
M  V30 3152 H 303.997 -3.67688 -3.43241 0
M  V30 3153 H 303.697 -5.24675 -2.64556 0
M  V30 3154 H 305.221 -4.97654 -3.53798 0
M  V30 3155 H 306.635 -5.57271 -1.34618 0
M  V30 3156 H 305.032 -5.96471 -0.658928 0
M  V30 3157 H 306.102 -4.84473 0.203478 0
M  V30 3158 N 307.445 0.0818655 -1.57387 0
M  V30 3159 C 308.355 1.11642 -2.06333 0
M  V30 3160 C 309.371 1.43033 -0.99083 0
M  V30 3161 O 310.547 1.53411 -1.30488 0
M  V30 3162 C 307.612 2.41342 -2.48907 0
M  V30 3163 C 306.673 2.17014 -3.7041 0
M  V30 3164 C 305.906 3.4053 -4.10944 0
M  V30 3165 O 306.129 4.4927 -3.51444 0
M  V30 3166 O 305.063 3.29336 -5.03807 0
M  V30 3167 H 308.889 0.730657 -2.9478 0
M  V30 3168 H 306.474 0.295301 -1.46452 0
M  V30 3169 H 308.356 3.17691 -2.76858 0
M  V30 3170 H 307.031 2.79319 -1.63593 0
M  V30 3171 H 305.938 1.38403 -3.47556 0
M  V30 3172 H 307.271 1.83923 -4.56545 0
M  V30 3173 N 308.923 1.53595 0.353017 0
M  V30 3174 C 310.169 1.70638 1.09593 0
M  V30 3175 C 310.502 0.463286 1.88593 0
M  V30 3176 O 309.777 -0.539597 1.86865 0
M  V30 3177 C 310.06 2.96406 2.04489 0
M  V30 3178 C 309.913 4.30901 1.29014 0
M  V30 3179 C 311.232 3.17812 3.0444 0
M  V30 3180 H 308.351 0.620913 0.397034 0
M  V30 3181 H 310.993 1.86254 0.375446 0
M  V30 3182 H 309.143 2.83223 2.65927 0
M  V30 3183 H 310.815 4.55917 0.702638 0
M  V30 3184 H 309.058 4.29741 0.592071 0
M  V30 3185 H 309.729 5.1506 1.98537 0
M  V30 3186 H 312.205 3.30263 2.53112 0
M  V30 3187 H 311.081 4.07223 3.6805 0
M  V30 3188 H 311.342 2.33669 3.75301 0
M  V30 3189 N 310.401 -0.613514 1.45168 0
M  V30 3190 C 311.364 -1.7065 1.53007 0
M  V30 3191 C 312.364 -1.5548 0.410184 0
M  V30 3192 O 313.554 -1.60656 0.673455 0
M  V30 3193 C 310.686 -3.09875 1.42093 0
M  V30 3194 H 311.879 -1.65068 2.50385 0
M  V30 3195 H 309.432 -0.828728 1.32521 0
M  V30 3196 H 310.167 -3.21039 0.458769 0
M  V30 3197 H 309.952 -3.22293 2.23315 0
M  V30 3198 H 311.442 -3.895 1.50598 0
M  V30 3199 N 311.879 -1.3236 -0.855495 0
M  V30 3200 C 313.125 -1.23054 -1.612 0
M  V30 3201 C 313.458 0.207404 -1.93089 0
M  V30 3202 O 312.733 1.14432 -1.57275 0
M  V30 3203 C 313.016 -2.08937 -2.93287 0
M  V30 3204 C 312.869 -3.61105 -2.68185 0
M  V30 3205 C 314.188 -1.94986 -3.94549 0
M  V30 3206 H 311.307 -0.448364 -0.584926 0
M  V30 3207 H 313.949 -1.62297 -0.987917 0
M  V30 3208 H 312.099 -1.75599 -3.46551 0
M  V30 3209 H 313.771 -4.04652 -2.21483 0
M  V30 3210 H 312.014 -3.83813 -2.02164 0
M  V30 3211 H 312.685 -4.16522 -3.62234 0
M  V30 3212 H 315.161 -2.24189 -3.5054 0
M  V30 3213 H 314.037 -2.57356 -4.84829 0
M  V30 3214 H 314.298 -0.917263 -4.3248 0
M  V30 3215 N 313.357 1.07166 -1.15556 0
M  V30 3216 C 314.287 2.16403 -0.877046 0
M  V30 3217 C 315.268 1.69217 0.173111 0
M  V30 3218 O 316.453 1.94181 0.027084 0
M  V30 3219 C 313.583 3.45349 -0.367632 0
M  V30 3220 C 312.537 4.05995 -1.35468 0
M  V30 3221 C 311.863 5.30045 -0.704038 0
M  V30 3222 C 313.163 4.45804 -2.72132 0
M  V30 3223 H 314.857 2.39959 -1.79053 0
M  V30 3224 H 312.403 1.15325 -0.862331 0
M  V30 3225 H 314.356 4.21095 -0.160317 0
M  V30 3226 H 313.08 3.21385 0.581326 0
M  V30 3227 H 311.739 3.32296 -1.54839 0
M  V30 3228 H 311.387 5.02373 0.251128 0
M  V30 3229 H 311.087 5.71579 -1.36277 0
M  V30 3230 H 312.611 6.08495 -0.50654 0
M  V30 3231 H 314.025 5.12671 -2.56595 0
M  V30 3232 H 312.422 4.98296 -3.34397 0
M  V30 3233 H 313.492 3.57083 -3.28054 0
M  V30 3234 N 314.835 0.952656 1.25548 0
M  V30 3235 C 316.112 0.523818 1.88456 0
M  V30 3236 C 316.492 -0.998871 1.85973 0
M  V30 3237 O 315.84 -1.86381 1.3219 0
M  V30 3238 C 316.05 1.0982 3.31271 0
M  V30 3239 C 317.398 1.17385 4.08051 0
M  V30 3240 O 318.422 1.04961 3.40384 0
M  V30 3241 O 317.281 1.36852 5.29088 0
M  V30 3242 H 314.375 0.172485 0.808813 0
M  V30 3243 H 316.921 1.04596 1.33633 0
M  V30 3244 H 315.693 2.1415 3.27499 0
M  V30 3245 H 315.316 0.559191 3.93648 0
M  V30 3246 N 316.313 -1.40141 0.720998 0
M  V30 3247 C 317.276 -2.29058 0.0805834 0
M  V30 3248 C 318.276 -1.45632 -0.681758 0
M  V30 3249 O 319.466 -1.6648 -0.512856 0
M  V30 3250 C 316.598 -3.28925 -0.895593 0
M  V30 3251 H 317.791 -2.87191 0.863793 0
M  V30 3252 H 315.344 -1.48553 0.485975 0
M  V30 3253 H 316.079 -2.75822 -1.70566 0
M  V30 3254 H 315.864 -3.90519 -0.351766 0
M  V30 3255 H 317.354 -3.95494 -1.34069 0
M  V30 3256 N 317.792 -0.46758 -1.50504 0
M  V30 3257 C 318.74 0.342482 -2.30065 0
M  V30 3258 C 319.734 0.993596 -1.37201 0
M  V30 3259 O 320.94 0.925102 -1.54408 0
M  V30 3260 H 317.315 0.129283 -0.740803 0
M  V30 3261 H 319.286 -0.34899 -2.96352 0
M  V30 3262 C 318.035 1.4139 -3.17654 0
M  V30 3263 H 317.358 0.922264 -3.89017 0
M  V30 3264 H 318.798 1.95335 -3.76325 0
M  V30 3265 C 317.257 2.4139 -2.35016 0
M  V30 3266 O 317.787 3.46586 -2.03079 0
M  V30 3267 N 315.993 2.13021 -1.97662 0
M  V30 3268 H 315.54 1.27499 -2.23834 0
M  V30 3269 H 315.498 2.80164 -1.42673 0
M  V30 3270 N 319.27 1.56325 -0.20005 0
M  V30 3271 C 320.686 1.58839 0.155716 0
M  V30 3272 C 320.886 1.21636 1.60645 0
M  V30 3273 O 319.942 0.941437 2.34293 0
M  V30 3274 C 321.255 3.0032 -0.151124 0
M  V30 3275 C 322.803 3.12866 -0.0916284 0
M  V30 3276 C 323.278 4.56488 -0.371845 0
M  V30 3277 N 324.769 4.62089 -0.320641 0
M  V30 3278 C 325.504 5.71116 -0.511243 0
M  V30 3279 N 325 6.88592 -0.762461 0
M  V30 3280 N 326.793 5.60335 -0.445157 0
M  V30 3281 H 318.944 1.78788 -1.14668 0
M  V30 3282 H 321.207 0.829996 -0.458051 0
M  V30 3283 H 320.913 3.32117 -1.15721 0
M  V30 3284 H 320.787 3.73257 0.543986 0
M  V30 3285 H 323.174 2.80878 0.905065 0
M  V30 3286 H 323.255 2.42304 -0.81989 0
M  V30 3287 H 322.899 4.89189 -1.36588 0
M  V30 3288 H 322.829 5.25246 0.377362 0
M  V30 3289 H 325.32 3.77665 -0.13329 0
M  V30 3290 H 325.633 7.67581 -0.896576 0
M  V30 3291 H 323.978 6.90387 -0.799412 0
M  V30 3292 H 327.169 4.67436 -0.249278 0
M  V30 3293 H 327.342 6.45243 -0.597116 0
M  V30 3294 N 320.748 -0.0735177 1.57428 0
M  V30 3295 C 322.159 -0.625551 1.75908 0
M  V30 3296 C 322.51 -1.78 0.825261 0
M  V30 3297 O 321.635 -2.16398 0.00893964 0
M  V30 3298 C 322.23 -1.14155 3.18989 0
M  V30 3299 C 320.789 -1.63946 3.38819 0
M  V30 3300 C 319.936 -0.558151 2.71625 0
M  V30 3301 H 322.887 0.152647 1.57964 0
M  V30 3302 H 322.908 -2.0104 3.23053 0
M  V30 3303 H 322.42 -0.301116 3.8693 0
M  V30 3304 H 320.521 -2.50321 2.7599 0
M  V30 3305 H 320.634 -1.71759 4.47253 0
M  V30 3306 H 318.998 -1.00278 2.34129 0
M  V30 3307 H 319.781 0.272071 3.4222 0
M  V30 3308 N 322.226 -1.5378 -0.344866 0
M  V30 3309 C 323.642 -1.44015 -0.687888 0
M  V30 3310 C 323.842 -0.595834 -1.92489 0
M  V30 3311 O 322.898 -0.0863064 -2.52352 0
M  V30 3312 C 324.211 -2.87481 -0.881758 0
M  V30 3313 C 325.759 -2.97247 -0.980459 0
M  V30 3314 C 326.234 -4.41819 -1.20665 0
M  V30 3315 N 327.725 -4.45339 -1.27389 0
M  V30 3316 C 328.46 -5.54333 -1.46639 0
M  V30 3317 N 327.956 -6.73335 -1.63071 0
M  V30 3318 N 329.749 -5.41944 -1.49176 0
M  V30 3319 H 321.9 -2.07169 0.468475 0
M  V30 3320 H 324.163 -0.93643 0.147655 0
M  V30 3321 H 323.869 -3.51672 -0.0443444 0
M  V30 3322 H 323.743 -3.32352 -1.78388 0
M  V30 3323 H 326.13 -2.33197 -1.8084 0
M  V30 3324 H 326.211 -2.5574 -0.0552713 0
M  V30 3325 H 325.855 -5.06449 -0.383652 0
M  V30 3326 H 325.785 -4.80917 -2.14539 0
M  V30 3327 H 328.276 -3.59585 -1.1622 0
M  V30 3328 H 328.589 -7.52165 -1.77391 0
M  V30 3329 H 326.934 -6.76282 -1.60209 0
M  V30 3330 H 330.125 -4.47932 -1.3592 0
M  V30 3331 H 330.298 -6.26946 -1.63837 0
M  V30 3332 N 323.704 0.605807 -1.45491 0
M  V30 3333 C 325.12 0.926751 -1.29936 0
M  V30 3334 C 325.32 1.99896 -0.253706 0
M  V30 3335 O 324.376 2.50038 0.351737 0
M  V30 3336 C 325.689 1.36599 -2.67883 0
M  V30 3337 C 327.237 1.4801 -2.75793 0
M  V30 3338 C 327.712 1.95309 -4.14268 0
M  V30 3339 N 329.203 2.0254 -4.16571 0
M  V30 3340 C 329.938 2.40363 -5.20589 0
M  V30 3341 N 329.434 2.77143 -6.34952 0
M  V30 3342 N 331.227 2.40718 -5.07948 0
M  V30 3343 H 323.378 -0.102862 -2.12151 0
M  V30 3344 H 325.641 0.016639 -0.947854 0
M  V30 3345 H 325.347 0.652306 -3.45598 0
M  V30 3346 H 325.221 2.33215 -2.96463 0
M  V30 3347 H 327.608 2.1847 -1.98381 0
M  V30 3348 H 327.689 0.497041 -2.50925 0
M  V30 3349 H 327.333 1.25436 -4.92167 0
M  V30 3350 H 327.263 2.94532 -4.3653 0
M  V30 3351 H 329.754 1.76699 -3.34045 0
M  V30 3352 H 330.067 3.0489 -7.10114 0
M  V30 3353 H 328.412 2.74834 -6.3835 0
M  V30 3354 H 331.603 2.11392 -4.1765 0
M  V30 3355 H 331.776 2.69869 -5.89131 0
M  V30 3356 N 325.182 1.32811 0.848464 0
M  V30 3357 C 326.145 1.22194 1.9391 0
M  V30 3358 C 327.145 0.143404 1.60159 0
M  V30 3359 O 328.335 0.394253 1.6968 0
M  V30 3360 C 325.467 0.88067 3.29328 0
M  V30 3361 H 326.66 2.19127 2.04752 0
M  V30 3362 H 324.213 1.16731 1.0394 0
M  V30 3363 H 324.948 -0.0865776 3.24184 0
M  V30 3364 H 324.733 1.66052 3.55203 0
M  V30 3365 H 326.223 0.830871 4.09251 0
M  V30 3366 N 326.66 -1.06551 1.16123 0
M  V30 3367 C 327.907 -1.79302 0.941126 0
M  V30 3368 C 328.235 -1.87105 -0.531235 0
M  V30 3369 O 327.49 -1.35692 -1.41018 0
M  V30 3370 C 327.789 -3.23911 1.51052 0
M  V30 3371 C 327.455 -3.36193 3.00475 0
M  V30 3372 C 326.117 -3.39252 3.41265 0
M  V30 3373 C 328.469 -3.38326 3.96465 0
M  V30 3374 C 325.797 -3.42057 4.76669 0
M  V30 3375 C 328.149 -3.4267 5.31752 0
M  V30 3376 C 326.813 -3.4401 5.72026 0
M  V30 3377 H 326.083 -0.656111 0.344382 0
M  V30 3378 H 328.73 -1.25325 1.44796 0
M  V30 3379 H 327.035 -3.80723 0.925063 0
M  V30 3380 H 328.732 -3.78793 1.31593 0
M  V30 3381 H 325.322 -3.34516 2.6795 0
M  V30 3382 H 329.506 -3.35176 3.6602 0
M  V30 3383 H 324.762 -3.41398 5.07206 0
M  V30 3384 H 328.936 -3.43268 6.05921 0
M  V30 3385 H 326.563 -3.45937 6.76928 0
M  V30 3386 N 328.138 -0.959301 -1.25041 0
M  V30 3387 C 329.554 -0.664474 -1.4511 0
M  V30 3388 C 329.754 0.776481 -1.85938 0
M  V30 3389 O 328.81 1.55128 -1.99227 0
M  V30 3390 C 330.123 -1.64139 -2.5195 0
M  V30 3391 C 331.671 -1.65309 -2.65786 0
M  V30 3392 C 332.146 -2.61777 -3.75815 0
M  V30 3393 N 333.637 -2.60169 -3.83231 0
M  V30 3394 C 334.372 -3.31489 -4.6787 0
M  V30 3395 N 333.868 -4.12298 -5.56761 0
M  V30 3396 N 335.661 -3.20354 -4.61876 0
M  V30 3397 H 327.812 -1.89043 -0.968332 0
M  V30 3398 H 330.075 -0.813408 -0.4869 0
M  V30 3399 H 329.781 -2.67086 -2.28819 0
M  V30 3400 H 329.655 -1.40756 -3.49954 0
M  V30 3401 H 332.042 -0.630778 -2.8828 0
M  V30 3402 H 332.123 -1.92753 -1.68167 0
M  V30 3403 H 331.767 -3.64137 -3.54071 0
M  V30 3404 H 331.697 -2.31616 -4.72929 0
M  V30 3405 H 334.188 -2.01507 -3.19692 0
M  V30 3406 H 334.501 -4.63625 -6.18281 0
M  V30 3407 H 332.846 -4.16395 -5.56454 0
M  V30 3408 H 336.037 -2.56692 -3.91442 0
M  V30 3409 H 336.21 -3.76201 -5.27614 0
M  V30 3410 N 329.616 1.39756 -0.72842 0
M  V30 3411 C 331.032 1.5442 -0.403308 0
M  V30 3412 C 331.232 1.69694 1.08656 0
M  V30 3413 O 330.288 1.69373 1.87267 0
M  V30 3414 C 331.601 2.76555 -1.18058 0
M  V30 3415 C 333.149 2.90384 -1.16815 0
M  V30 3416 C 333.624 4.15449 -1.92785 0
M  V30 3417 N 335.115 4.22475 -1.89918 0
M  V30 3418 C 335.85 5.1818 -2.45514 0
M  V30 3419 N 335.346 6.19714 -3.09719 0
M  V30 3420 N 337.139 5.1035 -2.35584 0
M  V30 3421 H 329.29 1.28089 -1.69431 0
M  V30 3422 H 331.553 0.620327 -0.716867 0
M  V30 3423 H 331.259 2.7159 -2.23455 0
M  V30 3424 H 331.133 3.69033 -0.780662 0
M  V30 3425 H 333.52 2.94846 -0.12234 0
M  V30 3426 H 333.601 1.98988 -1.6074 0
M  V30 3427 H 333.245 4.11749 -2.97364 0
M  V30 3428 H 333.175 5.05877 -1.46272 0
M  V30 3429 H 335.666 3.49743 -1.43138 0
M  V30 3430 H 335.979 6.8919 -3.49625 0
M  V30 3431 H 334.324 6.20121 -3.13807 0
M  V30 3432 H 337.515 4.2996 -1.85072 0
M  V30 3433 H 337.688 5.84761 -2.79211 0
M  V30 3434 N 331.094 0.475555 1.50254 0
M  V30 3435 C 332.343 -0.0795996 2.01543 0
M  V30 3436 C 332.656 -1.4038 1.36209 0
M  V30 3437 O 333.862 -2.04415 1.7868 0
M  V30 3438 C 332.318 -0.192363 3.59386 0
M  V30 3439 C 331.926 1.12367 4.33679 0
M  V30 3440 C 333.67 -0.699238 4.18701 0
M  V30 3441 C 331.577 0.974453 5.83317 0
M  V30 3442 H 330.507 -0.0335228 0.753254 0
M  V30 3443 H 333.158 0.611128 1.73025 0
M  V30 3444 H 331.54 -0.946974 3.84511 0
M  V30 3445 H 332.714 1.88958 4.20276 0
M  V30 3446 H 331.029 1.562 3.85993 0
M  V30 3447 H 333.626 -0.827978 5.28251 0
M  V30 3448 H 333.969 -1.69171 3.80377 0
M  V30 3449 H 334.502 -0.00188807 3.978 0
M  V30 3450 H 331.241 1.94042 6.26121 0
M  V30 3451 H 330.761 0.248998 5.99283 0
M  V30 3452 H 332.44 0.642867 6.43798 0
M  V30 3453 N 332.573 -1.56217 0.208337 0
M  V30 3454 C 333.801 -2.02337 -0.43215 0
M  V30 3455 C 334.216 -1.08834 -1.54275 0
M  V30 3456 O 333.573 -0.0955462 -1.8225 0
M  V30 3457 C 333.624 -3.48072 -0.976138 0
M  V30 3458 O 333.345 -4.38007 0.0901621 0
M  V30 3459 C 334.846 -4.09773 -1.69119 0
M  V30 3460 H 332.066 -0.662385 -0.10718 0
M  V30 3461 H 334.61 -2.01966 0.320923 0
M  V30 3462 H 332.765 -3.49099 -1.67954 0
M  V30 3463 H 333.179 -5.23543 -0.316701 0
M  V30 3464 H 334.653 -5.13556 -2.02397 0
M  V30 3465 H 335.13 -3.53999 -2.59964 0
M  V30 3466 H 335.736 -4.12556 -1.03332 0
M  V30 3467 N 334.051 0.0651679 -1.57465 0
M  V30 3468 C 335.299 0.761555 -1.87202 0
M  V30 3469 C 335.62 1.77778 -0.801243 0
M  V30 3470 O 334.89 1.95166 0.16937 0
M  V30 3471 H 333.47 0.284251 -0.690804 0
M  V30 3472 H 336.132 0.0396827 -1.9486 0
M  V30 3473 H 335.228 1.27365 -2.84929 0
M  V30 3474 N 335.529 1.53961 0.336706 0
M  V30 3475 C 336.754 1.75797 1.10046 0
M  V30 3476 C 337.179 0.498985 1.81361 0
M  V30 3477 O 336.537 -0.548769 1.72795 0
M  V30 3478 C 336.585 2.94257 2.08436 0
M  V30 3479 O 335.689 2.64883 3.16087 0
M  V30 3480 H 335.03 0.582936 0.317934 0
M  V30 3481 H 337.56 2.00945 0.38501 0
M  V30 3482 H 337.57 3.21237 2.51537 0
M  V30 3483 H 336.245 3.85564 1.55927 0
M  V30 3484 H 334.822 2.48812 2.77753 0
M  V30 3485 N 337.007 -0.598083 1.45811 0
M  V30 3486 C 337.97 -1.69018 1.54808 0
M  V30 3487 C 338.97 -1.55037 0.426652 0
M  V30 3488 O 340.16 -1.59932 0.690456 0
M  V30 3489 C 337.292 -3.0835 1.45371 0
M  V30 3490 H 338.485 -1.62403 2.52121 0
M  V30 3491 H 336.038 -0.814626 1.33392 0
M  V30 3492 H 336.773 -3.20534 0.492793 0
M  V30 3493 H 336.558 -3.19907 2.26721 0
M  V30 3494 H 338.048 -3.8788 1.54721 0
M  V30 3495 N 338.485 -1.33259 -0.841409 0
M  V30 3496 C 339.415 -1.25926 -1.96634 0
M  V30 3497 C 340.396 -0.140349 -1.6952 0
M  V30 3498 O 341.581 -0.329707 -1.91381 0
M  V30 3499 C 338.711 -0.99512 -3.32738 0
M  V30 3500 C 337.665 -2.0767 -3.74242 0
M  V30 3501 C 336.991 -1.66474 -5.08125 0
M  V30 3502 C 338.291 -3.49318 -3.88297 0
M  V30 3503 H 339.985 -2.20046 -2.03027 0
M  V30 3504 H 337.531 -1.05931 -0.975425 0
M  V30 3505 H 339.484 -0.930323 -4.11002 0
M  V30 3506 H 338.208 -0.0183004 -3.26595 0
M  V30 3507 H 336.867 -2.13187 -2.98239 0
M  V30 3508 H 336.515 -0.675012 -4.9845 0
M  V30 3509 H 336.215 -2.3885 -5.36865 0
M  V30 3510 H 337.739 -1.61455 -5.88867 0
M  V30 3511 H 339.153 -3.46316 -4.56879 0
M  V30 3512 H 337.55 -4.20158 -4.28471 0
M  V30 3513 H 338.62 -3.8801 -2.9082 0
M  V30 3514 N 339.963 1.05934 -1.16686 0
M  V30 3515 C 340.895 2.13468 -0.834503 0
M  V30 3516 C 341.908 1.62013 0.15984 0
M  V30 3517 O 343.097 1.7838 -0.0654228 0
M  V30 3518 C 340.197 3.3817 -0.222361 0
M  V30 3519 C 339.37 4.18928 -1.25771 0
M  V30 3520 C 338.429 5.21985 -0.664703 0
M  V30 3521 O 337.455 5.53334 -1.33453 0
M  V30 3522 N 338.657 5.77919 0.546834 0
M  V30 3523 H 341.422 2.42578 -1.75999 0
M  V30 3524 H 338.983 1.21967 -1.06469 0
M  V30 3525 H 340.975 4.04266 0.187472 0
M  V30 3526 H 339.545 3.06655 0.606758 0
M  V30 3527 H 338.765 3.48433 -1.84358 0
M  V30 3528 H 340.053 4.69687 -1.95631 0
M  V30 3529 H 339.451 5.54721 1.10912 0
M  V30 3530 H 338.008 6.45573 0.898829 0
M  V30 3531 N 341.441 0.965919 1.2453 0
M  V30 3532 C 342.404 0.499547 2.2369 0
M  V30 3533 C 343.404 -0.40294 1.5567 0
M  V30 3534 O 344.594 -0.19865 1.73064 0
M  V30 3535 C 341.726 -0.276792 3.39774 0
M  V30 3536 H 342.919 1.37613 2.66463 0
M  V30 3537 H 340.472 0.750324 1.37112 0
M  V30 3538 H 341.207 -1.17055 3.02438 0
M  V30 3539 H 340.992 0.370826 3.90343 0
M  V30 3540 H 342.482 -0.592175 4.1338 0
M  V30 3541 N 342.919 -1.39368 0.735821 0
M  V30 3542 C 343.849 -2.33234 0.111506 0
M  V30 3543 C 344.83 -1.53954 -0.723334 0
M  V30 3544 O 346.015 -1.82344 -0.668147 0
M  V30 3545 C 343.145 -3.38057 -0.795917 0
M  V30 3546 C 342.099 -4.2795 -0.065172 0
M  V30 3547 C 341.425 -5.23479 -1.08967 0
M  V30 3548 C 342.725 -5.10741 1.09273 0
M  V30 3549 H 344.419 -2.85692 0.895571 0
M  V30 3550 H 341.965 -1.37364 0.432109 0
M  V30 3551 H 343.918 -4.02675 -1.24221 0
M  V30 3552 H 342.642 -2.8404 -1.61211 0
M  V30 3553 H 341.301 -3.64813 0.361511 0
M  V30 3554 H 340.949 -4.65758 -1.89944 0
M  V30 3555 H 340.649 -5.84472 -0.605489 0
M  V30 3556 H 342.173 -5.90974 -1.53565 0
M  V30 3557 H 343.587 -5.68699 0.724841 0
M  V30 3558 H 341.984 -5.8088 1.50659 0
M  V30 3559 H 343.054 -4.45525 1.91404 0
M  V30 3560 N 344.397 -0.483516 -1.5 0
M  V30 3561 C 345.327 0.293829 -2.31644 0
M  V30 3562 C 346.308 0.978864 -1.39112 0
M  V30 3563 O 347.493 0.973644 -1.68029 0
M  V30 3564 C 344.623 1.36897 -3.19181 0
M  V30 3565 C 343.577 0.804833 -4.20365 0
M  V30 3566 C 342.903 1.9792 -4.96721 0
M  V30 3567 C 344.203 -0.192313 -5.21946 0
M  V30 3568 H 345.897 -0.387616 -2.9688 0
M  V30 3569 H 343.443 -0.187856 -1.42769 0
M  V30 3570 H 345.396 1.92037 -3.751 0
M  V30 3571 H 344.12 2.07936 -2.51853 0
M  V30 3572 H 342.779 0.275319 -3.65565 0
M  V30 3573 H 342.427 2.67686 -4.25856 0
M  V30 3574 H 342.127 1.60789 -5.65173 0
M  V30 3575 H 343.651 2.53526 -5.55479 0
M  V30 3576 H 345.065 0.270333 -5.72662 0
M  V30 3577 H 343.462 -0.478543 -5.98189 0
M  V30 3578 H 344.532 -1.11409 -4.71928 0
M  V30 3579 N 345.875 1.56104 -0.216619 0
M  V30 3580 C 347.121 1.98466 0.417033 0
M  V30 3581 C 347.454 1.10403 1.59765 0
M  V30 3582 O 346.729 0.160632 1.93836 0
M  V30 3583 C 347.012 3.49769 0.85637 0
M  V30 3584 C 346.865 4.48606 -0.327546 0
M  V30 3585 C 348.184 4.05339 1.7143 0
M  V30 3586 H 345.303 0.721551 0.150112 0
M  V30 3587 H 347.945 1.87423 -0.311864 0
M  V30 3588 H 346.095 3.5931 1.47745 0
M  V30 3589 H 347.767 4.5108 -0.965618 0
M  V30 3590 H 346.01 4.22682 -0.975805 0
M  V30 3591 H 346.681 5.51995 0.0227149 0
M  V30 3592 H 349.157 3.98712 1.19031 0
M  V30 3593 H 348.033 5.11533 1.99061 0
M  V30 3594 H 348.294 3.51918 2.67593 0
M  V30 3595 N 347.353 -0.0568162 1.57498 0
M  V30 3596 C 348.63 -0.786954 1.79071 0
M  V30 3597 C 349.01 -1.95028 0.80792 0
M  V30 3598 O 348.358 -2.27968 -0.155858 0
M  V30 3599 C 348.568 -1.24594 3.26002 0
M  V30 3600 C 349.916 -1.67323 3.90241 0
M  V30 3601 O 350.94 -1.34124 3.29984 0
M  V30 3602 O 349.799 -2.28842 4.9628 0
M  V30 3603 H 346.893 -0.378262 0.735423 0
M  V30 3604 H 349.439 -0.035734 1.69662 0
M  V30 3605 H 348.211 -0.41423 3.89101 0
M  V30 3606 H 347.834 -2.05803 3.40192 0
M  V30 3607 N 348.832 -1.54138 -0.328536 0
M  V30 3608 C 349.764 -1.79509 -1.4251 0
M  V30 3609 C 350.777 -0.67688 -1.48061 0
M  V30 3610 O 351.966 -0.953898 -1.50874 0
M  V30 3611 C 349.066 -1.89337 -2.81078 0
M  V30 3612 C 348.239 -3.19443 -2.98789 0
M  V30 3613 C 347.298 -3.20036 -4.17688 0
M  V30 3614 O 346.324 -3.93697 -4.11086 0
M  V30 3615 N 347.526 -2.43467 -5.26976 0
M  V30 3616 H 350.291 -2.74139 -1.21111 0
M  V30 3617 H 347.852 -1.53373 -0.518499 0
M  V30 3618 H 349.844 -1.87167 -3.58818 0
M  V30 3619 H 348.414 -1.01826 -2.95551 0
M  V30 3620 H 347.634 -3.34614 -2.08391 0
M  V30 3621 H 348.922 -4.05354 -3.07515 0
M  V30 3622 H 348.32 -1.83201 -5.35214 0
M  V30 3623 H 346.877 -2.4708 -6.03154 0
M  V30 3624 N 350.31 0.590341 -1.46126 0
M  V30 3625 C 351.22 1.72793 -1.58681 0
M  V30 3626 C 352.236 1.67516 -0.470566 0
M  V30 3627 O 353.412 1.87562 -0.733642 0
M  V30 3628 C 350.477 3.09287 -1.5666 0
M  V30 3629 C 349.538 3.25886 -2.79458 0
M  V30 3630 C 348.771 4.55869 -2.77524 0
M  V30 3631 O 348.994 5.3928 -1.85832 0
M  V30 3632 O 347.928 4.75552 -3.68964 0
M  V30 3633 H 351.754 1.65149 -2.54872 0
M  V30 3634 H 349.339 0.756486 -1.28832 0
M  V30 3635 H 351.221 3.90577 -1.58202 0
M  V30 3636 H 349.896 3.17385 -0.636271 0
M  V30 3637 H 348.803 2.44119 -2.83472 0
M  V30 3638 H 350.136 3.22675 -3.71674 0
M  V30 3639 N 351.788 1.33704 0.83433 0
M  V30 3640 C 353.013 1.28615 1.62705 0
M  V30 3641 C 353.438 -0.139242 1.87584 0
M  V30 3642 O 352.796 -1.09734 1.4432 0
M  V30 3643 C 352.844 2.07139 2.95171 0
M  V30 3644 O 351.948 1.4331 3.86699 0
M  V30 3645 H 351.289 0.44226 0.49528 0
M  V30 3646 H 353.819 1.76335 1.03766 0
M  V30 3647 H 353.829 2.18073 3.44831 0
M  V30 3648 H 352.504 3.10779 2.76386 0
M  V30 3649 H 351.081 1.4105 3.45195 0
M  V30 3650 N 353.266 -1.05314 1.17247 0
M  V30 3651 C 354.677 -1.59753 0.96623 0
M  V30 3652 C 355.028 -1.9005 -0.487378 0
M  V30 3653 O 354.153 -1.68126 -1.36245 0
M  V30 3654 C 354.748 -2.90249 1.74759 0
M  V30 3655 C 353.307 -3.41352 1.58606 0
M  V30 3656 C 352.454 -2.15103 1.75002 0
M  V30 3657 H 355.405 -0.881406 1.31973 0
M  V30 3658 H 355.426 -3.60097 1.22925 0
M  V30 3659 H 354.938 -2.68166 2.8055 0
M  V30 3660 H 353.039 -3.68474 0.552985 0
M  V30 3661 H 353.152 -4.16019 2.37624 0
M  V30 3662 H 351.516 -2.25804 1.17833 0
M  V30 3663 H 352.299 -1.95491 2.82202 0
M  V30 3664 N 354.744 -0.972509 -1.24016 0
M  V30 3665 C 355.676 -0.464375 -2.24446 0
M  V30 3666 C 356.689 0.4295 -1.57032 0
M  V30 3667 O 357.878 0.234902 -1.76948 0
M  V30 3668 C 354.978 0.348385 -3.37105 0
M  V30 3669 C 354.151 -0.53673 -4.34094 0
M  V30 3670 C 353.21 0.220838 -5.25736 0
M  V30 3671 O 352.236 -0.386867 -5.67884 0
M  V30 3672 N 353.438 1.50907 -5.60542 0
M  V30 3673 H 356.203 -1.32788 -2.68677 0
M  V30 3674 H 353.764 -0.844877 -1.38107 0
M  V30 3675 H 355.756 0.863341 -3.95384 0
M  V30 3676 H 354.326 1.11285 -2.92121 0
M  V30 3677 H 353.546 -1.23261 -3.74433 0
M  V30 3678 H 354.834 -1.14022 -4.95859 0
M  V30 3679 H 354.232 2.02444 -5.28236 0
M  V30 3680 H 352.789 1.96962 -6.21329 0
M  V30 3681 N 356.222 1.38976 -0.743202 0
M  V30 3682 C 357.447 2.05161 -0.303936 0
M  V30 3683 C 357.872 1.55677 1.05576 0
M  V30 3684 O 357.23 0.704131 1.67068 0
M  V30 3685 C 357.278 3.59138 -0.324373 0
M  V30 3686 O 356.382 4.06668 0.685204 0
M  V30 3687 H 355.723 0.649815 -0.136518 0
M  V30 3688 H 358.253 1.77852 -1.01142 0
M  V30 3689 H 358.263 4.07639 -0.171618 0
M  V30 3690 H 356.938 3.94515 -1.31647 0
M  V30 3691 H 355.515 3.69561 0.497913 0
M  V30 3692 N 357.7 0.491464 1.49741 0
M  V30 3693 C 358.977 -0.118984 1.95238 0
M  V30 3694 C 359.357 -1.55044 1.43264 0
M  V30 3695 O 358.705 -2.19287 0.642287 0
M  V30 3696 C 358.915 -0.0414187 3.48975 0
M  V30 3697 C 360.263 -0.220133 4.24029 0
M  V30 3698 O 361.287 -0.117055 3.56008 0
M  V30 3699 O 360.146 -0.430567 5.44801 0
M  V30 3700 H 357.24 -0.100536 0.820866 0
M  V30 3701 H 359.786 0.553322 1.60426 0
M  V30 3702 H 358.558 0.957214 3.79412 0
M  V30 3703 H 358.181 -0.754292 3.9038 0
M  V30 3704 N 359.178 -1.55987 0.224894 0
M  V30 3705 C 360.426 -1.97998 -0.405099 0
M  V30 3706 C 360.747 -1.11387 -1.60056 0
M  V30 3707 O 360.017 -0.191645 -1.9496 0
M  V30 3708 H 358.597 -0.731235 -0.152658 0
M  V30 3709 H 361.259 -1.92279 0.318567 0
M  V30 3710 H 360.355 -3.03463 -0.729167 0
M  V30 3711 N 360.656 0.0484629 -1.57525 0
M  V30 3712 C 361.566 1.07241 -2.08654 0
M  V30 3713 C 362.582 1.409 -1.02095 0
M  V30 3714 O 363.758 1.50609 -1.33712 0
M  V30 3715 C 360.823 2.36008 -2.5397 0
M  V30 3716 C 359.884 2.09108 -3.7493 0
M  V30 3717 C 359.117 3.31736 -4.18075 0
M  V30 3718 O 359.34 4.41714 -3.60895 0
M  V30 3719 O 358.274 3.18576 -5.10679 0
M  V30 3720 H 362.1 0.667965 -2.96263 0
M  V30 3721 H 359.685 0.26417 -1.47046 0
M  V30 3722 H 361.567 3.11747 -2.83535 0
M  V30 3723 H 360.242 2.75786 -1.69481 0
M  V30 3724 H 359.149 1.31 -3.50414 0
M  V30 3725 H 360.482 1.74198 -4.60343 0
M  V30 3726 N 362.134 1.5431 0.320358 0
M  V30 3727 C 363.359 1.76954 1.08175 0
M  V30 3728 C 363.784 0.518193 1.80821 0
M  V30 3729 O 363.142 -0.530411 1.73368 0
M  V30 3730 C 363.19 2.96451 2.05303 0
M  V30 3731 O 362.294 2.68221 3.13259 0
M  V30 3732 H 361.635 0.586275 0.311733 0
M  V30 3733 H 364.165 2.01342 0.363676 0
M  V30 3734 H 364.175 3.23887 2.48116 0
M  V30 3735 H 362.85 3.87196 1.51829 0
M  V30 3736 H 361.427 2.51744 2.75099 0
M  V30 3737 N 363.613 -0.582584 1.46437 0
M  V30 3738 C 364.838 -1.37168 1.55563 0
M  V30 3739 C 365.263 -1.87061 0.19743 0
M  V30 3740 O 364.621 -1.61572 -0.822451 0
M  V30 3741 C 364.669 -2.53511 2.56446 0
M  V30 3742 O 363.773 -3.54953 2.09958 0
M  V30 3743 H 363.114 -0.408494 0.523477 0
M  V30 3744 H 365.644 -0.706646 1.9201 0
M  V30 3745 H 365.654 -3.00426 2.76058 0
M  V30 3746 H 364.329 -2.16549 3.55076 0
M  V30 3747 H 362.906 -3.14516 2.00334 0
M  V30 3748 N 365.091 -1.34144 -0.827227 0
M  V30 3749 C 366.339 -1.26009 -1.58007 0
M  V30 3750 C 366.66 0.170971 -1.94249 0
M  V30 3751 O 365.93 1.10256 -1.61927 0
M  V30 3752 H 364.51 -0.463414 -0.585881 0
M  V30 3753 H 367.172 -1.68005 -0.987951 0
M  V30 3754 H 366.268 -1.86187 -2.50481 0
M  V30 3755 O 366.608 0.965494 -1.29462 0
M  V30 3756 H 367.299 1.59208 -1.10329 0
M  V30 END ATOM
M  V30 BEGIN BOND
M  V30 END BOND
M  V30 END CTAB
M  END
$$$$
