drugbank_target|P9WHT9 Proteasome subunit beta (DB04732)
 OpenBabel12092120483D

  0  0  0     0  0            999 V3000
M  V30 BEGIN CTAB
M  V30 COUNTS 4241 4278 0 0 0
M  V30 BEGIN ATOM
M  V30 1 H -0.908 1.98254 -0.117106 0
M  V30 2 N 0 1.576 0 0
M  V30 3 C 0.933 2.03868 1.02534 0
M  V30 4 C 1.911 0.928543 1.3348 0
M  V30 5 O 3.095 1.19667 1.45644 0
M  V30 6 C 0.222 2.43627 2.35294 0
M  V30 7 C -0.732 3.65373 2.2001 0
M  V30 8 S 0.101 5.13292 1.52614 0
M  V30 9 C 1.257 5.56322 2.86805 0
M  V30 10 H 1.49 2.90518 0.631377 0
M  V30 11 H -0.977 1.52953 0.210867 0
M  V30 12 H 0.981 2.67203 3.11629 0
M  V30 13 H -0.358 1.57376 2.7183 0
M  V30 14 H -1.165 3.90944 3.18086 0
M  V30 15 H -1.563 3.418 1.51819 0
M  V30 16 H 0.729 5.58782 3.83104 0
M  V30 17 H 1.672 6.56266 2.65933 0
M  V30 18 H 2.08 4.83886 2.90714 0
M  V30 19 N 1.4781 -0.272755 1.55222 0
M  V30 20 C 2.7061 -1.02255 1.79865 0
M  V30 21 C 3.1211 -1.79924 0.572088 0
M  V30 22 O 2.4781 -1.76638 -0.458842 0
M  V30 23 C 2.5291 -1.98094 3.02392 0
M  V30 24 O 2.2501 -1.23572 4.20311 0
M  V30 25 C 3.7511 -2.84884 3.39641 0
M  V30 26 H 0.9711 -0.302057 0.599168 0
M  V30 27 H 3.5151 -0.303465 2.02236 0
M  V30 28 H 1.6701 -2.65465 2.82147 0
M  V30 29 H 2.0841 -1.88172 4.89583 0
M  V30 30 H 3.5581 -3.47927 4.28545 0
M  V30 31 H 4.0351 -3.54665 2.59055 0
M  V30 32 H 4.6411 -2.23003 3.62146 0
M  V30 33 N 2.9562 -1.48159 -0.537278 0
M  V30 34 C 4.2022 -1.57015 -1.29297 0
M  V30 35 C 4.5572 -0.237791 -1.90925 0
M  V30 36 O 3.8502 0.758621 -1.75942 0
M  V30 37 C 4.0442 -2.63956 -2.40961 0
M  V30 38 C 3.8732 -4.07461 -1.90278 0
M  V30 39 C 2.6432 -4.74685 -1.73213 0
M  V30 40 C 4.8412 -4.93858 -1.43556 0
M  V30 41 N 2.8232 -6.02633 -1.17078 0
M  V30 42 C 4.1942 -6.11993 -0.993204 0
M  V30 43 C 6.2492 -4.80141 -1.31792 0
M  V30 44 C 4.9522 -7.17923 -0.444872 0
M  V30 45 C 6.9782 -5.86186 -0.783585 0
M  V30 46 C 6.3402 -7.03524 -0.351261 0
M  V30 47 H 2.4392 -0.629154 -0.464423 0
M  V30 48 H 5.0232 -1.85006 -0.606705 0
M  V30 49 H 3.1942 -2.378 -3.07093 0
M  V30 50 H 4.9262 -2.62539 -3.07986 0
M  V30 51 H 1.6812 -4.30902 -1.9652 0
M  V30 52 H 2.1052 -6.7085 -0.910421 0
M  V30 53 H 6.7472 -3.89772 -1.63823 0
M  V30 54 H 4.4652 -8.08022 -0.11222 0
M  V30 55 H 8.0512 -5.77624 -0.695835 0
M  V30 56 H 6.9312 -7.8418 0.055777 0
M  V30 57 N 4.4343 0.785586 -1.36625 0
M  V30 58 C 5.8453 1.36101 -1.27803 0
M  V30 59 C 6.1963 1.96035 0.0804875 0
M  V30 60 O 5.3213 1.92834 0.982042 0
M  V30 61 C 5.9163 2.47442 -2.31426 0
M  V30 62 C 4.4753 3.00789 -2.26281 0
M  V30 63 C 3.6223 1.73896 -2.15999 0
M  V30 64 H 6.5733 0.586928 -1.47448 0
M  V30 65 H 6.5943 3.2656 -1.95291 0
M  V30 66 H 6.1063 2.03791 -3.30289 0
M  V30 67 H 4.2073 3.48851 -1.30896 0
M  V30 68 H 4.3203 3.57343 -3.19128 0
M  V30 69 H 2.6843 1.9628 -1.62316 0
M  V30 70 H 3.4673 1.32368 -3.16755 0
M  V30 71 N 5.9124 1.20967 1.01018 0
M  V30 72 C 6.8424 0.988272 2.11555 0
M  V30 73 C 7.8234 -0.0849778 1.69888 0
M  V30 74 O 9.0084 0.0738202 1.9406 0
M  V30 75 C 6.1384 0.546528 3.42973 0
M  V30 76 C 5.0924 1.56375 3.9841 0
M  V30 77 C 4.4184 0.97842 5.25672 0
M  V30 78 C 5.7184 2.94922 4.31066 0
M  V30 79 H 7.4124 1.91276 2.30334 0
M  V30 80 H 4.9584 0.921073 1.1069 0
M  V30 81 H 6.9114 0.378839 4.19694 0
M  V30 82 H 5.6354 -0.413598 3.23971 0
M  V30 83 H 4.2944 1.71891 3.23804 0
M  V30 84 H 3.9424 0.0101688 5.02999 0
M  V30 85 H 3.6424 1.65784 5.63728 0
M  V30 86 H 5.1664 0.821939 6.05043 0
M  V30 87 H 6.5804 2.8288 4.9865 0
M  V30 88 H 4.9774 3.5983 4.80253 0
M  V30 89 H 6.0474 3.4616 3.39561 0
M  V30 90 N 7.3905 -1.2043 1.01659 0
M  V30 91 C 8.8015 -1.71517 0.737482 0
M  V30 92 C 9.1525 -1.81547 -0.743973 0
M  V30 93 O 8.2775 -1.47803 -1.58061 0
M  V30 94 C 8.8725 -3.11515 1.33206 0
M  V30 95 C 7.4315 -3.59912 1.10183 0
M  V30 96 C 6.5785 -2.37116 1.43776 0
M  V30 97 H 9.5295 -1.05444 1.18606 0
M  V30 98 H 9.5505 -3.73575 0.722636 0
M  V30 99 H 9.0625 -3.04182 2.41028 0
M  V30 100 H 7.1635 -3.72577 0.0412756 0
M  V30 101 H 7.2765 -4.44731 1.78188 0
M  V30 102 H 5.6405 -2.39857 0.856778 0
M  V30 103 H 6.4235 -2.32424 2.52654 0
M  V30 104 N 8.8686 -0.792821 -1.36206 0
M  V30 105 C 10.1456 -0.290627 -1.93429 0
M  V30 106 C 10.5256 1.21773 -1.72437 0
M  V30 107 O 9.8736 2.0108 -1.08531 0
M  V30 108 C 10.0836 -0.686973 -3.42172 0
M  V30 109 C 11.4316 -0.668643 -4.19302 0
M  V30 110 O 12.4556 -0.627658 -3.50626 0
M  V30 111 O 11.3146 -0.714597 -5.41808 0
M  V30 112 H 8.4086 -0.0727927 -0.82379 0
M  V30 113 H 10.9546 -0.875593 -1.45367 0
M  V30 114 H 9.7266 -1.72711 -3.51122 0
M  V30 115 H 9.3496 -0.0760733 -3.97527 0
M  V30 116 N 10.3467 1.47872 -0.545128 0
M  V30 117 C 11.7627 1.5829 -0.204032 0
M  V30 118 C 11.9627 1.54529 1.29317 0
M  V30 119 O 11.0187 1.44232 2.07252 0
M  V30 120 C 12.3317 2.89304 -0.819987 0
M  V30 121 C 13.8797 3.02864 -0.790105 0
M  V30 122 C 14.3547 4.3656 -1.38491 0
M  V30 123 N 15.8457 4.43165 -1.34755 0
M  V30 124 C 16.5807 5.45153 -1.77753 0
M  V30 125 N 16.0767 6.54016 -2.2855 0
M  V30 126 N 17.8697 5.36125 -1.68897 0
M  V30 127 H 10.0207 1.4856 -1.51802 0
M  V30 128 H 12.2837 0.706305 -0.632327 0
M  V30 129 H 11.9897 2.97757 -1.87173 0
M  V30 130 H 11.8637 3.75957 -0.305915 0
M  V30 131 H 14.2507 2.94014 0.252913 0
M  V30 132 H 14.3317 2.17782 -1.34181 0
M  V30 133 H 13.9757 4.46164 -2.42693 0
M  V30 134 H 13.9057 5.20353 -0.808754 0
M  V30 135 H 16.3967 3.65083 -0.975855 0
M  V30 136 H 16.7097 7.27994 -2.59314 0
M  V30 137 H 15.0547 6.54938 -2.32553 0
M  V30 138 H 18.2457 4.49975 -1.28998 0
M  V30 139 H 18.4187 6.15472 -2.02726 0
M  V30 140 N 11.8248 0.280983 1.55075 0
M  V30 141 C 12.7548 -0.597469 2.25727 0
M  V30 142 C 13.7358 -1.15417 1.24952 0
M  V30 143 O 14.9208 -1.18722 1.53684 0
M  V30 144 C 12.0508 -1.7789 2.98283 0
M  V30 145 C 11.0048 -1.35347 4.06036 0
M  V30 146 C 10.3308 -2.61846 4.66198 0
M  V30 147 C 11.6308 -0.499354 5.19907 0
M  V30 148 H 13.3248 -0.00824265 2.99399 0
M  V30 149 H 10.8708 -0.0025244 1.44 0
M  V30 150 H 12.8238 -2.39937 3.46422 0
M  V30 151 H 11.5478 -2.39405 2.22155 0
M  V30 152 H 10.2068 -0.756156 3.58717 0
M  V30 153 H 9.8548 -3.21632 3.86732 0
M  V30 154 H 9.5548 -2.3409 5.38958 0
M  V30 155 H 11.0788 -3.24732 5.1709 0
M  V30 156 H 12.4928 -1.02498 5.64063 0
M  V30 157 H 10.8898 -0.316424 5.99265 0
M  V30 158 H 11.9598 0.480459 4.82514 0
M  V30 159 N 13.3029 -1.57598 0.00835791 0
M  V30 160 C 14.5279 -1.95617 -0.689103 0
M  V30 161 C 14.9529 -0.883753 -1.66046 0
M  V30 162 O 14.3109 0.157352 -1.80616 0
M  V30 163 C 14.3589 -3.32736 -1.38994 0
M  V30 164 O 13.4629 -3.27631 -2.50463 0
M  V30 165 H 12.8039 -0.638379 -0.182668 0
M  V30 166 H 15.3339 -2.045 0.064036 0
M  V30 167 H 15.3439 -3.68494 -1.75147 0
M  V30 168 H 14.0189 -4.1034 -0.677778 0
M  V30 169 H 12.5959 -3.03561 -2.16576 0
M  V30 170 N 14.781 0.264519 -1.55364 0
M  V30 171 C 16.03 0.992812 -1.75574 0
M  V30 172 C 16.343 1.87142 -0.568979 0
M  V30 173 O 17.549 2.63513 -0.653682 0
M  V30 174 C 16.005 1.81519 -3.10771 0
M  V30 175 C 15.613 0.984839 -4.37041 0
M  V30 176 C 17.357 2.53727 -3.40327 0
M  V30 177 C 15.264 1.80209 -5.63275 0
M  V30 178 H 14.194 0.374412 -0.65447 0
M  V30 179 H 16.845 0.248138 -1.81815 0
M  V30 180 H 15.227 2.60115 -2.98591 0
M  V30 181 H 16.401 0.242455 -4.60162 0
M  V30 182 H 14.716 0.37691 -4.14691 0
M  V30 183 H 17.313 3.15292 -4.3185 0
M  V30 184 H 17.656 3.24447 -2.60845 0
M  V30 185 H 18.189 1.82156 -3.53644 0
M  V30 186 H 14.928 1.13896 -6.45529 0
M  V30 187 H 14.448 2.52022 -5.44284 0
M  V30 188 H 16.127 2.37364 -6.01887 0
M  V30 189 N 16.2591 1.48442 0.529413 0
M  V30 190 C 17.2071 1.63452 1.65487 0
M  V30 191 C 18.2011 0.500955 1.61823 0
M  V30 192 O 19.4071 0.679695 1.66674 0
M  V30 193 H 15.7821 0.514905 0.548066 0
M  V30 194 H 17.7531 2.57975 1.49971 0
M  V30 195 C 16.5021 1.69196 3.03756 0
M  V30 196 H 15.8251 2.55784 3.07269 0
M  V30 197 H 17.2651 1.83743 3.82119 0
M  V30 198 C 15.7241 0.430765 3.34135 0
M  V30 199 O 16.2541 -0.4561 3.99102 0
M  V30 200 N 14.4601 0.302293 2.89023 0
M  V30 201 H 14.0071 1.02496 2.36331 0
M  V30 202 H 13.9651 -0.540546 3.09718 0
M  V30 203 N 17.7372 -0.778329 1.37039 0
M  V30 204 C 18.9622 -1.57248 1.35233 0
M  V30 205 C 19.3872 -1.87999 -0.0615568 0
M  V30 206 O 18.7452 -1.48734 -1.03672 0
M  V30 207 C 18.7932 -2.86353 2.19167 0
M  V30 208 O 17.8972 -3.80442 1.59178 0
M  V30 209 H 17.2382 -0.476569 0.462362 0
M  V30 210 H 19.7682 -0.963853 1.80474 0
M  V30 211 H 19.7782 -3.35519 2.32145 0
M  V30 212 H 18.4532 -2.63299 3.21942 0
M  V30 213 H 17.0302 -3.39067 1.55203 0
M  V30 214 N 19.2153 -1.21501 -1.00376 0
M  V30 215 C 20.1453 -0.999478 -2.11028 0
M  V30 216 C 21.1263 0.0759671 -1.6993 0
M  V30 217 O 22.3113 -0.0841106 -1.94018 0
M  V30 218 C 19.4413 -0.564709 -3.42678 0
M  V30 219 C 18.3953 -1.58486 -3.97576 0
M  V30 220 C 17.7213 -1.00628 -5.25146 0
M  V30 221 C 19.0213 -2.97204 -4.29496 0
M  V30 222 H 20.7153 -1.92495 -2.29317 0
M  V30 223 H 18.2613 -0.92693 -1.102 0
M  V30 224 H 20.2143 -0.401091 -4.19487 0
M  V30 225 H 18.9383 0.396411 -3.24185 0
M  V30 226 H 17.5973 -1.73606 -3.22888 0
M  V30 227 H 17.2453 -0.0368439 -5.02987 0
M  V30 228 H 16.9453 -1.68771 -5.62841 0
M  V30 229 H 18.4693 -0.854015 -6.04598 0
M  V30 230 H 19.8833 -2.8552 -4.97143 0
M  V30 231 H 18.2803 -3.62372 -4.78338 0
M  V30 232 H 19.3503 -3.47956 -3.3772 0
M  V30 233 N 20.6934 1.19889 -1.02296 0
M  V30 234 C 21.9184 1.9393 -0.735237 0
M  V30 235 C 22.3434 1.74639 0.698782 0
M  V30 236 O 21.7014 1.04481 1.48167 0
M  V30 237 C 21.7494 3.43916 -1.08417 0
M  V30 238 O 20.8534 4.11917 -0.199446 0
M  V30 239 H 20.1944 0.605645 -0.272196 0
M  V30 240 H 22.7244 1.52137 -1.36804 0
M  V30 241 H 22.7344 3.9456 -1.03856 0
M  V30 242 H 21.4094 3.5728 -2.12894 0
M  V30 243 H 19.9864 3.71666 -0.303136 0
M  V30 244 N 22.1715 0.800033 1.35784 0
M  V30 245 C 23.4195 0.376597 1.9856 0
M  V30 246 C 23.7405 -1.05812 1.63795 0
M  V30 247 O 23.0105 -1.73103 0.917171 0
M  V30 248 H 21.5905 0.136261 0.734467 0
M  V30 249 H 24.2525 1.02442 1.65806 0
M  V30 250 H 23.3485 0.477002 3.08433 0
M  V30 251 N 23.6496 -1.47581 0.552962 0
M  V30 252 C 24.8776 -2.06875 0.0320556 0
M  V30 253 C 25.2926 -1.40625 -1.25976 0
M  V30 254 O 24.6496 -0.501349 -1.75479 0
M  V30 255 C 24.7006 -3.61092 -0.17167 0
M  V30 256 O 24.4216 -4.24858 1.06899 0
M  V30 257 C 25.9226 -4.37242 -0.730344 0
M  V30 258 H 23.1426 -0.669561 0.043915 0
M  V30 259 H 25.6866 -1.89646 0.765163 0
M  V30 260 H 23.8416 -3.7785 -0.854894 0
M  V30 261 H 24.2556 -5.17334 0.864059 0
M  V30 262 H 25.7296 -5.45842 -0.822203 0
M  V30 263 H 26.2066 -4.03235 -1.74064 0
M  V30 264 H 26.8126 -4.25219 -0.0829543 0
M  V30 265 N 25.1277 -0.289203 -1.54924 0
M  V30 266 C 26.5387 0.205791 -1.85562 0
M  V30 267 C 26.8897 1.54351 -1.2112 0
M  V30 268 O 26.0147 2.10435 -0.504601 0
M  V30 269 C 26.6097 0.380177 -3.3666 0
M  V30 270 C 25.1687 0.819395 -3.67373 0
M  V30 271 C 24.3157 -0.079159 -2.77187 0
M  V30 272 H 27.2667 -0.510577 -1.50262 0
M  V30 273 H 27.2877 1.21659 -3.60526 0
M  V30 274 H 26.7997 -0.593589 -3.83534 0
M  V30 275 H 24.9007 1.80413 -3.26009 0
M  V30 276 H 25.0137 0.646957 -4.74712 0
M  V30 277 H 23.3777 0.439565 -2.50878 0
M  V30 278 H 24.1607 -1.04906 -3.26878 0
M  V30 279 N 26.6058 1.57591 -0.0167156 0
M  V30 280 C 27.5688 2.08393 0.954204 0
M  V30 281 C 28.5688 0.996531 1.26198 0
M  V30 282 O 29.7588 1.25858 1.20438 0
M  V30 283 C 26.8908 2.5394 2.27436 0
M  V30 284 H 28.0838 2.95455 0.514451 0
M  V30 285 H 25.6368 1.54582 0.231089 0
M  V30 286 H 26.3718 1.70171 2.76066 0
M  V30 287 H 26.1568 3.33371 2.06412 0
M  V30 288 H 27.6468 2.93512 2.97053 0
M  V30 289 N 28.0839 -0.256276 1.55502 0
M  V30 290 C 29.3299 -0.987079 1.77157 0
M  V30 291 C 29.6629 -1.85327 0.580315 0
M  V30 292 O 28.9379 -1.89874 -0.421686 0
M  V30 293 C 29.2209 -1.85553 3.08613 0
M  V30 294 C 29.0739 -1.01816 4.38125 0
M  V30 295 C 30.3929 -2.8397 3.36228 0
M  V30 296 H 27.5119 -0.357428 0.644526 0
M  V30 297 H 30.1539 -0.258239 1.88237 0
M  V30 298 H 28.3039 -2.47695 2.99298 0
M  V30 299 H 29.9759 -0.416159 4.59419 0
M  V30 300 H 28.2189 -0.322178 4.32602 0
M  V30 301 H 28.8899 -1.65939 5.26468 0
M  V30 302 H 31.3659 -2.31964 3.45445 0
M  V30 303 H 30.2419 -3.41864 4.29442 0
M  V30 304 H 30.5029 -3.59955 2.56681 0
M  V30 305 N 29.562 -1.4872 -0.521534 0
M  V30 306 C 30.839 -1.4766 -1.2828 0
M  V30 307 C 31.219 -0.19292 -2.10217 0
M  V30 308 O 30.567 0.825193 -2.13079 0
M  V30 309 C 30.777 -2.74358 -2.15705 0
M  V30 310 C 32.125 -3.23028 -2.75569 0
M  V30 311 O 33.149 -2.75333 -2.25987 0
M  V30 312 O 32.008 -4.0604 -3.65778 0
M  V30 313 H 29.102 -0.590085 -0.579421 0
M  V30 314 H 31.648 -1.60963 -0.537492 0
M  V30 315 H 30.42 -3.59292 -1.54999 0
M  V30 316 H 30.043 -2.63816 -2.97467 0
M  V30 317 N 31.0401 0.771051 -1.3745 0
M  V30 318 C 31.9701 1.89827 -1.3597 0
M  V30 319 C 32.9511 1.68562 -0.228216 0
M  V30 320 O 34.1361 1.8941 -0.428675 0
M  V30 321 C 31.2661 3.2712 -1.16662 0
M  V30 322 C 30.2201 3.6295 -2.2683 0
M  V30 323 C 29.5461 4.98791 -1.92644 0
M  V30 324 C 30.8461 3.69627 -3.69017 0
M  V30 325 H 32.5401 1.91323 -2.30295 0
M  V30 326 H 30.0861 0.919082 -1.10855 0
M  V30 327 H 32.0391 4.05615 -1.14256 0
M  V30 328 H 30.7631 3.26059 -0.187926 0
M  V30 329 H 29.4221 2.86763 -2.28392 0
M  V30 330 H 29.0701 4.94271 -0.933021 0
M  V30 331 H 28.7701 5.23733 -2.66416 0
M  V30 332 H 30.2941 5.79685 -1.91826 0
M  V30 333 H 31.7081 4.38273 -3.69581 0
M  V30 334 H 30.1051 4.06067 -4.41848 0
M  V30 335 H 31.1751 2.70273 -4.02592 0
M  V30 336 N 32.5182 1.22032 0.997298 0
M  V30 337 C 33.7432 1.06921 1.77715 0
M  V30 338 C 34.1682 -0.376226 1.84299 0
M  V30 339 O 33.5262 -1.27165 1.29223 0
M  V30 340 C 33.5742 1.67996 3.19076 0
M  V30 341 O 32.6782 0.930653 4.01762 0
M  V30 342 H 32.0192 0.375814 0.547412 0
M  V30 343 H 34.5492 1.61737 1.25309 0
M  V30 344 H 34.5592 1.72538 3.69723 0
M  V30 345 H 33.2342 2.73182 3.13599 0
M  V30 346 H 31.8112 0.960917 3.60307 0
M  V30 347 N 33.9963 -1.19345 1.0293 0
M  V30 348 C 35.2213 -1.93538 0.745511 0
M  V30 349 C 35.6463 -1.75007 -0.689511 0
M  V30 350 O 35.0043 -1.05265 -1.47611 0
M  V30 351 C 35.0523 -3.43336 1.10239 0
M  V30 352 O 34.1563 -4.11806 0.221289 0
M  V30 353 H 33.4973 -0.604193 0.275404 0
M  V30 354 H 36.0273 -1.5141 1.37609 0
M  V30 355 H 36.0373 -3.94004 1.05947 0
M  V30 356 H 34.7123 -3.56146 2.14786 0
M  V30 357 H 33.2893 -3.715 0.322842 0
M  V30 358 N 35.4744 -0.807222 -1.35358 0
M  V30 359 C 36.7214 -0.387888 -1.9875 0
M  V30 360 C 37.0494 1.04509 -1.64037 0
M  V30 361 O 36.3044 1.73986 -0.895946 0
M  V30 362 C 36.6034 -0.519036 -3.53611 0
M  V30 363 C 36.2694 -1.91542 -4.08194 0
M  V30 364 C 34.9314 -2.29745 -4.22813 0
M  V30 365 C 37.2834 -2.82896 -4.37744 0
M  V30 366 C 34.6114 -3.58668 -4.643 0
M  V30 367 C 36.9634 -4.11265 -4.8067 0
M  V30 368 C 35.6274 -4.49466 -4.93494 0
M  V30 369 H 34.8974 -0.141938 -0.727279 0
M  V30 370 H 37.5444 -1.02814 -1.6156 0
M  V30 371 H 35.8494 0.204658 -3.91265 0
M  V30 372 H 37.5464 -0.175345 -4.00616 0
M  V30 373 H 34.1364 -1.60862 -3.97268 0
M  V30 374 H 38.3204 -2.54629 -4.26002 0
M  V30 375 H 33.5764 -3.88113 -4.72418 0
M  V30 376 H 37.7504 -4.82153 -5.02496 0
M  V30 377 H 35.3774 -5.49418 -5.25399 0
M  V30 378 N 36.9525 1.47285 -0.560781 0
M  V30 379 C 38.1805 2.06855 -0.0430262 0
M  V30 380 C 38.5955 1.41291 1.25229 0
M  V30 381 O 37.9525 0.510648 1.7521 0
M  V30 382 C 38.0035 3.61178 0.152518 0
M  V30 383 O 37.7245 4.24285 -1.0915 0
M  V30 384 C 39.2255 4.37624 0.707145 0
M  V30 385 H 36.4455 0.669319 -0.0474652 0
M  V30 386 H 38.9895 1.89237 -0.77521 0
M  V30 387 H 37.1445 3.78298 0.834843 0
M  V30 388 H 37.5585 5.16868 -0.891482 0
M  V30 389 H 39.0325 5.46271 0.793244 0
M  V30 390 H 39.5095 4.04152 1.71923 0
M  V30 391 H 40.1155 4.25257 0.0604027 0
M  V30 392 N 38.4306 0.297415 1.54768 0
M  V30 393 C 39.7076 -0.365847 1.92148 0
M  V30 394 C 40.0876 -1.71975 1.22424 0
M  V30 395 O 39.4356 -2.25666 0.358739 0
M  V30 396 C 39.6456 -0.484056 3.45627 0
M  V30 397 C 40.9936 -0.756594 4.17805 0
M  V30 398 O 42.0176 -0.568007 3.51642 0
M  V30 399 O 40.8766 -1.11863 5.34929 0
M  V30 400 H 37.9706 -0.203919 0.801465 0
M  V30 401 H 40.5166 0.34521 1.66152 0
M  V30 402 H 39.2886 0.467865 3.88493 0
M  V30 403 H 38.9116 -1.24372 3.77647 0
M  V30 404 N 39.9087 -1.5758 0.0250728 0
M  V30 405 C 41.1557 -1.91633 -0.654444 0
M  V30 406 C 41.4837 -0.901103 -1.72367 0
M  V30 407 O 40.7387 0.0905647 -1.9549 0
M  V30 408 C 41.0377 -3.32421 -1.31268 0
M  V30 409 C 40.7037 -4.49344 -0.374223 0
M  V30 410 C 39.3657 -4.8106 -0.115911 0
M  V30 411 C 41.7177 -5.20498 0.270432 0
M  V30 412 C 39.0457 -5.8129 0.79493 0
M  V30 413 C 41.3977 -6.21699 1.1693 0
M  V30 414 C 40.0617 -6.51859 1.43655 0
M  V30 415 H 39.3317 -0.701236 -0.239478 0
M  V30 416 H 41.9787 -1.91307 0.0859734 0
M  V30 417 H 40.2837 -3.28989 -2.12775 0
M  V30 418 H 41.9807 -3.56038 -1.84494 0
M  V30 419 H 38.5707 -4.24579 -0.58573 0
M  V30 420 H 42.7547 -4.96229 0.0839194 0
M  V30 421 H 38.0107 -6.03005 1.00973 0
M  V30 422 H 42.1847 -6.75955 1.67504 0
M  V30 423 H 39.8117 -7.2934 2.144 0
M  V30 424 N 41.3868 0.248026 -1.55636 0
M  V30 425 C 42.3168 1.31079 -1.93237 0
M  V30 426 C 43.2978 1.50264 -0.797174 0
M  V30 427 O 44.4828 1.62891 -1.05737 0
M  V30 428 C 41.6128 2.66575 -2.22609 0
M  V30 429 C 40.5668 2.62087 -3.3837 0
M  V30 430 C 39.8928 4.01369 -3.53281 0
M  V30 431 C 41.1928 2.19171 -4.7409 0
M  V30 432 H 42.8868 0.998556 -2.82257 0
M  V30 433 H 40.4328 0.47891 -1.35803 0
M  V30 434 H 42.3858 3.41057 -2.47503 0
M  V30 435 H 41.1098 2.99432 -1.30414 0
M  V30 436 H 39.7688 1.90063 -3.13483 0
M  V30 437 H 39.4168 4.31489 -2.58508 0
M  V30 438 H 39.1168 3.99254 -4.31127 0
M  V30 439 H 40.6408 4.77552 -3.80495 0
M  V30 440 H 42.0548 2.83384 -4.98363 0
M  V30 441 H 40.4518 2.2817 -5.5503 0
M  V30 442 H 41.5218 1.14336 -4.71227 0
M  V30 443 N 42.8649 1.48995 0.513639 0
M  V30 444 C 44.2809 1.35478 0.843682 0
M  V30 445 C 44.4809 0.378213 1.97919 0
M  V30 446 O 43.5369 -0.194689 2.51748 0
M  V30 447 C 44.8499 2.75901 1.1958 0
M  V30 448 C 46.3979 2.84509 1.30474 0
M  V30 449 C 46.8729 4.25671 1.69021 0
M  V30 450 N 48.3639 4.28422 1.76094 0
M  V30 451 C 49.0989 5.34601 2.07338 0
M  V30 452 N 48.5949 6.5104 2.36894 0
M  V30 453 N 50.3879 5.22007 2.08483 0
M  V30 454 H 42.5389 2.11092 -0.235328 0
M  V30 455 H 44.8019 0.947039 -0.0426669 0
M  V30 456 H 44.5079 3.49001 0.434913 0
M  V30 457 H 44.3819 3.10467 2.1422 0
M  V30 458 H 46.7689 2.11655 2.05637 0
M  V30 459 H 46.8499 2.53542 0.339155 0
M  V30 460 H 46.4939 4.99048 0.944135 0
M  V30 461 H 46.4239 4.54094 2.66658 0
M  V30 462 H 48.9149 3.44441 1.55464 0
M  V30 463 H 49.2279 7.2779 2.59887 0
M  V30 464 H 47.5729 6.54287 2.34378 0
M  V30 465 H 50.7639 4.30051 1.84861 0
M  V30 466 H 50.9369 6.04854 2.325 0
M  V30 467 N 44.343 -0.763751 1.37857 0
M  V30 468 C 45.759 -1.06542 1.18832 0
M  V30 469 C 45.959 -2.01478 0.0299722 0
M  V30 470 O 45.015 -2.4458 -0.627447 0
M  V30 471 C 46.328 -1.65525 2.51042 0
M  V30 472 C 47.876 -1.77745 2.57635 0
M  V30 473 C 48.351 -2.4014 3.89996 0
M  V30 474 N 49.842 -2.47582 3.91481 0
M  V30 475 C 50.577 -2.96732 4.9065 0
M  V30 476 N 50.073 -3.45993 6.00217 0
M  V30 477 N 51.866 -2.95679 4.78048 0
M  V30 478 H 44.017 -0.133556 2.1198 0
M  V30 479 H 46.28 -0.121879 0.940133 0
M  V30 480 H 45.986 -1.03236 3.36207 0
M  V30 481 H 45.86 -2.64719 2.68707 0
M  V30 482 H 48.247 -2.39164 1.72872 0
M  V30 483 H 48.328 -0.772836 2.43846 0
M  V30 484 H 47.972 -1.79358 4.75177 0
M  V30 485 H 47.902 -3.41223 4.01092 0
M  V30 486 H 50.393 -2.1273 3.12337 0
M  V30 487 H 50.706 -3.81922 6.7183 0
M  V30 488 H 49.051 -3.44077 6.03851 0
M  V30 489 H 52.242 -2.56499 3.91568 0
M  V30 490 H 52.415 -3.33672 5.55488 0
M  V30 491 N 45.8211 -1.22559 -0.990812 0
M  V30 492 C 46.7531 -0.955325 -2.08342 0
M  V30 493 C 47.7661 0.0668408 -1.62663 0
M  V30 494 O 48.9551 -0.167421 -1.77713 0
M  V30 495 C 46.0551 -0.415566 -3.36342 0
M  V30 496 C 45.2281 -1.49544 -4.11042 0
M  V30 497 C 44.2871 -0.962399 -5.17324 0
M  V30 498 O 43.3131 -1.64907 -5.44788 0
M  V30 499 N 44.5151 0.215134 -5.80101 0
M  V30 500 H 47.2801 -1.89596 -2.32106 0
M  V30 501 H 44.8411 -1.13276 -1.15673 0
M  V30 502 H 46.8331 -0.0442386 -4.04676 0
M  V30 503 H 45.4031 0.430232 -3.09625 0
M  V30 504 H 44.6231 -2.04 -3.37309 0
M  V30 505 H 45.9111 -2.22195 -4.57719 0
M  V30 506 H 45.3091 0.789779 -5.6016 0
M  V30 507 H 43.8661 0.527826 -6.49659 0
M  V30 508 N 47.2992 1.18797 -1.03562 0
M  V30 509 C 48.2622 2.20464 -0.626769 0
M  V30 510 C 49.2622 1.57721 0.313173 0
M  V30 511 O 50.4522 1.73917 0.0992615 0
M  V30 512 C 47.5842 3.40802 0.0818498 0
M  V30 513 H 48.7772 2.58149 -1.5264 0
M  V30 514 H 46.3302 1.32593 -0.827578 0
M  V30 515 H 47.0652 3.08642 0.995518 0
M  V30 516 H 46.8502 3.8758 -0.593652 0
M  V30 517 H 48.3402 4.16092 0.354584 0
M  V30 518 N 48.7773 0.814389 1.34928 0
M  V30 519 C 50.1883 0.458364 1.80986 0
M  V30 520 C 50.5393 -1.02042 1.67577 0
M  V30 521 O 49.6643 -1.79352 1.21086 0
M  V30 522 C 50.2593 0.825212 3.28597 0
M  V30 523 C 48.8183 0.521677 3.72767 0
M  V30 524 C 47.9653 1.04668 2.56788 0
M  V30 525 H 50.9163 1.00533 1.22795 0
M  V30 526 H 50.9373 0.12571 3.80292 0
M  V30 527 H 50.4493 1.90154 3.38324 0
M  V30 528 H 48.5503 -0.545589 3.68584 0
M  V30 529 H 48.6633 1.05977 4.67232 0
M  V30 530 H 47.0273 0.468622 2.50352 0
M  V30 531 H 47.8103 2.12927 2.6929 0
M  V30 532 N 50.2554 -1.46986 0.568584 0
M  V30 533 C 51.1654 -2.33942 -0.17555 0
M  V30 534 C 52.1814 -1.48891 -0.90041 0
M  V30 535 O 53.3574 -1.81794 -0.86676 0
M  V30 536 C 50.4224 -3.25811 -1.18524 0
M  V30 537 C 49.4834 -4.26757 -0.466582 0
M  V30 538 C 48.7164 -5.14236 -1.42817 0
M  V30 539 O 48.9394 -5.04379 -2.66379 0
M  V30 540 O 47.8734 -5.94412 -0.946453 0
M  V30 541 H 51.6994 -2.98896 0.538036 0
M  V30 542 H 49.2844 -1.4573 0.329097 0
M  V30 543 H 51.1664 -3.82527 -1.76779 0
M  V30 544 H 49.8414 -2.63471 -1.88055 0
M  V30 545 H 48.7484 -3.73769 0.157451 0
M  V30 546 H 50.0814 -4.91843 0.187485 0
M  V30 547 N 51.7335 -0.305618 -1.54608 0
M  V30 548 C 52.6635 0.561482 -2.26649 0
M  V30 549 C 53.6445 1.13415 -1.26772 0
M  V30 550 O 54.8295 1.16262 -1.55553 0
M  V30 551 C 51.9595 1.73122 -3.01075 0
M  V30 552 C 50.9135 1.2887 -4.08138 0
M  V30 553 C 50.2395 2.54396 -4.70305 0
M  V30 554 C 51.5395 0.416578 -5.20636 0
M  V30 555 H 53.2335 -0.0393902 -2.99374 0
M  V30 556 H 50.7795 -0.020385 -1.43986 0
M  V30 557 H 52.7325 2.34396 -3.50195 0
M  V30 558 H 51.4565 2.3584 -2.25936 0
M  V30 559 H 50.1155 0.698991 -3.59875 0
M  V30 560 H 49.7635 3.15439 -3.918 0
M  V30 561 H 49.4635 2.25486 -5.42614 0
M  V30 562 H 50.9875 3.16464 -5.2219 0
M  V30 563 H 52.4015 0.935116 -5.65622 0
M  V30 564 H 50.7985 0.221046 -5.99693 0
M  V30 565 H 51.8685 -0.557162 -4.81688 0
M  V30 566 N 53.2116 1.57565 -0.0334293 0
M  V30 567 C 54.1416 2.13511 0.945265 0
M  V30 568 C 55.1226 1.05231 1.33643 0
M  V30 569 O 56.3076 1.33084 1.41429 0
M  V30 570 C 53.4376 2.6657 2.22616 0
M  V30 571 C 52.3916 3.79676 1.97561 0
M  V30 572 C 51.7176 4.1918 3.31952 0
M  V30 573 C 53.0176 5.0557 1.31135 0
M  V30 574 H 54.7116 2.95538 0.479325 0
M  V30 575 H 52.2576 1.42166 0.229115 0
M  V30 576 H 54.2106 3.04344 2.91466 0
M  V30 577 H 52.9346 1.8171 2.71384 0
M  V30 578 H 51.5936 3.42347 1.31127 0
M  V30 579 H 51.2416 3.31296 3.78487 0
M  V30 580 H 50.9416 4.95402 3.15992 0
M  V30 581 H 52.4656 4.59541 4.02063 0
M  V30 582 H 53.8796 5.40903 1.89992 0
M  V30 583 H 52.2766 5.86818 1.25559 0
M  V30 584 H 53.3466 4.84062 0.284894 0
M  V30 585 N 54.6897 -0.239769 1.55765 0
M  V30 586 C 56.1007 -0.808263 1.68297 0
M  V30 587 C 56.4517 -1.85736 0.632181 0
M  V30 588 O 55.5767 -2.15277 -0.220204 0
M  V30 589 C 56.1717 -1.47284 3.05111 0
M  V30 590 C 54.7307 -1.98895 3.19559 0
M  V30 591 C 53.8777 -0.842575 2.64189 0
M  V30 592 H 56.8287 -0.0154422 1.58692 0
M  V30 593 H 56.8497 -2.34111 2.99954 0
M  V30 594 H 56.3617 -0.709053 3.81568 0
M  V30 595 H 54.4627 -2.78132 2.47938 0
M  V30 596 H 54.5757 -2.18143 4.26556 0
M  V30 597 H 52.9397 -1.24501 2.22197 0
M  V30 598 H 53.7227 -0.0917552 3.43177 0
M  V30 599 N 56.1678 -1.49265 -0.50573 0
M  V30 600 C 57.1308 -1.65075 -1.59006 0
M  V30 601 C 58.1308 -0.522768 -1.52065 0
M  V30 602 O 59.3208 -0.789117 -1.55302 0
M  V30 603 C 56.4528 -1.64369 -2.98656 0
M  V30 604 H 57.6458 -2.61784 -1.46319 0
M  V30 605 H 55.1988 -1.38226 -0.729616 0
M  V30 606 H 55.9338 -0.692272 -3.16825 0
M  V30 607 H 55.7188 -2.46282 -3.05103 0
M  V30 608 H 57.2088 -1.78674 -3.77446 0
M  V30 609 N 57.6459 0.756429 -1.3826 0
M  V30 610 C 58.8709 1.55077 -1.37717 0
M  V30 611 C 59.2959 1.88073 0.03164 0
M  V30 612 O 58.6539 1.50364 1.01293 0
M  V30 613 C 58.7019 2.8283 -2.23695 0
M  V30 614 O 57.8059 3.77862 -1.6521 0
M  V30 615 H 57.1469 0.469152 -0.469885 0
M  V30 616 H 59.6769 0.935019 -1.81985 0
M  V30 617 H 59.6869 3.31783 -2.37453 0
M  V30 618 H 58.3619 2.58144 -3.2609 0
M  V30 619 H 56.9389 3.36555 -1.60578 0
M  V30 620 N 59.124 1.23083 0.984299 0
M  V30 621 C 60.373 1.05466 1.71929 0
M  V30 622 C 60.686 -0.409211 1.91272 0
M  V30 623 O 61.892 -0.705226 2.62181 0
M  V30 624 C 60.348 1.83874 3.09384 0
M  V30 625 C 59.956 3.34566 2.97943 0
M  V30 626 C 61.7 1.74734 3.8687 0
M  V30 627 C 59.607 4.05381 4.30605 0
M  V30 628 H 58.537 0.391039 0.644674 0
M  V30 629 H 61.188 1.47013 1.09815 0
M  V30 630 H 59.57 1.35131 3.72231 0
M  V30 631 H 60.744 3.90767 2.44209 0
M  V30 632 H 59.059 3.44476 2.33934 0
M  V30 633 H 61.656 2.24957 4.85076 0
M  V30 634 H 61.999 0.709372 4.10212 0
M  V30 635 H 62.532 2.21067 3.30717 0
M  V30 636 H 59.271 5.09467 4.1246 0
M  V30 637 H 58.791 3.53967 4.84218 0
M  V30 638 H 60.47 4.11458 4.99311 0
M  V30 639 N 60.6021 -1.18246 1.0419 0
M  V30 640 C 61.8271 -1.92736 0.765996 0
M  V30 641 C 62.2521 -1.75728 -0.67091 0
M  V30 642 O 61.6101 -1.06825 -1.46486 0
M  V30 643 C 61.6581 -3.42148 1.13875 0
M  V30 644 O 60.7621 -4.11548 0.264954 0
M  V30 645 H 60.1031 -0.601238 0.281797 0
M  V30 646 H 62.6331 -1.49942 1.39207 0
M  V30 647 H 62.6431 -3.92858 1.1012 0
M  V30 648 H 61.3181 -3.53848 2.18551 0
M  V30 649 H 59.8951 -3.71137 0.362226 0
M  V30 650 N 62.0802 -0.821533 -1.34494 0
M  V30 651 C 63.3282 -0.408139 -1.97936 0
M  V30 652 C 63.6492 1.03193 -1.65457 0
M  V30 653 O 62.9192 1.71622 -0.944595 0
M  V30 654 H 61.4992 -0.147928 -0.732206 0
M  V30 655 H 64.1612 -1.05067 -1.64155 0
M  V30 656 H 63.2572 -0.52601 -3.07635 0
M  V30 657 N 63.5583 1.46682 -0.576371 0
M  V30 658 C 64.8063 2.02013 -0.0594163 0
M  V30 659 C 65.1273 1.45101 1.30271 0
M  V30 660 O 64.3973 0.633317 1.8538 0
M  V30 661 H 62.9773 0.746759 -0.0189745 0
M  V30 662 H 65.6393 1.79862 -0.750717 0
M  V30 663 H 64.7353 3.12097 0.014345 0
M  V30 664 N 65.0364 0.313813 1.54444 0
M  V30 665 C 65.9994 -0.54379 2.22656 0
M  V30 666 C 66.9994 -1.05124 1.21678 0
M  V30 667 O 68.1894 -0.945225 1.46325 0
M  V30 668 C 65.3214 -1.75427 2.92298 0
M  V30 669 H 66.5144 0.0523599 2.99854 0
M  V30 670 H 64.0674 0.0647834 1.56166 0
M  V30 671 H 64.8024 -2.38991 2.19211 0
M  V30 672 H 64.5874 -1.39791 3.66334 0
M  V30 673 H 66.0774 -2.36325 3.44297 0
M  V30 674 N 66.5145 -1.57545 0.0417849 0
M  V30 675 C 67.9255 -1.80011 -0.495259 0
M  V30 676 C 68.2765 -0.953199 -1.71489 0
M  V30 677 O 67.4015 -0.167138 -2.15754 0
M  V30 678 C 67.9965 -3.26482 -0.905265 0
M  V30 679 C 66.5555 -3.499 -1.38734 0
M  V30 680 C 65.7025 -2.74979 -0.358056 0
M  V30 681 H 68.6535 -1.56425 0.267736 0
M  V30 682 H 68.6745 -3.36887 -1.76882 0
M  V30 683 H 68.1865 -3.88096 -0.017401 0
M  V30 684 H 66.2875 -2.93553 -2.29471 0
M  V30 685 H 66.4005 -4.58615 -1.38598 0
M  V30 686 H 64.7645 -2.40834 -0.828912 0
M  V30 687 H 65.5475 -3.39315 0.521561 0
M  V30 688 N 67.9926 0.231505 -1.5589 0
M  V30 689 C 68.9226 1.29022 -1.94617 0
M  V30 690 C 69.9036 1.4941 -0.813067 0
M  V30 691 O 71.0886 1.6176 -1.07459 0
M  V30 692 C 68.2186 2.64199 -2.25424 0
M  V30 693 C 67.1726 2.58484 -3.41131 0
M  V30 694 C 66.4986 3.97599 -3.57518 0
M  V30 695 C 67.7986 2.1413 -4.76388 0
M  V30 696 H 69.4926 0.968563 -2.83301 0
M  V30 697 H 67.0386 0.464479 -1.36303 0
M  V30 698 H 68.9916 3.38413 -2.51107 0
M  V30 699 H 67.7156 2.98032 -1.33583 0
M  V30 700 H 66.3746 1.86727 -3.15481 0
M  V30 701 H 66.0226 4.28723 -2.6307 0
M  V30 702 H 65.7226 3.94659 -4.35337 0
M  V30 703 H 67.2466 4.7349 -3.85538 0
M  V30 704 H 68.6606 2.78083 -5.01341 0
M  V30 705 H 67.0576 2.2227 -5.57419 0
M  V30 706 H 68.1276 1.09331 -4.72414 0
M  V30 707 N 69.4707 1.49531 0.497807 0
M  V30 708 C 70.4337 1.65916 1.58128 0
M  V30 709 C 71.4337 0.530825 1.51786 0
M  V30 710 O 72.6237 0.797342 1.54881 0
M  V30 711 C 69.7557 1.65951 2.9778 0
M  V30 712 H 70.9487 2.62556 1.44929 0
M  V30 713 H 68.5017 1.38611 0.722275 0
M  V30 714 H 69.2367 0.709065 3.16453 0
M  V30 715 H 69.0217 2.47897 3.03792 0
M  V30 716 H 70.5117 1.80673 3.76493 0
M  V30 717 N 70.9488 -0.749086 1.3866 0
M  V30 718 C 72.1968 -1.50535 1.34847 0
M  V30 719 C 72.5178 -1.94909 -0.0595016 0
M  V30 720 O 71.7878 -1.67973 -1.00806 0
M  V30 721 H 70.3678 -0.558395 0.49619 0
M  V30 722 H 73.0298 -0.890165 1.73384 0
M  V30 723 H 72.1258 -2.39413 2.00219 0
M  V30 724 N 72.4269 -1.23603 -0.977757 0
M  V30 725 C 73.6749 -1.06759 -1.71601 0
M  V30 726 C 73.9959 0.395929 -1.90938 0
M  V30 727 O 73.2659 1.28356 -1.47992 0
M  V30 728 H 71.8459 -0.392062 -0.635843 0
M  V30 729 H 74.5079 -1.55362 -1.1768 0
M  V30 730 H 73.6039 -1.55763 -2.70452 0
M  V30 731 N 73.905 1.17692 -1.04816 0
M  V30 732 C 75.182 1.83768 -0.669963 0
M  V30 733 C 75.562 1.93232 0.849986 0
M  V30 734 O 74.91 1.46397 1.75443 0
M  V30 735 C 75.12 3.21641 -1.35455 0
M  V30 736 C 76.468 3.97592 -1.49017 0
M  V30 737 O 77.492 3.31107 -1.31326 0
M  V30 738 O 76.351 5.16729 -1.77914 0
M  V30 739 H 73.445 0.792799 -0.235368 0
M  V30 740 H 75.991 1.25021 -1.14751 0
M  V30 741 H 74.763 3.097 -2.39168 0
M  V30 742 H 74.386 3.88052 -0.866107 0
M  V30 743 N 75.3831 0.828654 1.34056 0
M  V30 744 C 76.3461 0.259927 2.27721 0
M  V30 745 C 77.3461 -0.565478 1.50529 0
M  V30 746 O 78.5361 -0.38075 1.69988 0
M  V30 747 C 75.6681 -0.634944 3.34935 0
M  V30 748 H 76.8611 1.0863 2.79534 0
M  V30 749 H 74.4141 0.600951 1.44285 0
M  V30 750 H 75.1491 -1.48416 2.88346 0
M  V30 751 H 74.9341 -0.0444999 3.92075 0
M  V30 752 H 76.4241 -1.02648 4.04788 0
M  V30 753 N 76.8612 -1.46375 0.584142 0
M  V30 754 C 77.7932 -2.28443 -0.186119 0
M  V30 755 C 78.8062 -1.38596 -0.854115 0
M  V30 756 O 79.9952 -1.63183 -0.723438 0
M  V30 757 C 77.0952 -3.13671 -1.28311 0
M  V30 758 C 76.2682 -4.31652 -0.706758 0
M  V30 759 C 75.3272 -4.98267 -1.69163 0
M  V30 760 O 74.3532 -5.55815 -1.22712 0
M  V30 761 N 75.5552 -4.95408 -3.02575 0
M  V30 762 H 78.3202 -2.9519 0.517986 0
M  V30 763 H 75.8812 -1.56303 0.42201 0
M  V30 764 H 77.8732 -3.55101 -1.94128 0
M  V30 765 H 76.4432 -2.48989 -1.89005 0
M  V30 766 H 75.6632 -3.93989 0.128908 0
M  V30 767 H 76.9512 -5.07906 -0.301506 0
M  V30 768 H 76.3492 -4.49902 -3.42936 0
M  V30 769 H 74.9062 -5.40774 -3.63877 0
M  V30 770 N 78.3393 -0.321999 -1.54275 0
M  V30 771 C 79.2693 0.537411 -2.27231 0
M  V30 772 C 80.2503 1.12064 -1.27968 0
M  V30 773 O 81.4353 1.14606 -1.56777 0
M  V30 774 C 78.5653 1.69919 -3.02894 0
M  V30 775 C 77.5193 1.24534 -4.09482 0
M  V30 776 C 76.8453 2.49394 -4.72977 0
M  V30 777 C 78.1453 0.361335 -5.21049 0
M  V30 778 H 79.8393 -0.0711406 -2.99315 0
M  V30 779 H 77.3853 -0.0356555 -1.43956 0
M  V30 780 H 79.3383 2.30668 -3.52662 0
M  V30 781 H 78.0623 2.33431 -2.28424 0
M  V30 782 H 76.7213 0.660782 -3.60596 0
M  V30 783 H 76.3693 3.11265 -3.95124 0
M  V30 784 H 76.0693 2.19718 -5.44975 0
M  V30 785 H 77.5933 3.10908 -5.25517 0
M  V30 786 H 79.0073 0.875072 -5.66582 0
M  V30 787 H 77.4043 0.157428 -5.99893 0
M  V30 788 H 78.4743 -0.60822 -4.8107 0
M  V30 789 N 79.8174 1.5752 -0.0501392 0
M  V30 790 C 81.2284 1.80271 0.485705 0
M  V30 791 C 81.5794 0.96228 1.70981 0
M  V30 792 O 80.7044 0.178578 2.15662 0
M  V30 793 C 81.2994 3.26957 0.887938 0
M  V30 794 C 79.8584 3.5063 1.36877 0
M  V30 795 C 79.0054 2.75165 0.343468 0
M  V30 796 H 81.9564 1.56281 -0.276028 0
M  V30 797 H 81.9774 3.37821 1.75093 0
M  V30 798 H 81.4894 3.881 -0.0031809 0
M  V30 799 H 79.5904 2.94766 2.27911 0
M  V30 800 H 79.7034 4.59343 1.36164 0
M  V30 801 H 78.0674 2.4127 0.816128 0
M  V30 802 H 78.8504 3.39034 -0.539548 0
M  V30 803 N 81.2955 -0.223234 1.56011 0
M  V30 804 C 82.2455 -1.28008 1.88674 0
M  V30 805 C 83.2295 -1.42369 0.749663 0
M  V30 806 O 84.4215 -1.45212 1.01205 0
M  V30 807 C 81.5505 -2.63084 2.20548 0
M  V30 808 C 80.6365 -2.52632 3.40643 0
M  V30 809 N 81.0275 -2.11829 4.59306 0
M  V30 810 C 79.3255 -2.83594 3.44224 0
M  V30 811 C 80.0265 -2.12587 5.41463 0
M  V30 812 N 79.0025 -2.5301 4.81131 0
M  V30 813 H 82.8045 -0.955487 2.77935 0
M  V30 814 H 80.3185 -0.431801 1.56554 0
M  V30 815 H 82.3155 -3.39385 2.42122 0
M  V30 816 H 80.9755 -2.96391 1.32599 0
M  V30 817 H 81.9865 -1.82988 4.84496 0
M  V30 818 H 78.6635 -3.21284 2.66614 0
M  V30 819 H 80.0535 -1.83179 6.46448 0
M  V30 820 N 82.7736 -1.49793 -0.48987 0
M  V30 821 C 84.0216 -1.59525 -1.24081 0
M  V30 822 C 84.3426 -0.288953 -1.92847 0
M  V30 823 O 83.6126 0.692436 -1.83254 0
M  V30 824 H 82.1926 -0.587796 -0.460983 0
M  V30 825 H 84.8546 -1.86477 -0.566778 0
M  V30 826 H 83.9506 -2.39696 -1.99881 0
M  V30 827 N 84.2517 0.741722 -1.39055 0
M  V30 828 C 85.4797 1.53098 -1.39171 0
M  V30 829 C 85.8947 1.88794 0.0155099 0
M  V30 830 O 85.2517 1.53626 0.985159 0
M  V30 831 C 85.3027 2.82274 -2.2584 0
M  V30 832 O 85.0237 2.48097 -3.61081 0
M  V30 833 C 86.5247 3.76343 -2.34266 0
M  V30 834 H 83.7447 0.473335 -0.4756 0
M  V30 835 H 86.2887 0.917045 -1.82785 0
M  V30 836 H 84.4437 3.40015 -1.85656 0
M  V30 837 H 84.8577 3.31029 -4.06842 0
M  V30 838 H 86.3317 4.63898 -2.9917 0
M  V30 839 H 86.8087 4.17619 -1.35982 0
M  V30 840 H 87.4147 3.24523 -2.74891 0
M  V30 841 N 85.7298 1.2412 0.971189 0
M  V30 842 C 86.9578 1.10575 1.74874 0
M  V30 843 C 87.3728 -0.342017 1.85676 0
M  V30 844 O 86.7298 -1.23617 1.34258 0
M  V30 845 C 86.7808 1.73579 3.171 0
M  V30 846 O 86.5018 3.12695 3.06844 0
M  V30 847 C 88.0028 1.65598 4.11208 0
M  V30 848 H 85.2228 0.386504 0.548503 0
M  V30 849 H 87.7668 1.64156 1.21955 0
M  V30 850 H 85.9218 1.24009 3.67016 0
M  V30 851 H 86.3358 3.43412 3.96445 0
M  V30 852 H 87.8098 2.1437 5.08674 0
M  V30 853 H 88.2868 0.616532 4.34851 0
M  V30 854 H 88.8928 2.14578 3.67201 0
M  V30 855 N 87.2079 -1.17134 1.05439 0
M  V30 856 C 88.4569 -1.86791 0.761049 0
M  V30 857 C 88.7699 -1.82072 -0.714795 0
M  V30 858 O 89.9759 -2.47223 -1.12218 0
M  V30 859 C 88.4319 -3.35166 1.31117 0
M  V30 860 C 88.0399 -3.48381 2.81664 0
M  V30 861 C 89.7839 -4.10134 1.09499 0
M  V30 862 C 87.6909 -4.90793 3.29964 0
M  V30 863 H 86.6209 -0.699681 0.281002 0
M  V30 864 H 89.2719 -1.3226 1.27199 0
M  V30 865 H 87.6539 -3.8925 0.72803 0
M  V30 866 H 88.8279 -3.04502 3.45855 0
M  V30 867 H 87.1429 -2.86836 3.01851 0
M  V30 868 H 89.7399 -5.152 1.43084 0
M  V30 869 H 90.0829 -4.16287 0.0328772 0
M  V30 870 H 90.6159 -3.62264 1.64346 0
M  V30 871 H 87.3549 -4.89816 4.35616 0
M  V30 872 H 86.8749 -5.35333 2.70516 0
M  V30 873 H 88.5539 -5.59573 3.24787 0
M  V30 874 N 88.686 -0.835752 -1.33615 0
M  V30 875 C 89.932 -0.430596 -1.98176 0
M  V30 876 C 90.265 1.00684 -1.66061 0
M  V30 877 O 89.54 1.70339 -0.938877 0
M  V30 878 C 89.823 -0.648065 -3.5422 0
M  V30 879 C 89.676 -2.13255 -3.96033 0
M  V30 880 C 90.995 -0.0922113 -4.40003 0
M  V30 881 H 88.114 -0.157924 -0.719881 0
M  V30 882 H 90.756 -1.05069 -1.58305 0
M  V30 883 H 88.906 -0.120237 -3.88314 0
M  V30 884 H 90.578 -2.725 -3.72211 0
M  V30 885 H 88.821 -2.61823 -3.45878 0
M  V30 886 H 89.492 -2.23547 -5.04708 0
M  V30 887 H 91.968 -0.543343 -4.12537 0
M  V30 888 H 90.844 -0.274083 -5.48215 0
M  V30 889 H 91.105 1.00378 -4.30554 0
M  V30 890 N 90.1641 1.46063 -0.591896 0
M  V30 891 C 91.1271 2.28854 0.125973 0
M  V30 892 C 92.1271 1.38903 0.810107 0
M  V30 893 O 93.3171 1.61186 0.66066 0
M  V30 894 C 90.4491 3.19526 1.1881 0
M  V30 895 H 91.6421 2.93802 -0.601717 0
M  V30 896 H 89.1951 1.52325 -0.350254 0
M  V30 897 H 89.9301 2.59345 1.94707 0
M  V30 898 H 89.7151 3.85766 0.701936 0
M  V30 899 H 91.2051 3.81817 1.69132 0
M  V30 900 N 91.6422 0.330177 1.54103 0
M  V30 901 C 92.5722 -0.525353 2.27513 0
M  V30 902 C 93.5532 -1.11383 1.2856 0
M  V30 903 O 94.7382 -1.13773 1.57383 0
M  V30 904 C 91.8682 -1.6831 3.03791 0
M  V30 905 C 90.8222 -1.2236 4.10137 0
M  V30 906 C 90.1482 -2.46882 4.74293 0
M  V30 907 C 91.4482 -0.333697 5.21233 0
M  V30 908 H 93.1422 0.087013 2.99274 0
M  V30 909 H 90.6882 0.0432893 1.43935 0
M  V30 910 H 92.6412 -2.28795 3.5388 0
M  V30 911 H 91.3652 -2.32216 2.29659 0
M  V30 912 H 90.0242 -0.64165 3.60941 0
M  V30 913 H 89.6722 -3.09165 3.96769 0
M  V30 914 H 89.3722 -2.16825 5.46133 0
M  V30 915 H 90.8962 -3.08117 5.27159 0
M  V30 916 H 92.3102 -0.845013 5.67038 0
M  V30 917 H 90.7072 -0.125612 5.99969 0
M  V30 918 H 91.7772 0.633724 4.80741 0
M  V30 919 N 93.1203 -1.57491 0.0584922 0
M  V30 920 C 94.0673 -2.11958 -0.913376 0
M  V30 921 C 95.0373 -1.02875 -1.30407 0
M  V30 922 O 96.2223 -1.30464 -1.39226 0
M  V30 923 C 93.3623 -2.67497 -2.18035 0
M  V30 924 C 92.4753 -3.90691 -1.84349 0
M  V30 925 C 91.6103 -4.3452 -3.05559 0
M  V30 926 C 90.6493 -5.50395 -2.67827 0
M  V30 927 N 89.7863 -5.89244 -3.81754 0
M  V30 928 H 94.6263 -2.94704 -0.442017 0
M  V30 929 H 92.1633 -1.45643 -0.206545 0
M  V30 930 H 94.1213 -2.978 -2.92183 0
M  V30 931 H 92.7513 -1.87537 -2.62735 0
M  V30 932 H 91.8033 -3.66934 -1.00319 0
M  V30 933 H 93.1153 -4.7489 -1.5258 0
M  V30 934 H 92.2693 -4.66414 -3.87998 0
M  V30 935 H 91.0083 -3.49147 -3.40511 0
M  V30 936 H 90.0133 -5.18165 -1.83806 0
M  V30 937 H 91.2383 -6.3749 -2.34059 0
M  V30 938 H 89.1843 -5.06823 -4.16493 0
M  V30 939 H 89.1013 -6.68151 -3.53708 0
M  V30 940 H 90.3693 -6.25756 -4.64811 0
M  V30 941 N 94.5984 0.214957 -1.56127 0
M  V30 942 C 95.8284 0.953707 -1.8327 0
M  V30 943 C 96.2364 1.78181 -0.636262 0
M  V30 944 O 95.5794 1.79191 0.404516 0
M  V30 945 C 95.6414 1.91516 -3.0424 0
M  V30 946 C 95.3054 1.27094 -4.38972 0
M  V30 947 C 96.3024 0.657575 -5.15725 0
M  V30 948 C 93.9874 1.28073 -4.85698 0
M  V30 949 C 95.9814 0.0625968 -6.37369 0
M  V30 950 C 93.6684 0.681914 -6.07283 0
M  V30 951 C 94.6664 0.0739046 -6.8296 0
M  V30 952 O 94.3544 -0.515582 -8.02245 0
M  V30 953 H 94.0864 0.284764 -0.613095 0
M  V30 954 H 96.6404 0.233283 -2.04071 0
M  V30 955 H 94.8704 2.67475 -2.79274 0
M  V30 956 H 96.5594 2.52001 -3.18198 0
M  V30 957 H 97.3254 0.642288 -4.80728 0
M  V30 958 H 93.2044 1.74337 -4.26764 0
M  V30 959 H 96.7484 -0.412593 -6.96379 0
M  V30 960 H 92.6454 0.694636 -6.41752 0
M  V30 961 H 93.4134 -0.410544 -8.1747 0
M  V30 962 N 96.0765 1.50051 0.48192 0
M  V30 963 C 97.4875 1.5348 1.06305 0
M  V30 964 C 97.8385 0.331997 1.93371 0
M  V30 965 O 96.9635 -0.556256 2.09129 0
M  V30 966 C 97.5585 2.7813 1.93466 0
M  V30 967 C 96.1175 2.84275 2.46707 0
M  V30 968 C 95.2645 2.47637 1.24785 0
M  V30 969 H 98.2155 1.56472 0.264995 0
M  V30 970 H 98.2365 2.59372 2.78399 0
M  V30 971 H 97.7485 3.65654 1.30072 0
M  V30 972 H 95.8495 2.01077 3.13686 0
M  V30 973 H 95.9625 3.8691 2.82555 0
M  V30 974 H 94.3265 1.99835 1.57918 0
M  V30 975 H 95.1095 3.37457 0.630694 0
M  V30 976 N 97.5546 -0.734337 1.39446 0
M  V30 977 C 98.8026 -1.49096 1.36436 0
M  V30 978 C 99.1236 -1.94961 -0.0388255 0
M  V30 979 O 98.3936 -1.69033 -0.990191 0
M  V30 980 H 96.9736 -0.5531 0.502085 0
M  V30 981 H 99.6356 -0.871725 1.74319 0
M  V30 982 H 98.7316 -2.37276 2.02747 0
M  V30 983 N 99.0327 -1.24633 -0.964593 0
M  V30 984 C 100.281 -1.08573 -1.70459 0
M  V30 985 C 100.602 0.375655 -1.91347 0
M  V30 986 O 99.8717 1.26779 -1.49345 0
M  V30 987 H 98.4517 -0.398784 -0.631649 0
M  V30 988 H 101.114 -1.56601 -1.16026 0
M  V30 989 H 100.21 -1.58623 -2.68785 0
M  V30 990 N 100.511 1.16574 -1.06058 0
M  V30 991 C 101.757 1.87324 -0.777022 0
M  V30 992 C 102.09 1.81351 0.694645 0
M  V30 993 O 101.365 1.22753 1.50871 0
M  V30 994 C 101.648 3.36991 -1.26922 0
M  V30 995 C 101.501 3.51667 -2.80447 0
M  V30 996 C 102.82 4.3131 -0.87521 0
M  V30 997 H 99.9388 0.680191 -0.28374 0
M  V30 998 H 102.581 1.37036 -1.3161 0
M  V30 999 H 100.731 3.79949 -0.81063 0
M  V30 1000 H 102.403 3.17664 -3.34495 0
M  V30 1001 H 100.646 2.93656 -3.19294 0
M  V30 1002 H 101.317 4.56766 -3.0995 0
M  V30 1003 H 103.793 3.9624 -1.27014 0
M  V30 1004 H 102.669 5.34545 -1.2471 0
M  V30 1005 H 102.93 4.41552 0.220071 0
M  V30 1006 N 101.989 0.842826 1.3317 0
M  V30 1007 C 103.235 0.441099 1.97945 0
M  V30 1008 C 103.568 -0.998024 1.66593 0
M  V30 1009 O 102.843 -1.69839 0.947898 0
M  V30 1010 C 103.126 0.666841 3.53872 0
M  V30 1011 C 102.979 2.15352 3.94897 0
M  V30 1012 C 104.298 0.115544 4.39948 0
M  V30 1013 H 101.417 0.161739 0.719034 0
M  V30 1014 H 104.059 1.05907 1.57746 0
M  V30 1015 H 102.209 0.140828 3.88245 0
M  V30 1016 H 103.881 2.7447 3.70761 0
M  V30 1017 H 102.124 2.63653 3.44484 0
M  V30 1018 H 102.795 2.26221 5.03516 0
M  V30 1019 H 105.271 0.565213 4.12243 0
M  V30 1020 H 104.147 0.303152 5.48062 0
M  V30 1021 H 104.408 -0.980935 4.3108 0
M  V30 1022 N 103.467 -1.45747 0.599634 0
M  V30 1023 C 104.4 -2.27547 -0.172552 0
M  V30 1024 C 105.378 -1.36657 -0.881116 0
M  V30 1025 O 106.562 -1.66081 -0.891595 0
M  V30 1026 C 103.689 -3.14829 -1.24903 0
M  V30 1027 C 102.735 -4.21603 -0.644465 0
M  V30 1028 S 103.568 -5.32754 0.541606 0
M  V30 1029 C 104.724 -6.23604 -0.535656 0
M  V30 1030 H 104.957 -2.92691 0.521468 0
M  V30 1031 H 102.49 -1.49473 0.386947 0
M  V30 1032 H 104.448 -3.65675 -1.86527 0
M  V30 1033 H 103.109 -2.48965 -1.91508 0
M  V30 1034 H 102.302 -4.82566 -1.45417 0
M  V30 1035 H 101.904 -3.73857 -0.103534 0
M  V30 1036 H 104.196 -6.62519 -1.41686 0
M  V30 1037 H 105.139 -7.0809 0.0376246 0
M  V30 1038 H 105.547 -5.58103 -0.84741 0
M  V30 1039 N 104.945 -0.338344 -1.53925 0
M  V30 1040 C 105.908 0.508299 -2.23493 0
M  V30 1041 C 106.908 1.03175 -1.23335 0
M  V30 1042 O 108.098 0.921826 -1.47811 0
M  V30 1043 C 105.23 1.70754 -2.95052 0
M  V30 1044 H 106.423 -0.100058 -2.99733 0
M  V30 1045 H 103.976 -0.0896198 -1.56043 0
M  V30 1046 H 104.711 2.35474 -2.22986 0
M  V30 1047 H 104.496 1.33946 -3.68512 0
M  V30 1048 H 105.986 2.30818 -3.48013 0
M  V30 1049 N 106.423 1.57458 -0.0668435 0
M  V30 1050 C 107.671 1.92919 0.602214 0
M  V30 1051 C 107.992 0.947215 1.70449 0
M  V30 1052 O 107.262 -0.00544117 1.95899 0
M  V30 1053 H 105.842 0.71217 0.22544 0
M  V30 1054 H 108.504 1.94508 -0.123535 0
M  V30 1055 H 107.6 2.94589 1.03073 0
M  V30 1056 N 107.901 -0.206675 1.56239 0
M  V30 1057 C 109.178 -0.954051 1.70755 0
M  V30 1058 C 109.558 -2.01841 0.618353 0
M  V30 1059 O 108.906 -2.25444 -0.372434 0
M  V30 1060 C 109.116 -1.551 3.12642 0
M  V30 1061 C 110.464 -2.03757 3.72516 0
M  V30 1062 O 111.488 -1.64965 3.15698 0
M  V30 1063 O 110.347 -2.75103 4.72208 0
M  V30 1064 H 107.441 -0.446636 0.696021 0
M  V30 1065 H 109.987 -0.197283 1.68549 0
M  V30 1066 H 108.759 -0.783212 3.83382 0
M  V30 1067 H 108.382 -2.37291 3.19028 0
M  V30 1068 N 109.379 -1.50304 -0.473955 0
M  V30 1069 C 110.795 -1.37667 -0.807466 0
M  V30 1070 C 110.995 -0.430555 -1.96846 0
M  V30 1071 O 110.051 0.127874 -2.52176 0
M  V30 1072 C 111.364 -2.78974 -1.12223 0
M  V30 1073 C 112.912 -2.87868 -1.22885 0
M  V30 1074 C 113.387 -4.30003 -1.57676 0
M  V30 1075 N 114.878 -4.3294 -1.64673 0
M  V30 1076 C 115.613 -5.3991 -1.93091 0
M  V30 1077 N 115.109 -6.57092 -2.1955 0
M  V30 1078 N 116.902 -5.27351 -1.94569 0
M  V30 1079 H 109.053 -2.10394 0.291212 0
M  V30 1080 H 111.316 -0.945575 0.0677609 0
M  V30 1081 H 111.022 -3.50031 -0.342229 0
M  V30 1082 H 110.896 -3.16038 -2.05913 0
M  V30 1083 H 113.283 -2.17032 -1.99953 0
M  V30 1084 H 113.364 -2.54352 -0.271814 0
M  V30 1085 H 113.008 -5.01375 -0.81149 0
M  V30 1086 H 112.938 -4.61004 -2.54525 0
M  V30 1087 H 115.429 -3.48441 -1.46277 0
M  V30 1088 H 115.742 -7.34425 -2.405 0
M  V30 1089 H 114.087 -6.60272 -2.16948 0
M  V30 1090 H 117.278 -4.34801 -1.73394 0
M  V30 1091 H 117.451 -6.10805 -2.16381 0
M  V30 1092 N 110.857 0.726932 -1.39834 0
M  V30 1093 C 112.273 1.03354 -1.21615 0
M  V30 1094 C 112.473 2.01327 -0.08338 0
M  V30 1095 O 111.529 2.46158 0.56238 0
M  V30 1096 C 112.842 1.58811 -2.55342 0
M  V30 1097 C 114.39 1.70851 -2.62257 0
M  V30 1098 C 114.865 2.29716 -3.96225 0
M  V30 1099 N 116.356 2.37116 -3.97907 0
M  V30 1100 C 117.091 2.83619 -4.98345 0
M  V30 1101 N 116.587 3.29958 -6.09179 0
M  V30 1102 N 118.38 2.82901 -4.8572 0
M  V30 1103 H 110.531 0.0773069 -2.12259 0
M  V30 1104 H 112.794 0.0969102 -0.943034 0
M  V30 1105 H 112.5 0.942855 -3.38826 0
M  V30 1106 H 112.374 2.57502 -2.75632 0
M  V30 1107 H 114.761 2.34497 -1.79152 0
M  V30 1108 H 114.842 0.707913 -2.45809 0
M  V30 1109 H 114.486 1.66696 -4.79765 0
M  V30 1110 H 114.416 3.30469 -4.09997 0
M  V30 1111 H 116.907 2.04374 -3.17868 0
M  V30 1112 H 117.22 3.63976 -6.8172 0
M  V30 1113 H 115.565 3.27946 -6.12761 0
M  V30 1114 H 118.756 2.46027 -3.98231 0
M  V30 1115 H 118.929 3.18827 -5.6414 0
M  V30 1116 N 112.336 1.25143 0.95797 0
M  V30 1117 C 113.561 1.12521 1.74223 0
M  V30 1118 C 113.986 -0.317402 1.85403 0
M  V30 1119 O 113.344 -1.2299 1.33204 0
M  V30 1120 C 113.392 1.78062 3.1357 0
M  V30 1121 O 112.496 1.058 3.98598 0
M  V30 1122 H 111.837 0.39304 0.535178 0
M  V30 1123 H 114.367 1.65641 1.201 0
M  V30 1124 H 114.377 1.84213 3.64046 0
M  V30 1125 H 113.052 2.83021 3.04749 0
M  V30 1126 H 111.629 1.07506 3.57067 0
M  V30 1127 N 113.814 -1.1601 1.06675 0
M  V30 1128 C 115.042 -1.90527 0.806667 0
M  V30 1129 C 115.457 -1.77643 -0.639396 0
M  V30 1130 O 114.814 -1.12369 -1.43803 0
M  V30 1131 C 114.865 -3.41106 1.19705 0
M  V30 1132 O 114.586 -3.53608 2.58636 0
M  V30 1133 C 116.087 -4.32663 0.965266 0
M  V30 1134 H 113.307 -0.604053 0.292166 0
M  V30 1135 H 115.851 -1.47026 1.4214 0
M  V30 1136 H 114.006 -3.82296 0.626774 0
M  V30 1137 H 114.42 -4.47011 2.74375 0
M  V30 1138 H 115.894 -5.36763 1.288 0
M  V30 1139 H 116.371 -4.39089 -0.0987936 0
M  V30 1140 H 116.977 -3.97206 1.52011 0
M  V30 1141 N 115.292 -0.849877 -1.32721 0
M  V30 1142 C 116.224 -0.248332 -2.27851 0
M  V30 1143 C 117.237 0.577218 -1.52224 0
M  V30 1144 O 118.426 0.402489 -1.73903 0
M  V30 1145 C 115.526 0.668107 -3.32249 0
M  V30 1146 C 114.699 -0.120534 -4.37234 0
M  V30 1147 C 113.758 0.720932 -5.21238 0
M  V30 1148 O 112.784 0.156166 -5.68986 0
M  V30 1149 N 113.986 2.03647 -5.43607 0
M  V30 1150 H 116.751 -1.06575 -2.80111 0
M  V30 1151 H 114.312 -0.709395 -1.45531 0
M  V30 1152 H 116.304 1.23627 -3.85355 0
M  V30 1153 H 114.874 1.38621 -2.80184 0
M  V30 1154 H 114.094 -0.870108 -3.84477 0
M  V30 1155 H 115.382 -0.662406 -5.0447 0
M  V30 1156 H 114.78 2.51871 -5.06535 0
M  V30 1157 H 113.337 2.55287 -5.99727 0
M  V30 1158 N 116.77 1.45427 -0.607355 0
M  V30 1159 C 118.018 2.01841 -0.102253 0
M  V30 1160 C 118.339 1.47832 1.27164 0
M  V30 1161 O 117.609 0.672497 1.83995 0
M  V30 1162 H 116.189 0.746188 -0.0348101 0
M  V30 1163 H 118.851 1.78229 -0.7887 0
M  V30 1164 H 117.947 3.12057 -0.0518585 0
M  V30 1165 N 118.248 0.346503 1.53744 0
M  V30 1166 C 119.196 -0.52422 2.26616 0
M  V30 1167 C 120.19 -1.09948 1.28871 0
M  V30 1168 O 121.396 -1.04488 1.46568 0
M  V30 1169 H 117.771 -0.187743 0.728187 0
M  V30 1170 H 119.742 0.11239 2.98188 0
M  V30 1171 C 118.491 -1.66186 3.05414 0
M  V30 1172 H 117.814 -1.22848 3.80458 0
M  V30 1173 H 119.254 -2.24622 3.59612 0
M  V30 1174 C 117.713 -2.59302 2.1509 0
M  V30 1175 O 118.243 -3.61628 1.74895 0
M  V30 1176 N 116.449 -2.28055 1.8011 0
M  V30 1177 H 115.996 -1.44883 2.12994 0
M  V30 1178 H 115.954 -2.90615 1.19958 0
M  V30 1179 N 119.726 -1.57421 0.075193 0
M  V30 1180 C 120.659 -2.08528 -0.926904 0
M  V30 1181 C 121.637 -0.991171 -1.28898 0
M  V30 1182 O 122.821 -1.26479 -1.39769 0
M  V30 1183 C 119.948 -2.54576 -2.23402 0
M  V30 1184 C 118.994 -3.75454 -2.02327 0
M  V30 1185 S 119.827 -5.19989 -1.27951 0
M  V30 1186 C 120.983 -5.69372 -2.59935 0
M  V30 1187 H 121.216 -2.932 -0.492048 0
M  V30 1188 H 118.749 -1.53785 -0.137651 0
M  V30 1189 H 120.707 -2.81767 -2.98526 0
M  V30 1190 H 119.368 -1.70166 -2.64012 0
M  V30 1191 H 118.561 -4.05675 -2.99071 0
M  V30 1192 H 118.163 -3.48654 -1.35339 0
M  V30 1193 H 120.455 -5.76424 -3.56008 0
M  V30 1194 H 121.398 -6.68207 -2.34319 0
M  V30 1195 H 121.806 -4.97205 -2.67296 0
M  V30 1196 N 121.204 0.198386 -1.56346 0
M  V30 1197 C 122.453 0.917451 -1.79627 0
M  V30 1198 C 122.766 1.8456 -0.64784 0
M  V30 1199 O 123.972 2.60504 -0.764859 0
M  V30 1200 C 122.428 1.68175 -3.18191 0
M  V30 1201 C 122.036 0.798589 -4.40825 0
M  V30 1202 C 123.78 2.39065 -3.50782 0
M  V30 1203 C 121.687 1.56157 -5.70411 0
M  V30 1204 H 120.617 0.346317 -0.669762 0
M  V30 1205 H 123.268 0.170801 -1.82703 0
M  V30 1206 H 121.65 2.47216 -3.09354 0
M  V30 1207 H 122.824 0.0470665 -4.60776 0
M  V30 1208 H 121.139 0.200686 -4.15916 0
M  V30 1209 H 123.736 2.96692 -4.44835 0
M  V30 1210 H 124.079 3.13091 -2.74371 0
M  V30 1211 H 124.612 1.66993 -3.61052 0
M  V30 1212 H 121.351 0.864142 -6.49779 0
M  V30 1213 H 120.871 2.2871 -5.54483 0
M  V30 1214 H 122.55 2.11622 -6.11412 0
M  V30 1215 N 122.682 1.50554 0.465978 0
M  V30 1216 C 123.907 1.65838 1.24549 0
M  V30 1217 C 124.332 0.343486 1.84937 0
M  V30 1218 O 123.69 -0.69324 1.67523 0
M  V30 1219 C 123.738 2.75533 2.32624 0
M  V30 1220 O 122.842 2.37142 3.37398 0
M  V30 1221 H 122.183 0.553893 0.366194 0
M  V30 1222 H 124.713 1.96959 0.553927 0
M  V30 1223 H 124.723 2.98763 2.77857 0
M  V30 1224 H 123.398 3.70962 1.88043 0
M  V30 1225 H 121.975 2.24377 2.97841 0
M  V30 1226 N 124.16 -0.719506 1.40217 0
M  V30 1227 C 125.408 -1.47641 1.3801 0
M  V30 1228 C 125.729 -1.94992 -0.018145 0
M  V30 1229 O 124.999 -1.70073 -0.972207 0
M  V30 1230 H 123.579 -0.547744 0.507923 0
M  V30 1231 H 126.241 -0.853187 1.75233 0
M  V30 1232 H 125.337 -2.35112 2.05253 0
M  V30 1233 N 125.638 -1.25649 -0.95132 0
M  V30 1234 C 127.054 -1.02542 -1.223 0
M  V30 1235 C 127.254 0.255715 -1.99871 0
M  V30 1236 O 126.31 0.967558 -2.33226 0
M  V30 1237 C 127.623 -2.25065 -1.99415 0
M  V30 1238 C 129.171 -2.29861 -2.12446 0
M  V30 1239 C 129.646 -3.52048 -2.92961 0
M  V30 1240 N 131.137 -3.52465 -3.00538 0
M  V30 1241 C 131.872 -4.43672 -3.63239 0
M  V30 1242 N 131.368 -5.45157 -4.27523 0
M  V30 1243 N 133.161 -4.31346 -3.60412 0
M  V30 1244 H 125.312 -2.07951 -0.432471 0
M  V30 1245 H 127.575 -0.91339 -0.253816 0
M  V30 1246 H 127.281 -3.18194 -1.49817 0
M  V30 1247 H 127.155 -2.28502 -3.00111 0
M  V30 1248 H 129.542 -1.37252 -2.61239 0
M  V30 1249 H 129.623 -2.3044 -1.11044 0
M  V30 1250 H 129.267 -4.44981 -2.44856 0
M  V30 1251 H 129.197 -3.48715 -3.94596 0
M  V30 1252 H 131.688 -2.79056 -2.54826 0
M  V30 1253 H 132.001 -6.10958 -4.73234 0
M  V30 1254 H 130.346 -5.49025 -4.26141 0
M  V30 1255 H 133.537 -3.51288 -3.09377 0
M  V30 1256 H 133.71 -5.02624 -4.0899 0
M  V30 1257 N 127.117 1.15442 -1.07289 0
M  V30 1258 C 128.394 1.82306 -0.708792 0
M  V30 1259 C 128.774 1.94991 0.808807 0
M  V30 1260 O 128.122 1.50085 1.72298 0
M  V30 1261 C 128.332 3.18695 -1.42247 0
M  V30 1262 C 129.68 3.94341 -1.57417 0
M  V30 1263 O 130.704 3.28247 -1.38319 0
M  V30 1264 O 129.563 5.12839 -1.88834 0
M  V30 1265 H 126.657 0.787628 -0.252132 0
M  V30 1266 H 129.203 1.22559 -1.17377 0
M  V30 1267 H 127.975 3.04557 -2.45684 0
M  V30 1268 H 127.598 3.86128 -0.948223 0
M  V30 1269 N 128.595 0.856903 1.32268 0
M  V30 1270 C 129.841 0.462069 1.97466 0
M  V30 1271 C 130.174 -0.980298 1.67642 0
M  V30 1272 O 129.449 -1.68824 0.965858 0
M  V30 1273 C 129.732 0.704336 3.53145 0
M  V30 1274 C 129.585 2.19529 3.9259 0
M  V30 1275 C 130.904 0.1622 4.39801 0
M  V30 1276 H 128.023 0.169357 0.717278 0
M  V30 1277 H 130.665 1.07574 1.56614 0
M  V30 1278 H 128.815 0.181999 3.88073 0
M  V30 1279 H 130.487 2.78387 3.67829 0
M  V30 1280 H 128.73 2.67292 3.41668 0
M  V30 1281 H 129.401 2.31549 5.01088 0
M  V30 1282 H 131.877 0.608905 4.11621 0
M  V30 1283 H 130.753 0.361265 5.4771 0
M  V30 1284 H 131.014 -0.935158 4.32096 0
M  V30 1285 N 130.073 -1.45103 0.615059 0
M  V30 1286 C 131.489 -1.57137 0.279322 0
M  V30 1287 C 131.689 -1.60523 -1.21797 0
M  V30 1288 O 130.745 -1.53956 -2.00134 0
M  V30 1289 C 132.058 -2.85062 0.957083 0
M  V30 1290 C 133.606 -2.98749 0.933706 0
M  V30 1291 C 134.081 -4.29455 1.59162 0
M  V30 1292 N 135.572 -4.36231 1.55746 0
M  V30 1293 C 136.307 -5.36051 2.0356 0
M  V30 1294 N 135.803 -6.42367 2.59494 0
M  V30 1295 N 137.596 -5.27456 1.94284 0
M  V30 1296 H 129.747 -1.41148 1.58717 0
M  V30 1297 H 132.01 -0.675331 0.665306 0
M  V30 1298 H 131.716 -2.88488 2.01166 0
M  V30 1299 H 131.59 -3.7407 0.48494 0
M  V30 1300 H 133.977 -2.94886 -0.112347 0
M  V30 1301 H 134.058 -2.11132 1.44419 0
M  V30 1302 H 133.702 -4.34077 2.63704 0
M  V30 1303 H 133.632 -5.15901 1.0561 0
M  V30 1304 H 136.123 -3.60011 1.14893 0
M  V30 1305 H 136.436 -7.14793 2.93752 0
M  V30 1306 H 134.781 -6.43097 2.63537 0
M  V30 1307 H 137.972 -4.43308 1.5032 0
M  V30 1308 H 138.145 -6.05099 2.3186 0
M  V30 1309 N 131.551 -0.354651 -1.53558 0
M  V30 1310 C 132.498 0.496968 -2.25386 0
M  V30 1311 C 133.468 1.0865 -1.25636 0
M  V30 1312 O 134.653 1.12104 -1.54394 0
M  V30 1313 C 131.793 1.63637 -3.03837 0
M  V30 1314 C 130.906 1.07307 -4.18461 0
M  V30 1315 C 130.041 2.18068 -4.84376 0
M  V30 1316 C 129.08 1.59147 -5.91049 0
M  V30 1317 N 128.217 2.63695 -6.50699 0
M  V30 1318 H 133.057 -0.122075 -2.9775 0
M  V30 1319 H 130.594 -0.0720154 -1.46924 0
M  V30 1320 H 132.552 2.30734 -3.47589 0
M  V30 1321 H 131.182 2.22623 -2.33749 0
M  V30 1322 H 130.234 0.292708 -3.79272 0
M  V30 1323 H 131.546 0.602193 -4.95152 0
M  V30 1324 H 130.7 2.93007 -5.31255 0
M  V30 1325 H 129.439 2.68504 -4.07133 0
M  V30 1326 H 128.444 0.827175 -5.43542 0
M  V30 1327 H 129.669 1.09549 -6.70206 0
M  V30 1328 H 127.615 3.13365 -5.76315 0
M  V30 1329 H 127.532 2.21263 -7.22896 0
M  V30 1330 H 128.8 3.3837 -7.02229 0
M  V30 1331 N 133.029 1.57378 -0.0835403 0
M  V30 1332 C 134.275 1.94217 0.583733 0
M  V30 1333 C 134.608 0.964653 1.68547 0
M  V30 1334 O 133.883 -0.00422258 1.945 0
M  V30 1335 C 134.166 3.41253 1.14972 0
M  V30 1336 C 134.019 4.49768 0.0538277 0
M  V30 1337 C 135.338 3.89352 2.05166 0
M  V30 1338 H 132.457 0.706233 0.210724 0
M  V30 1339 H 135.099 1.89392 -0.1519 0
M  V30 1340 H 133.249 3.45496 1.77665 0
M  V30 1341 H 134.921 4.57641 -0.579851 0
M  V30 1342 H 133.164 4.29432 -0.614068 0
M  V30 1343 H 133.835 5.49817 0.490452 0
M  V30 1344 H 136.311 3.87189 1.52393 0
M  V30 1345 H 135.187 4.92822 2.41698 0
M  V30 1346 H 135.448 3.27973 2.96456 0
M  V30 1347 N 134.507 -0.190092 1.56449 0
M  V30 1348 C 135.737 -0.92443 1.84764 0
M  V30 1349 C 136.145 -1.77146 0.664529 0
M  V30 1350 O 135.488 -1.79812 -0.375957 0
M  V30 1351 C 135.55 -1.86651 3.07248 0
M  V30 1352 C 135.214 -1.20094 4.40938 0
M  V30 1353 C 136.211 -0.575445 5.16706 0
M  V30 1354 C 133.896 -1.2033 4.87674 0
M  V30 1355 C 135.89 0.0388111 6.37388 0
M  V30 1356 C 133.577 -0.585214 6.08291 0
M  V30 1357 C 134.575 0.0347578 6.82991 0
M  V30 1358 O 134.263 0.643147 8.01323 0
M  V30 1359 H 133.995 -0.274974 0.617548 0
M  V30 1360 H 136.549 -0.200788 2.04416 0
M  V30 1361 H 134.779 -2.62998 2.83494 0
M  V30 1362 H 136.468 -2.46907 3.22167 0
M  V30 1363 H 137.234 -0.565728 4.81689 0
M  V30 1364 H 133.113 -1.67526 4.29484 0
M  V30 1365 H 136.657 0.523329 6.95634 0
M  V30 1366 H 132.554 -0.592451 6.42775 0
M  V30 1367 H 133.322 0.540545 8.16713 0
M  V30 1368 N 135.985 -1.50799 -0.457987 0
M  V30 1369 C 137.234 -1.6168 -1.20593 0
M  V30 1370 C 137.547 -0.32888 -1.92815 0
M  V30 1371 O 138.753 -0.316773 -2.69646 0
M  V30 1372 C 137.209 -2.8545 -2.19195 0
M  V30 1373 C 136.817 -4.21168 -1.52715 0
M  V30 1374 C 138.561 -3.05681 -2.94549 0
M  V30 1375 C 136.468 -5.3611 -2.4968 0
M  V30 1376 H 135.398 -0.602134 -0.453818 0
M  V30 1377 H 138.049 -1.77245 -0.475031 0
M  V30 1378 H 136.431 -2.63472 -2.95632 0
M  V30 1379 H 137.605 -4.53449 -0.819775 0
M  V30 1380 H 135.92 -4.06648 -0.895922 0
M  V30 1381 H 138.517 -3.88727 -3.67145 0
M  V30 1382 H 138.86 -2.17929 -3.54701 0
M  V30 1383 H 139.393 -3.27901 -2.25223 0
M  V30 1384 H 136.132 -6.26057 -1.94249 0
M  V30 1385 H 135.652 -5.0823 -3.18532 0
M  V30 1386 H 137.331 -5.6722 -3.11241 0
M  V30 1387 N 137.463 0.71206 -1.40597 0
M  V30 1388 C 138.691 1.50111 -1.42388 0
M  V30 1389 C 139.106 1.88784 -0.0245395 0
M  V30 1390 O 138.463 1.55681 0.952351 0
M  V30 1391 C 138.514 2.7742 -2.31776 0
M  V30 1392 O 138.235 2.40382 -3.66262 0
M  V30 1393 C 139.736 3.7129 -2.42196 0
M  V30 1394 H 136.956 0.46314 -0.485533 0
M  V30 1395 H 139.5 0.878068 -1.8469 0
M  V30 1396 H 137.655 3.36001 -1.92827 0
M  V30 1397 H 138.069 3.22324 -4.13772 0
M  V30 1398 H 139.543 4.57448 -3.08943 0
M  V30 1399 H 140.02 4.14641 -1.44809 0
M  V30 1400 H 140.626 3.18619 -2.81712 0
M  V30 1401 N 138.941 1.26152 0.944643 0
M  V30 1402 C 140.218 1.02247 1.66748 0
M  V30 1403 C 140.598 -0.448202 2.06287 0
M  V30 1404 O 139.946 -1.42779 1.78399 0
M  V30 1405 C 140.156 1.96788 2.88228 0
M  V30 1406 C 141.504 2.25201 3.59958 0
M  V30 1407 O 142.528 1.94626 2.98327 0
M  V30 1408 O 141.387 2.77242 4.70956 0
M  V30 1409 H 138.481 0.388517 0.730057 0
M  V30 1410 H 141.027 1.37348 0.99668 0
M  V30 1411 H 139.799 2.96047 2.55875 0
M  V30 1412 H 139.422 1.62145 3.63035 0
M  V30 1413 N 140.419 -1.14872 1.07899 0
M  V30 1414 C 141.696 -1.81928 0.71845 0
M  V30 1415 C 142.076 -1.95417 -0.798455 0
M  V30 1416 O 141.424 -1.50997 -1.715 0
M  V30 1417 C 141.634 -3.17937 1.43935 0
M  V30 1418 C 142.982 -3.93501 1.59506 0
M  V30 1419 O 144.006 -3.27509 1.40058 0
M  V30 1420 O 142.865 -5.1183 1.91551 0
M  V30 1421 H 139.959 -0.78628 0.256305 0
M  V30 1422 H 142.505 -1.21934 1.18026 0
M  V30 1423 H 141.277 -3.0325 2.47295 0
M  V30 1424 H 140.9 -3.85619 0.968687 0
M  V30 1425 N 141.898 -0.863906 -1.31812 0
M  V30 1426 C 143.128 -0.485406 -2.00817 0
M  V30 1427 C 143.536 0.925007 -1.65046 0
M  V30 1428 O 142.879 1.61653 -0.872574 0
M  V30 1429 C 142.941 -0.555589 -3.55181 0
M  V30 1430 C 142.605 -1.92654 -4.14407 0
M  V30 1431 C 143.602 -2.89324 -4.31958 0
M  V30 1432 C 141.287 -2.2262 -4.50273 0
M  V30 1433 C 143.281 -4.14108 -4.84555 0
M  V30 1434 C 140.968 -3.47654 -5.02573 0
M  V30 1435 C 141.966 -4.43214 -5.19664 0
M  V30 1436 O 141.654 -5.66033 -5.70843 0
M  V30 1437 H 141.386 -0.188224 -0.649267 0
M  V30 1438 H 143.94 -1.16514 -1.69156 0
M  V30 1439 H 142.17 0.181037 -3.86276 0
M  V30 1440 H 143.859 -0.19138 -4.05449 0
M  V30 1441 H 144.625 -2.6748 -4.04573 0
M  V30 1442 H 140.504 -1.4902 -4.3625 0
M  V30 1443 H 144.048 -4.88703 -4.9781 0
M  V30 1444 H 139.945 -3.69345 -5.29391 0
M  V30 1445 H 140.713 -5.6812 -5.89222 0
M  V30 1446 N 143.376 1.44774 -0.622745 0
M  V30 1447 C 144.604 2.06487 -0.130722 0
M  V30 1448 C 145.019 1.46476 1.19123 0
M  V30 1449 O 144.376 0.584502 1.72887 0
M  V30 1450 C 144.427 3.615 -0.000807207 0
M  V30 1451 O 144.148 4.19274 -1.27048 0
M  V30 1452 C 145.649 4.40229 0.520898 0
M  V30 1453 H 142.869 0.666704 -0.0758106 0
M  V30 1454 H 145.413 1.85779 -0.854774 0
M  V30 1455 H 143.568 3.81498 0.673643 0
M  V30 1456 H 143.982 5.12622 -1.1099 0
M  V30 1457 H 145.456 5.49144 0.560838 0
M  V30 1458 H 145.933 4.1108 1.54627 0
M  V30 1459 H 146.539 4.25131 -0.120018 0
M  V30 1460 N 144.854 0.36279 1.53368 0
M  V30 1461 C 145.817 -0.472679 2.24273 0
M  V30 1462 C 146.817 -1.012 1.24961 0
M  V30 1463 O 148.007 -0.898194 1.49259 0
M  V30 1464 C 145.139 -1.66039 2.97731 0
M  V30 1465 H 146.332 0.14773 2.99536 0
M  V30 1466 H 143.885 0.114434 1.55881 0
M  V30 1467 H 144.62 -2.31896 2.26704 0
M  V30 1468 H 144.405 -1.28066 3.70596 0
M  V30 1469 H 145.895 -2.25252 3.51641 0
M  V30 1470 N 146.332 -1.57332 0.0918853 0
M  V30 1471 C 147.56 -1.98574 -0.581048 0
M  V30 1472 C 147.975 -0.970903 -1.61923 0
M  V30 1473 O 147.332 0.0399054 -1.82456 0
M  V30 1474 C 147.383 -3.39872 -1.23164 0
M  V30 1475 O 147.104 -4.37469 -0.234989 0
M  V30 1476 C 148.605 -3.96099 -1.99049 0
M  V30 1477 H 145.825 -0.65261 -0.156018 0
M  V30 1478 H 148.369 -2.0379 0.170225 0
M  V30 1479 H 146.524 -3.35679 -1.93386 0
M  V30 1480 H 146.938 -5.19751 -0.70418 0
M  V30 1481 H 148.412 -4.97127 -2.39934 0
M  V30 1482 H 148.889 -3.3374 -2.85507 0
M  V30 1483 H 149.495 -4.03755 -1.3365 0
M  V30 1484 N 147.81 0.181792 -1.56548 0
M  V30 1485 C 149.058 0.89832 -1.81038 0
M  V30 1486 C 149.379 1.83232 -0.667164 0
M  V30 1487 O 148.649 1.93372 0.313673 0
M  V30 1488 H 147.229 0.33471 -0.667816 0
M  V30 1489 H 149.891 0.184116 -1.94028 0
M  V30 1490 H 148.987 1.4815 -2.74696 0
M  V30 1491 N 149.288 1.51039 0.449983 0
M  V30 1492 C 150.537 1.62317 1.19733 0
M  V30 1493 C 150.85 0.339101 1.92638 0
M  V30 1494 O 152.056 0.331069 2.69474 0
M  V30 1495 C 150.512 2.86608 2.17678 0
M  V30 1496 C 150.12 4.21972 1.50479 0
M  V30 1497 C 151.864 3.07239 2.92924 0
M  V30 1498 C 149.771 5.37426 2.46834 0
M  V30 1499 H 148.701 0.604532 0.450619 0
M  V30 1500 H 151.352 1.77494 0.465625 0
M  V30 1501 H 149.734 2.65037 2.94231 0
M  V30 1502 H 150.908 4.53878 0.795716 0
M  V30 1503 H 149.223 4.07117 0.874344 0
M  V30 1504 H 151.82 3.90668 3.65079 0
M  V30 1505 H 152.163 2.19807 3.5354 0
M  V30 1506 H 152.696 3.29091 2.23481 0
M  V30 1507 H 149.435 6.27079 1.90926 0
M  V30 1508 H 148.955 5.09912 3.15832 0
M  V30 1509 H 150.634 5.68862 3.08228 0
M  V30 1510 N 150.766 -0.704594 1.40972 0
M  V30 1511 C 151.729 -1.80035 1.41845 0
M  V30 1512 C 152.729 -1.57774 0.310474 0
M  V30 1513 O 153.919 -1.64613 0.56992 0
M  V30 1514 C 151.051 -3.18284 1.22098 0
M  V30 1515 H 152.244 -1.80658 2.3938 0
M  V30 1516 H 149.797 -0.911329 1.26982 0
M  V30 1517 H 150.532 -3.23306 0.253672 0
M  V30 1518 H 150.317 -3.35843 2.02366 0
M  V30 1519 H 151.807 -3.98289 1.25522 0
M  V30 1520 N 152.244 -1.26651 -0.937939 0
M  V30 1521 C 153.492 -1.12165 -1.68118 0
M  V30 1522 C 153.813 0.334983 -1.92101 0
M  V30 1523 O 153.083 1.23583 -1.52 0
M  V30 1524 H 151.663 -0.412093 -0.623048 0
M  V30 1525 H 154.325 -1.59027 -1.12678 0
M  V30 1526 H 153.421 -1.64289 -2.6536 0
M  V30 1527 N 153.722 1.14298 -1.08507 0
M  V30 1528 C 154.95 1.89219 -0.836876 0
M  V30 1529 C 155.365 1.78638 0.611054 0
M  V30 1530 O 154.722 1.14643 1.41998 0
M  V30 1531 C 154.773 3.39158 -1.25116 0
M  V30 1532 O 154.494 3.49449 -2.64229 0
M  V30 1533 C 155.995 4.31073 -1.03398 0
M  V30 1534 H 153.215 0.599328 -0.301739 0
M  V30 1535 H 155.759 1.44746 -1.44461 0
M  V30 1536 H 153.914 3.81251 -0.687514 0
M  V30 1537 H 154.328 4.42589 -2.81452 0
M  V30 1538 H 155.802 5.34646 -1.37323 0
M  V30 1539 H 156.279 4.3919 0.0289259 0
M  V30 1540 H 156.885 3.94738 -1.58311 0
M  V30 1541 N 155.201 0.870884 1.31352 0
M  V30 1542 C 156.164 0.332243 2.26779 0
M  V30 1543 C 157.164 -0.517302 1.52252 0
M  V30 1544 O 158.354 -0.326477 1.71113 0
M  V30 1545 C 155.486 -0.528066 3.36785 0
M  V30 1546 H 156.679 1.17469 2.75937 0
M  V30 1547 H 154.232 0.64655 1.423 0
M  V30 1548 H 154.967 -1.39167 2.92922 0
M  V30 1549 H 154.752 0.0802582 3.92018 0
M  V30 1550 H 156.242 -0.897179 4.07849 0
M  V30 1551 N 156.679 -1.44442 0.630414 0
M  V30 1552 C 157.642 -2.29107 -0.0652523 0
M  V30 1553 C 158.642 -1.41002 -0.772995 0
M  V30 1554 O 159.832 -1.62881 -0.617692 0
M  V30 1555 C 156.964 -3.22564 -1.10296 0
M  V30 1556 H 158.157 -2.92103 0.679401 0
M  V30 1557 H 155.71 -1.51343 0.390517 0
M  V30 1558 H 156.445 -2.64416 -1.87762 0
M  V30 1559 H 156.23 -3.87491 -0.59941 0
M  V30 1560 H 157.72 -3.86167 -1.5895 0
M  V30 1561 N 158.157 -0.370918 -1.53173 0
M  V30 1562 C 159.403 0.217423 -2.01631 0
M  V30 1563 C 159.736 1.47983 -1.25756 0
M  V30 1564 O 159.011 1.91274 -0.352764 0
M  V30 1565 C 159.294 0.503982 -3.56556 0
M  V30 1566 C 159.147 -0.77243 -4.43118 0
M  V30 1567 C 160.466 1.30234 -4.20389 0
M  V30 1568 H 157.585 0.0775486 -0.732909 0
M  V30 1569 H 160.227 -0.496863 -1.83388 0
M  V30 1570 H 158.377 1.11248 -3.72231 0
M  V30 1571 H 160.049 -1.4098 -4.39229 0
M  V30 1572 H 158.292 -1.39167 -4.10871 0
M  V30 1573 H 158.963 -0.526815 -5.4948 0
M  V30 1574 H 161.439 0.787546 -4.08579 0
M  V30 1575 H 160.315 1.47158 -5.28806 0
M  V30 1576 H 160.576 2.31237 -3.76805 0
M  V30 1577 N 159.635 1.57281 -0.100228 0
M  V30 1578 C 160.598 2.13158 0.842398 0
M  V30 1579 C 161.598 1.06202 1.20738 0
M  V30 1580 O 162.788 1.32066 1.13597 0
M  V30 1581 C 159.92 2.65639 2.13655 0
M  V30 1582 H 161.113 2.97766 0.357114 0
M  V30 1583 H 158.666 1.5559 0.148823 0
M  V30 1584 H 159.401 1.84566 2.66657 0
M  V30 1585 H 159.186 3.43844 1.88451 0
M  V30 1586 H 160.676 3.08846 2.81077 0
M  V30 1587 N 161.113 -0.173488 1.56642 0
M  V30 1588 C 162.359 -0.891784 1.8214 0
M  V30 1589 C 162.692 -1.8199 0.677736 0
M  V30 1590 O 161.967 -1.91842 -0.320446 0
M  V30 1591 C 162.25 -1.68933 3.18015 0
M  V30 1592 C 162.103 -0.784487 4.42906 0
M  V30 1593 C 163.422 -2.65748 3.50808 0
M  V30 1594 H 160.541 -0.322761 0.662567 0
M  V30 1595 H 163.183 -0.158095 1.89341 0
M  V30 1596 H 161.333 -2.31482 3.12007 0
M  V30 1597 H 163.005 -0.172046 4.60979 0
M  V30 1598 H 161.248 -0.0924117 4.33702 0
M  V30 1599 H 161.919 -1.37799 5.34524 0
M  V30 1600 H 164.395 -2.13327 3.57255 0
M  V30 1601 H 163.271 -3.18619 4.4696 0
M  V30 1602 H 163.532 -3.45842 2.75401 0
M  V30 1603 N 162.591 -1.51276 -0.441967 0
M  V30 1604 C 163.501 -1.75092 -1.56141 0
M  V30 1605 C 164.517 -0.634963 -1.62001 0
M  V30 1606 O 165.693 -0.916686 -1.79329 0
M  V30 1607 C 162.758 -1.86666 -2.92158 0
M  V30 1608 C 161.819 -3.10506 -2.96453 0
M  V30 1609 C 161.052 -3.21519 -4.25982 0
M  V30 1610 O 161.275 -2.38586 -5.18105 0
M  V30 1611 O 160.209 -4.14465 -4.36466 0
M  V30 1612 H 164.035 -2.70044 -1.38961 0
M  V30 1613 H 161.62 -1.35722 -0.624499 0
M  V30 1614 H 163.502 -1.96292 -3.72891 0
M  V30 1615 H 162.177 -0.949014 -3.09476 0
M  V30 1616 H 161.084 -3.06363 -2.14692 0
M  V30 1617 H 162.417 -4.01945 -2.84079 0
M  V30 1618 N 164.069 0.697108 -1.41344 0
M  V30 1619 C 165.316 1.45714 -1.40619 0
M  V30 1620 C 165.644 1.94494 -0.0147907 0
M  V30 1621 O 164.899 1.69794 0.973066 0
M  V30 1622 C 165.198 2.68553 -2.35826 0
M  V30 1623 C 164.864 2.38438 -3.82698 0
M  V30 1624 C 163.526 2.29936 -4.22709 0
M  V30 1625 C 165.878 2.13567 -4.75435 0
M  V30 1626 C 163.206 1.94656 -5.53467 0
M  V30 1627 C 165.558 1.79797 -6.06511 0
M  V30 1628 C 164.222 1.69789 -6.45545 0
M  V30 1629 H 163.492 0.533206 -0.51456 0
M  V30 1630 H 166.139 0.796901 -1.74131 0
M  V30 1631 H 164.444 3.39503 -1.95563 0
M  V30 1632 H 166.141 3.2669 -2.32539 0
M  V30 1633 H 162.731 2.4595 -3.51008 0
M  V30 1634 H 166.915 2.19082 -4.45328 0
M  V30 1635 H 162.171 1.8546 -5.82593 0
M  V30 1636 H 166.345 1.59572 -6.77872 0
M  V30 1637 H 163.972 1.4222 -7.46778 0
M  V30 1638 N 165.547 1.27147 0.931209 0
M  V30 1639 C 166.51 1.09615 2.01289 0
M  V30 1640 C 167.51 0.0412581 1.60747 0
M  V30 1641 O 168.7 0.285545 1.71844 0
M  V30 1642 C 165.832 0.669447 3.34262 0
M  V30 1643 H 167.025 2.05662 2.18273 0
M  V30 1644 H 164.578 1.09885 1.11153 0
M  V30 1645 H 165.313 -0.292572 3.22978 0
M  V30 1646 H 165.098 1.43127 3.65044 0
M  V30 1647 H 166.588 0.568921 4.13706 0
M  V30 1648 N 167.025 -1.13721 1.09112 0
M  V30 1649 C 168.441 -1.36914 0.820174 0
M  V30 1650 C 168.641 -1.93356 -0.567079 0
M  V30 1651 O 167.697 -2.15093 -1.32255 0
M  V30 1652 C 169.01 -2.3235 1.90877 0
M  V30 1653 C 170.558 -2.45973 1.93562 0
M  V30 1654 C 171.033 -3.44714 3.01556 0
M  V30 1655 N 172.524 -3.52263 3.00775 0
M  V30 1656 C 173.259 -4.28536 3.80978 0
M  V30 1657 N 172.755 -5.07991 4.71081 0
M  V30 1658 N 174.548 -4.23804 3.69251 0
M  V30 1659 H 166.699 -0.754348 1.98553 0
M  V30 1660 H 168.962 -0.3944 0.862063 0
M  V30 1661 H 168.668 -1.98027 2.90651 0
M  V30 1662 H 168.542 -3.32332 1.78424 0
M  V30 1663 H 170.929 -2.79584 0.944286 0
M  V30 1664 H 171.01 -1.45926 2.10093 0
M  V30 1665 H 170.654 -3.11835 4.00901 0
M  V30 1666 H 170.584 -4.44558 2.82269 0
M  V30 1667 H 173.075 -2.95567 2.35475 0
M  V30 1668 H 173.388 -5.63487 5.28869 0
M  V30 1669 H 171.733 -5.07235 4.75119 0
M  V30 1670 H 174.924 -3.60806 2.98222 0
M  V30 1671 H 175.097 -4.82995 4.31995 0
M  V30 1672 N 168.503 -0.877838 -1.30888 0
M  V30 1673 C 169.433 -0.35534 -2.3078 0
M  V30 1674 C 170.414 0.557994 -1.60687 0
M  V30 1675 O 171.599 0.473355 -1.88343 0
M  V30 1676 C 168.729 0.437221 -3.44537 0
M  V30 1677 C 167.683 -0.383715 -4.26276 0
M  V30 1678 C 167.009 0.535014 -5.32017 0
M  V30 1679 C 168.309 -1.62201 -4.96476 0
M  V30 1680 H 170.003 -1.19007 -2.74732 0
M  V30 1681 H 167.549 -0.573698 -1.32078 0
M  V30 1682 H 169.502 0.813334 -4.13477 0
M  V30 1683 H 168.226 1.30553 -2.99372 0
M  V30 1684 H 166.885 -0.741874 -3.59015 0
M  V30 1685 H 166.533 1.40083 -4.831 0
M  V30 1686 H 166.233 -0.0104211 -5.87599 0
M  V30 1687 H 167.757 0.907799 -6.03814 0
M  V30 1688 H 169.171 -1.31689 -5.5797 0
M  V30 1689 H 167.568 -2.10711 -5.61891 0
M  V30 1690 H 168.638 -2.37044 -4.23011 0
M  V30 1691 N 169.982 1.44106 -0.638065 0
M  V30 1692 C 171.212 2.06037 -0.152394 0
M  V30 1693 C 171.62 1.47808 1.18108 0
M  V30 1694 O 170.963 0.598092 1.73691 0
M  V30 1695 C 171.025 3.59488 0.0293714 0
M  V30 1696 C 170.689 4.4022 -1.22702 0
M  V30 1697 C 171.686 4.73256 -2.15232 0
M  V30 1698 C 169.371 4.8048 -1.46437 0
M  V30 1699 C 171.365 5.45444 -3.29802 0
M  V30 1700 C 169.052 5.52417 -2.61303 0
M  V30 1701 C 170.05 5.84819 -3.52811 0
M  V30 1702 O 169.738 6.55289 -4.65673 0
M  V30 1703 H 169.47 0.671233 -0.0801401 0
M  V30 1704 H 172.024 1.85851 -0.874563 0
M  V30 1705 H 170.254 3.78191 0.806758 0
M  V30 1706 H 171.943 4.03164 0.470475 0
M  V30 1707 H 172.709 4.42684 -1.98131 0
M  V30 1708 H 168.588 4.54676 -0.760977 0
M  V30 1709 H 172.132 5.70653 -4.01249 0
M  V30 1710 H 168.029 5.82404 -2.78344 0
M  V30 1711 H 168.797 6.73762 -4.64744 0
M  V30 1712 N 171.46 0.379036 1.52974 0
M  V30 1713 C 172.423 -0.448865 2.24762 0
M  V30 1714 C 173.423 -0.998689 1.26027 0
M  V30 1715 O 174.613 -0.882313 1.50203 0
M  V30 1716 C 171.745 -1.62872 2.99476 0
M  V30 1717 H 172.938 0.179491 2.99362 0
M  V30 1718 H 170.491 0.13096 1.5575 0
M  V30 1719 H 171.226 -2.29479 2.29151 0
M  V30 1720 H 171.011 -1.24128 3.71934 0
M  V30 1721 H 172.501 -2.2151 3.5401 0
M  V30 1722 N 172.938 -1.57226 0.108567 0
M  V30 1723 C 174.184 -1.95121 -0.552761 0
M  V30 1724 C 174.517 -0.991345 -1.66991 0
M  V30 1725 O 173.792 -0.0267211 -1.94482 0
M  V30 1726 C 174.075 -3.43039 -1.09528 0
M  V30 1727 C 173.928 -4.49797 0.0177332 0
M  V30 1728 C 175.247 -3.92567 -1.98945 0
M  V30 1729 H 172.366 -0.709496 -0.199461 0
M  V30 1730 H 175.008 -1.89126 0.182011 0
M  V30 1731 H 173.158 -3.48279 -1.72146 0
M  V30 1732 H 174.83 -4.56661 0.652584 0
M  V30 1733 H 173.073 -4.284 0.682309 0
M  V30 1734 H 173.744 -5.50528 -0.402919 0
M  V30 1735 H 176.22 -3.89565 -1.46214 0
M  V30 1736 H 175.096 -4.96605 -2.33827 0
M  V30 1737 H 175.357 -3.32648 -2.91201 0
M  V30 1738 N 174.416 0.165178 -1.56732 0
M  V30 1739 C 175.326 1.22423 -2.00125 0
M  V30 1740 C 176.342 1.48084 -0.913619 0
M  V30 1741 O 177.518 1.60112 -1.22172 0
M  V30 1742 C 174.583 2.54197 -2.35764 0
M  V30 1743 C 173.644 2.36343 -3.58386 0
M  V30 1744 C 172.877 3.61834 -3.92316 0
M  V30 1745 O 173.1 4.67267 -3.27135 0
M  V30 1746 O 172.034 3.55579 -4.85641 0
M  V30 1747 H 175.86 0.885886 -2.90492 0
M  V30 1748 H 173.445 0.372518 -1.44681 0
M  V30 1749 H 175.327 3.3192 -2.59629 0
M  V30 1750 H 174.002 2.87598 -1.48557 0
M  V30 1751 H 172.909 1.56632 -3.39731 0
M  V30 1752 H 174.242 2.07865 -4.46154 0
M  V30 1753 N 175.894 1.51508 0.433938 0
M  V30 1754 C 176.824 1.76016 1.53429 0
M  V30 1755 C 177.805 0.610112 1.58782 0
M  V30 1756 O 178.99 0.853177 1.74455 0
M  V30 1757 C 176.12 1.88831 2.9148 0
M  V30 1758 C 175.074 3.04288 3.00987 0
M  V30 1759 C 174.4 3.0229 4.4105 0
M  V30 1760 C 175.7 4.44193 2.74754 0
M  V30 1761 H 177.394 2.68152 1.33171 0
M  V30 1762 H 174.94 1.29035 0.639214 0
M  V30 1763 H 176.893 2.04559 3.6842 0
M  V30 1764 H 175.617 0.933455 3.12976 0
M  V30 1765 H 174.276 2.8827 2.26486 0
M  V30 1766 H 173.924 2.04576 4.59519 0
M  V30 1767 H 173.624 3.79822 4.4834 0
M  V30 1768 H 175.148 3.20116 5.1996 0
M  V30 1769 H 176.562 4.60544 3.41426 0
M  V30 1770 H 174.959 5.23457 2.9345 0
M  V30 1771 H 176.029 4.53996 1.70339 0
M  V30 1772 N 177.372 -0.689602 1.41712 0
M  V30 1773 C 178.282 -1.83314 1.46401 0
M  V30 1774 C 179.298 -1.7036 0.35405 0
M  V30 1775 O 180.474 -1.92171 0.602692 0
M  V30 1776 C 177.539 -3.19344 1.34982 0
M  V30 1777 C 176.6 -3.44363 2.56344 0
M  V30 1778 C 175.833 -4.73904 2.45461 0
M  V30 1779 O 176.056 -5.508 1.48241 0
M  V30 1780 O 174.99 -4.99839 3.35328 0
M  V30 1781 H 178.816 -1.82314 2.42889 0
M  V30 1782 H 176.401 -0.843438 1.23315 0
M  V30 1783 H 178.283 -4.00547 1.3092 0
M  V30 1784 H 176.958 -3.21014 0.41612 0
M  V30 1785 H 175.865 -2.63067 2.65982 0
M  V30 1786 H 177.198 -3.47512 3.48563 0
M  V30 1787 N 178.85 -1.27639 -0.924453 0
M  V30 1788 C 179.8 -1.07295 -2.01176 0
M  V30 1789 C 180.784 5.77352e-05 -1.609 0
M  V30 1790 O 181.976 -0.218855 -1.75642 0
M  V30 1791 C 179.105 -0.725592 -3.35544 0
M  V30 1792 C 178.191 -1.83691 -3.82254 0
M  V30 1793 N 178.582 -3.07697 -4.01443 0
M  V30 1794 C 176.88 -1.72433 -4.11319 0
M  V30 1795 C 177.581 -3.80037 -4.40394 0
M  V30 1796 N 176.557 -3.0782 -4.48049 0
M  V30 1797 H 180.359 -2.01399 -2.14046 0
M  V30 1798 H 177.873 -1.18401 -1.11153 0
M  V30 1799 H 179.87 -0.560959 -4.13109 0
M  V30 1800 H 178.53 0.207782 -3.24034 0
M  V30 1801 H 179.541 -3.43424 -3.8766 0
M  V30 1802 H 176.218 -0.862005 -4.08504 0
M  V30 1803 H 177.608 -4.86632 -4.63291 0
M  V30 1804 N 180.328 1.1314 -1.09713 0
M  V30 1805 C 181.558 1.88048 -0.855656 0
M  V30 1806 C 181.966 1.79537 0.596919 0
M  V30 1807 O 181.309 1.16196 1.42282 0
M  V30 1808 C 181.371 3.38314 -1.21589 0
M  V30 1809 C 181.035 3.70605 -2.67397 0
M  V30 1810 C 182.032 3.69596 -3.65643 0
M  V30 1811 C 179.717 4.0017 -3.03593 0
M  V30 1812 C 181.711 3.977 -4.9811 0
M  V30 1813 C 179.398 4.27935 -4.36251 0
M  V30 1814 C 180.396 4.26685 -5.33318 0
M  V30 1815 O 180.084 4.53767 -6.63589 0
M  V30 1816 H 179.816 0.60208 -0.307368 0
M  V30 1817 H 182.37 1.44128 -1.46343 0
M  V30 1818 H 180.6 3.82752 -0.551177 0
M  V30 1819 H 182.289 3.94552 -0.953083 0
M  V30 1820 H 183.055 3.46826 -3.39023 0
M  V30 1821 H 178.934 4.00289 -2.2867 0
M  V30 1822 H 182.478 3.9664 -5.73866 0
M  V30 1823 H 178.375 4.50178 -4.62613 0
M  V30 1824 H 179.143 4.71422 -6.69107 0
M  V30 1825 N 181.806 0.884767 1.30421 0
M  V30 1826 C 182.716 0.355398 2.31892 0
M  V30 1827 C 183.732 -0.542261 1.65335 0
M  V30 1828 O 184.908 -0.435432 1.96637 0
M  V30 1829 C 181.973 -0.421661 3.44126 0
M  V30 1830 C 181.034 0.505727 4.26311 0
M  V30 1831 C 180.267 -0.234343 5.33185 0
M  V30 1832 O 180.49 -1.46045 5.51386 0
M  V30 1833 O 179.424 0.415443 6.00465 0
M  V30 1834 H 183.25 1.19685 2.79122 0
M  V30 1835 H 180.835 0.648596 1.34587 0
M  V30 1836 H 182.717 -0.861641 4.12497 0
M  V30 1837 H 181.392 -1.23942 2.99032 0
M  V30 1838 H 180.299 0.994513 3.60639 0
M  V30 1839 H 181.632 1.28948 4.75009 0
M  V30 1840 N 183.284 -1.43765 0.645699 0
M  V30 1841 C 184.231 -2.30745 -0.0504648 0
M  V30 1842 C 185.201 -1.4432 -0.822241 0
M  V30 1843 O 186.386 -1.73202 -0.800358 0
M  V30 1844 C 183.526 -3.29802 -1.0161 0
M  V30 1845 C 182.639 -4.31326 -0.241219 0
M  V30 1846 C 181.774 -5.17469 -1.19998 0
M  V30 1847 C 180.813 -6.10691 -0.415094 0
M  V30 1848 N 179.95 -6.89483 -1.32506 0
M  V30 1849 H 184.79 -2.8973 0.697155 0
M  V30 1850 H 182.327 -1.42738 0.355563 0
M  V30 1851 H 184.285 -3.85734 -1.58949 0
M  V30 1852 H 182.915 -2.72483 -1.73069 0
M  V30 1853 H 181.967 -3.77749 0.448334 0
M  V30 1854 H 183.279 -4.9743 0.369437 0
M  V30 1855 H 182.433 -5.7799 -1.84424 0
M  V30 1856 H 181.172 -4.51473 -1.84455 0
M  V30 1857 H 180.177 -5.49265 0.242565 0
M  V30 1858 H 181.402 -6.78727 0.224966 0
M  V30 1859 H 179.348 -6.26142 -1.95657 0
M  V30 1860 H 179.265 -7.52081 -0.768783 0
M  V30 1861 H 180.533 -7.54516 -1.9577 0
M  V30 1862 N 184.763 -0.387143 -1.52771 0
M  V30 1863 C 185.693 0.440551 -2.29306 0
M  V30 1864 C 186.674 1.06535 -1.32606 0
M  V30 1865 O 187.859 1.07853 -1.61497 0
M  V30 1866 C 184.989 1.56919 -3.09829 0
M  V30 1867 C 183.943 1.07054 -4.14395 0
M  V30 1868 C 183.269 2.29109 -4.83129 0
M  V30 1869 C 184.569 0.140015 -5.22112 0
M  V30 1870 H 186.263 -0.198026 -2.98744 0
M  V30 1871 H 183.809 -0.09668 -1.43675 0
M  V30 1872 H 185.762 2.15503 -3.62128 0
M  V30 1873 H 184.486 2.23532 -2.3812 0
M  V30 1874 H 183.145 0.507247 -3.63074 0
M  V30 1875 H 182.793 2.94227 -4.0797 0
M  V30 1876 H 182.493 1.96406 -5.53804 0
M  V30 1877 H 184.017 2.88339 -5.38231 0
M  V30 1878 H 185.431 0.633978 -5.69784 0
M  V30 1879 H 183.828 -0.0971485 -6.00021 0
M  V30 1880 H 184.898 -0.811711 -4.78058 0
M  V30 1881 N 186.241 1.57166 -0.116904 0
M  V30 1882 C 187.151 2.18745 0.847812 0
M  V30 1883 C 188.167 1.163 1.29423 0
M  V30 1884 O 189.343 1.48761 1.35765 0
M  V30 1885 C 186.408 2.77307 2.0809 0
M  V30 1886 C 185.469 3.94781 1.68661 0
M  V30 1887 C 184.702 4.50541 2.86091 0
M  V30 1888 O 184.925 4.05202 4.01456 0
M  V30 1889 O 183.859 5.41256 2.63298 0
M  V30 1890 H 187.685 3.01632 0.353778 0
M  V30 1891 H 185.27 1.49005 0.108599 0
M  V30 1892 H 187.152 3.14647 2.80313 0
M  V30 1893 H 185.827 1.97452 2.56504 0
M  V30 1894 H 184.734 3.62214 0.935518 0
M  V30 1895 H 186.067 4.76065 1.24991 0
M  V30 1896 N 187.719 -0.156864 1.56817 0
M  V30 1897 C 188.967 -0.869404 1.82444 0
M  V30 1898 C 189.288 -1.82147 0.69623 0
M  V30 1899 O 188.558 -1.93847 -0.28287 0
M  V30 1900 H 187.138 -0.324043 0.673056 0
M  V30 1901 H 189.8 -0.153224 1.94297 0
M  V30 1902 H 188.896 -1.43761 2.77019 0
M  V30 1903 N 189.197 -1.51736 -0.425897 0
M  V30 1904 C 190.443 -1.65214 -1.1761 0
M  V30 1905 C 190.776 -0.372778 -1.90589 0
M  V30 1906 O 190.051 0.628139 -1.84078 0
M  V30 1907 C 190.334 -2.86312 -2.18398 0
M  V30 1908 C 190.187 -4.24254 -1.49426 0
M  V30 1909 C 191.506 -3.02925 -3.19256 0
M  V30 1910 H 188.625 -0.601263 -0.426206 0
M  V30 1911 H 191.267 -1.8425 -0.463882 0
M  V30 1912 H 189.417 -2.70213 -2.79137 0
M  V30 1913 H 191.089 -4.52046 -0.919362 0
M  V30 1914 H 189.332 -4.26426 -0.796432 0
M  V30 1915 H 190.003 -5.05001 -2.22885 0
M  V30 1916 H 192.479 -3.1781 -2.68581 0
M  V30 1917 H 191.355 -3.89199 -3.8706 0
M  V30 1918 H 191.616 -2.15497 -3.86023 0
M  V30 1919 N 190.675 0.682077 -1.42076 0
M  V30 1920 C 192.086 1.26246 -1.37546 0
M  V30 1921 C 192.437 1.96092 -0.0651481 0
M  V30 1922 O 191.562 1.99587 0.836297 0
M  V30 1923 C 192.157 2.29594 -2.49143 0
M  V30 1924 C 190.716 2.83175 -2.47969 0
M  V30 1925 C 189.863 1.57395 -2.28303 0
M  V30 1926 H 192.814 0.475937 -1.51395 0
M  V30 1927 H 192.835 3.11175 -2.18976 0
M  V30 1928 H 192.347 1.78729 -3.44496 0
M  V30 1929 H 190.448 3.3818 -1.56413 0
M  V30 1930 H 190.561 3.32687 -3.44755 0
M  V30 1931 H 188.925 1.83699 -1.76428 0
M  V30 1932 H 189.708 1.08507 -3.25701 0
M  V30 1933 N 192.153 1.28127 0.917671 0
M  V30 1934 C 193.083 1.14248 2.03641 0
M  V30 1935 C 194.064 0.0412748 1.7005 0
M  V30 1936 O 195.249 0.217566 1.92977 0
M  V30 1937 C 192.379 0.799431 3.37974 0
M  V30 1938 C 191.333 1.85497 3.85713 0
M  V30 1939 C 190.659 1.36565 5.16966 0
M  V30 1940 C 191.959 3.26085 4.08002 0
M  V30 1941 H 193.653 2.07835 2.15511 0
M  V30 1942 H 191.199 1.00064 1.03553 0
M  V30 1943 H 193.152 0.689114 4.15727 0
M  V30 1944 H 191.876 -0.172145 3.26146 0
M  V30 1945 H 190.535 1.95437 3.10161 0
M  V30 1946 H 190.183 0.383253 5.01538 0
M  V30 1947 H 189.883 2.07143 5.49878 0
M  V30 1948 H 191.407 1.26848 5.97279 0
M  V30 1949 H 192.821 3.19089 4.76293 0
M  V30 1950 H 191.218 3.94462 4.52238 0
M  V30 1951 H 192.288 3.70394 3.12948 0
M  V30 1952 N 193.631 -1.12557 1.10312 0
M  V30 1953 C 194.859 -1.87864 0.866873 0
M  V30 1954 C 195.274 -1.79588 -0.582557 0
M  V30 1955 O 194.631 -1.16887 -1.40156 0
M  V30 1956 C 194.682 -3.37125 1.30496 0
M  V30 1957 O 194.403 -3.45201 2.69755 0
M  V30 1958 C 195.904 -4.29373 1.10243 0
M  V30 1959 H 193.124 -0.594452 0.311236 0
M  V30 1960 H 195.668 -1.42429 1.46745 0
M  V30 1961 H 193.823 -3.80109 0.748081 0
M  V30 1962 H 194.237 -4.38056 2.88457 0
M  V30 1963 H 195.711 -5.32394 1.45811 0
M  V30 1964 H 196.188 -4.39181 0.0409492 0
M  V30 1965 H 196.794 -3.92169 1.64571 0
M  V30 1966 N 195.109 -0.891671 -1.2995 0
M  V30 1967 C 196.356 -0.513501 -1.95881 0
M  V30 1968 C 196.684 0.938655 -1.70351 0
M  V30 1969 O 195.939 1.67936 -1.00478 0
M  V30 1970 C 196.238 -0.742868 -3.49594 0
M  V30 1971 C 195.904 -2.17114 -3.95186 0
M  V30 1972 C 194.566 -2.56169 -4.07346 0
M  V30 1973 C 196.918 -3.10162 -4.18866 0
M  V30 1974 C 194.246 -3.87469 -4.4055 0
M  V30 1975 C 196.598 -4.41001 -4.53542 0
M  V30 1976 C 195.262 -4.79941 -4.63911 0
M  V30 1977 H 194.532 -0.187903 -0.71678 0
M  V30 1978 H 197.179 -1.1288 -1.54694 0
M  V30 1979 H 195.484 -0.044586 -3.91775 0
M  V30 1980 H 197.181 -0.429767 -3.9869 0
M  V30 1981 H 193.771 -1.85801 -3.86233 0
M  V30 1982 H 197.955 -2.81206 -4.08946 0
M  V30 1983 H 193.211 -4.17371 -4.46779 0
M  V30 1984 H 197.385 -5.13133 -4.70815 0
M  V30 1985 H 195.012 -5.81719 -4.89395 0
M  V30 1986 N 196.587 1.43421 -0.653314 0
M  V30 1987 C 197.55 2.29182 0.0287951 0
M  V30 1988 C 198.55 1.42213 0.750465 0
M  V30 1989 O 199.74 1.63843 0.591701 0
M  V30 1990 C 196.872 3.24278 1.05151 0
M  V30 1991 H 198.065 2.90985 -0.725786 0
M  V30 1992 H 195.618 1.50702 -0.414545 0
M  V30 1993 H 196.353 2.6737 1.83532 0
M  V30 1994 H 196.138 3.88396 0.537687 0
M  V30 1995 H 197.628 3.88647 1.52786 0
M  V30 1996 N 198.065 0.39524 1.52563 0
M  V30 1997 C 199.313 -0.184678 2.01254 0
M  V30 1998 C 199.634 -1.46822 1.28329 0
M  V30 1999 O 198.904 -1.91666 0.405094 0
M  V30 2000 H 197.484 -0.0712355 0.743596 0
M  V30 2001 H 200.146 0.528293 1.87603 0
M  V30 2002 H 199.242 -0.390681 3.09645 0
M  V30 2003 N 199.544 -1.57102 0.125237 0
M  V30 2004 C 200.491 -2.15641 -0.822655 0
M  V30 2005 C 201.461 -1.08313 -1.25927 0
M  V30 2006 O 202.646 -1.36251 -1.33567 0
M  V30 2007 C 199.786 -2.76504 -2.06494 0
M  V30 2008 C 198.899 -3.98158 -1.67612 0
M  V30 2009 C 198.034 -4.47088 -2.86854 0
M  V30 2010 C 197.073 -5.6126 -2.44242 0
M  V30 2011 N 196.21 -6.04905 -3.56419 0
M  V30 2012 H 201.05 -2.96313 -0.316625 0
M  V30 2013 H 198.587 -1.46388 -0.144588 0
M  V30 2014 H 200.545 -3.09925 -2.79289 0
M  V30 2015 H 199.175 -1.98512 -2.54545 0
M  V30 2016 H 198.227 -3.70858 -0.846661 0
M  V30 2017 H 199.539 -4.80934 -1.32301 0
M  V30 2018 H 198.693 -4.82451 -3.67867 0
M  V30 2019 H 197.432 -3.63275 -3.25396 0
M  V30 2020 H 196.437 -5.25495 -1.61663 0
M  V30 2021 H 197.662 -6.46843 -2.0681 0
M  V30 2022 H 195.608 -5.24032 -3.94623 0
M  V30 2023 H 195.525 -6.82552 -3.25051 0
M  V30 2024 H 196.793 -6.44907 -4.37853 0
M  V30 2025 N 201.022 0.148545 -1.56898 0
M  V30 2026 C 202.271 0.85984 -1.82454 0
M  V30 2027 C 202.584 1.82406 -0.706229 0
M  V30 2028 O 203.79 2.57938 -0.847349 0
M  V30 2029 C 202.246 1.57967 -3.2338 0
M  V30 2030 C 201.854 0.65794 -4.43142 0
M  V30 2031 C 203.598 2.27784 -3.58211 0
M  V30 2032 C 201.505 1.3793 -5.75091 0
M  V30 2033 H 200.435 0.324834 -0.68044 0
M  V30 2034 H 203.086 0.112588 -1.83154 0
M  V30 2035 H 201.468 2.37249 -3.17063 0
M  V30 2036 H 202.642 -0.0995497 -4.60692 0
M  V30 2037 H 200.957 0.0682643 -4.16344 0
M  V30 2038 H 203.554 2.8239 -4.54048 0
M  V30 2039 H 203.897 3.04204 -2.84193 0
M  V30 2040 H 204.43 1.55421 -3.66182 0
M  V30 2041 H 201.169 0.656982 -6.52199 0
M  V30 2042 H 200.689 2.10954 -5.61479 0
M  V30 2043 H 202.368 1.92063 -6.17835 0
M  V30 2044 N 202.5 1.5196 0.417844 0
M  V30 2045 C 203.448 1.75278 1.52907 0
M  V30 2046 C 204.442 0.619611 1.57662 0
M  V30 2047 O 205.648 0.801457 1.61173 0
M  V30 2048 H 202.023 0.554141 0.508362 0
M  V30 2049 H 203.994 2.68389 1.30422 0
M  V30 2050 C 202.743 1.91262 2.90369 0
M  V30 2051 H 202.066 2.77872 2.8745 0
M  V30 2052 H 203.506 2.11581 3.67436 0
M  V30 2053 C 201.965 0.677431 3.30019 0
M  V30 2054 O 202.495 -0.158799 4.01386 0
M  V30 2055 N 200.701 0.515851 2.85985 0
M  V30 2056 H 200.248 1.19744 2.28077 0
M  V30 2057 H 200.206 -0.309315 3.12875 0
M  V30 2058 N 203.978 -0.674533 1.42435 0
M  V30 2059 C 205.394 -0.98769 1.25367 0
M  V30 2060 C 205.594 -2.00879 0.158044 0
M  V30 2061 O 204.65 -2.48075 -0.470633 0
M  V30 2062 C 205.963 -1.49224 2.6106 0
M  V30 2063 C 207.511 -1.61 2.68417 0
M  V30 2064 C 207.986 -2.14852 4.04478 0
M  V30 2065 N 209.477 -2.22185 4.06434 0
M  V30 2066 C 210.212 -2.64928 5.08528 0
M  V30 2067 N 209.708 -3.07121 6.21006 0
M  V30 2068 N 211.501 -2.64679 4.95885 0
M  V30 2069 H 203.652 0.00152503 2.124 0
M  V30 2070 H 205.915 -0.0618434 0.945981 0
M  V30 2071 H 205.621 -0.816453 3.42092 0
M  V30 2072 H 205.495 -2.47094 2.84999 0
M  V30 2073 H 207.882 -2.27686 1.87732 0
M  V30 2074 H 207.963 -0.616195 2.48267 0
M  V30 2075 H 207.607 -1.48775 4.85622 0
M  V30 2076 H 207.537 -3.15024 4.2198 0
M  V30 2077 H 210.028 -1.92435 3.25234 0
M  V30 2078 H 210.341 -3.38423 6.94759 0
M  V30 2079 H 208.686 -3.04978 6.24511 0
M  V30 2080 H 211.877 -2.31078 4.07088 0
M  V30 2081 H 212.05 -2.9767 5.75584 0
M  V30 2082 N 205.456 -1.28612 -0.910864 0
M  V30 2083 C 206.386 -1.15326 -2.03032 0
M  V30 2084 C 207.367 -0.0502924 -1.70026 0
M  V30 2085 O 208.552 -0.227797 -1.92859 0
M  V30 2086 C 205.682 -0.817343 -3.37545 0
M  V30 2087 C 204.636 -1.8754 -3.84724 0
M  V30 2088 C 203.962 -1.39305 -5.16235 0
M  V30 2089 C 205.262 -3.28244 -4.06267 0
M  V30 2090 H 206.956 -2.08975 -2.14406 0
M  V30 2091 H 204.502 -1.00612 -1.03021 0
M  V30 2092 H 206.455 -0.711151 -4.15356 0
M  V30 2093 H 205.179 0.154846 -3.26233 0
M  V30 2094 H 203.838 -1.97079 -3.09121 0
M  V30 2095 H 203.486 -0.409846 -5.01328 0
M  V30 2096 H 203.186 -2.10057 -5.48771 0
M  V30 2097 H 204.71 -1.30014 -5.96598 0
M  V30 2098 H 206.124 -3.21611 -4.74594 0
M  V30 2099 H 204.521 -3.96855 -4.5014 0
M  V30 2100 H 205.591 -3.72048 -3.10979 0
M  V30 2101 N 206.934 1.1197 -1.10907 0
M  V30 2102 C 207.897 2.16031 -0.765707 0
M  V30 2103 C 208.897 1.59393 0.212235 0
M  V30 2104 O 210.087 1.74196 -0.0115441 0
M  V30 2105 C 207.219 3.40632 -0.135053 0
M  V30 2106 H 208.412 2.47919 -1.68748 0
M  V30 2107 H 205.965 1.27061 -0.910226 0
M  V30 2108 H 206.7 3.14348 0.797218 0
M  V30 2109 H 206.485 3.8302 -0.838937 0
M  V30 2110 H 207.975 4.17505 0.0892469 0
M  V30 2111 N 208.412 0.89855 1.29475 0
M  V30 2112 C 209.661 0.519863 1.94885 0
M  V30 2113 C 209.974 -0.9383 1.71625 0
M  V30 2114 O 211.18 -1.42445 2.31131 0
M  V30 2115 C 209.636 0.878836 3.49005 0
M  V30 2116 C 209.244 2.35569 3.81066 0
M  V30 2117 C 210.988 0.570004 4.20656 0
M  V30 2118 C 208.895 2.65558 5.28425 0
M  V30 2119 H 207.825 0.190692 0.729488 0
M  V30 2120 H 210.476 1.09539 1.47219 0
M  V30 2121 H 208.858 0.232253 3.95318 0
M  V30 2122 H 210.032 3.04773 3.45616 0
M  V30 2123 H 208.347 2.63343 3.22552 0
M  V30 2124 H 210.944 0.770925 5.29113 0
M  V30 2125 H 211.287 -0.491404 4.1339 0
M  V30 2126 H 211.82 1.17438 3.8007 0
M  V30 2127 H 208.559 3.70493 5.40754 0
M  V30 2128 H 208.079 2.00977 5.65127 0
M  V30 2129 H 209.758 2.51765 5.96006 0
M  V30 2130 N 209.89 -1.43072 0.660911 0
M  V30 2131 C 210.823 -2.28074 -0.0758862 0
M  V30 2132 C 211.801 -1.40271 -0.822362 0
M  V30 2133 O 212.985 -1.69713 -0.820352 0
M  V30 2134 C 210.112 -3.19843 -1.11437 0
M  V30 2135 C 209.158 -4.23957 -0.465069 0
M  V30 2136 S 209.991 -5.29978 0.767078 0
M  V30 2137 C 211.147 -6.25314 -0.270682 0
M  V30 2138 H 211.38 -2.90216 0.645139 0
M  V30 2139 H 208.913 -1.47697 0.449995 0
M  V30 2140 H 210.871 -3.73257 -1.70849 0
M  V30 2141 H 209.532 -2.56863 -1.80776 0
M  V30 2142 H 208.725 -4.88299 -1.24819 0
M  V30 2143 H 208.327 -3.73959 0.0551242 0
M  V30 2144 H 210.619 -6.67932 -1.13459 0
M  V30 2145 H 211.562 -7.07293 0.337916 0
M  V30 2146 H 211.97 -5.61195 -0.609937 0
M  V30 2147 N 211.368 -0.403325 -1.52352 0
M  V30 2148 C 212.614 0.174605 -2.02047 0
M  V30 2149 C 212.947 1.45282 -1.28867 0
M  V30 2150 O 212.222 1.90483 -0.393257 0
M  V30 2151 C 212.505 0.428238 -3.57545 0
M  V30 2152 C 212.358 -0.866248 -4.4138 0
M  V30 2153 C 213.677 1.21287 -4.23057 0
M  V30 2154 H 210.796 0.0619851 -0.734389 0
M  V30 2155 H 213.438 -0.53565 -1.82293 0
M  V30 2156 H 211.588 1.03327 -3.74507 0
M  V30 2157 H 213.26 -1.50265 -4.3614 0
M  V30 2158 H 211.503 -1.47851 -4.07827 0
M  V30 2159 H 212.174 -0.643249 -5.48239 0
M  V30 2160 H 214.65 0.700703 -4.10158 0
M  V30 2161 H 213.526 1.35909 -5.31808 0
M  V30 2162 H 213.787 2.23193 -3.81625 0
M  V30 2163 N 212.846 1.57033 -0.133567 0
M  V30 2164 C 214.262 1.58035 0.222944 0
M  V30 2165 C 214.462 1.14713 1.6566 0
M  V30 2166 O 213.518 0.841218 2.38075 0
M  V30 2167 C 214.831 3.00691 -0.0236116 0
M  V30 2168 C 216.379 3.12973 0.0411512 0
M  V30 2169 C 216.854 4.57654 -0.177899 0
M  V30 2170 N 218.345 4.63033 -0.124365 0
M  V30 2171 C 219.08 5.72771 -0.268553 0
M  V30 2172 N 218.576 6.91206 -0.46972 0
M  V30 2173 N 220.369 5.61718 -0.2071 0
M  V30 2174 H 212.52 1.8349 -1.06981 0
M  V30 2175 H 214.783 0.848677 -0.422436 0
M  V30 2176 H 214.489 3.36726 -1.0153 0
M  V30 2177 H 214.363 3.70614 0.701808 0
M  V30 2178 H 216.75 2.76787 1.02338 0
M  V30 2179 H 216.831 2.45564 -0.716383 0
M  V30 2180 H 216.475 4.94542 -1.15717 0
M  V30 2181 H 216.405 5.23173 0.599797 0
M  V30 2182 H 218.896 3.7789 0.027011 0
M  V30 2183 H 219.209 7.70693 -0.570212 0
M  V30 2184 H 217.554 6.93156 -0.505876 0
M  V30 2185 H 220.745 4.68072 -0.0507986 0
M  V30 2186 H 220.918 6.47195 -0.322909 0
M  V30 2187 N 214.325 -0.140222 1.56975 0
M  V30 2188 C 215.573 -0.850005 1.83356 0
M  V30 2189 C 215.894 -1.81399 0.71551 0
M  V30 2190 O 215.164 -1.94136 -0.262294 0
M  V30 2191 H 213.744 -0.316886 0.676456 0
M  V30 2192 H 216.406 -0.132608 1.94448 0
M  V30 2193 H 215.502 -1.40814 2.78528 0
M  V30 2194 N 215.803 -1.52179 -0.40978 0
M  V30 2195 C 216.751 -1.76086 -1.51975 0
M  V30 2196 C 217.745 -0.627964 -1.57331 0
M  V30 2197 O 218.951 -0.809993 -1.60745 0
M  V30 2198 H 215.326 -0.556829 -0.505416 0
M  V30 2199 H 217.297 -2.69077 -1.28996 0
M  V30 2200 C 216.046 -1.92799 -2.8935 0
M  V30 2201 H 215.369 -2.79392 -2.85972 0
M  V30 2202 H 216.809 -2.13527 -3.66309 0
M  V30 2203 C 215.268 -0.694923 -3.29655 0
M  V30 2204 O 215.798 0.13751 -4.01465 0
M  V30 2205 N 214.004 -0.53101 -2.85707 0
M  V30 2206 H 213.551 -1.20952 -2.27439 0
M  V30 2207 H 213.509 0.292718 -3.13034 0
M  V30 2208 N 217.281 0.66697 -1.42791 0
M  V30 2209 C 218.211 1.79218 -1.49677 0
M  V30 2210 C 219.192 1.66405 -0.352623 0
M  V30 2211 O 220.377 1.85708 -0.567993 0
M  V30 2212 C 217.507 3.17565 -1.40605 0
M  V30 2213 C 216.461 3.45124 -2.53127 0
M  V30 2214 C 215.787 4.83127 -2.29112 0
M  V30 2215 C 217.087 3.41236 -3.95418 0
M  V30 2216 H 218.781 1.73713 -2.43853 0
M  V30 2217 H 216.327 0.83432 -1.17367 0
M  V30 2218 H 218.28 3.96022 -1.44029 0
M  V30 2219 H 217.004 3.23767 -0.429271 0
M  V30 2220 H 215.663 2.69031 -2.49034 0
M  V30 2221 H 215.311 4.85988 -1.29709 0
M  V30 2222 H 215.011 5.02528 -3.04531 0
M  V30 2223 H 216.535 5.63859 -2.34297 0
M  V30 2224 H 217.949 4.09651 -4.01073 0
M  V30 2225 H 216.346 3.72173 -4.70752 0
M  V30 2226 H 217.416 2.39665 -4.21532 0
M  V30 2227 N 218.759 1.29093 0.90403 0
M  V30 2228 C 219.722 1.1386 1.98919 0
M  V30 2229 C 220.722 0.0753457 1.60623 0
M  V30 2230 O 221.912 0.321931 1.71199 0
M  V30 2231 C 219.044 0.740198 3.32767 0
M  V30 2232 H 220.237 2.10246 2.13861 0
M  V30 2233 H 217.79 1.12218 1.08797 0
M  V30 2234 H 218.525 -0.223997 3.23525 0
M  V30 2235 H 218.31 1.50838 3.61926 0
M  V30 2236 H 219.8 0.656546 4.12407 0
M  V30 2237 N 220.237 -1.11381 1.11499 0
M  V30 2238 C 221.2 -2.15622 0.777153 0
M  V30 2239 C 222.2 -1.59504 -0.203779 0
M  V30 2240 O 223.39 -1.74188 0.020782 0
M  V30 2241 C 220.522 -3.40556 0.153116 0
M  V30 2242 H 221.715 -2.47021 1.70061 0
M  V30 2243 H 219.268 -1.26577 0.916952 0
M  V30 2244 H 220.003 -3.14767 -0.780536 0
M  V30 2245 H 219.788 -3.8257 0.859238 0
M  V30 2246 H 221.278 -4.17546 -0.0671044 0
M  V30 2247 N 221.715 -0.905404 -1.28997 0
M  V30 2248 C 222.678 -0.392253 -2.25819 0
M  V30 2249 C 223.678 0.476753 -1.5357 0
M  V30 2250 O 224.868 0.280994 -1.71919 0
M  V30 2251 C 222 0.438588 -3.38067 0
M  V30 2252 H 223.193 -1.24743 -2.72725 0
M  V30 2253 H 220.746 -0.684051 -1.40536 0
M  V30 2254 H 221.481 1.31352 -2.96508 0
M  V30 2255 H 221.266 -0.184167 -3.91667 0
M  V30 2256 H 222.756 0.78873 -4.10084 0
M  V30 2257 N 223.193 1.4272 -0.668489 0
M  V30 2258 C 224.126 2.28111 0.0637898 0
M  V30 2259 C 225.104 1.40705 0.814912 0
M  V30 2260 O 226.288 1.70146 0.81134 0
M  V30 2261 C 223.415 3.20429 1.0974 0
M  V30 2262 C 222.461 4.24197 0.442579 0
M  V30 2263 S 223.294 5.29563 -0.795173 0
M  V30 2264 C 224.45 6.25449 0.237516 0
M  V30 2265 H 224.683 2.8987 -0.660521 0
M  V30 2266 H 222.216 1.47456 -0.457821 0
M  V30 2267 H 224.174 3.74158 1.68868 0
M  V30 2268 H 222.835 2.57818 1.79411 0
M  V30 2269 H 222.028 4.88954 1.22227 0
M  V30 2270 H 221.63 3.73925 -0.0749554 0
M  V30 2271 H 223.922 6.68524 1.09915 0
M  V30 2272 H 224.865 7.07104 -0.375421 0
M  V30 2273 H 225.273 5.61511 0.580167 0
M  V30 2274 N 224.671 0.411399 1.52136 0
M  V30 2275 C 225.603 -0.448386 2.24771 0
M  V30 2276 C 226.616 -1.00828 1.27818 0
M  V30 2277 O 227.805 -0.906841 1.53749 0
M  V30 2278 C 224.905 -1.63636 2.96777 0
M  V30 2279 C 224.078 -1.19995 4.20618 0
M  V30 2280 C 223.137 -2.25509 4.75428 0
M  V30 2281 O 222.163 -1.86007 5.3795 0
M  V30 2282 N 223.365 -3.577 4.57199 0
M  V30 2283 H 226.13 0.174025 2.99194 0
M  V30 2284 H 223.691 0.238897 1.60128 0
M  V30 2285 H 225.683 -2.33793 3.30338 0
M  V30 2286 H 224.253 -2.16465 2.25526 0
M  V30 2287 H 223.473 -0.326421 3.92846 0
M  V30 2288 H 224.761 -0.885365 5.01038 0
M  V30 2289 H 224.159 -3.92543 4.07341 0
M  V30 2290 H 222.716 -4.23827 4.95191 0
M  V30 2291 N 226.149 -1.5696 0.141893 0
M  V30 2292 C 227.397 -1.95573 -0.509484 0
M  V30 2293 C 227.718 -1.02746 -1.65736 0
M  V30 2294 O 226.988 -0.0880311 -1.95702 0
M  V30 2295 H 225.568 -0.722115 -0.191205 0
M  V30 2296 H 228.23 -1.93697 0.216196 0
M  V30 2297 H 227.326 -2.99171 -0.889 0
M  V30 2298 N 227.627 0.131896 -1.57047 0
M  V30 2299 C 228.557 1.16384 -2.02428 0
M  V30 2300 C 229.538 1.43936 -0.90644 0
M  V30 2301 O 230.723 1.54599 -1.17528 0
M  V30 2302 C 227.853 2.49328 -2.4177 0
M  V30 2303 C 226.807 2.36266 -3.56879 0
M  V30 2304 C 226.133 3.74057 -3.8208 0
M  V30 2305 C 227.433 1.834 -4.89042 0
M  V30 2306 H 229.127 0.786433 -2.88887 0
M  V30 2307 H 226.673 0.376855 -1.38981 0
M  V30 2308 H 228.626 3.21759 -2.7212 0
M  V30 2309 H 227.35 2.88934 -1.52266 0
M  V30 2310 H 226.009 1.66286 -3.26718 0
M  V30 2311 H 225.657 4.11125 -2.89803 0
M  V30 2312 H 225.357 3.66174 -4.59554 0
M  V30 2313 H 226.881 4.48012 -4.1487 0
M  V30 2314 H 228.295 2.45636 -5.18011 0
M  V30 2315 H 226.692 1.8637 -5.70426 0
M  V30 2316 H 227.762 0.790662 -4.7841 0
M  V30 2317 N 229.106 1.52395 0.401703 0
M  V30 2318 C 230.036 1.79231 1.49661 0
M  V30 2319 C 231.017 0.643654 1.57452 0
M  V30 2320 O 232.202 0.889989 1.72606 0
M  V30 2321 C 229.332 1.94971 2.87409 0
M  V30 2322 C 228.286 3.10604 2.94465 0
M  V30 2323 C 227.612 3.11577 4.34538 0
M  V30 2324 C 228.912 4.49921 2.6527 0
M  V30 2325 H 230.606 2.70917 1.27454 0
M  V30 2326 H 228.152 1.30362 0.6117 0
M  V30 2327 H 230.105 2.12328 3.63999 0
M  V30 2328 H 228.829 0.999632 3.10926 0
M  V30 2329 H 227.488 2.93009 2.20321 0
M  V30 2330 H 227.136 2.14277 4.55076 0
M  V30 2331 H 226.836 3.89247 4.40183 0
M  V30 2332 H 228.36 3.31073 5.13053 0
M  V30 2333 H 229.774 4.67683 3.31581 0
M  V30 2334 H 228.171 5.29564 2.82281 0
M  V30 2335 H 229.241 4.57507 1.60671 0
M  V30 2336 N 230.584 -0.659388 1.43143 0
M  V30 2337 C 231.547 -1.75432 1.47501 0
M  V30 2338 C 232.547 -1.56707 0.360512 0
M  V30 2339 O 233.737 -1.62717 0.622002 0
M  V30 2340 C 230.869 -3.14239 1.32162 0
M  V30 2341 H 232.062 -1.7295 2.45006 0
M  V30 2342 H 229.615 -0.870469 1.29817 0
M  V30 2343 H 230.35 -3.22336 0.356401 0
M  V30 2344 H 230.135 -3.29235 2.12948 0
M  V30 2345 H 231.625 -3.94094 1.3813 0
M  V30 2346 N 232.062 -1.29571 -0.897171 0
M  V30 2347 C 232.992 -1.17473 -2.01798 0
M  V30 2348 C 233.973 -0.068323 -1.69963 0
M  V30 2349 O 235.158 -0.248239 -1.92607 0
M  V30 2350 C 232.288 -0.853099 -3.36659 0
M  V30 2351 C 231.242 -1.9161 -3.82713 0
M  V30 2352 C 230.568 -1.44773 -5.14728 0
M  V30 2353 C 231.868 -3.32535 -4.02763 0
M  V30 2354 H 233.562 -2.11237 -2.12177 0
M  V30 2355 H 231.108 -1.01699 -1.01948 0
M  V30 2356 H 233.061 -0.755165 -4.14578 0
M  V30 2357 H 231.785 0.120236 -3.26379 0
M  V30 2358 H 230.444 -2.00346 -3.07013 0
M  V30 2359 H 230.092 -0.462995 -5.00865 0
M  V30 2360 H 229.792 -2.15865 -5.46513 0
M  V30 2361 H 231.316 -1.36334 -5.95185 0
M  V30 2362 H 232.73 -3.26626 -4.71156 0
M  V30 2363 H 231.127 -4.01607 -4.45905 0
M  V30 2364 H 232.197 -3.75326 -3.07016 0
M  V30 2365 N 233.54 1.10788 -1.12088 0
M  V30 2366 C 234.951 1.64181 -0.88891 0
M  V30 2367 C 235.302 1.87508 0.577498 0
M  V30 2368 O 234.427 1.61434 1.44112 0
M  V30 2369 C 235.022 2.98257 -1.60712 0
M  V30 2370 C 233.581 3.4853 -1.42139 0
M  V30 2371 C 232.728 2.23208 -1.6454 0
M  V30 2372 H 235.679 0.943368 -1.27618 0
M  V30 2373 H 235.7 3.65552 -1.05604 0
M  V30 2374 H 235.212 2.81246 -2.67436 0
M  V30 2375 H 233.313 3.70692 -0.376552 0
M  V30 2376 H 233.426 4.26882 -2.17505 0
M  V30 2377 H 231.79 2.31169 -1.06925 0
M  V30 2378 H 232.573 2.08733 -2.72554 0
M  V30 2379 N 235.018 0.912232 1.28515 0
M  V30 2380 C 235.948 0.416403 2.29757 0
M  V30 2381 C 236.929 -0.515194 1.6211 0
M  V30 2382 O 238.114 -0.423253 1.89532 0
M  V30 2383 C 235.244 -0.34572 3.45575 0
M  V30 2384 C 234.198 0.496599 4.25109 0
M  V30 2385 C 233.524 -0.393771 5.33248 0
M  V30 2386 C 234.824 1.75307 4.92001 0
M  V30 2387 H 236.518 1.26249 2.7148 0
M  V30 2388 H 234.064 0.608515 1.30511 0
M  V30 2389 H 236.017 -0.703422 4.15488 0
M  V30 2390 H 234.741 -1.2257 3.02728 0
M  V30 2391 H 233.4 0.8368 3.56922 0
M  V30 2392 H 233.048 -1.27225 4.86644 0
M  V30 2393 H 232.748 0.166209 5.87365 0
M  V30 2394 H 234.272 -0.747389 6.06009 0
M  V30 2395 H 235.686 1.46437 5.54283 0
M  V30 2396 H 234.083 2.25534 5.56106 0
M  V30 2397 H 235.153 2.48176 4.16577 0
M  V30 2398 N 236.496 -1.42363 0.676048 0
M  V30 2399 C 237.426 -2.33497 0.0124832 0
M  V30 2400 C 238.407 -1.50748 -0.787981 0
M  V30 2401 O 239.592 -1.79346 -0.744884 0
M  V30 2402 C 236.722 -3.34377 -0.938582 0
M  V30 2403 C 235.676 -4.27289 -0.246622 0
M  V30 2404 C 235.002 -5.18386 -1.31071 0
M  V30 2405 C 236.302 -5.14916 0.875125 0
M  V30 2406 H 237.996 -2.89233 0.773593 0
M  V30 2407 H 235.542 -1.39073 0.37346 0
M  V30 2408 H 237.495 -3.97044 -1.41188 0
M  V30 2409 H 236.219 -2.76947 -1.73113 0
M  V30 2410 H 234.878 -3.66018 0.206456 0
M  V30 2411 H 234.526 -4.57282 -2.09528 0
M  V30 2412 H 234.226 -5.81378 -0.852839 0
M  V30 2413 H 235.75 -5.83929 -1.78492 0
M  V30 2414 H 237.164 -5.71262 0.482983 0
M  V30 2415 H 235.561 -5.86747 1.25887 0
M  V30 2416 H 236.631 -4.53242 1.72335 0
M  V30 2417 N 237.974 -0.419461 -1.51915 0
M  V30 2418 C 238.937 0.389116 -2.25873 0
M  V30 2419 C 239.937 0.964924 -1.28631 0
M  V30 2420 O 241.127 0.842179 -1.52489 0
M  V30 2421 C 238.259 1.54874 -3.03689 0
M  V30 2422 H 239.452 -0.258799 -2.98781 0
M  V30 2423 H 237.005 -0.172209 -1.55348 0
M  V30 2424 H 237.74 2.23323 -2.35154 0
M  V30 2425 H 237.525 1.14223 -3.75094 0
M  V30 2426 H 239.015 2.12046 -3.59759 0
M  V30 2427 N 239.452 1.56882 -0.150215 0
M  V30 2428 C 240.7 1.9584 0.499105 0
M  V30 2429 C 241.021 1.03623 1.65188 0
M  V30 2430 O 240.291 0.0984084 1.95653 0
M  V30 2431 H 238.871 0.723119 0.187373 0
M  V30 2432 H 241.533 1.9358 -0.226466 0
M  V30 2433 H 240.629 2.99638 0.873122 0
M  V30 2434 N 240.93 -0.123565 1.57115 0
M  V30 2435 C 242.16 -0.845233 1.88519 0
M  V30 2436 C 242.568 -1.74168 0.739064 0
M  V30 2437 O 241.911 -1.81244 -0.299355 0
M  V30 2438 C 241.973 -1.73452 3.14888 0
M  V30 2439 C 241.637 -1.01285 4.45635 0
M  V30 2440 C 242.634 -0.355774 5.18681 0
M  V30 2441 C 240.319 -0.99538 4.92339 0
M  V30 2442 C 242.313 0.309114 6.3665 0
M  V30 2443 C 240 -0.32669 6.10226 0
M  V30 2444 C 240.998 0.324406 6.82229 0
M  V30 2445 O 240.686 0.982437 7.97874 0
M  V30 2446 H 240.418 -0.248534 0.628655 0
M  V30 2447 H 242.972 -0.113907 2.05084 0
M  V30 2448 H 241.202 -2.50737 2.94394 0
M  V30 2449 H 242.891 -2.33021 3.32349 0
M  V30 2450 H 243.657 -0.360918 4.83655 0
M  V30 2451 H 239.536 -1.49159 4.36202 0
M  V30 2452 H 243.08 0.8179 6.92789 0
M  V30 2453 H 238.977 -0.319294 6.4471 0
M  V30 2454 H 239.745 0.886454 8.13686 0
M  V30 2455 N 242.408 -1.52605 -0.393616 0
M  V30 2456 C 243.685 -1.58001 -1.15304 0
M  V30 2457 C 244.065 -0.370385 -2.07825 0
M  V30 2458 O 243.413 0.641638 -2.19306 0
M  V30 2459 C 243.623 -2.91652 -1.91677 0
M  V30 2460 C 244.971 -3.4522 -2.47201 0
M  V30 2461 O 245.995 -2.93495 -2.01839 0
M  V30 2462 O 244.854 -4.35579 -3.3005 0
M  V30 2463 H 241.948 -0.637068 -0.527327 0
M  V30 2464 H 244.494 -1.64939 -0.399141 0
M  V30 2465 H 243.266 -3.71136 -1.23992 0
M  V30 2466 H 242.889 -2.88077 -2.74039 0
M  V30 2467 N 243.887 0.651787 -1.4349 0
M  V30 2468 C 245.136 1.40754 -1.44469 0
M  V30 2469 C 245.449 1.95463 -0.0731845 0
M  V30 2470 O 246.655 2.71471 0.0395721 0
M  V30 2471 C 245.111 2.54735 -2.5424 0
M  V30 2472 C 244.719 2.06628 -3.97504 0
M  V30 2473 C 246.463 3.32092 -2.64414 0
M  V30 2474 C 244.37 3.17829 -4.98737 0
M  V30 2475 H 243.3 0.528862 -0.53742 0
M  V30 2476 H 245.951 0.703365 -1.69485 0
M  V30 2477 H 244.333 3.2763 -2.22428 0
M  V30 2478 H 245.507 1.40734 -4.38783 0
M  V30 2479 H 243.822 1.42146 -3.91387 0
M  V30 2480 H 246.419 4.14952 -3.37223 0
M  V30 2481 H 246.762 3.80217 -1.69532 0
M  V30 2482 H 247.295 2.66279 -2.95534 0
M  V30 2483 H 244.034 2.74671 -5.95177 0
M  V30 2484 H 243.554 3.82429 -4.62069 0
M  V30 2485 H 245.233 3.82937 -5.21505 0
M  V30 2486 N 245.365 1.30045 0.890287 0
M  V30 2487 C 246.315 1.12592 1.9826 0
M  V30 2488 C 247.299 0.0426021 1.60844 0
M  V30 2489 O 248.491 0.265346 1.75 0
M  V30 2490 C 245.62 0.814301 3.33503 0
M  V30 2491 C 244.706 1.93761 3.7725 0
M  V30 2492 N 245.097 3.18232 3.93143 0
M  V30 2493 C 243.395 1.83277 4.06602 0
M  V30 2494 C 244.096 3.9158 4.30163 0
M  V30 2495 N 243.072 3.19591 4.3973 0
M  V30 2496 H 246.874 2.07003 2.08631 0
M  V30 2497 H 244.388 1.21307 1.07974 0
M  V30 2498 H 246.385 0.67029 4.11476 0
M  V30 2499 H 245.045 -0.121797 3.24471 0
M  V30 2500 H 246.056 3.53581 3.78419 0
M  V30 2501 H 242.733 0.97001 4.06075 0
M  V30 2502 H 244.123 4.98744 4.50226 0
M  V30 2503 N 246.843 -1.10192 1.12674 0
M  V30 2504 C 247.806 -2.14786 0.799979 0
M  V30 2505 C 248.806 -1.59711 -0.18685 0
M  V30 2506 O 249.996 -1.74156 0.0392558 0
M  V30 2507 C 247.128 -3.40374 0.189228 0
M  V30 2508 H 248.321 -2.45203 1.72671 0
M  V30 2509 H 245.874 -1.25597 0.930326 0
M  V30 2510 H 246.609 -3.15577 -0.747107 0
M  V30 2511 H 246.394 -3.81637 0.899766 0
M  V30 2512 H 247.884 -4.17594 -0.0228143 0
M  V30 2513 N 248.321 -0.919034 -1.28029 0
M  V30 2514 C 249.546 -0.570357 -1.99403 0
M  V30 2515 C 249.971 0.842486 -1.68178 0
M  V30 2516 O 249.329 1.56391 -0.917141 0
M  V30 2517 C 249.377 -0.792541 -3.51783 0
M  V30 2518 O 248.481 0.145988 -4.12142 0
M  V30 2519 H 247.822 -0.220555 -0.6263 0
M  V30 2520 H 250.352 -1.23592 -1.63053 0
M  V30 2521 H 250.362 -0.704708 -4.01868 0
M  V30 2522 H 249.037 -1.82247 -3.73844 0
M  V30 2523 H 247.614 0.00897528 -3.72899 0
M  V30 2524 N 249.799 1.42003 -0.683588 0
M  V30 2525 C 251.076 1.95112 -0.138075 0
M  V30 2526 C 251.456 1.62359 1.34918 0
M  V30 2527 O 250.804 0.924311 2.08971 0
M  V30 2528 C 251.014 3.46505 -0.416581 0
M  V30 2529 C 252.362 4.23254 -0.337834 0
M  V30 2530 O 253.386 3.54468 -0.35082 0
M  V30 2531 O 252.245 5.45743 -0.287596 0
M  V30 2532 H 249.339 0.826961 -0.00797996 0
M  V30 2533 H 251.885 1.51784 -0.758924 0
M  V30 2534 H 250.657 3.63582 -1.4465 0
M  V30 2535 H 250.28 3.969 0.235839 0
M  V30 2536 N 251.277 0.427512 1.51691 0
M  V30 2537 C 252.688 -0.0378867 1.86662 0
M  V30 2538 C 253.039 -1.42819 1.34525 0
M  V30 2539 O 252.164 -2.05037 0.692014 0
M  V30 2540 C 252.759 -0.0755266 3.38716 0
M  V30 2541 C 251.318 -0.485309 3.73258 0
M  V30 2542 C 250.465 0.328399 2.75349 0
M  V30 2543 H 253.416 0.64379 1.45055 0
M  V30 2544 H 253.437 -0.887056 3.70016 0
M  V30 2545 H 252.949 0.936487 3.76632 0
M  V30 2546 H 251.05 -1.50329 3.40928 0
M  V30 2547 H 251.163 -0.21693 4.78609 0
M  V30 2548 H 249.527 -0.211905 2.53817 0
M  V30 2549 H 250.31 1.3391 3.16106 0
M  V30 2550 N 252.755 -1.56801 0.158532 0
M  V30 2551 C 253.687 -2.14488 -0.807923 0
M  V30 2552 C 254.7 -1.09721 -1.20271 0
M  V30 2553 O 255.889 -1.36956 -1.14478 0
M  V30 2554 C 252.989 -2.66217 -2.09718 0
M  V30 2555 C 252.162 -3.95507 -1.86796 0
M  V30 2556 C 251.221 -4.3243 -2.99818 0
M  V30 2557 O 250.247 -5.00543 -2.71008 0
M  V30 2558 N 251.449 -3.92947 -4.27285 0
M  V30 2559 H 254.214 -2.98042 -0.314816 0
M  V30 2560 H 251.775 -1.61881 -0.0246692 0
M  V30 2561 H 253.767 -2.87924 -2.84398 0
M  V30 2562 H 252.337 -1.87324 -2.50257 0
M  V30 2563 H 251.557 -3.82309 -0.96089 0
M  V30 2564 H 252.845 -4.79972 -1.68833 0
M  V30 2565 H 252.243 -3.38087 -4.53557 0
M  V30 2566 H 250.8 -4.19681 -4.9871 0
M  V30 2567 N 254.233 0.115231 -1.57178 0
M  V30 2568 C 255.458 0.840354 -1.89612 0
M  V30 2569 C 255.883 1.72464 -0.750845 0
M  V30 2570 O 255.241 1.78826 0.298478 0
M  V30 2571 C 255.289 1.64654 -3.20814 0
M  V30 2572 O 254.393 2.7538 -3.06985 0
M  V30 2573 H 253.734 0.232158 -0.622092 0
M  V30 2574 H 256.264 0.0964977 -2.04372 0
M  V30 2575 H 256.274 2.03499 -3.53627 0
M  V30 2576 H 254.949 0.997416 -4.03763 0
M  V30 2577 H 253.526 2.3971 -2.85646 0
M  V30 2578 N 255.711 1.52812 0.385517 0
M  V30 2579 C 256.674 1.77188 1.45386 0
M  V30 2580 C 257.674 0.641953 1.4743 0
M  V30 2581 O 258.864 0.910033 1.4854 0
M  V30 2582 C 255.996 1.87582 2.8465 0
M  V30 2583 H 257.189 2.72583 1.25054 0
M  V30 2584 H 254.742 1.43586 0.617467 0
M  V30 2585 H 255.477 0.941849 3.10322 0
M  V30 2586 H 255.262 2.69748 2.84567 0
M  V30 2587 H 256.752 2.08102 3.62054 0
M  V30 2588 N 257.189 -0.644168 1.43834 0
M  V30 2589 C 258.437 -1.40117 1.45642 0
M  V30 2590 C 258.758 -1.94814 0.0852413 0
M  V30 2591 O 258.028 -1.74988 -0.880688 0
M  V30 2592 H 256.608 -0.52005 0.536243 0
M  V30 2593 H 259.27 -0.7591 1.7951 0
M  V30 2594 H 258.366 -2.23902 2.17427 0
M  V30 2595 N 258.668 -1.30515 -0.883378 0
M  V30 2596 C 260.084 -1.08881 -1.16692 0
M  V30 2597 C 260.284 0.149409 -2.00945 0
M  V30 2598 O 259.34 0.84257 -2.38027 0
M  V30 2599 C 260.653 -2.35319 -1.87204 0
M  V30 2600 C 262.201 -2.40799 -1.99962 0
M  V30 2601 C 262.676 -3.67083 -2.73887 0
M  V30 2602 N 264.167 -3.679 -2.81432 0
M  V30 2603 C 264.902 -4.62303 -3.3921 0
M  V30 2604 N 264.398 -5.67052 -3.98025 0
M  V30 2605 N 266.191 -4.49845 -3.3704 0
M  V30 2606 H 258.342 -2.09951 -0.321633 0
M  V30 2607 H 260.605 -0.92556 -0.205043 0
M  V30 2608 H 260.311 -3.25689 -1.3274 0
M  V30 2609 H 260.185 -2.44089 -2.87577 0
M  V30 2610 H 262.572 -1.50907 -2.53597 0
M  V30 2611 H 262.653 -2.36003 -0.98673 0
M  V30 2612 H 262.297 -4.57334 -2.20925 0
M  V30 2613 H 262.227 -3.69141 -3.75556 0
M  V30 2614 H 264.718 -2.92171 -2.39676 0
M  V30 2615 H 265.031 -6.35184 -4.40183 0
M  V30 2616 H 263.376 -5.70842 -3.96439 0
M  V30 2617 H 266.567 -3.67194 -2.90321 0
M  V30 2618 H 266.74 -5.23597 -3.81772 0
M  V30 2619 N 260.146 1.09593 -1.13257 0
M  V30 2620 C 261.395 1.81105 -0.887917 0
M  V30 2621 C 261.708 1.86563 0.587672 0
M  V30 2622 O 262.914 2.54367 0.949204 0
M  V30 2623 C 261.37 3.25338 -1.53895 0
M  V30 2624 C 260.978 3.28151 -3.04994 0
M  V30 2625 C 262.722 4.01617 -1.37492 0
M  V30 2626 C 260.629 4.66897 -3.6299 0
M  V30 2627 H 259.559 0.678661 -0.328534 0
M  V30 2628 H 262.21 1.23183 -1.36008 0
M  V30 2629 H 260.592 3.8331 -0.994446 0
M  V30 2630 H 261.766 2.79953 -3.66009 0
M  V30 2631 H 260.081 2.65361 -3.20893 0
M  V30 2632 H 262.678 5.04119 -1.78235 0
M  V30 2633 H 263.021 4.15072 -0.31957 0
M  V30 2634 H 263.554 3.50082 -1.88912 0
M  V30 2635 H 260.293 4.58643 -4.68323 0
M  V30 2636 H 259.813 5.15426 -3.06752 0
M  V30 2637 H 261.492 5.3587 -3.62563 0
M  V30 2638 N 261.624 0.925811 1.2754 0
M  V30 2639 C 262.87 0.566092 1.94739 0
M  V30 2640 C 263.203 -0.890057 1.72603 0
M  V30 2641 O 262.478 -1.63467 1.05399 0
M  V30 2642 C 262.761 0.89054 3.48915 0
M  V30 2643 C 262.614 2.4003 3.80402 0
M  V30 2644 C 263.933 0.395101 4.38323 0
M  V30 2645 H 261.052 0.20714 0.707292 0
M  V30 2646 H 263.694 1.15725 1.50691 0
M  V30 2647 H 261.844 0.387452 3.86563 0
M  V30 2648 H 263.516 2.97494 3.52555 0
M  V30 2649 H 261.759 2.85028 3.2702 0
M  V30 2650 H 262.43 2.57785 4.8811 0
M  V30 2651 H 264.906 0.826241 4.07814 0
M  V30 2652 H 263.782 0.651086 5.45025 0
M  V30 2653 H 264.043 -0.704798 4.36446 0
M  V30 2654 N 263.102 -1.41638 0.69111 0
M  V30 2655 C 264.327 -2.06148 0.227583 0
M  V30 2656 C 264.752 -1.51652 -1.11281 0
M  V30 2657 O 264.11 -0.64164 -1.69566 0
M  V30 2658 C 264.158 -3.60095 0.190858 0
M  V30 2659 O 263.262 -4.03845 -0.835664 0
M  V30 2660 H 262.603 -0.654434 0.112306 0
M  V30 2661 H 265.133 -1.81484 0.944714 0
M  V30 2662 H 265.143 -4.07995 0.020207 0
M  V30 2663 H 263.818 -3.99129 1.16915 0
M  V30 2664 H 262.395 -3.67458 -0.63473 0
M  V30 2665 N 264.58 -0.43555 -1.51462 0
M  V30 2666 C 265.827 0.131514 -2.02072 0
M  V30 2667 C 266.155 1.42868 -1.31981 0
M  V30 2668 O 265.41 1.91076 -0.422883 0
M  V30 2669 C 265.709 0.39942 -3.55161 0
M  V30 2670 C 265.375 -0.81172 -4.43533 0
M  V30 2671 C 264.037 -1.14387 -4.67407 0
M  V30 2672 C 266.389 -1.61976 -4.95392 0
M  V30 2673 C 263.717 -2.28477 -5.40384 0
M  V30 2674 C 266.069 -2.75164 -5.6962 0
M  V30 2675 C 264.733 -3.08835 -5.91758 0
M  V30 2676 H 264.003 0.0481244 -0.739436 0
M  V30 2677 H 266.65 -0.58238 -1.8243 0
M  V30 2678 H 264.955 1.19519 -3.73125 0
M  V30 2679 H 266.652 0.85157 -3.91854 0
M  V30 2680 H 263.242 -0.542898 -4.25148 0
M  V30 2681 H 267.426 -1.37637 -4.76833 0
M  V30 2682 H 262.682 -2.5488 -5.55739 0
M  V30 2683 H 266.856 -3.38147 -6.08793 0
M  V30 2684 H 264.483 -3.97353 -6.48086 0
M  V30 2685 N 266.058 1.56714 -0.166846 0
M  V30 2686 C 267.335 1.88412 0.525373 0
M  V30 2687 C 267.715 1.07602 1.81618 0
M  V30 2688 O 267.063 0.168621 2.27877 0
M  V30 2689 C 267.273 3.40363 0.771613 0
M  V30 2690 C 268.621 4.10007 1.1036 0
M  V30 2691 O 269.645 3.45655 0.860304 0
M  V30 2692 O 268.504 5.2369 1.56239 0
M  V30 2693 H 265.598 0.781587 0.270278 0
M  V30 2694 H 268.144 1.68458 -0.204946 0
M  V30 2695 H 266.916 3.91046 -0.141093 0
M  V30 2696 H 266.539 3.65914 1.55541 0
M  V30 2697 N 267.536 -0.106894 1.57237 0
M  V30 2698 C 268.499 -1.11466 2.0027 0
M  V30 2699 C 269.499 -1.33623 0.894519 0
M  V30 2700 O 270.689 -1.29935 1.16028 0
M  V30 2701 C 267.821 -2.46646 2.35327 0
M  V30 2702 H 269.014 -0.744516 2.90512 0
M  V30 2703 H 266.567 -0.351576 1.52295 0
M  V30 2704 H 267.302 -2.88558 1.48003 0
M  V30 2705 H 267.087 -2.31915 3.16161 0
M  V30 2706 H 268.577 -3.19151 2.69318 0
M  V30 2707 N 269.014 -1.53014 -0.377408 0
M  V30 2708 C 269.977 -1.77957 -1.44444 0
M  V30 2709 C 270.977 -0.649763 -1.47087 0
M  V30 2710 O 272.167 -0.917897 -1.48055 0
M  V30 2711 C 269.299 -1.89089 -2.83651 0
M  V30 2712 H 270.492 -2.73243 -1.23606 0
M  V30 2713 H 268.045 -1.43912 -0.609844 0
M  V30 2714 H 268.78 -0.958293 -3.09818 0
M  V30 2715 H 268.565 -2.71254 -2.83132 0
M  V30 2716 H 270.055 -2.1002 -3.60945 0
M  V30 2717 N 270.492 0.636531 -1.44174 0
M  V30 2718 C 271.74 1.39343 -1.46383 0
M  V30 2719 C 272.061 1.94766 -0.0955715 0
M  V30 2720 O 271.331 1.75452 0.871395 0
M  V30 2721 H 269.911 0.517199 -0.538994 0
M  V30 2722 H 272.573 0.74957 -1.7991 0
M  V30 2723 H 271.669 2.22746 -2.18611 0
M  V30 2724 N 271.97 1.30982 0.876444 0
M  V30 2725 C 273.218 1.20058 1.62575 0
M  V30 2726 C 273.539 -0.242947 1.93481 0
M  V30 2727 O 272.809 -1.1619 1.57724 0
M  V30 2728 H 271.389 0.44135 0.602677 0
M  V30 2729 H 274.051 1.64222 1.04962 0
M  V30 2730 H 273.147 1.76762 2.57219 0
M  V30 2731 N 273.449 -1.08991 1.13837 0
M  V30 2732 C 274.695 -1.81699 0.91417 0
M  V30 2733 C 275.05 -1.84264 -0.553594 0
M  V30 2734 O 274.343 -1.30313 -1.4046 0
M  V30 2735 C 274.537 -3.27042 1.44147 0
M  V30 2736 C 274.366 -3.38637 2.95897 0
M  V30 2737 C 273.136 -3.50177 3.64286 0
M  V30 2738 C 275.334 -3.30791 3.93804 0
M  V30 2739 N 273.316 -3.50501 5.04006 0
M  V30 2740 C 274.687 -3.38037 5.19741 0
M  V30 2741 C 276.742 -3.14488 3.86007 0
M  V30 2742 C 275.445 -3.30659 6.38793 0
M  V30 2743 C 277.471 -3.08438 5.04599 0
M  V30 2744 C 276.833 -3.1628 6.29402 0
M  V30 2745 H 272.932 -0.678967 0.387979 0
M  V30 2746 H 275.516 -1.30224 1.4474 0
M  V30 2747 H 273.687 -3.76976 0.935091 0
M  V30 2748 H 275.419 -3.87785 1.1578 0
M  V30 2749 H 272.174 -3.53815 3.1482 0
M  V30 2750 H 272.598 -3.54236 5.76928 0
M  V30 2751 H 277.24 -3.07291 2.90399 0
M  V30 2752 H 274.958 -3.36618 7.34652 0
M  V30 2753 H 278.544 -2.96952 5.0031 0
M  V30 2754 H 277.424 -3.1162 7.19627 0
M  V30 2755 N 274.927 -0.932562 -1.27047 0
M  V30 2756 C 275.875 -0.42603 -2.28665 0
M  V30 2757 C 276.869 0.49219 -1.62092 0
M  V30 2758 O 278.075 0.371355 -1.76128 0
M  V30 2759 H 274.45 -0.119213 -0.742491 0
M  V30 2760 H 276.421 -1.29579 -2.68797 0
M  V30 2761 C 275.17 0.301426 -3.46391 0
M  V30 2762 H 274.493 -0.39595 -3.97834 0
M  V30 2763 H 275.933 0.6202 -4.1944 0
M  V30 2764 C 274.392 1.51616 -3.00856 0
M  V30 2765 O 274.922 2.61476 -3.04948 0
M  V30 2766 N 273.128 1.36969 -2.56296 0
M  V30 2767 H 272.675 0.475873 -2.53166 0
M  V30 2768 H 272.633 2.18368 -2.26192 0
M  V30 2769 N 276.405 1.4127 -0.698611 0
M  V30 2770 C 277.654 2.00408 -0.227949 0
M  V30 2771 C 277.967 1.55981 1.18023 0
M  V30 2772 O 279.173 2.07699 1.74852 0
M  V30 2773 C 277.629 3.58129 -0.356636 0
M  V30 2774 C 277.237 4.11536 -1.77037 0
M  V30 2775 C 278.981 4.24466 0.0540969 0
M  V30 2776 C 276.888 5.61701 -1.85055 0
M  V30 2777 H 275.818 0.749586 -0.0814657 0
M  V30 2778 H 278.469 1.61713 -0.867249 0
M  V30 2779 H 276.851 3.94442 0.350965 0
M  V30 2780 H 278.025 3.86636 -2.50698 0
M  V30 2781 H 276.34 3.57736 -2.13105 0
M  V30 2782 H 278.937 5.34698 0.0146723 0
M  V30 2783 H 279.28 4.01687 1.09332 0
M  V30 2784 H 279.813 3.93198 -0.603337 0
M  V30 2785 H 276.552 5.89312 -2.8704 0
M  V30 2786 H 276.072 5.88519 -1.15783 0
M  V30 2787 H 277.751 6.26524 -1.61484 0
M  V30 2788 N 277.883 0.443576 1.51229 0
M  V30 2789 C 278.793 -0.370721 2.31652 0
M  V30 2790 C 279.809 -1.02186 1.40833 0
M  V30 2791 O 280.985 -1.01586 1.73903 0
M  V30 2792 C 278.05 -1.45376 3.14749 0
M  V30 2793 C 277.111 -0.822099 4.21355 0
M  V30 2794 C 276.344 -1.85353 5.0048 0
M  V30 2795 O 276.567 -3.07656 4.80316 0
M  V30 2796 O 275.501 -1.4406 5.84406 0
M  V30 2797 H 279.327 0.286002 3.0235 0
M  V30 2798 H 276.912 0.20598 1.47973 0
M  V30 2799 H 278.794 -2.08173 3.66391 0
M  V30 2800 H 277.469 -2.09445 2.46809 0
M  V30 2801 H 276.376 -0.155909 3.73775 0
M  V30 2802 H 277.709 -0.224797 4.91686 0
M  V30 2803 N 279.361 -1.56624 0.175154 0
M  V30 2804 C 280.271 -2.21741 -0.766042 0
M  V30 2805 C 281.287 -1.21023 -1.25018 0
M  V30 2806 O 282.463 -1.53697 -1.3015 0
M  V30 2807 C 279.528 -2.84839 -1.97655 0
M  V30 2808 C 278.589 -4.00769 -1.53892 0
M  V30 2809 C 277.822 -4.60849 -2.69173 0
M  V30 2810 O 278.045 -4.19823 -3.86141 0
M  V30 2811 O 276.979 -5.50655 -2.43028 0
M  V30 2812 H 280.805 -3.02738 -0.241585 0
M  V30 2813 H 278.39 -1.49305 -0.053222 0
M  V30 2814 H 280.272 -3.24834 -2.68442 0
M  V30 2815 H 278.947 -2.06836 -2.48999 0
M  V30 2816 H 277.854 -3.65436 -0.80044 0
M  V30 2817 H 279.187 -4.80376 -1.07236 0
M  V30 2818 N 280.839 0.0985539 -1.57292 0
M  V30 2819 C 281.749 1.13824 -2.05137 0
M  V30 2820 C 282.765 1.44076 -0.975604 0
M  V30 2821 O 283.941 1.54786 -1.28853 0
M  V30 2822 C 281.006 2.43969 -2.46333 0
M  V30 2823 C 280.067 2.2093 -3.68087 0
M  V30 2824 C 279.3 3.44869 -4.0731 0
M  V30 2825 O 279.523 4.52972 -3.46659 0
M  V30 2826 O 278.457 3.34661 -5.00285 0
M  V30 2827 H 282.283 0.761881 -2.93988 0
M  V30 2828 H 279.868 0.310818 -1.46131 0
M  V30 2829 H 281.75 3.20609 -2.73473 0
M  V30 2830 H 280.425 2.81038 -1.60621 0
M  V30 2831 H 279.332 1.42081 -3.46069 0
M  V30 2832 H 280.665 1.88755 -4.54568 0
M  V30 2833 N 282.317 1.53212 0.369288 0
M  V30 2834 C 283.565 1.68881 1.11012 0
M  V30 2835 C 283.886 0.441285 1.89941 0
M  V30 2836 O 283.156 -0.544623 1.88177 0
M  V30 2837 H 281.736 0.622569 0.412816 0
M  V30 2838 H 284.398 1.90391 0.416802 0
M  V30 2839 H 283.494 2.54822 1.80201 0
M  V30 2840 N 283.795 -0.628877 1.44509 0
M  V30 2841 C 285.025 -1.41349 1.50678 0
M  V30 2842 C 285.433 -1.88745 0.131075 0
M  V30 2843 O 284.776 -1.61592 -0.87371 0
M  V30 2844 C 284.838 -2.66608 2.41165 0
M  V30 2845 C 284.502 -2.40993 3.88293 0
M  V30 2846 C 285.499 -2.0268 4.78766 0
M  V30 2847 C 283.184 -2.54563 4.33016 0
M  V30 2848 C 285.178 -1.78269 6.11963 0
M  V30 2849 C 282.865 -2.29766 5.6626 0
M  V30 2850 C 283.863 -1.91678 6.55552 0
M  V30 2851 O 283.551 -1.67158 7.86329 0
M  V30 2852 H 283.283 -0.439851 0.51333 0
M  V30 2853 H 285.837 -0.776084 1.90174 0
M  V30 2854 H 284.067 -3.32994 1.96601 0
M  V30 2855 H 285.756 -3.28615 2.38259 0
M  V30 2856 H 286.522 -1.91751 4.45485 0
M  V30 2857 H 282.401 -2.83179 3.63773 0
M  V30 2858 H 285.945 -1.48465 6.81619 0
M  V30 2859 H 281.842 -2.40306 5.99102 0
M  V30 2860 H 282.61 -1.81386 7.98149 0
M  V30 2861 N 285.273 -1.31445 -0.869486 0
M  V30 2862 C 286.205 -1.14955 -1.98287 0
M  V30 2863 C 287.218 -0.0885037 -1.62559 0
M  V30 2864 O 288.407 -0.336044 -1.75308 0
M  V30 2865 C 285.507 -0.734255 -3.3085 0
M  V30 2866 C 284.68 -1.88042 -3.94917 0
M  V30 2867 C 283.739 -1.4511 -5.05796 0
M  V30 2868 O 282.765 -2.16082 -5.2659 0
M  V30 2869 N 283.967 -0.338763 -5.79511 0
M  V30 2870 H 286.732 -2.10856 -2.12979 0
M  V30 2871 H 284.293 -1.23786 -1.04349 0
M  V30 2872 H 286.285 -0.42975 -4.02412 0
M  V30 2873 H 284.855 0.133158 -3.12316 0
M  V30 2874 H 284.075 -2.35222 -3.1633 0
M  V30 2875 H 285.363 -2.6481 -4.34457 0
M  V30 2876 H 284.761 0.252274 -5.65137 0
M  V30 2877 H 283.318 -0.0937925 -6.51733 0
M  V30 2878 N 286.751 1.08385 -1.14413 0
M  V30 2879 C 287.714 2.13486 -0.834048 0
M  V30 2880 C 288.714 1.59988 0.161418 0
M  V30 2881 O 289.904 1.74071 -0.0669575 0
M  V30 2882 C 287.036 3.4003 -0.243354 0
M  V30 2883 H 288.229 2.42425 -1.7655 0
M  V30 2884 H 285.782 1.24101 -0.950189 0
M  V30 2885 H 286.517 3.16726 0.696807 0
M  V30 2886 H 286.302 3.80157 -0.960367 0
M  V30 2887 H 287.792 4.17577 -0.0436242 0
M  V30 2888 N 288.23 0.939286 1.26551 0
M  V30 2889 C 289.476 0.586715 1.94128 0
M  V30 2890 C 289.809 -0.8717 1.73537 0
M  V30 2891 O 289.084 -1.62339 1.07127 0
M  V30 2892 C 289.367 0.927497 3.4795 0
M  V30 2893 C 289.22 2.44052 3.77834 0
M  V30 2894 C 290.539 0.441569 4.37879 0
M  V30 2895 H 287.658 0.21463 0.705055 0
M  V30 2896 H 290.3 1.17316 1.49455 0
M  V30 2897 H 288.45 0.428431 3.8613 0
M  V30 2898 H 290.122 3.01216 3.4938 0
M  V30 2899 H 288.365 2.8848 3.23978 0
M  V30 2900 H 289.036 2.62947 4.85348 0
M  V30 2901 H 291.512 0.869448 4.06915 0
M  V30 2902 H 290.388 0.708856 5.44304 0
M  V30 2903 H 290.649 -0.658467 4.37169 0
M  V30 2904 N 289.708 -1.40897 0.706093 0
M  V30 2905 C 290.956 -2.00657 0.241054 0
M  V30 2906 C 291.277 -1.56241 -1.16678 0
M  V30 2907 O 290.547 -0.79765 -1.78926 0
M  V30 2908 H 289.127 -0.742018 0.0861308 0
M  V30 2909 H 291.789 -1.72372 0.909604 0
M  V30 2910 H 290.885 -3.10958 0.266705 0
M  V30 2911 N 291.186 -0.45159 -1.50991 0
M  V30 2912 C 292.411 0.110667 -2.07105 0
M  V30 2913 C 292.836 1.3446 -1.31538 0
M  V30 2914 O 292.194 1.77743 -0.357365 0
M  V30 2915 C 292.242 0.397238 -3.58405 0
M  V30 2916 O 291.346 1.48124 -3.84881 0
M  V30 2917 H 290.687 -0.00439271 -0.663985 0
M  V30 2918 H 293.217 -0.637026 -1.9443 0
M  V30 2919 H 293.227 0.64351 -4.02893 0
M  V30 2920 H 291.902 -0.504553 -4.12828 0
M  V30 2921 H 290.479 1.22381 -3.52246 0
M  V30 2922 N 292.664 1.56529 -0.183458 0
M  V30 2923 C 293.912 1.96855 0.457452 0
M  V30 2924 C 294.233 1.07104 1.62953 0
M  V30 2925 O 293.503 0.139887 1.954 0
M  V30 2926 H 292.083 0.72693 0.171992 0
M  V30 2927 H 294.745 1.93056 -0.267476 0
M  V30 2928 H 293.841 3.01423 0.809368 0
M  V30 2929 N 294.142 -0.090211 1.57342 0
M  V30 2930 C 295.367 -0.810082 1.90925 0
M  V30 2931 C 295.792 -1.71248 0.778187 0
M  V30 2932 O 295.15 -1.79278 -0.269991 0
M  V30 2933 C 295.198 -1.59529 3.23393 0
M  V30 2934 O 294.302 -2.70461 3.11327 0
M  V30 2935 H 293.643 -0.222231 0.625707 0
M  V30 2936 H 296.173 -0.0639716 2.045 0
M  V30 2937 H 296.183 -1.97847 3.5682 0
M  V30 2938 H 294.858 -0.933055 4.05299 0
M  V30 2939 H 293.435 -2.35135 2.89423 0
M  V30 2940 N 295.62 -1.53406 -0.361157 0
M  V30 2941 C 296.55 -1.83136 -1.44857 0
M  V30 2942 C 297.531 -0.685174 -1.5569 0
M  V30 2943 O 298.716 -0.93544 -1.70186 0
M  V30 2944 C 295.846 -2.02522 -2.82138 0
M  V30 2945 C 294.8 -3.18302 -2.86126 0
M  V30 2946 C 294.126 -3.22989 -4.26125 0
M  V30 2947 C 295.426 -4.56796 -2.53248 0
M  V30 2948 H 297.12 -2.74201 -1.20226 0
M  V30 2949 H 294.666 -1.31938 -0.576922 0
M  V30 2950 H 296.619 -2.21904 -3.58241 0
M  V30 2951 H 295.343 -1.08172 -3.08166 0
M  V30 2952 H 294.002 -2.98747 -2.12475 0
M  V30 2953 H 293.65 -2.26267 -4.49235 0
M  V30 2954 H 293.35 -4.00781 -4.29708 0
M  V30 2955 H 294.874 -3.44559 -5.04094 0
M  V30 2956 H 296.288 -4.7631 -3.19064 0
M  V30 2957 H 294.685 -5.36862 -2.68141 0
M  V30 2958 H 295.755 -4.61606 -1.48484 0
M  V30 2959 N 297.098 0.621204 -1.44841 0
M  V30 2960 C 298.345 1.38055 -1.48145 0
M  V30 2961 C 298.673 1.94143 -0.117867 0
M  V30 2962 O 297.928 1.74713 0.881694 0
M  V30 2963 C 298.227 2.55675 -2.4973 0
M  V30 2964 C 297.893 2.17817 -3.94799 0
M  V30 2965 C 296.555 2.07205 -4.34303 0
M  V30 2966 C 298.907 1.88065 -4.86087 0
M  V30 2967 C 296.235 1.65045 -5.63007 0
M  V30 2968 C 298.587 1.47394 -6.15189 0
M  V30 2969 C 297.251 1.35331 -6.53637 0
M  V30 2970 H 296.521 0.505181 -0.542101 0
M  V30 2971 H 299.168 0.703477 -1.78111 0
M  V30 2972 H 297.473 3.2866 -2.13284 0
M  V30 2973 H 299.17 3.13904 -2.4953 0
M  V30 2974 H 295.76 2.26998 -3.63552 0
M  V30 2975 H 299.944 1.95168 -4.56315 0
M  V30 2976 H 295.2 1.54317 -5.91605 0
M  V30 2977 H 299.374 1.23415 -6.85377 0
M  V30 2978 H 297.001 1.02435 -7.53267 0
M  V30 2979 N 298.576 1.31904 0.862503 0
M  V30 2980 C 299.539 1.20131 1.95195 0
M  V30 2981 C 300.539 0.126409 1.60302 0
M  V30 2982 O 301.729 0.376234 1.70089 0
M  V30 2983 C 298.861 0.845691 3.30244 0
M  V30 2984 H 300.054 2.16943 2.07064 0
M  V30 2985 H 297.607 1.15622 1.05172 0
M  V30 2986 H 298.342 -0.120957 3.24074 0
M  V30 2987 H 298.127 1.62276 3.56944 0
M  V30 2988 H 299.617 0.787418 4.10109 0
M  V30 2989 N 300.054 -1.07777 1.14986 0
M  V30 2990 C 301.001 -2.14867 0.842672 0
M  V30 2991 C 301.971 -1.6486 -0.202552 0
M  V30 2992 O 303.156 -1.90668 -0.0710568 0
M  V30 2993 C 300.296 -3.43486 0.333363 0
M  V30 2994 C 299.409 -4.07306 1.43965 0
M  V30 2995 C 298.544 -5.23744 0.886914 0
M  V30 2996 C 297.583 -5.79517 1.97043 0
M  V30 2997 N 296.72 -6.87291 1.4344 0
M  V30 2998 H 301.56 -2.40485 1.75986 0
M  V30 2999 H 299.097 -1.1801 0.878179 0
M  V30 3000 H 301.055 -4.17195 0.0198163 0
M  V30 3001 H 299.685 -3.18133 -0.546916 0
M  V30 3002 H 298.737 -3.31293 1.86946 0
M  V30 3003 H 300.049 -4.44771 2.25788 0
M  V30 3004 H 299.203 -6.04419 0.525651 0
M  V30 3005 H 297.942 -4.87685 0.0377957 0
M  V30 3006 H 296.947 -4.97491 2.34057 0
M  V30 3007 H 298.172 -6.17632 2.82325 0
M  V30 3008 H 296.118 -6.5318 0.607567 0
M  V30 3009 H 296.035 -7.23617 2.18895 0
M  V30 3010 H 297.303 -7.71682 1.10124 0
M  V30 3011 N 301.532 -0.945985 -1.26051 0
M  V30 3012 C 302.757 -0.612525 -1.98149 0
M  V30 3013 C 303.182 0.806623 -1.69927 0
M  V30 3014 O 302.54 1.54411 -0.950108 0
M  V30 3015 C 302.588 -0.866981 -3.50023 0
M  V30 3016 O 301.692 0.0585333 -4.12358 0
M  V30 3017 H 301.033 -0.23379 -0.621481 0
M  V30 3018 H 303.563 -1.27023 -1.60395 0
M  V30 3019 H 303.573 -0.789792 -4.00283 0
M  V30 3020 H 302.248 -1.90135 -3.69894 0
M  V30 3021 H 300.825 -0.0701241 -3.72834 0
M  V30 3022 N 303.011 1.40521 -0.713556 0
M  V30 3023 C 304.236 2.05759 -0.26035 0
M  V30 3024 C 304.661 1.53403 1.08854 0
M  V30 3025 O 304.019 0.668535 1.68524 0
M  V30 3026 C 304.067 3.59745 -0.248122 0
M  V30 3027 O 303.171 4.05123 0.77131 0
M  V30 3028 H 302.512 0.652564 -0.122703 0
M  V30 3029 H 305.042 1.79958 -0.973467 0
M  V30 3030 H 305.052 4.07911 -0.0851129 0
M  V30 3031 H 303.727 3.97218 -1.2325 0
M  V30 3032 H 302.304 3.68422 0.57619 0
M  V30 3033 N 304.489 0.459591 1.5075 0
M  V30 3034 C 305.422 -0.386257 2.24907 0
M  V30 3035 C 306.4 -1.006 1.27744 0
M  V30 3036 O 307.584 -1.04416 1.56938 0
M  V30 3037 C 304.711 -1.54021 3.01654 0
M  V30 3038 C 303.757 -1.03898 4.13651 0
M  V30 3039 S 304.59 0.0370501 5.35487 0
M  V30 3040 C 305.746 -1.12105 6.15779 0
M  V30 3041 H 305.979 0.243272 2.96303 0
M  V30 3042 H 303.512 0.244339 1.52454 0
M  V30 3043 H 305.47 -2.20163 3.46466 0
M  V30 3044 H 304.131 -2.14121 2.29806 0
M  V30 3045 H 303.324 -1.90254 4.66711 0
M  V30 3046 H 302.926 -0.45545 3.71216 0
M  V30 3047 H 305.218 -2.03501 6.46215 0
M  V30 3048 H 306.161 -0.62995 7.05292 0
M  V30 3049 H 306.569 -1.36967 5.47631 0
M  V30 3050 N 305.967 -1.56429 0.191757 0
M  V30 3051 C 306.914 -2.18936 -0.730454 0
M  V30 3052 C 307.884 -1.13557 -1.21219 0
M  V30 3053 O 309.069 -1.41794 -1.27668 0
M  V30 3054 C 306.209 -2.85013 -1.9458 0
M  V30 3055 C 305.322 -4.04909 -1.50574 0
M  V30 3056 C 304.457 -4.58853 -2.67634 0
M  V30 3057 C 303.496 -5.71114 -2.20217 0
M  V30 3058 N 302.633 -6.19478 -3.30442 0
M  V30 3059 H 307.473 -2.97389 -0.190664 0
M  V30 3060 H 305.01 -1.46869 -0.0823694 0
M  V30 3061 H 306.968 -3.21492 -2.65893 0
M  V30 3062 H 305.598 -2.09129 -2.45896 0
M  V30 3063 H 304.65 -3.74115 -0.688605 0
M  V30 3064 H 305.962 -4.86113 -1.11784 0
M  V30 3065 H 305.116 -4.97619 -3.47074 0
M  V30 3066 H 303.855 -3.76749 -3.09696 0
M  V30 3067 H 302.86 -5.31879 -1.3923 0
M  V30 3068 H 304.085 -6.55033 -1.79189 0
M  V30 3069 H 302.031 -5.40297 -3.72041 0
M  V30 3070 H 301.948 -6.95725 -2.9581 0
M  V30 3071 H 303.216 -6.62898 -4.10106 0
M  V30 3072 N 307.445 0.0818655 -1.57387 0
M  V30 3073 C 308.392 1.09834 -2.0299 0
M  V30 3074 C 309.362 1.39043 -0.908639 0
M  V30 3075 O 310.547 1.50282 -1.17559 0
M  V30 3076 C 307.687 2.40971 -2.47037 0
M  V30 3077 C 306.8 2.18379 -3.7274 0
M  V30 3078 C 305.935 3.43008 -4.0561 0
M  V30 3079 C 304.974 3.15736 -5.24383 0
M  V30 3080 N 304.111 4.32667 -5.52941 0
M  V30 3081 H 308.951 0.702472 -2.89602 0
M  V30 3082 H 306.488 0.33531 -1.43227 0
M  V30 3083 H 308.446 3.1752 -2.70623 0
M  V30 3084 H 307.076 2.78379 -1.63417 0
M  V30 3085 H 306.128 1.32569 -3.56552 0
M  V30 3086 H 307.44 1.94227 -4.59431 0
M  V30 3087 H 306.594 4.27958 -4.30043 0
M  V30 3088 H 305.333 3.70225 -3.17466 0
M  V30 3089 H 304.338 2.2918 -4.99757 0
M  V30 3090 H 305.563 2.8985 -6.14136 0
M  V30 3091 H 303.509 4.59935 -4.67756 0
M  V30 3092 H 303.426 4.11753 -6.34031 0
M  V30 3093 H 304.694 5.18644 -5.81918 0
M  V30 3094 N 308.923 1.53595 0.353017 0
M  V30 3095 C 309.853 1.83902 1.43883 0
M  V30 3096 C 310.834 0.693421 1.55324 0
M  V30 3097 O 312.019 0.944452 1.69687 0
M  V30 3098 C 309.149 2.04016 2.8106 0
M  V30 3099 C 308.103 3.19814 2.84434 0
M  V30 3100 C 307.429 3.25244 4.24406 0
M  V30 3101 C 308.729 4.58133 2.50822 0
M  V30 3102 H 310.423 2.74835 1.1877 0
M  V30 3103 H 307.969 1.32242 0.569917 0
M  V30 3104 H 309.922 2.238 3.57059 0
M  V30 3105 H 308.646 1.09804 3.07588 0
M  V30 3106 H 307.305 2.9987 2.10887 0
M  V30 3107 H 306.953 2.28646 4.48029 0
M  V30 3108 H 306.653 4.03054 4.27576 0
M  V30 3109 H 308.177 3.47228 5.0226 0
M  V30 3110 H 309.591 4.77995 3.16534 0
M  V30 3111 H 307.988 5.38276 2.6529 0
M  V30 3112 H 309.058 4.62387 1.46034 0
M  V30 3113 N 310.401 -0.613514 1.45168 0
M  V30 3114 C 311.631 -1.39743 1.52169 0
M  V30 3115 C 312.039 -1.88596 0.151086 0
M  V30 3116 O 311.382 -1.6251 -0.856521 0
M  V30 3117 C 311.444 -2.64035 2.43979 0
M  V30 3118 C 311.108 -2.36861 3.90827 0
M  V30 3119 C 312.105 -1.97591 4.80889 0
M  V30 3120 C 309.79 -2.49956 4.35692 0
M  V30 3121 C 311.784 -1.71768 6.1382 0
M  V30 3122 C 309.471 -2.23747 5.68665 0
M  V30 3123 C 310.469 -1.84714 6.57548 0
M  V30 3124 O 310.157 -1.58809 7.88058 0
M  V30 3125 H 309.889 -0.434382 0.517966 0
M  V30 3126 H 312.443 -0.75587 1.90986 0
M  V30 3127 H 310.673 -3.3089 2.00122 0
M  V30 3128 H 312.362 -3.26069 2.41731 0
M  V30 3129 H 313.128 -1.87015 4.47493 0
M  V30 3130 H 309.007 -2.79305 3.66756 0
M  V30 3131 H 312.551 -1.41227 6.83155 0
M  V30 3132 H 308.448 -2.33938 6.01617 0
M  V30 3133 H 309.216 -1.7291 8.00028 0
M  V30 3134 N 311.879 -1.3236 -0.855495 0
M  V30 3135 C 313.104 -1.2601 -1.64731 0
M  V30 3136 C 313.529 0.169068 -1.87339 0
M  V30 3137 O 312.887 1.12016 -1.42556 0
M  V30 3138 C 312.935 -2.02417 -2.98429 0
M  V30 3139 O 312.039 -1.3714 -3.8893 0
M  V30 3140 H 311.38 -0.434325 -0.502253 0
M  V30 3141 H 313.91 -1.74661 -1.06558 0
M  V30 3142 H 313.92 -2.12559 -3.48257 0
M  V30 3143 H 312.595 -3.06343 -2.81295 0
M  V30 3144 H 311.172 -1.3554 -3.47395 0
M  V30 3145 N 313.357 1.07166 -1.15556 0
M  V30 3146 C 314.289 2.14341 -0.811815 0
M  V30 3147 C 315.302 1.61835 0.177015 0
M  V30 3148 O 316.491 1.78439 -0.0464996 0
M  V30 3149 C 313.591 3.38387 -0.186481 0
M  V30 3150 C 312.764 4.20238 -1.21321 0
M  V30 3151 C 311.823 5.2266 -0.609302 0
M  V30 3152 O 310.849 5.54719 -1.27576 0
M  V30 3153 N 312.051 5.77306 0.608099 0
M  V30 3154 H 314.816 2.44431 -1.73417 0
M  V30 3155 H 312.377 1.23089 -1.0517 0
M  V30 3156 H 314.369 4.04044 0.230339 0
M  V30 3157 H 312.939 3.05994 0.639249 0
M  V30 3158 H 312.159 3.50369 -1.80652 0
M  V30 3159 H 313.447 4.71736 -1.90638 0
M  V30 3160 H 312.845 5.53513 1.1679 0
M  V30 3161 H 311.402 6.44583 0.96725 0
M  V30 3162 N 314.835 0.952656 1.25548 0
M  V30 3163 C 316.081 0.607272 1.93494 0
M  V30 3164 C 316.414 -0.853245 1.74452 0
M  V30 3165 O 315.689 -1.61194 1.08843 0
M  V30 3166 C 315.972 0.96435 3.46947 0
M  V30 3167 C 315.825 2.48045 3.75225 0
M  V30 3168 C 317.144 0.487987 4.37386 0
M  V30 3169 H 314.263 0.222096 0.702739 0
M  V30 3170 H 316.905 1.18895 1.48203 0
M  V30 3171 H 315.055 0.469361 3.85654 0
M  V30 3172 H 316.727 3.04905 3.46166 0
M  V30 3173 H 314.97 2.919 3.209 0
M  V30 3174 H 315.641 2.6808 4.82532 0
M  V30 3175 H 318.117 0.912558 4.0597 0
M  V30 3176 H 316.993 0.766547 5.43521 0
M  V30 3177 H 317.254 -0.612063 4.37843 0
M  V30 3178 N 316.313 -1.40141 0.720998 0
M  V30 3179 C 317.541 -2.05096 0.272656 0
M  V30 3180 C 317.956 -1.54334 -1.0875 0
M  V30 3181 O 317.313 -0.702211 -1.6845 0
M  V30 3182 C 317.364 -3.60636 0.249835 0
M  V30 3183 O 317.085 -4.09526 1.55629 0
M  V30 3184 C 318.586 -4.42772 -0.216396 0
M  V30 3185 H 315.806 -0.659897 0.121558 0
M  V30 3186 H 318.35 -1.79449 0.980723 0
M  V30 3187 H 316.505 -3.85232 -0.409237 0
M  V30 3188 H 316.919 -5.03758 1.4604 0
M  V30 3189 H 318.393 -5.51702 -0.181212 0
M  V30 3190 H 318.87 -4.20756 -1.25941 0
M  V30 3191 H 319.476 -4.23294 0.412596 0
M  V30 3192 N 317.792 -0.46758 -1.50504 0
M  V30 3193 C 319.069 0.15003 -1.95024 0
M  V30 3194 C 319.449 1.57304 -1.40779 0
M  V30 3195 O 318.797 2.20281 -0.607319 0
M  V30 3196 C 319.007 0.0969324 -3.48865 0
M  V30 3197 C 320.355 0.287565 -4.23625 0
M  V30 3198 O 321.379 0.173678 -3.55776 0
M  V30 3199 O 320.238 0.517186 -5.44047 0
M  V30 3200 H 317.332 0.113582 -0.819163 0
M  V30 3201 H 319.878 -0.52773 -1.61286 0
M  V30 3202 H 318.65 -0.896732 -3.80886 0
M  V30 3203 H 318.273 0.816303 -3.8913 0
M  V30 3204 N 319.27 1.56325 -0.20005 0
M  V30 3205 C 320.518 1.97329 0.436547 0
M  V30 3206 C 320.839 1.08826 1.61808 0
M  V30 3207 O 320.109 0.160604 1.95241 0
M  V30 3208 H 318.689 0.728714 0.164272 0
M  V30 3209 H 321.351 1.92761 -0.287937 0
M  V30 3210 H 320.447 3.02264 0.777353 0
M  V30 3211 N 320.748 -0.0735177 1.57428 0
M  V30 3212 C 322.025 -0.805903 1.78226 0
M  V30 3213 C 322.405 -1.95874 0.787189 0
M  V30 3214 O 321.753 -2.2779 -0.180029 0
M  V30 3215 C 321.963 -1.28045 3.24662 0
M  V30 3216 C 323.311 -1.71453 3.88444 0
M  V30 3217 O 324.335 -1.37616 3.28543 0
M  V30 3218 O 323.194 -2.34093 4.93825 0
M  V30 3219 H 320.288 -0.386041 0.73137 0
M  V30 3220 H 322.834 -0.0537269 1.69615 0
M  V30 3221 H 321.606 -0.455476 3.8864 0
M  V30 3222 H 321.229 -2.094 3.37991 0
M  V30 3223 N 322.226 -1.5378 -0.344866 0
M  V30 3224 C 323.451 -1.75211 -1.10977 0
M  V30 3225 C 323.876 -0.48936 -1.81623 0
M  V30 3226 O 323.234 0.557925 -1.72502 0
M  V30 3227 C 323.282 -2.93147 -2.09993 0
M  V30 3228 O 322.386 -2.63203 -3.17487 0
M  V30 3229 H 321.727 -0.581241 -0.321021 0
M  V30 3230 H 324.257 -2.00738 -0.395661 0
M  V30 3231 H 324.267 -3.19898 -2.53237 0
M  V30 3232 H 322.942 -3.84731 -1.5797 0
M  V30 3233 H 321.519 -2.47336 -2.79069 0
M  V30 3234 N 323.704 0.605807 -1.45491 0
M  V30 3235 C 324.952 1.36207 -1.49305 0
M  V30 3236 C 325.273 1.94519 -0.136863 0
M  V30 3237 O 324.543 1.77261 0.833983 0
M  V30 3238 H 323.123 0.50565 -0.549843 0
M  V30 3239 H 325.785 0.711239 -1.81459 0
M  V30 3240 H 324.881 2.18058 -2.23287 0
M  V30 3241 N 325.182 1.32811 0.848464 0
M  V30 3242 C 326.112 1.24882 1.97299 0
M  V30 3243 C 327.093 0.131357 1.69592 0
M  V30 3244 O 328.278 0.319553 1.91553 0
M  V30 3245 C 325.408 0.97746 3.33261 0
M  V30 3246 C 324.362 2.05682 3.75338 0
M  V30 3247 C 323.688 1.63777 5.09 0
M  V30 3248 C 324.988 3.47254 3.90144 0
M  V30 3249 H 326.682 2.18966 2.04191 0
M  V30 3250 H 324.228 1.05413 0.981029 0
M  V30 3251 H 326.181 0.908513 4.1149 0
M  V30 3252 H 324.905 0.000980011 3.266 0
M  V30 3253 H 323.564 2.11603 2.99366 0
M  V30 3254 H 323.212 0.648569 4.98801 0
M  V30 3255 H 322.912 2.36 5.38124 0
M  V30 3256 H 324.436 1.5833 5.89715 0
M  V30 3257 H 325.85 3.43888 4.58709 0
M  V30 3258 H 324.247 4.1788 4.30693 0
M  V30 3259 H 325.317 3.86462 2.92874 0
M  V30 3260 N 326.66 -1.06551 1.16123 0
M  V30 3261 C 328.076 -1.3142 0.905585 0
M  V30 3262 C 328.276 -1.96571 -0.442964 0
M  V30 3263 O 327.332 -2.23068 -1.18308 0
M  V30 3264 C 328.645 -2.19741 2.05267 0
M  V30 3265 C 330.193 -2.33165 2.08813 0
M  V30 3266 C 330.668 -3.24838 3.22868 0
M  V30 3267 N 332.159 -3.32421 3.22568 0
M  V30 3268 C 332.894 -4.0344 4.0746 0
M  V30 3269 N 332.39 -4.77003 5.02434 0
M  V30 3270 N 334.183 -3.99464 3.95456 0
M  V30 3271 H 326.334 -0.626548 2.02949 0
M  V30 3272 H 328.597 -0.338777 0.8854 0
M  V30 3273 H 328.303 -1.79142 3.02657 0
M  V30 3274 H 328.177 -3.20313 1.99198 0
M  V30 3275 H 330.564 -2.73013 1.12018 0
M  V30 3276 H 330.645 -1.3227 2.18948 0
M  V30 3277 H 330.289 -2.85708 4.19921 0
M  V30 3278 H 330.219 -4.25707 3.0997 0
M  V30 3279 H 332.71 -2.79994 2.53795 0
M  V30 3280 H 333.023 -5.28712 5.63634 0
M  V30 3281 H 331.368 -4.75992 5.06415 0
M  V30 3282 H 334.559 -3.4111 3.20564 0
M  V30 3283 H 334.732 -4.54544 4.61837 0
M  V30 3284 N 328.138 -0.959301 -1.25041 0
M  V30 3285 C 329.384 -0.617525 -1.9317 0
M  V30 3286 C 329.717 0.843981 -1.74902 0
M  V30 3287 O 328.992 1.60615 -1.09696 0
M  V30 3288 C 329.275 -0.982736 -3.46431 0
M  V30 3289 C 329.128 -2.50032 -3.73904 0
M  V30 3290 C 330.447 -0.511176 -4.37121 0
M  V30 3291 H 327.566 -0.22582 -0.701552 0
M  V30 3292 H 330.208 -1.19679 -1.4757 0
M  V30 3293 H 328.358 -0.489806 -3.854 0
M  V30 3294 H 330.03 -3.06737 -3.44544 0
M  V30 3295 H 328.273 -2.93598 -3.19348 0
M  V30 3296 H 328.944 -2.70635 -4.81103 0
M  V30 3297 H 331.42 -0.934075 -4.0548 0
M  V30 3298 H 330.296 -0.795361 -5.43107 0
M  V30 3299 H 330.557 0.588834 -4.38161 0
M  V30 3300 N 329.616 1.39756 -0.72842 0
M  V30 3301 C 330.579 2.29012 -0.0927297 0
M  V30 3302 C 331.579 1.45992 0.674025 0
M  V30 3303 O 332.769 1.66749 0.50402 0
M  V30 3304 C 329.901 3.29396 0.878137 0
M  V30 3305 H 331.094 2.86729 -0.879011 0
M  V30 3306 H 328.647 1.48293 -0.493847 0
M  V30 3307 H 329.382 2.76722 1.69101 0
M  V30 3308 H 329.167 3.907 0.331051 0
M  V30 3309 H 330.657 3.96199 1.3197 0
M  V30 3310 N 331.094 0.475555 1.50254 0
M  V30 3311 C 332.34 -0.0780073 2.0265 0
M  V30 3312 C 332.673 -1.38968 1.35652 0
M  V30 3313 O 331.948 -1.8839 0.483691 0
M  V30 3314 C 332.231 -0.257161 3.59181 0
M  V30 3315 C 332.084 1.07585 4.36744 0
M  V30 3316 C 333.403 -1.00965 4.28362 0
M  V30 3317 H 330.522 -0.0268758 0.73651 0
M  V30 3318 H 333.164 0.622015 1.7953 0
M  V30 3319 H 331.314 -0.853412 3.79011 0
M  V30 3320 H 332.986 1.70902 4.28474 0
M  V30 3321 H 331.229 1.6714 4.00308 0
M  V30 3322 H 331.9 0.904088 5.44546 0
M  V30 3323 H 334.376 -0.504214 4.13034 0
M  V30 3324 H 333.252 -1.10381 5.37687 0
M  V30 3325 H 333.513 -2.04731 3.91839 0
M  V30 3326 N 332.573 -1.56217 0.208337 0
M  V30 3327 C 333.483 -2.23316 -0.718836 0
M  V30 3328 C 334.499 -1.23648 -1.22422 0
M  V30 3329 O 335.675 -1.56423 -1.26861 0
M  V30 3330 C 332.74 -2.88968 -1.91568 0
M  V30 3331 C 331.801 -4.03943 -1.45357 0
M  V30 3332 C 331.034 -4.66455 -2.59337 0
M  V30 3333 O 331.257 -4.27919 -3.77149 0
M  V30 3334 O 330.191 -5.55686 -2.31293 0
M  V30 3335 H 334.017 -3.03182 -0.177315 0
M  V30 3336 H 331.602 -1.49384 -0.0215402 0
M  V30 3337 H 333.484 -3.30455 -2.61491 0
M  V30 3338 H 332.159 -2.12071 -2.44556 0
M  V30 3339 H 331.066 -3.67052 -0.722746 0
M  V30 3340 H 332.399 -4.82543 -0.970219 0
M  V30 3341 N 334.051 0.0651679 -1.57465 0
M  V30 3342 C 335.014 1.06117 -2.03155 0
M  V30 3343 C 336.014 1.31204 -0.929632 0
M  V30 3344 O 337.204 1.26813 -1.19432 0
M  V30 3345 C 334.336 2.4032 -2.41783 0
M  V30 3346 H 335.529 0.667231 -2.92383 0
M  V30 3347 H 333.082 0.311075 -1.53173 0
M  V30 3348 H 333.817 2.84532 -1.55601 0
M  V30 3349 H 333.602 2.23451 -3.22199 0
M  V30 3350 H 335.092 3.11898 -2.77685 0
M  V30 3351 N 335.529 1.53961 0.336706 0
M  V30 3352 C 336.459 1.85417 1.41925 0
M  V30 3353 C 337.44 0.709856 1.5458 0
M  V30 3354 O 338.625 0.962396 1.68676 0
M  V30 3355 C 335.755 2.06985 2.78881 0
M  V30 3356 C 334.709 3.22813 2.81026 0
M  V30 3357 C 334.035 3.29727 4.20932 0
M  V30 3358 C 335.335 4.60767 2.45949 0
M  V30 3359 H 337.029 2.76079 1.15848 0
M  V30 3360 H 334.575 1.32839 0.555859 0
M  V30 3361 H 336.528 2.27575 3.54665 0
M  V30 3362 H 335.252 1.13061 3.06406 0
M  V30 3363 H 333.911 3.0209 2.07695 0
M  V30 3364 H 333.559 2.33385 4.45579 0
M  V30 3365 H 333.259 4.07566 4.23277 0
M  V30 3366 H 334.783 3.52536 4.98549 0
M  V30 3367 H 336.197 4.81325 3.11446 0
M  V30 3368 H 334.594 5.4106 2.59566 0
M  V30 3369 H 335.664 4.6391 1.41122 0
M  V30 3370 N 337.007 -0.598083 1.45811 0
M  V30 3371 C 338.237 -1.38121 1.53643 0
M  V30 3372 C 338.645 -1.88425 0.171081 0
M  V30 3373 O 337.988 -1.63409 -0.839237 0
M  V30 3374 C 338.05 -2.61432 2.46766 0
M  V30 3375 C 337.714 -2.32702 3.93318 0
M  V30 3376 C 338.711 -1.92479 4.82957 0
M  V30 3377 C 336.396 -2.45321 4.38318 0
M  V30 3378 C 338.39 -1.65248 6.15607 0
M  V30 3379 C 336.077 -2.17703 5.71007 0
M  V30 3380 C 337.075 -1.7773 6.5947 0
M  V30 3381 O 336.763 -1.50441 7.89698 0
M  V30 3382 H 336.495 -0.428863 0.522544 0
M  V30 3383 H 339.049 -0.73557 1.91777 0
M  V30 3384 H 337.279 -3.28749 2.0362 0
M  V30 3385 H 338.968 -3.23487 2.45175 0
M  V30 3386 H 339.734 -1.82258 4.49452 0
M  V30 3387 H 335.613 -2.75399 3.69697 0
M  V30 3388 H 339.157 -1.33973 6.84614 0
M  V30 3389 H 335.054 -2.27544 6.04065 0
M  V30 3390 H 335.822 -1.64415 8.01817 0
M  V30 3391 N 338.485 -1.33259 -0.841409 0
M  V30 3392 C 339.762 -1.15174 -1.58096 0
M  V30 3393 C 340.142 0.282858 -2.09196 0
M  V30 3394 O 339.49 1.28151 -1.89181 0
M  V30 3395 C 339.7 -2.1907 -2.71679 0
M  V30 3396 C 341.048 -2.53093 -3.40924 0
M  V30 3397 O 342.072 -2.17717 -2.81918 0
M  V30 3398 O 340.931 -3.1379 -4.47435 0
M  V30 3399 H 338.025 -0.445303 -0.696875 0
M  V30 3400 H 340.571 -1.44833 -0.884385 0
M  V30 3401 H 339.343 -3.15443 -2.31541 0
M  V30 3402 H 338.966 -1.90481 -3.49002 0
M  V30 3403 N 339.963 1.05934 -1.16686 0
M  V30 3404 C 340.926 2.11669 -0.879144 0
M  V30 3405 C 341.926 1.60294 0.127445 0
M  V30 3406 O 343.116 1.7389 -0.103865 0
M  V30 3407 C 340.248 3.39438 -0.315425 0
M  V30 3408 H 341.441 2.38626 -1.81653 0
M  V30 3409 H 338.994 1.22058 -0.976299 0
M  V30 3410 H 339.729 3.18132 0.629468 0
M  V30 3411 H 339.514 3.78034 -1.04079 0
M  V30 3412 H 341.004 4.17391 -0.132189 0
M  V30 3413 N 341.441 0.965919 1.2453 0
M  V30 3414 C 342.404 0.499547 2.2369 0
M  V30 3415 C 343.404 -0.40294 1.5567 0
M  V30 3416 O 344.594 -0.19865 1.73064 0
M  V30 3417 C 341.726 -0.276792 3.39774 0
M  V30 3418 H 342.919 1.37613 2.66463 0
M  V30 3419 H 340.472 0.750324 1.37112 0
M  V30 3420 H 341.207 -1.17055 3.02438 0
M  V30 3421 H 340.992 0.370826 3.90343 0
M  V30 3422 H 342.482 -0.592175 4.1338 0
M  V30 3423 N 342.919 -1.39368 0.735821 0
M  V30 3424 C 344.196 -1.94465 0.210395 0
M  V30 3425 C 344.576 -1.67254 -1.28799 0
M  V30 3426 O 343.924 -1.00123 -2.05396 0
M  V30 3427 C 344.134 -3.4472 0.544897 0
M  V30 3428 C 345.482 -4.21708 0.494689 0
M  V30 3429 O 346.506 -3.52922 0.482136 0
M  V30 3430 O 345.365 -5.44299 0.489947 0
M  V30 3431 H 342.459 -0.826096 0.0386666 0
M  V30 3432 H 345.005 -1.48863 0.814735 0
M  V30 3433 H 343.777 -3.57963 1.58045 0
M  V30 3434 H 343.4 -3.97502 -0.08837 0
M  V30 3435 N 344.397 -0.483516 -1.5 0
M  V30 3436 C 345.674 0.129337 -1.95172 0
M  V30 3437 C 346.054 1.55802 -1.4244 0
M  V30 3438 O 345.402 2.19625 -0.630649 0
M  V30 3439 C 345.612 0.0599251 -3.48949 0
M  V30 3440 C 346.96 0.242617 -4.23906 0
M  V30 3441 O 347.984 0.135933 -3.55941 0
M  V30 3442 O 346.843 0.459454 -5.44565 0
M  V30 3443 H 343.937 0.104887 -0.820322 0
M  V30 3444 H 346.483 -0.544807 -1.60717 0
M  V30 3445 H 345.255 -0.937079 -3.79914 0
M  V30 3446 H 344.878 0.774984 -3.89974 0
M  V30 3447 N 345.875 1.56104 -0.216619 0
M  V30 3448 C 347.152 1.89988 0.465165 0
M  V30 3449 C 347.532 1.13326 1.78102 0
M  V30 3450 O 346.88 0.241033 2.27225 0
M  V30 3451 C 347.09 3.42646 0.662939 0
M  V30 3452 C 348.438 4.13311 0.972602 0
M  V30 3453 O 349.462 3.48217 0.749901 0
M  V30 3454 O 348.321 5.28396 1.39499 0
M  V30 3455 H 345.415 0.78979 0.245276 0
M  V30 3456 H 347.961 1.67721 -0.258436 0
M  V30 3457 H 346.733 3.90399 -0.26543 0
M  V30 3458 H 346.356 3.70677 1.43821 0
M  V30 3459 N 347.353 -0.0568162 1.57498 0
M  V30 3460 C 348.578 -0.769402 1.92601 0
M  V30 3461 C 349.003 -1.69559 0.814336 0
M  V30 3462 O 348.361 -1.79811 -0.231903 0
M  V30 3463 C 348.409 -1.52634 3.26704 0
M  V30 3464 O 347.513 -2.63797 3.16994 0
M  V30 3465 H 346.854 -0.208909 0.63028 0
M  V30 3466 H 349.384 -0.0205798 2.0459 0
M  V30 3467 H 349.394 -1.90234 3.60936 0
M  V30 3468 H 348.069 -0.846875 4.07186 0
M  V30 3469 H 346.646 -2.28943 2.94346 0
M  V30 3470 N 348.832 -1.54138 -0.328536 0
M  V30 3471 C 349.795 -1.82462 -1.38709 0
M  V30 3472 C 350.795 -0.696229 -1.44946 0
M  V30 3473 O 351.985 -0.964535 -1.4506 0
M  V30 3474 C 349.117 -1.98018 -2.77492 0
M  V30 3475 H 350.31 -2.77037 -1.14851 0
M  V30 3476 H 347.863 -1.45779 -0.563751 0
M  V30 3477 H 348.598 -1.05637 -3.06613 0
M  V30 3478 H 348.383 -2.80124 -2.74359 0
M  V30 3479 H 349.873 -2.21396 -3.54081 0
M  V30 3480 N 350.31 0.590341 -1.46126 0
M  V30 3481 C 351.538 1.37504 -1.54597 0
M  V30 3482 C 351.953 1.87897 -0.184447 0
M  V30 3483 O 351.31 1.63192 0.816984 0
M  V30 3484 C 351.361 2.56779 -2.54454 0
M  V30 3485 O 351.082 2.08476 -3.85317 0
M  V30 3486 C 352.583 3.49427 -2.72792 0
M  V30 3487 H 349.803 0.420325 -0.523037 0
M  V30 3488 H 352.347 0.718383 -1.91467 0
M  V30 3489 H 350.502 3.1845 -2.20609 0
M  V30 3490 H 350.916 2.86097 -4.396 0
M  V30 3491 H 352.39 4.29619 -3.466 0
M  V30 3492 H 352.867 4.00876 -1.79429 0
M  V30 3493 H 353.473 2.93598 -3.07702 0
M  V30 3494 N 351.788 1.33704 0.83433 0
M  V30 3495 C 353.036 1.25169 1.58673 0
M  V30 3496 C 353.357 -0.18127 1.94156 0
M  V30 3497 O 352.627 -1.11113 1.6134 0
M  V30 3498 H 351.207 0.4603 0.58833 0
M  V30 3499 H 353.869 1.67478 0.996847 0
M  V30 3500 H 352.965 1.84856 2.51465 0
M  V30 3501 N 353.266 -1.05314 1.17247 0
M  V30 3502 C 354.514 -1.77941 0.958194 0
M  V30 3503 C 354.835 -1.88089 -0.514556 0
M  V30 3504 O 354.105 -1.39676 -1.37359 0
M  V30 3505 H 352.685 -0.659116 0.351533 0
M  V30 3506 H 355.347 -1.27166 1.47699 0
M  V30 3507 H 354.443 -2.79663 1.38546 0
M  V30 3508 N 354.744 -0.972509 -1.24016 0
M  V30 3509 C 356.155 -0.67517 -1.74064 0
M  V30 3510 C 356.506 0.808939 -1.78747 0
M  V30 3511 O 355.631 1.63286 -1.42009 0
M  V30 3512 C 356.226 -1.21889 -3.16115 0
M  V30 3513 C 354.785 -0.971358 -3.6365 0
M  V30 3514 C 353.932 -1.35134 -2.42145 0
M  V30 3515 H 356.883 -1.14727 -1.09651 0
M  V30 3516 H 356.904 -0.587489 -3.75937 0
M  V30 3517 H 356.416 -2.29906 -3.12674 0
M  V30 3518 H 354.517 0.0930686 -3.72484 0
M  V30 3519 H 354.63 -1.62039 -4.50866 0
M  V30 3520 H 352.994 -0.769751 -2.4279 0
M  V30 3521 H 353.777 -2.4411 -2.41381 0
M  V30 3522 N 356.222 1.38976 -0.743202 0
M  V30 3523 C 357.499 1.94351 -0.220705 0
M  V30 3524 C 357.879 1.67935 1.2791 0
M  V30 3525 O 357.227 1.01211 2.04862 0
M  V30 3526 C 357.437 3.44426 -0.563171 0
M  V30 3527 C 358.785 4.2144 -0.517046 0
M  V30 3528 O 359.809 3.52661 -0.500846 0
M  V30 3529 O 358.668 5.44032 -0.518806 0
M  V30 3530 H 355.762 0.825879 -0.043047 0
M  V30 3531 H 358.308 1.48429 -0.822618 0
M  V30 3532 H 357.08 3.5712 -1.59941 0
M  V30 3533 H 356.703 3.97543 0.0672883 0
M  V30 3534 N 357.7 0.491464 1.49741 0
M  V30 3535 C 358.63 -0.28154 2.31796 0
M  V30 3536 C 359.611 -0.971473 1.3963 0
M  V30 3537 O 360.796 -0.964719 1.68543 0
M  V30 3538 C 357.926 -1.35203 3.19902 0
M  V30 3539 C 356.88 -0.782529 4.20786 0
M  V30 3540 C 356.206 -1.95283 4.97764 0
M  V30 3541 C 357.506 0.21999 5.21837 0
M  V30 3542 H 359.2 0.403355 2.96671 0
M  V30 3543 H 356.746 0.195425 1.42668 0
M  V30 3544 H 358.699 -1.90045 3.76113 0
M  V30 3545 H 357.423 -2.06598 2.52953 0
M  V30 3546 H 356.082 -0.255928 3.65706 0
M  V30 3547 H 355.73 -2.65423 4.2727 0
M  V30 3548 H 355.43 -1.57789 5.66018 0
M  V30 3549 H 356.954 -2.50577 5.56816 0
M  V30 3550 H 358.368 -0.23996 5.72798 0
M  V30 3551 H 356.765 0.51026 5.97927 0
M  V30 3552 H 357.835 1.13911 4.7133 0
M  V30 3553 N 359.178 -1.55987 0.224894 0
M  V30 3554 C 360.424 -1.98684 -0.406502 0
M  V30 3555 C 360.757 -1.11248 -1.59177 0
M  V30 3556 O 360.032 -0.170909 -1.93748 0
M  V30 3557 C 360.315 -3.50218 -0.837808 0
M  V30 3558 C 360.168 -4.48426 0.351332 0
M  V30 3559 C 361.487 -4.06243 -1.69278 0
M  V30 3560 H 358.606 -0.722337 -0.146283 0
M  V30 3561 H 361.248 -1.87255 0.321799 0
M  V30 3562 H 359.398 -3.60089 -1.45837 0
M  V30 3563 H 361.07 -4.50562 0.989526 0
M  V30 3564 H 359.313 -4.22159 0.998207 0
M  V30 3565 H 359.984 -5.52 0.00655905 0
M  V30 3566 H 362.46 -3.99337 -1.16914 0
M  V30 3567 H 361.336 -5.12581 -1.96346 0
M  V30 3568 H 361.597 -3.53332 -2.65723 0
M  V30 3569 N 360.656 0.0484629 -1.57525 0
M  V30 3570 C 362.072 0.40375 -1.54409 0
M  V30 3571 C 362.272 1.77786 -0.948384 0
M  V30 3572 O 361.328 2.46189 -0.560983 0
M  V30 3573 C 362.641 0.323394 -2.98956 0
M  V30 3574 C 364.189 0.401892 -3.10409 0
M  V30 3575 C 364.664 0.351195 -4.56652 0
M  V30 3576 N 366.155 0.410576 -4.61377 0
M  V30 3577 C 366.89 0.393933 -5.72045 0
M  V30 3578 N 366.386 0.330724 -6.9201 0
M  V30 3579 N 368.179 0.442227 -5.60358 0
M  V30 3580 H 360.33 -0.851016 -1.94606 0
M  V30 3581 H 362.593 -0.321721 -0.89174 0
M  V30 3582 H 362.299 -0.62011 -3.4619 0
M  V30 3583 H 362.173 1.12463 -3.60044 0
M  V30 3584 H 364.56 1.33582 -2.63134 0
M  V30 3585 H 364.641 -0.428342 -2.52188 0
M  V30 3586 H 364.285 -0.578987 -5.04589 0
M  V30 3587 H 364.215 1.19928 -5.12762 0
M  V30 3588 H 366.706 0.462729 -3.75056 0
M  V30 3589 H 367.019 0.322592 -7.72126 0
M  V30 3590 H 365.364 0.29706 -6.94365 0
M  V30 3591 H 368.555 0.489464 -4.65534 0
M  V30 3592 H 368.728 0.425788 -6.466 0
M  V30 3593 N 362.134 1.5431 0.320358 0
M  V30 3594 C 363.382 1.72327 1.05583 0
M  V30 3595 C 363.703 0.50149 1.88441 0
M  V30 3596 O 362.973 -0.48448 1.89815 0
M  V30 3597 H 361.553 0.635387 0.3928 0
M  V30 3598 H 364.215 1.91621 0.356019 0
M  V30 3599 H 363.311 2.60426 1.72003 0
M  V30 3600 N 363.613 -0.582584 1.46437 0
M  V30 3601 C 364.862 -1.337 1.5102 0
M  V30 3602 C 365.175 -1.94891 0.166359 0
M  V30 3603 O 366.381 -2.71351 0.0899954 0
M  V30 3604 C 364.837 -2.42315 2.66104 0
M  V30 3605 C 364.445 -1.87427 4.06909 0
M  V30 3606 C 366.189 -3.19099 2.79958 0
M  V30 3607 C 364.096 -2.93672 5.13333 0
M  V30 3608 H 363.026 -0.502619 0.562041 0
M  V30 3609 H 365.677 -0.621701 1.72647 0
M  V30 3610 H 364.059 -3.16645 2.37807 0
M  V30 3611 H 365.233 -1.19639 4.44998 0
M  V30 3612 H 363.548 -1.2331 3.97723 0
M  V30 3613 H 366.145 -3.9839 3.56636 0
M  V30 3614 H 366.488 -3.71695 1.87479 0
M  V30 3615 H 367.021 -2.51875 3.07902 0
M  V30 3616 H 363.76 -2.45962 6.07604 0
M  V30 3617 H 363.28 -3.59948 4.79789 0
M  V30 3618 H 364.959 -3.5762 5.39182 0
M  V30 3619 N 365.091 -1.34144 -0.827227 0
M  V30 3620 C 366.338 -1.26258 -1.58319 0
M  V30 3621 C 366.666 0.168595 -1.93768 0
M  V30 3622 O 365.921 1.12877 -1.59866 0
M  V30 3623 C 366.22 -2.09464 -2.89585 0
M  V30 3624 C 365.886 -3.58521 -2.73448 0
M  V30 3625 C 364.548 -3.99155 -2.68754 0
M  V30 3626 C 366.9 -4.53189 -2.57428 0
M  V30 3627 C 364.228 -5.32656 -2.45957 0
M  V30 3628 C 366.58 -5.86864 -2.36163 0
M  V30 3629 C 365.244 -6.26667 -2.29879 0
M  V30 3630 H 364.514 -0.462013 -0.579332 0
M  V30 3631 H 367.161 -1.65845 -0.95748 0
M  V30 3632 H 365.466 -1.62692 -3.56425 0
M  V30 3633 H 367.163 -2.00712 -3.47154 0
M  V30 3634 H 363.753 -3.26264 -2.77939 0
M  V30 3635 H 367.937 -4.22696 -2.60081 0
M  V30 3636 H 363.193 -5.62519 -2.39546 0
M  V30 3637 H 367.367 -6.59813 -2.22754 0
M  V30 3638 H 364.994 -7.30049 -2.11975 0
M  V30 3639 N 366.569 1.04691 -1.17803 0
M  V30 3640 C 367.98 1.59238 -0.974689 0
M  V30 3641 C 368.331 1.90306 0.477292 0
M  V30 3642 O 367.456 1.68846 1.35352 0
M  V30 3643 C 368.051 2.89318 -1.76296 0
M  V30 3644 C 366.61 3.40506 -1.60414 0
M  V30 3645 C 365.757 2.14172 -1.76141 0
M  V30 3646 H 368.708 0.874395 -1.32439 0
M  V30 3647 H 368.729 3.5944 -1.24833 0
M  V30 3648 H 368.241 2.66675 -2.81968 0
M  V30 3649 H 366.342 3.68175 -0.572519 0
M  V30 3650 H 366.455 4.14753 -2.39827 0
M  V30 3651 H 364.819 2.25176 -1.19028 0
M  V30 3652 H 365.602 1.93992 -2.83235 0
M  V30 3653 N 368.047 0.979072 1.23499 0
M  V30 3654 C 369.275 0.665202 1.95915 0
M  V30 3655 C 369.69 -0.767571 1.72493 0
M  V30 3656 O 369.047 -1.51635 1.01554 0
M  V30 3657 C 369.098 0.944438 3.48945 0
M  V30 3658 O 368.819 2.3209 3.71572 0
M  V30 3659 C 370.32 0.646336 4.38563 0
M  V30 3660 H 367.54 0.247218 0.623798 0
M  V30 3661 H 370.084 1.31009 1.57025 0
M  V30 3662 H 368.239 0.345575 3.85856 0
M  V30 3663 H 368.653 2.40957 4.65876 0
M  V30 3664 H 370.127 0.892091 5.44744 0
M  V30 3665 H 370.604 -0.419575 4.37191 0
M  V30 3666 H 371.21 1.22562 4.07258 0
M  V30 3667 N 369.525 -1.3858 0.750561 0
M  V30 3668 C 370.488 -2.28836 0.129152 0
M  V30 3669 C 371.488 -1.47045 -0.650714 0
M  V30 3670 O 372.678 -1.6753 -0.477428 0
M  V30 3671 C 369.81 -3.30751 -0.825622 0
M  V30 3672 H 371.003 -2.85294 0.924516 0
M  V30 3673 H 368.556 -1.47489 0.517376 0
M  V30 3674 H 369.291 -2.79378 -1.64677 0
M  V30 3675 H 369.076 -3.91177 -0.268852 0
M  V30 3676 H 370.566 -3.98249 -1.2565 0
M  V30 3677 N 371.003 -0.499398 -1.49478 0
M  V30 3678 C 372.249 0.0457576 -2.02748 0
M  V30 3679 C 372.582 1.36793 -1.37846 0
M  V30 3680 O 371.857 1.87596 -0.513601 0
M  V30 3681 C 372.14 0.199986 -3.59544 0
M  V30 3682 C 371.993 -1.1452 -4.34977 0
M  V30 3683 C 373.312 0.94137 -4.29914 0
M  V30 3684 H 370.431 0.0151552 -0.736844 0
M  V30 3685 H 373.073 -0.650498 -1.78518 0
M  V30 3686 H 371.223 0.793007 -3.8032 0
M  V30 3687 H 372.895 -1.77697 -4.25701 0
M  V30 3688 H 371.138 -1.73488 -3.97598 0
M  V30 3689 H 371.809 -0.990607 -5.43039 0
M  V30 3690 H 374.285 0.43844 -4.13784 0
M  V30 3691 H 373.161 1.01812 -5.39375 0
M  V30 3692 H 373.422 1.98471 -3.95046 0
M  V30 3693 N 372.481 1.55866 -0.233164 0
M  V30 3694 C 373.73 1.97779 0.39579 0
M  V30 3695 C 374.043 1.12419 1.60066 0
M  V30 3696 O 375.249 1.44283 2.29988 0
M  V30 3697 C 373.705 3.5188 0.755556 0
M  V30 3698 C 373.313 4.45959 -0.427152 0
M  V30 3699 C 375.057 4.02479 1.34946 0
M  V30 3700 C 372.964 5.91383 -0.0443043 0
M  V30 3701 H 371.894 0.738592 0.15165 0
M  V30 3702 H 374.545 1.80486 -0.331212 0
M  V30 3703 H 372.927 3.64816 1.5403 0
M  V30 3704 H 374.101 4.44776 -1.20462 0
M  V30 3705 H 372.416 4.05765 -0.935068 0
M  V30 3706 H 375.013 5.08637 1.649 0
M  V30 3707 H 375.356 3.49014 2.26925 0
M  V30 3708 H 375.889 3.92813 0.62791 0
M  V30 3709 H 372.628 6.48857 -0.930874 0
M  V30 3710 H 372.148 5.95734 0.697238 0
M  V30 3711 H 373.827 6.45893 0.378334 0
M  V30 3712 N 373.959 -0.0401083 1.57549 0
M  V30 3713 C 375.208 -0.732108 1.87944 0
M  V30 3714 C 375.521 -1.77107 0.830206 0
M  V30 3715 O 376.727 -2.51488 1.02302 0
M  V30 3716 C 375.183 -1.35315 3.33494 0
M  V30 3717 C 374.791 -0.351105 4.46622 0
M  V30 3718 C 376.535 -2.02566 3.73051 0
M  V30 3719 C 374.442 -0.979859 5.83226 0
M  V30 3720 H 373.372 -0.277188 0.701201 0
M  V30 3721 H 376.023 0.0138501 1.83495 0
M  V30 3722 H 374.405 -2.14844 3.32653 0
M  V30 3723 H 375.579 0.416674 4.58912 0
M  V30 3724 H 373.894 0.218708 4.15825 0
M  V30 3725 H 376.491 -2.50441 4.72423 0
M  V30 3726 H 376.834 -2.83904 3.04474 0
M  V30 3727 H 377.367 -1.29827 3.76018 0
M  V30 3728 H 374.106 -0.206135 6.55176 0
M  V30 3729 H 373.626 -1.71774 5.74677 0
M  V30 3730 H 375.305 -1.49046 6.29599 0
M  V30 3731 N 375.437 -1.54477 -0.31217 0
M  V30 3732 C 376.714 -1.63891 -1.06767 0
M  V30 3733 C 377.094 -0.480028 -2.0557 0
M  V30 3734 O 376.442 0.524487 -2.22399 0
M  V30 3735 C 376.652 -3.01402 -1.75948 0
M  V30 3736 C 378 -3.57838 -2.28554 0
M  V30 3737 O 379.024 -3.03782 -1.85998 0
M  V30 3738 O 377.883 -4.52462 -3.06497 0
M  V30 3739 H 374.977 -0.664125 -0.492816 0
M  V30 3740 H 377.523 -1.66823 -0.311149 0
M  V30 3741 H 376.295 -3.77187 -1.04144 0
M  V30 3742 H 375.918 -3.02199 -2.58383 0
M  V30 3743 N 376.915 0.57481 -1.46744 0
M  V30 3744 C 377.878 1.66533 -1.57478 0
M  V30 3745 C 378.878 1.54338 -0.451263 0
M  V30 3746 O 380.068 1.58814 -0.715813 0
M  V30 3747 C 377.2 3.05999 -1.50259 0
M  V30 3748 H 378.393 1.58372 -2.54673 0
M  V30 3749 H 375.946 0.793301 -1.34672 0
M  V30 3750 H 376.681 3.19709 -0.543725 0
M  V30 3751 H 376.466 3.16259 -2.31781 0
M  V30 3752 H 377.956 3.8537 -1.60872 0
M  V30 3753 N 378.394 1.34581 0.820102 0
M  V30 3754 C 379.671 1.17675 1.56244 0
M  V30 3755 C 380.051 -0.249541 2.0962 0
M  V30 3756 O 379.399 -1.25125 1.91196 0
M  V30 3757 C 379.609 2.23364 2.6816 0
M  V30 3758 C 380.957 2.58485 3.36854 0
M  V30 3759 O 381.981 2.22175 2.78418 0
M  V30 3760 O 380.84 3.20868 4.42386 0
M  V30 3761 H 377.934 0.456333 0.689702 0
M  V30 3762 H 380.48 1.46222 0.861231 0
M  V30 3763 H 379.252 3.19087 2.26493 0
M  V30 3764 H 378.875 1.96009 3.45928 0
M  V30 3765 N 379.872 -1.04064 1.18357 0
M  V30 3766 C 381.12 -1.76915 0.977013 0
M  V30 3767 C 381.441 -1.88624 -0.494577 0
M  V30 3768 O 380.711 -1.41125 -1.3587 0
M  V30 3769 H 379.291 -0.65535 0.358504 0
M  V30 3770 H 381.953 -1.25592 1.49039 0
M  V30 3771 H 381.049 -2.78178 1.41504 0
M  V30 3772 N 381.35 -0.985608 -1.22978 0
M  V30 3773 C 382.313 -0.535071 -2.22867 0
M  V30 3774 C 383.313 0.378123 -1.56291 0
M  V30 3775 O 384.503 0.171092 -1.73358 0
M  V30 3776 C 381.635 0.222702 -3.40172 0
M  V30 3777 H 382.828 -1.41835 -2.6424 0
M  V30 3778 H 380.381 -0.772042 -1.35901 0
M  V30 3779 H 381.116 1.12229 -3.04262 0
M  V30 3780 H 380.901 -0.43288 -3.89703 0
M  V30 3781 H 382.391 0.526335 -4.1427 0
M  V30 3782 N 382.828 1.3818 -0.7579 0
M  V30 3783 C 384.074 2.00316 -0.316453 0
M  V30 3784 C 384.407 1.60026 1.10025 0
M  V30 3785 O 383.682 0.839835 1.75434 0
M  V30 3786 C 383.965 3.57349 -0.444245 0
M  V30 3787 C 383.818 4.07591 -1.90236 0
M  V30 3788 C 385.137 4.3981 0.1598 0
M  V30 3789 H 382.256 0.727741 -0.116459 0
M  V30 3790 H 384.898 1.6406 -0.958352 0
M  V30 3791 H 383.048 3.88365 0.102233 0
M  V30 3792 H 384.72 3.87199 -2.50748 0
M  V30 3793 H 382.963 3.60297 -2.41595 0
M  V30 3794 H 383.634 5.16677 -1.94291 0
M  V30 3795 H 386.11 4.14971 -0.306314 0
M  V30 3796 H 384.986 5.48885 0.0401675 0
M  V30 3797 H 385.247 4.24102 1.24859 0
M  V30 3798 N 384.306 0.507319 1.49211 0
M  V30 3799 C 385.583 -0.0982702 1.95353 0
M  V30 3800 C 385.963 -1.53516 1.449 0
M  V30 3801 O 385.311 -2.18594 0.66551 0
M  V30 3802 C 385.521 -0.00440283 3.49 0
M  V30 3803 C 386.869 -0.175147 4.24239 0
M  V30 3804 O 387.893 -0.0792891 3.56112 0
M  V30 3805 O 386.752 -0.37276 5.45227 0
M  V30 3806 H 383.846 -0.0918236 0.821887 0
M  V30 3807 H 386.392 0.570307 1.5983 0
M  V30 3808 H 385.164 0.997402 3.78375 0
M  V30 3809 H 384.787 -0.712845 3.91158 0
M  V30 3810 N 385.784 -1.5574 0.241426 0
M  V30 3811 C 387.03 -1.99104 -0.385406 0
M  V30 3812 C 387.363 -1.1293 -1.57988 0
M  V30 3813 O 386.638 -0.191449 -1.93555 0
M  V30 3814 C 386.921 -3.51087 -0.800616 0
M  V30 3815 C 386.774 -4.48028 0.398874 0
M  V30 3816 C 388.093 -4.08015 -1.64959 0
M  V30 3817 H 385.212 -0.723848 -0.138614 0
M  V30 3818 H 387.854 -1.86903 0.341642 0
M  V30 3819 H 386.004 -3.61615 -1.4201 0
M  V30 3820 H 387.676 -4.49487 1.03726 0
M  V30 3821 H 385.919 -4.21077 1.04293 0
M  V30 3822 H 386.59 -5.51962 0.0651056 0
M  V30 3823 H 389.066 -4.00555 -1.12672 0
M  V30 3824 H 387.942 -5.14635 -1.90898 0
M  V30 3825 H 388.203 -3.56131 -2.61961 0
M  V30 3826 N 387.262 0.0317525 -1.57568 0
M  V30 3827 C 388.673 0.578692 -1.77505 0
M  V30 3828 C 389.024 1.75749 -0.872164 0
M  V30 3829 O 388.149 2.16298 -0.0663106 0
M  V30 3830 C 388.744 1.05658 -3.21904 0
M  V30 3831 C 387.303 1.54906 -3.43047 0
M  V30 3832 C 386.45 0.485939 -2.73009 0
M  V30 3833 H 389.401 -0.194475 -1.57504 0
M  V30 3834 H 389.422 1.92404 -3.28269 0
M  V30 3835 H 388.934 0.198422 -3.87592 0
M  V30 3836 H 387.035 2.42915 -2.82529 0
M  V30 3837 H 387.148 1.59841 -4.5165 0
M  V30 3838 H 385.512 0.940354 -2.36705 0
M  V30 3839 H 386.295 -0.362709 -3.41379 0
M  V30 3840 N 388.74 1.54641 0.303973 0
M  V30 3841 C 389.65 1.88439 1.39743 0
M  V30 3842 C 390.666 0.778239 1.55626 0
M  V30 3843 O 391.842 1.07442 1.70347 0
M  V30 3844 C 388.907 2.12212 2.74166 0
M  V30 3845 C 387.968 3.35936 2.67293 0
M  V30 3846 C 387.201 3.58566 3.95305 0
M  V30 3847 O 387.424 2.84263 4.9452 0
M  V30 3848 O 386.358 4.52078 3.97378 0
M  V30 3849 H 390.184 2.81458 1.14083 0
M  V30 3850 H 387.769 1.40793 0.499768 0
M  V30 3851 H 389.651 2.29067 3.53704 0
M  V30 3852 H 388.326 1.22379 2.99675 0
M  V30 3853 H 387.233 3.24448 1.86237 0
M  V30 3854 H 388.566 4.2589 2.46736 0
M  V30 3855 N 390.218 -0.567019 1.47046 0
M  V30 3856 C 391.443 -1.3551 1.57009 0
M  V30 3857 C 391.868 -1.86841 0.217259 0
M  V30 3858 O 391.226 -1.62435 -0.805268 0
M  V30 3859 C 391.274 -2.50777 2.5912 0
M  V30 3860 O 390.378 -3.52706 2.13711 0
M  V30 3861 H 389.719 -0.402919 0.52778 0
M  V30 3862 H 392.249 -0.686241 1.92748 0
M  V30 3863 H 392.259 -2.97481 2.79229 0
M  V30 3864 H 390.934 -2.12771 3.57353 0
M  V30 3865 H 389.511 -3.12374 2.03659 0
M  V30 3866 N 391.696 -1.35014 -0.812953 0
M  V30 3867 C 393.112 -1.14914 -1.10757 0
M  V30 3868 C 393.312 0.0426818 -2.01455 0
M  V30 3869 O 392.368 0.715212 -2.42159 0
M  V30 3870 C 393.681 -2.44911 -1.74468 0
M  V30 3871 C 395.229 -2.5106 -1.86917 0
M  V30 3872 C 395.704 -3.81085 -2.54044 0
M  V30 3873 N 397.195 -3.82301 -2.61535 0
M  V30 3874 C 397.93 -4.79634 -3.14227 0
M  V30 3875 N 397.426 -5.87353 -3.67407 0
M  V30 3876 N 399.219 -4.67078 -3.12721 0
M  V30 3877 H 391.37 -2.1136 -0.20989 0
M  V30 3878 H 393.633 -0.935128 -0.155692 0
M  V30 3879 H 393.339 -3.32267 -1.15289 0
M  V30 3880 H 393.213 -2.58989 -2.74234 0
M  V30 3881 H 395.6 -1.64137 -2.45241 0
M  V30 3882 H 395.681 -2.40901 -0.860242 0
M  V30 3883 H 395.325 -4.68402 -1.96372 0
M  V30 3884 H 395.255 -3.88529 -3.55461 0
M  V30 3885 H 397.746 -3.04465 -2.23851 0
M  V30 3886 H 398.059 -6.57624 -4.05894 0
M  V30 3887 H 396.404 -5.91054 -3.65623 0
M  V30 3888 H 399.595 -3.82067 -2.70449 0
M  V30 3889 H 399.768 -5.43098 -3.53481 0
M  V30 3890 N 393.175 1.03435 -1.18907 0
M  V30 3891 C 394.424 1.76143 -0.982669 0
M  V30 3892 C 394.737 1.89416 0.487953 0
M  V30 3893 O 395.943 2.59041 0.813036 0
M  V30 3894 C 394.399 3.16722 -1.70924 0
M  V30 3895 C 394.007 3.11522 -3.21959 0
M  V30 3896 C 395.751 3.93764 -1.58588 0
M  V30 3897 C 393.658 4.46999 -3.87228 0
M  V30 3898 H 392.588 0.660292 -0.364047 0
M  V30 3899 H 395.239 1.158 -1.42347 0
M  V30 3900 H 393.621 3.775 -1.19623 0
M  V30 3901 H 394.795 2.60158 -3.80335 0
M  V30 3902 H 393.11 2.47978 -3.34508 0
M  V30 3903 H 395.707 4.93963 -2.04707 0
M  V30 3904 H 396.05 4.12794 -0.539142 0
M  V30 3905 H 396.583 3.39576 -2.07203 0
M  V30 3906 H 393.322 4.33174 -4.91976 0
M  V30 3907 H 392.842 4.98441 -3.33642 0
M  V30 3908 H 394.521 5.15898 -3.90459 0
M  V30 3909 N 394.653 0.992116 1.22453 0
M  V30 3910 C 395.616 0.546883 2.2258 0
M  V30 3911 C 396.616 -0.369829 1.56489 0
M  V30 3912 O 397.806 -0.161896 1.73446 0
M  V30 3913 C 394.938 -0.204659 3.40285 0
M  V30 3914 H 396.131 1.43234 2.63484 0
M  V30 3915 H 393.684 0.779239 1.3549 0
M  V30 3916 H 394.419 -1.10614 3.04853 0
M  V30 3917 H 394.204 0.45354 3.89468 0
M  V30 3918 H 395.694 -0.504358 4.14543 0
M  V30 3919 N 396.131 -1.37776 0.765217 0
M  V30 3920 C 397.041 -2.34135 0.147666 0
M  V30 3921 C 398.057 -1.59854 -0.687215 0
M  V30 3922 O 399.233 -1.91983 -0.608659 0
M  V30 3923 C 396.298 -3.3901 -0.72617 0
M  V30 3924 C 395.359 -4.2912 0.124417 0
M  V30 3925 C 394.592 -5.28986 -0.707807 0
M  V30 3926 O 394.815 -5.36205 -1.94525 0
M  V30 3927 O 393.749 -6.01779 -0.12046 0
M  V30 3928 H 397.575 -2.88664 0.943758 0
M  V30 3929 H 395.16 -1.39824 0.526277 0
M  V30 3930 H 397.042 -4.03195 -1.22524 0
M  V30 3931 H 395.717 -2.86819 -1.50056 0
M  V30 3932 H 394.624 -3.68057 0.669696 0
M  V30 3933 H 395.957 -4.84598 0.861736 0
M  V30 3934 N 397.609 -0.515225 -1.4894 0
M  V30 3935 C 398.539 0.244628 -2.32215 0
M  V30 3936 C 399.52 0.949136 -1.41157 0
M  V30 3937 O 400.705 0.937783 -1.70057 0
M  V30 3938 C 397.835 1.30096 -3.22013 0
M  V30 3939 C 396.789 0.715486 -4.21977 0
M  V30 3940 C 396.115 1.87339 -5.00808 0
M  V30 3941 C 397.415 -0.302982 -5.2142 0
M  V30 3942 H 399.109 -0.450501 -2.95991 0
M  V30 3943 H 396.655 -0.218098 -1.42339 0
M  V30 3944 H 398.608 1.84037 -3.79089 0
M  V30 3945 H 397.332 2.02547 -2.56207 0
M  V30 3946 H 395.991 0.197715 -3.66066 0
M  V30 3947 H 395.639 2.58592 -4.31438 0
M  V30 3948 H 395.339 1.48764 -5.68457 0
M  V30 3949 H 396.863 2.41686 -5.60732 0
M  V30 3950 H 398.277 0.148802 -5.73107 0
M  V30 3951 H 396.674 -0.60532 -5.97039 0
M  V30 3952 H 397.744 -1.21395 -4.69459 0
M  V30 3953 N 399.087 1.5561 -0.249682 0
M  V30 3954 C 400.05 2.20217 0.635394 0
M  V30 3955 C 401.05 1.17227 1.10066 0
M  V30 3956 O 402.24 1.42292 1.00492 0
M  V30 3957 C 399.372 2.84794 1.87363 0
M  V30 3958 H 400.565 2.99814 0.0716752 0
M  V30 3959 H 398.118 1.563 -0.000153234 0
M  V30 3960 H 398.853 2.09142 2.47851 0
M  V30 3961 H 398.638 3.60241 1.5482 0
M  V30 3962 H 400.128 3.3423 2.5036 0
M  V30 3963 N 400.565 -0.0233959 1.57583 0
M  V30 3964 C 401.981 -0.379134 1.55031 0
M  V30 3965 C 402.181 -1.76255 0.976548 0
M  V30 3966 O 401.237 -2.45266 0.600078 0
M  V30 3967 C 402.55 -0.275792 2.99433 0
M  V30 3968 C 404.098 -0.352458 3.11009 0
M  V30 3969 C 404.573 -0.278501 4.57152 0
M  V30 3970 N 406.064 -0.337123 4.61972 0
M  V30 3971 C 406.799 -0.302876 5.726 0
M  V30 3972 N 406.295 -0.220589 6.92449 0
M  V30 3973 N 408.088 -0.353023 5.6099 0
M  V30 3974 H 400.239 0.881869 1.93227 0
M  V30 3975 H 402.502 0.335867 0.886509 0
M  V30 3976 H 402.208 0.675108 3.4516 0
M  V30 3977 H 402.082 -1.06721 3.61788 0
M  V30 3978 H 404.469 -1.29379 2.65226 0
M  V30 3979 H 404.55 0.468409 2.51475 0
M  V30 3980 H 404.194 0.659189 5.03604 0
M  V30 3981 H 404.124 -1.11755 5.14605 0
M  V30 3982 H 406.615 -0.403002 3.75745 0
M  V30 3983 H 406.928 -0.199713 7.72542 0
M  V30 3984 H 405.273 -0.186555 6.9475 0
M  V30 3985 H 408.464 -0.415339 4.66254 0
M  V30 3986 H 408.637 -0.322866 6.47195 0
M  V30 3987 N 402.043 -1.548 -0.295768 0
M  V30 3988 C 403.006 -1.85363 -1.34808 0
M  V30 3989 C 404.006 -0.726817 -1.43436 0
M  V30 3990 O 405.196 -0.995088 -1.42981 0
M  V30 3991 C 402.328 -2.03859 -2.73229 0
M  V30 3992 H 403.521 -2.7941 -1.08949 0
M  V30 3993 H 401.074 -1.46942 -0.532702 0
M  V30 3994 H 401.809 -1.12117 -3.04303 0
M  V30 3995 H 401.594 -2.8588 -2.68356 0
M  V30 3996 H 403.084 -2.28857 -3.49305 0
M  V30 3997 N 403.521 0.559213 -1.47345 0
M  V30 3998 C 404.77 1.31281 -1.53128 0
M  V30 3999 C 405.083 1.94602 -0.197344 0
M  V30 4000 O 406.289 2.71173 -0.133154 0
M  V30 4001 C 404.745 2.38051 -2.69925 0
M  V30 4002 C 404.353 1.8093 -4.0984 0
M  V30 4003 C 406.097 3.14604 -2.84999 0
M  V30 4004 C 404.004 2.85468 -5.1794 0
M  V30 4005 H 402.934 0.493614 -0.569966 0
M  V30 4006 H 405.585 0.594155 -1.73615 0
M  V30 4007 H 403.967 3.12822 -2.42814 0
M  V30 4008 H 405.141 1.12544 -4.46845 0
M  V30 4009 H 403.456 1.16967 -3.99634 0
M  V30 4010 H 406.053 3.92666 -3.62929 0
M  V30 4011 H 406.396 3.68665 -1.93369 0
M  V30 4012 H 406.929 2.46945 -3.1187 0
M  V30 4013 H 403.668 2.36264 -6.1144 0
M  V30 4014 H 403.188 3.52269 -4.85455 0
M  V30 4015 H 404.867 3.48996 -5.44803 0
M  V30 4016 N 404.999 1.35443 0.805782 0
M  V30 4017 C 406.248 1.28097 1.55801 0
M  V30 4018 C 406.561 -0.142428 1.95081 0
M  V30 4019 O 407.767 -0.33817 2.69386 0
M  V30 4020 C 406.223 2.24653 2.81174 0
M  V30 4021 C 405.831 3.72342 2.49129 0
M  V30 4022 C 407.575 2.2625 3.59181 0
M  V30 4023 C 405.482 4.60719 3.70799 0
M  V30 4024 H 404.412 0.475937 0.584808 0
M  V30 4025 H 407.063 1.60712 0.885661 0
M  V30 4026 H 405.445 1.85011 3.50124 0
M  V30 4027 H 406.619 4.20624 1.88181 0
M  V30 4028 H 404.934 3.73361 1.84366 0
M  V30 4029 H 407.531 2.89495 4.49552 0
M  V30 4030 H 407.874 1.26647 3.96568 0
M  V30 4031 H 408.407 2.64426 2.97193 0
M  V30 4032 H 405.146 5.61324 3.3852 0
M  V30 4033 H 404.666 4.17163 4.3097 0
M  V30 4034 H 406.345 4.76182 4.38018 0
M  V30 4035 N 406.477 -1.02803 1.19454 0
M  V30 4036 C 407.387 -2.14575 0.948408 0
M  V30 4037 C 408.403 -1.73757 -0.091871 0
M  V30 4038 O 409.579 -2.01185 0.0929654 0
M  V30 4039 C 406.644 -3.43202 0.491265 0
M  V30 4040 C 405.705 -3.98328 1.60103 0
M  V30 4041 C 404.938 -5.20816 1.16561 0
M  V30 4042 O 405.161 -5.70392 0.0295238 0
M  V30 4043 O 404.095 -5.68801 1.96849 0
M  V30 4044 H 407.921 -2.38202 1.88397 0
M  V30 4045 H 405.506 -1.12989 0.977433 0
M  V30 4046 H 407.388 -4.20687 0.245015 0
M  V30 4047 H 406.063 -3.21018 -0.415851 0
M  V30 4048 H 404.97 -3.22174 1.90144 0
M  V30 4049 H 406.303 -4.24879 2.48473 0
M  V30 4050 N 407.956 -0.998596 -1.21925 0
M  V30 4051 C 409.181 -0.696015 -1.95372 0
M  V30 4052 C 409.606 0.733826 -1.73195 0
M  V30 4053 O 408.964 1.50242 -1.01474 0
M  V30 4054 C 409.012 -1.01466 -3.4603 0
M  V30 4055 O 408.116 -0.116415 -4.12236 0
M  V30 4056 H 407.457 -0.259938 -0.611006 0
M  V30 4057 H 409.987 -1.33711 -1.54863 0
M  V30 4058 H 409.997 -0.958855 -3.96573 0
M  V30 4059 H 408.672 -2.05653 -3.61497 0
M  V30 4060 H 407.249 -0.228193 -3.72201 0
M  V30 4061 N 409.434 1.37368 -0.772513 0
M  V30 4062 C 410.85 1.53059 -0.452231 0
M  V30 4063 C 411.05 1.73065 1.03203 0
M  V30 4064 O 410.106 1.75245 1.81784 0
M  V30 4065 C 411.419 2.72659 -1.26797 0
M  V30 4066 C 412.967 2.86521 -1.25995 0
M  V30 4067 C 413.442 4.09105 -2.05905 0
M  V30 4068 N 414.933 4.16219 -2.03263 0
M  V30 4069 C 415.668 5.10107 -2.61875 0
M  V30 4070 N 415.164 6.09547 -3.29278 0
M  V30 4071 N 416.957 5.02596 -2.51701 0
M  V30 4072 H 409.108 1.22634 -1.7342 0
M  V30 4073 H 411.371 0.597206 -0.736239 0
M  V30 4074 H 411.077 2.64343 -2.31982 0
M  V30 4075 H 410.951 3.66363 -0.897672 0
M  V30 4076 H 413.338 2.94308 -0.216081 0
M  V30 4077 H 413.419 1.93774 -1.66989 0
M  V30 4078 H 413.063 4.0208 -3.10313 0
M  V30 4079 H 412.993 5.00968 -1.62292 0
M  V30 4080 H 415.484 3.45012 -1.54192 0
M  V30 4081 H 415.797 6.77718 -3.71374 0
M  V30 4082 H 414.142 6.09824 -3.33377 0
M  V30 4083 H 417.333 4.23855 -1.98657 0
M  V30 4084 H 417.506 5.75582 -2.97673 0
M  V30 4085 N 410.912 0.523116 1.48665 0
M  V30 4086 C 412.137 -0.0117284 2.07397 0
M  V30 4087 C 412.562 -1.28031 1.37803 0
M  V30 4088 O 411.92 -1.75836 0.441762 0
M  V30 4089 C 411.968 -0.225786 3.59892 0
M  V30 4090 O 411.072 -1.29592 3.91509 0
M  V30 4091 H 410.413 0.0360673 0.66302 0
M  V30 4092 H 412.943 0.729066 1.9117 0
M  V30 4093 H 412.953 -0.450552 4.05505 0
M  V30 4094 H 411.628 0.700944 4.09951 0
M  V30 4095 H 410.205 -1.05436 3.57684 0
M  V30 4096 N 412.39 -1.55475 0.257931 0
M  V30 4097 C 413.638 -1.98813 -0.363009 0
M  V30 4098 C 413.959 -1.14757 -1.57657 0
M  V30 4099 O 413.229 -0.232956 -1.9451 0
M  V30 4100 H 411.809 -0.734308 -0.137113 0
M  V30 4101 H 414.471 -1.9156 0.359281 0
M  V30 4102 H 413.567 -3.04941 -0.664634 0
M  V30 4103 N 413.868 0.0150385 -1.57593 0
M  V30 4104 C 414.831 0.995996 -2.06428 0
M  V30 4105 C 415.831 1.2818 -0.970903 0
M  V30 4106 O 417.021 1.22949 -1.23406 0
M  V30 4107 C 414.153 2.32506 -2.49307 0
M  V30 4108 H 415.346 0.573873 -2.94358 0
M  V30 4109 H 412.899 0.262186 -1.54085 0
M  V30 4110 H 413.634 2.79438 -1.64575 0
M  V30 4111 H 413.419 2.13087 -3.29145 0
M  V30 4112 H 414.909 3.02906 -2.87468 0
M  V30 4113 N 415.346 1.54954 0.287554 0
M  V30 4114 C 416.623 1.65569 1.04146 0
M  V30 4115 C 417.003 0.512672 2.0478 0
M  V30 4116 O 416.351 -0.489038 2.23205 0
M  V30 4117 C 416.561 3.04163 1.71131 0
M  V30 4118 C 417.909 3.61429 2.22832 0
M  V30 4119 O 418.933 3.06702 1.81141 0
M  V30 4120 O 417.792 4.57281 2.9926 0
M  V30 4121 H 414.886 0.671881 0.482188 0
M  V30 4122 H 417.432 1.67297 0.28457 0
M  V30 4123 H 416.204 3.78796 0.981303 0
M  V30 4124 H 415.827 3.06271 2.53543 0
M  V30 4125 N 416.824 -0.551391 1.4764 0
M  V30 4126 C 418.052 -1.33357 1.58189 0
M  V30 4127 C 418.467 -1.87342 0.234199 0
M  V30 4128 O 417.824 -1.65301 -0.77343 0
M  V30 4129 C 417.875 -2.49942 2.61173 0
M  V30 4130 O 417.596 -1.98187 3.90709 0
M  V30 4131 C 419.097 -3.42072 2.8196 0
M  V30 4132 H 416.317 -0.40631 0.533998 0
M  V30 4133 H 418.861 -0.667367 1.93304 0
M  V30 4134 H 417.016 -3.12489 2.28975 0
M  V30 4135 H 417.43 -2.74342 4.47031 0
M  V30 4136 H 418.904 -4.20278 3.57869 0
M  V30 4137 H 419.381 -3.95978 1.89995 0
M  V30 4138 H 419.987 -2.85336 3.15378 0
M  V30 4139 N 418.302 -1.35869 -0.798587 0
M  V30 4140 C 419.549 -1.29588 -1.55606 0
M  V30 4141 C 419.877 0.127456 -1.94082 0
M  V30 4142 O 419.132 1.09461 -1.62225 0
M  V30 4143 C 419.431 -2.1556 -2.85077 0
M  V30 4144 C 419.097 -3.6424 -2.65781 0
M  V30 4145 C 417.759 -4.04766 -2.60227 0
M  V30 4146 C 420.111 -4.58547 -2.47758 0
M  V30 4147 C 417.439 -5.37753 -2.34603 0
M  V30 4148 C 419.791 -5.91742 -2.23662 0
M  V30 4149 C 418.455 -6.31402 -2.16534 0
M  V30 4150 H 417.725 -0.474197 -0.569402 0
M  V30 4151 H 420.372 -1.67839 -0.922086 0
M  V30 4152 H 418.677 -1.70216 -3.52893 0
M  V30 4153 H 420.374 -2.08031 -3.42818 0
M  V30 4154 H 416.964 -3.32086 -2.70956 0
M  V30 4155 H 421.148 -4.28117 -2.51056 0
M  V30 4156 H 416.404 -5.67474 -2.2756 0
M  V30 4157 H 420.578 -6.6439 -2.08708 0
M  V30 4158 H 418.205 -7.34381 -1.96441 0
M  V30 4159 N 419.78 1.02168 -1.19998 0
M  V30 4160 C 421.028 1.75338 -1.00504 0
M  V30 4161 C 421.349 1.89387 0.464506 0
M  V30 4162 O 420.619 1.43268 1.33608 0
M  V30 4163 H 419.199 0.649564 -0.368885 0
M  V30 4164 H 421.861 1.23205 -1.51018 0
M  V30 4165 H 420.957 2.75892 -1.45912 0
M  V30 4166 N 421.258 1.00505 1.21394 0
M  V30 4167 C 422.483 0.706367 1.95001 0
M  V30 4168 C 422.908 -0.72463 1.73582 0
M  V30 4169 O 422.266 -1.49702 1.0227 0
M  V30 4170 C 422.314 1.03299 3.45487 0
M  V30 4171 O 421.418 0.138275 4.12168 0
M  V30 4172 H 420.759 0.263175 0.609619 0
M  V30 4173 H 423.289 1.34531 1.54151 0
M  V30 4174 H 423.299 0.979872 3.96059 0
M  V30 4175 H 421.974 2.07567 3.60401 0
M  V30 4176 H 420.551 0.247928 3.72075 0
M  V30 4177 N 422.737 -1.36956 0.779787 0
M  V30 4178 C 424.014 -1.93697 0.272156 0
M  V30 4179 C 424.394 -1.71267 -1.23413 0
M  V30 4180 O 423.742 -1.06607 -2.02107 0
M  V30 4181 C 423.952 -3.42812 0.654291 0
M  V30 4182 C 425.3 -4.19921 0.628602 0
M  V30 4183 O 426.324 -3.51209 0.594172 0
M  V30 4184 O 425.183 -5.42465 0.662864 0
M  V30 4185 H 422.277 -0.824447 0.0649286 0
M  V30 4186 H 424.823 -1.46196 0.861682 0
M  V30 4187 H 423.595 -3.52754 1.69353 0
M  V30 4188 H 423.218 -3.97582 0.0381369 0
M  V30 4189 N 424.215 -0.530993 -1.48385 0
M  V30 4190 C 425.463 0.00273189 -2.021 0
M  V30 4191 C 425.784 1.34672 -1.41027 0
M  V30 4192 O 425.054 1.8724 -0.576012 0
M  V30 4193 H 423.634 0.00399774 -0.746989 0
M  V30 4194 H 426.296 -0.695054 -1.82085 0
M  V30 4195 H 425.392 0.11031 -3.11905 0
M  V30 4196 N 425.693 1.55336 -0.266172 0
M  V30 4197 C 426.941 1.99003 0.35246 0
M  V30 4198 C 427.262 1.15591 1.57047 0
M  V30 4199 O 426.532 0.243268 1.94384 0
M  V30 4200 H 425.112 0.735025 0.133217 0
M  V30 4201 H 427.774 1.91367 -0.369434 0
M  V30 4202 H 426.87 3.05289 0.648453 0
M  V30 4203 N 427.171 -0.0066808 1.57599 0
M  V30 4204 C 428.081 -1.01671 2.11424 0
M  V30 4205 C 429.097 -1.38143 1.05795 0
M  V30 4206 O 430.273 -1.47011 1.37658 0
M  V30 4207 C 427.338 -2.29192 2.60139 0
M  V30 4208 C 426.399 -1.99094 3.80342 0
M  V30 4209 C 425.632 -3.20535 4.26724 0
M  V30 4210 O 425.855 -4.3199 3.72479 0
M  V30 4211 O 424.789 -3.04924 5.18946 0
M  V30 4212 H 428.615 -0.589181 2.9793 0
M  V30 4213 H 426.2 -0.225091 1.47695 0
M  V30 4214 H 428.082 -3.0412 2.917 0
M  V30 4215 H 426.757 -2.71195 1.76733 0
M  V30 4216 H 425.664 -1.21663 3.53764 0
M  V30 4217 H 426.997 -1.61931 4.648 0
M  V30 4218 N 428.649 -1.55105 -0.279332 0
M  V30 4219 C 429.596 -1.8755 -1.34513 0
M  V30 4220 C 430.566 -0.726384 -1.49375 0
M  V30 4221 O 431.751 -0.977063 -1.63884 0
M  V30 4222 C 428.891 -2.14738 -2.70151 0
M  V30 4223 C 428.004 -3.42285 -2.63562 0
M  V30 4224 C 427.139 -3.59206 -3.91337 0
M  V30 4225 C 426.178 -4.80467 -3.79233 0
M  V30 4226 N 425.315 -4.94079 -4.98829 0
M  V30 4227 H 430.155 -2.78456 -1.06143 0
M  V30 4228 H 427.692 -1.37867 -0.512936 0
M  V30 4229 H 429.65 -2.28501 -3.49061 0
M  V30 4230 H 428.28 -1.27075 -2.96735 0
M  V30 4231 H 427.332 -3.37029 -1.76397 0
M  V30 4232 H 428.644 -4.31328 -2.50515 0
M  V30 4233 H 427.798 -3.72751 -4.78687 0
M  V30 4234 H 426.537 -2.68337 -4.07243 0
M  V30 4235 H 425.542 -4.66932 -2.90266 0
M  V30 4236 H 426.767 -5.72765 -3.64852 0
M  V30 4237 H 424.713 -4.06139 -5.15158 0
M  V30 4238 H 424.63 -5.77156 -4.8829 0
M  V30 4239 H 425.898 -5.12003 -5.8777 0
M  V30 4240 O 430.166 0.425144 -1.55804 0
M  V30 4241 H 430.857 1.07829 -1.60912 0
M  V30 END ATOM
M  V30 BEGIN BOND
M  V30 END BOND
M  V30 END CTAB
M  END
$$$$
