drugbank_target|P9WIE5 Catalase-peroxidase (DB00609; DB00951)
 OpenBabel12092119323D

  0  0  0     0  0            999 V3000
M  V30 BEGIN CTAB
M  V30 COUNTS 11202 11358 0 0 0
M  V30 BEGIN ATOM
M  V30 1 H -0.908 1.98254 -0.117106 0
M  V30 2 N 0 1.576 0 0
M  V30 3 C 0.933 2.03868 1.02534 0
M  V30 4 C 1.911 0.928543 1.3348 0
M  V30 5 O 3.095 1.19667 1.45644 0
M  V30 6 C 0.222 2.43627 2.35294 0
M  V30 7 C -0.732 3.65373 2.2001 0
M  V30 8 S 0.101 5.13292 1.52614 0
M  V30 9 C 1.257 5.56322 2.86805 0
M  V30 10 H 1.49 2.90518 0.631377 0
M  V30 11 H -0.977 1.52953 0.210867 0
M  V30 12 H 0.981 2.67203 3.11629 0
M  V30 13 H -0.358 1.57376 2.7183 0
M  V30 14 H -1.165 3.90944 3.18086 0
M  V30 15 H -1.563 3.418 1.51819 0
M  V30 16 H 0.729 5.58782 3.83104 0
M  V30 17 H 1.672 6.56266 2.65933 0
M  V30 18 H 2.08 4.83886 2.90714 0
M  V30 19 N 1.4781 -0.272755 1.55222 0
M  V30 20 C 2.8891 -0.84378 1.66545 0
M  V30 21 C 3.2401 -1.87035 0.592641 0
M  V30 22 O 2.3651 -2.14761 -0.265818 0
M  V30 23 C 2.9601 -1.53723 3.01918 0
M  V30 24 C 1.5191 -2.05628 3.15268 0
M  V30 25 C 0.6661 -0.898424 2.62343 0
M  V30 26 H 3.6171 -0.0490998 1.58624 0
M  V30 27 H 3.6381 -2.40421 2.94921 0
M  V30 28 H 3.1501 -0.78983 3.79978 0
M  V30 29 H 1.2511 -2.83329 2.41983 0
M  V30 30 H 1.3641 -2.27142 4.21833 0
M  V30 31 H -0.2719 -1.29186 2.19506 0
M  V30 32 H 0.5111 -0.164528 3.42906 0
M  V30 33 N 2.9562 -1.48159 -0.537278 0
M  V30 34 C 3.8662 -1.64807 -1.6696 0
M  V30 35 C 4.8822 -0.530651 -1.65711 0
M  V30 36 O 6.0582 -0.800784 -1.84796 0
M  V30 37 C 3.1232 -1.67708 -3.03438 0
M  V30 38 C 2.1842 -2.91025 -3.156 0
M  V30 39 C 1.4172 -2.93778 -4.45567 0
M  V30 40 O 1.6402 -2.05153 -5.3223 0
M  V30 41 O 0.5742 -3.85868 -4.61941 0
M  V30 42 H 4.4002 -2.6066 -1.55853 0
M  V30 43 H 1.9852 -1.31475 -0.709549 0
M  V30 44 H 3.8672 -1.7218 -3.84619 0
M  V30 45 H 2.5422 -0.750278 -3.14885 0
M  V30 46 H 1.4492 -2.92089 -2.33741 0
M  V30 47 H 2.7822 -3.83065 -3.09066 0
M  V30 48 N 4.4343 0.785586 -1.36625 0
M  V30 49 C 5.3663 1.90711 -1.2713 0
M  V30 50 C 6.3793 1.61688 -0.189986 0
M  V30 51 O 7.5683 1.72864 -0.445014 0
M  V30 52 C 4.6683 3.25611 -0.939713 0
M  V30 53 C 3.8413 3.82385 -2.12369 0
M  V30 54 C 2.9003 4.95732 -1.76456 0
M  V30 55 O 1.9263 5.12047 -2.48589 0
M  V30 56 N 3.1283 5.76258 -0.700492 0
M  V30 57 H 5.8933 1.99376 -2.23762 0
M  V30 58 H 3.4543 0.964041 -1.30069 0
M  V30 59 H 5.4463 3.98937 -0.680554 0
M  V30 60 H 4.0163 3.12538 -0.0624074 0
M  V30 61 H 3.2363 3.01001 -2.54543 0
M  V30 62 H 4.5243 4.17047 -2.9146 0
M  V30 63 H 3.9223 5.65609 -0.101624 0
M  V30 64 H 2.4793 6.4987 -0.501165 0
M  V30 65 N 5.9124 1.20967 1.01018 0
M  V30 66 C 6.8624 0.93182 2.08089 0
M  V30 67 C 7.8464 -0.110898 1.60517 0
M  V30 68 O 9.0384 0.0973392 1.76732 0
M  V30 69 C 6.1674 0.492719 3.39746 0
M  V30 70 C 5.2534 1.56922 3.94 0
M  V30 71 N 5.6444 2.79312 4.21686 0
M  V30 72 C 3.9424 1.43688 4.2222 0
M  V30 73 C 4.6434 3.48797 4.65527 0
M  V30 74 N 3.6194 2.76224 4.68189 0
M  V30 75 H 7.4214 1.86175 2.27412 0
M  V30 76 H 4.9354 1.10463 1.19045 0
M  V30 77 H 6.9324 0.275044 4.15992 0
M  V30 78 H 5.5924 -0.430509 3.21833 0
M  V30 79 H 6.6034 3.15903 4.10397 0
M  V30 80 H 3.2804 0.578548 4.13472 0
M  V30 81 H 4.6704 4.53561 4.95714 0
M  V30 82 N 7.3905 -1.2043 1.01659 0
M  V30 83 C 8.8015 -1.71517 0.737482 0
M  V30 84 C 9.1525 -1.81547 -0.743973 0
M  V30 85 O 8.2775 -1.47803 -1.58061 0
M  V30 86 C 8.8725 -3.11515 1.33206 0
M  V30 87 C 7.4315 -3.59912 1.10183 0
M  V30 88 C 6.5785 -2.37116 1.43776 0
M  V30 89 H 9.5295 -1.05444 1.18606 0
M  V30 90 H 9.5505 -3.73575 0.722636 0
M  V30 91 H 9.0625 -3.04182 2.41028 0
M  V30 92 H 7.1635 -3.72577 0.0412756 0
M  V30 93 H 7.2765 -4.44731 1.78188 0
M  V30 94 H 5.6405 -2.39857 0.856778 0
M  V30 95 H 6.4235 -2.32424 2.52654 0
M  V30 96 N 8.8686 -0.792821 -1.36206 0
M  V30 97 C 10.2796 -0.429513 -1.81692 0
M  V30 98 C 10.6306 1.04695 -1.65932 0
M  V30 99 O 9.7556 1.81256 -1.18218 0
M  V30 100 C 10.3506 -0.772831 -3.29868 0
M  V30 101 C 8.9096 -0.462307 -3.7355 0
M  V30 102 C 8.0566 -1.00569 -2.5842 0
M  V30 103 H 11.0076 -0.985672 -1.24379 0
M  V30 104 H 11.0286 -0.0651928 -3.80444 0
M  V30 105 H 10.5406 -1.84747 -3.41307 0
M  V30 106 H 8.6416 0.604158 -3.67669 0
M  V30 107 H 8.7546 -0.985299 -4.68859 0
M  V30 108 H 7.1186 -0.428734 -2.51066 0
M  V30 109 H 7.9016 -2.08616 -2.72643 0
M  V30 110 N 10.3467 1.47872 -0.545128 0
M  V30 111 C 11.5957 2.01695 -0.0145033 0
M  V30 112 C 11.9087 1.42609 1.33873 0
M  V30 113 O 13.1147 1.88021 1.95858 0
M  V30 114 C 11.5707 3.59892 0.0245068 0
M  V30 115 C 11.1787 4.27966 -1.32475 0
M  V30 116 C 12.9227 4.21507 0.50316 0
M  V30 117 C 10.8297 5.78136 -1.2455 0
M  V30 118 H 9.7597 0.753998 -0.00165172 0
M  V30 119 H 12.4107 1.69985 -0.691175 0
M  V30 120 H 10.7927 3.88509 0.766575 0
M  V30 121 H 11.9667 4.11003 -2.08357 0
M  V30 122 H 10.2817 3.78286 -1.74036 0
M  V30 123 H 12.8787 5.31538 0.580656 0
M  V30 124 H 13.2217 3.87855 1.51243 0
M  V30 125 H 13.7547 3.97376 -0.183681 0
M  V30 126 H 10.4937 6.16388 -2.23039 0
M  V30 127 H 10.0137 5.97469 -0.528282 0
M  V30 128 H 11.6927 6.40099 -0.942488 0
M  V30 129 N 11.8248 0.280983 1.55075 0
M  V30 130 C 13.0528 -0.337293 2.04132 0
M  V30 131 C 13.4678 -1.4903 1.15912 0
M  V30 132 O 12.8248 -1.81606 0.180459 0
M  V30 133 C 12.8758 -0.812706 3.52246 0
M  V30 134 O 12.5968 0.294387 4.3711 0
M  V30 135 C 14.0978 -1.4982 4.17216 0
M  V30 136 H 11.3178 -0.0761638 0.666663 0
M  V30 137 H 13.8618 0.414787 2.00249 0
M  V30 138 H 12.0168 -1.51486 3.56554 0
M  V30 139 H 12.4308 -0.0721325 5.2445 0
M  V30 140 H 13.9048 -1.7822 5.22438 0
M  V30 141 H 14.3818 -2.43168 3.65741 0
M  V30 142 H 14.9878 -0.839742 4.16927 0
M  V30 143 N 13.3029 -1.57598 0.00835791 0
M  V30 144 C 14.2129 -2.12385 -0.996487 0
M  V30 145 C 15.2289 -1.07108 -1.37127 0
M  V30 146 O 16.4049 -1.39055 -1.4569 0
M  V30 147 C 13.4699 -2.62314 -2.26699 0
M  V30 148 C 12.5309 -3.82225 -1.95456 0
M  V30 149 C 11.7639 -4.29763 -3.16449 0
M  V30 150 O 11.9869 -3.76584 -4.28416 0
M  V30 151 O 10.9209 -5.21832 -2.99958 0
M  V30 152 H 14.7469 -2.98479 -0.560725 0
M  V30 153 H 12.3319 -1.47903 -0.210987 0
M  V30 154 H 14.2139 -2.94589 -3.01322 0
M  V30 155 H 12.8889 -1.79313 -2.69497 0
M  V30 156 H 11.7959 -3.54909 -1.18282 0
M  V30 157 H 13.1289 -4.66324 -1.57489 0
M  V30 158 N 14.781 0.264519 -1.55364 0
M  V30 159 C 16.009 1.013 -1.80405 0
M  V30 160 C 16.424 1.79618 -0.581622 0
M  V30 161 O 15.781 1.76879 0.449468 0
M  V30 162 C 15.832 1.96487 -3.03439 0
M  V30 163 O 15.553 1.21341 -4.20961 0
M  V30 164 C 17.054 2.83079 -3.41147 0
M  V30 165 H 14.274 0.298875 -0.600762 0
M  V30 166 H 16.818 0.292736 -2.02394 0
M  V30 167 H 14.973 2.63965 -2.83551 0
M  V30 168 H 15.387 1.85573 -4.90574 0
M  V30 169 H 16.861 3.4565 -4.30384 0
M  V30 170 H 17.338 3.53286 -2.60932 0
M  V30 171 H 17.944 2.2108 -3.63323 0
M  V30 172 N 16.2591 1.48442 0.529413 0
M  V30 173 C 17.4871 1.60151 1.30994 0
M  V30 174 C 17.9021 0.261985 1.86973 0
M  V30 175 O 17.2591 -0.748805 1.66431 0
M  V30 176 C 17.3101 2.64854 2.46038 0
M  V30 177 O 17.0311 3.93608 1.92365 0
M  V30 178 C 18.5321 2.87007 3.37849 0
M  V30 179 H 15.7521 0.539971 0.398338 0
M  V30 180 H 18.2961 1.94273 0.638597 0
M  V30 181 H 16.4511 2.33589 3.09055 0
M  V30 182 H 16.8651 4.51055 2.67675 0
M  V30 183 H 18.3391 3.64068 4.14919 0
M  V30 184 H 18.8161 1.95852 3.93114 0
M  V30 185 H 19.4221 3.19579 2.80623 0
M  V30 186 N 17.7372 -0.778329 1.37039 0
M  V30 187 C 18.9652 -1.56734 1.35063 0
M  V30 188 C 19.3802 -1.88686 -0.0655597 0
M  V30 189 O 18.7372 -1.5096 -1.02554 0
M  V30 190 C 18.7882 -2.88163 2.18276 0
M  V30 191 O 18.5092 -2.57583 3.54376 0
M  V30 192 C 20.0102 -3.82422 2.24206 0
M  V30 193 H 17.2302 -0.485778 0.462883 0
M  V30 194 H 19.7742 -0.965185 1.8029 0
M  V30 195 H 17.9292 -3.44818 1.76576 0
M  V30 196 H 18.3432 -3.41699 3.97922 0
M  V30 197 H 19.8172 -4.71667 2.86765 0
M  V30 198 H 20.2942 -4.21078 1.24861 0
M  V30 199 H 20.9002 -3.31697 2.6619 0
M  V30 200 N 19.2153 -1.21501 -1.00376 0
M  V30 201 C 20.4633 -1.03095 -1.73827 0
M  V30 202 C 20.7843 0.436341 -1.90055 0
M  V30 203 O 20.0543 1.31466 -1.45236 0
M  V30 204 H 18.6343 -0.378487 -0.644016 0
M  V30 205 H 21.2963 -1.52831 -1.20949 0
M  V30 206 H 20.3923 -1.49991 -2.73695 0
M  V30 207 N 20.6934 1.19889 -1.02296 0
M  V30 208 C 21.6564 2.21116 -0.603351 0
M  V30 209 C 22.6564 1.5738 0.329884 0
M  V30 210 O 23.8464 1.73802 0.117702 0
M  V30 211 C 20.9784 3.40696 0.117992 0
M  V30 212 H 22.1714 2.59754 -1.49893 0
M  V30 213 H 19.7244 1.33463 -0.813468 0
M  V30 214 H 20.4594 3.07569 1.0282 0
M  V30 215 H 20.2444 3.88188 -0.552511 0
M  V30 216 H 21.7344 4.15692 0.398696 0
M  V30 217 N 22.1715 0.800033 1.35784 0
M  V30 218 C 23.1345 0.211565 2.28221 0
M  V30 219 C 24.1345 -0.59728 1.49296 0
M  V30 220 O 25.3245 -0.416721 1.69142 0
M  V30 221 C 22.4565 -0.705846 3.33513 0
M  V30 222 H 23.6495 1.02677 2.81776 0
M  V30 223 H 21.2025 0.570211 1.45528 0
M  V30 224 H 21.9375 -1.54498 2.85133 0
M  V30 225 H 21.7225 -0.127655 3.91892 0
M  V30 226 H 23.2125 -1.11211 4.02519 0
M  V30 227 N 23.6496 -1.47581 0.552962 0
M  V30 228 C 24.8746 -2.07378 0.0300593 0
M  V30 229 C 25.2996 -1.40355 -1.25229 0
M  V30 230 O 24.6576 -0.477099 -1.7491 0
M  V30 231 C 24.7056 -3.60274 -0.153231 0
M  V30 232 O 23.8096 -3.94041 -1.21678 0
M  V30 233 H 23.1506 -0.662158 0.0494182 0
M  V30 234 H 25.6806 -1.89662 0.767434 0
M  V30 235 H 25.6906 -4.0633 -0.368761 0
M  V30 236 H 24.3656 -4.08455 0.783397 0
M  V30 237 H 22.9426 -3.59735 -0.982079 0
M  V30 238 N 25.1277 -0.289203 -1.54924 0
M  V30 239 C 26.0757 0.607966 -2.24514 0
M  V30 240 C 27.0697 1.14655 -1.24702 0
M  V30 241 O 28.2757 1.09856 -1.4259 0
M  V30 242 H 24.6507 0.21464 -0.720718 0
M  V30 243 H 26.6217 -0.00164182 -2.984 0
M  V30 244 C 25.3707 1.77406 -2.99036 0
M  V30 245 H 24.6937 1.36884 -3.75637 0
M  V30 246 H 26.1337 2.37814 -3.51028 0
M  V30 247 C 24.5927 2.67107 -2.05318 0
M  V30 248 O 25.1227 3.6787 -1.61353 0
M  V30 249 N 23.3287 2.34582 -1.71521 0
M  V30 250 H 22.8757 1.52688 -2.07471 0
M  V30 251 H 22.8337 2.94867 -1.0909 0
M  V30 252 N 26.6058 1.57591 -0.0167156 0
M  V30 253 C 27.8538 1.90906 0.663285 0
M  V30 254 C 28.1748 0.892509 1.73376 0
M  V30 255 O 27.4448 -0.0677623 1.95783 0
M  V30 256 H 26.0248 0.704637 0.247983 0
M  V30 257 H 28.6868 1.94803 -0.0615909 0
M  V30 258 H 27.7828 2.9116 1.12393 0
M  V30 259 N 28.0839 -0.256276 1.55502 0
M  V30 260 C 29.3239 -0.993081 1.78654 0
M  V30 261 C 29.6879 -1.8288 0.584724 0
M  V30 262 O 30.8889 -2.59665 0.694822 0
M  V30 263 C 29.1599 -1.83856 3.06483 0
M  V30 264 S 30.7189 -2.63573 3.5082 0
M  V30 265 H 27.5369 -0.334199 0.62756 0
M  V30 266 H 30.1389 -0.26184 1.93739 0
M  V30 267 H 28.8429 -1.21414 3.92029 0
M  V30 268 H 28.3739 -2.61271 2.94111 0
M  V30 269 H 30.3889 -3.86312 3.11412 0
M  V30 270 N 29.562 -1.4872 -0.521534 0
M  V30 271 C 30.973 -1.50607 -1.10337 0
M  V30 272 C 31.324 -0.280612 -1.94183 0
M  V30 273 O 30.449 0.611507 -2.0758 0
M  V30 274 C 31.044 -2.72903 -2.00772 0
M  V30 275 C 29.603 -2.77634 -2.54158 0
M  V30 276 C 28.75 -2.44241 -1.31307 0
M  V30 277 H 31.701 -1.55714 -0.306388 0
M  V30 278 H 31.722 -2.519 -2.85178 0
M  V30 279 H 31.234 -3.62077 -1.39721 0
M  V30 280 H 29.335 -1.92689 -3.18907 0
M  V30 281 H 29.448 -3.79283 -2.92714 0
M  V30 282 H 27.812 -1.95577 -1.63161 0
M  V30 283 H 28.595 -3.35666 -0.719943 0
M  V30 284 N 31.0401 0.771051 -1.3745 0
M  V30 285 C 32.2861 1.5319 -1.32894 0
M  V30 286 C 32.6191 1.94008 0.0862511 0
M  V30 287 O 31.8941 1.64124 1.04373 0
M  V30 288 C 32.1771 2.79648 -2.26868 0
M  V30 289 C 32.0301 2.45079 -3.77169 0
M  V30 290 C 33.3491 3.81583 -2.19277 0
M  V30 291 H 30.4681 0.555744 -0.484064 0
M  V30 292 H 33.1101 0.884492 -1.68157 0
M  V30 293 H 31.2601 3.34891 -1.96926 0
M  V30 294 H 32.9321 1.95745 -4.1771 0
M  V30 295 H 31.1751 1.77767 -3.95704 0
M  V30 296 H 31.8461 3.35478 -4.38359 0
M  V30 297 H 34.3221 3.35835 -2.45671 0
M  V30 298 H 33.1981 4.67787 -2.87171 0
M  V30 299 H 33.4591 4.25897 -1.18592 0
M  V30 300 N 32.5182 1.22032 0.997298 0
M  V30 301 C 33.7642 1.04376 1.73878 0
M  V30 302 C 34.0972 -0.420716 1.89588 0
M  V30 303 O 33.3722 -1.31202 1.43583 0
M  V30 304 C 33.6552 1.75047 3.14691 0
M  V30 305 C 33.5082 3.29062 3.06656 0
M  V30 306 C 34.8272 1.49928 4.13775 0
M  V30 307 H 31.9462 0.380578 0.631133 0
M  V30 308 H 34.5882 1.50312 1.16217 0
M  V30 309 H 32.7382 1.35996 3.63919 0
M  V30 310 H 34.4102 3.7753 2.65083 0
M  V30 311 H 32.6532 3.58967 2.43568 0
M  V30 312 H 33.3242 3.73683 4.06282 0
M  V30 313 H 35.8002 1.83842 3.73285 0
M  V30 314 H 34.6762 2.01878 5.10428 0
M  V30 315 H 34.9372 0.430929 4.39995 0
M  V30 316 N 33.9963 -1.19345 1.0293 0
M  V30 317 C 35.2443 -1.88665 0.724574 0
M  V30 318 C 35.5653 -1.80036 -0.749144 0
M  V30 319 O 34.8353 -1.2111 -1.53978 0
M  V30 320 H 33.4153 -0.698406 0.265025 0
M  V30 321 H 36.0773 -1.44885 1.30362 0
M  V30 322 H 35.1733 -2.94987 1.01926 0
M  V30 323 N 35.4744 -0.807222 -1.35358 0
M  V30 324 C 36.4244 -0.190706 -2.27201 0
M  V30 325 C 37.4084 0.635838 -1.47804 0
M  V30 326 O 38.6004 0.492991 -1.69996 0
M  V30 327 C 35.7294 0.659337 -3.36909 0
M  V30 328 C 34.8154 -0.176971 -4.23731 0
M  V30 329 N 35.2064 -1.24029 -4.90357 0
M  V30 330 C 33.5044 0.0412953 -4.45981 0
M  V30 331 C 34.2054 -1.75092 -5.54723 0
M  V30 332 N 33.1814 -1.05727 -5.33219 0
M  V30 333 H 36.9834 -1.0043 -2.76208 0
M  V30 334 H 34.4974 -0.648445 -1.48892 0
M  V30 335 H 36.4944 1.11706 -4.01656 0
M  V30 336 H 35.1544 1.47127 -2.89454 0
M  V30 337 H 36.1654 -1.62295 -4.91814 0
M  V30 338 H 32.8424 0.82232 -4.09322 0
M  V30 339 H 34.2324 -2.63963 -6.17878 0
M  V30 340 N 36.9525 1.47285 -0.560781 0
M  V30 341 C 37.8855 2.27009 0.232821 0
M  V30 342 C 38.8635 1.34273 0.917039 0
M  V30 343 O 40.0475 1.63659 0.935315 0
M  V30 344 C 37.1745 3.11406 1.33206 0
M  V30 345 C 36.2205 4.19746 0.756019 0
M  V30 346 S 37.0535 5.34003 -0.400165 0
M  V30 347 C 38.2095 6.21964 0.700805 0
M  V30 348 H 38.4425 2.93971 -0.443683 0
M  V30 349 H 35.9755 1.50446 -0.347181 0
M  V30 350 H 37.9335 3.60601 1.96156 0
M  V30 351 H 36.5945 2.438 1.98041 0
M  V30 352 H 35.7875 4.78541 1.5816 0
M  V30 353 H 35.3895 3.73451 0.202619 0
M  V30 354 H 37.6815 6.58529 1.59202 0
M  V30 355 H 38.6245 7.07941 0.150126 0
M  V30 356 H 39.0325 5.5566 0.995083 0
M  V30 357 N 38.4306 0.297415 1.54768 0
M  V30 358 C 39.3776 -0.580276 2.23386 0
M  V30 359 C 40.3476 -1.13238 1.21517 0
M  V30 360 O 41.5326 -1.17757 1.50126 0
M  V30 361 C 38.6726 -1.74801 2.97555 0
M  V30 362 C 37.7856 -1.22764 4.1419 0
M  V30 363 C 36.9206 -2.35895 4.75949 0
M  V30 364 C 35.9596 -1.80974 5.84735 0
M  V30 365 N 35.0966 -2.87664 6.40464 0
M  V30 366 H 39.9366 0.0114833 2.97998 0
M  V30 367 H 37.4736 0.0174361 1.4709 0
M  V30 368 H 39.4316 -2.43475 3.38786 0
M  V30 369 H 38.0616 -2.31145 2.25326 0
M  V30 370 H 37.1136 -0.433271 3.77924 0
M  V30 371 H 38.4256 -0.785551 4.92575 0
M  V30 372 H 37.5796 -3.12523 5.20014 0
M  V30 373 H 36.3186 -2.83429 3.96887 0
M  V30 374 H 35.3236 -1.02834 5.40097 0
M  V30 375 H 36.5486 -1.34348 6.65678 0
M  V30 376 H 34.4946 -3.34538 5.64287 0
M  V30 377 H 34.4116 -2.4794 7.14186 0
M  V30 378 H 35.6796 -3.642 6.89187 0
M  V30 379 N 39.9087 -1.5758 0.0250728 0
M  V30 380 C 41.1387 -1.95646 -0.663783 0
M  V30 381 C 41.5467 -0.899935 -1.66427 0
M  V30 382 O 40.8897 0.127191 -1.83259 0
M  V30 383 C 40.9517 -3.29835 -1.43 0
M  V30 384 C 40.6157 -4.53197 -0.588305 0
M  V30 385 C 41.6127 -5.19726 0.13469 0
M  V30 386 C 39.2977 -4.99529 -0.526897 0
M  V30 387 C 41.2917 -6.30902 0.90781 0
M  V30 388 C 38.9787 -6.10589 0.24993 0
M  V30 389 C 39.9767 -6.76134 0.965994 0
M  V30 390 O 39.6647 -7.85062 1.7301 0
M  V30 391 H 39.3967 -0.649282 -0.188174 0
M  V30 392 H 41.9507 -2.05245 0.0799006 0
M  V30 393 H 40.1807 -3.16716 -2.21873 0
M  V30 394 H 41.8697 -3.52833 -2.00658 0
M  V30 395 H 42.6357 -4.84904 0.0965562 0
M  V30 396 H 38.5147 -4.48319 -1.07381 0
M  V30 397 H 42.0587 -6.81995 1.46724 0
M  V30 398 H 37.9557 -6.44849 0.289795 0
M  V30 399 H 38.7237 -8.01708 1.64944 0
M  V30 400 N 41.3868 0.248026 -1.55636 0
M  V30 401 C 42.7978 0.817177 -1.67866 0
M  V30 402 C 43.1488 1.86069 -0.622322 0
M  V30 403 O 42.2738 2.15157 0.231618 0
M  V30 404 C 42.8688 1.489 -3.04326 0
M  V30 405 C 41.4278 2.00587 -3.185 0
M  V30 406 C 40.5748 0.856573 -2.63739 0
M  V30 407 H 43.5258 0.0238579 -1.58682 0
M  V30 408 H 43.5468 2.35698 -2.98708 0
M  V30 409 H 43.0588 0.729279 -3.81186 0
M  V30 410 H 41.1598 2.79443 -2.4646 0
M  V30 411 H 41.2728 2.20402 -4.25393 0
M  V30 412 H 39.6368 1.25678 -2.21534 0
M  V30 413 H 40.4198 0.109953 -3.43124 0
M  V30 414 N 42.8649 1.48995 0.513639 0
M  V30 415 C 44.1109 1.58076 1.27042 0
M  V30 416 C 44.4439 0.261026 1.92438 0
M  V30 417 O 43.7189 -0.734393 1.80103 0
M  V30 418 C 44.0019 2.73091 2.34719 0
M  V30 419 C 43.8549 4.14821 1.73907 0
M  V30 420 C 45.1739 2.83796 3.36375 0
M  V30 421 H 42.2929 0.575391 0.460536 0
M  V30 422 H 44.9349 1.81232 0.570516 0
M  V30 423 H 43.0849 2.53479 2.94416 0
M  V30 424 H 44.7569 4.45917 1.18135 0
M  V30 425 H 42.9999 4.21058 1.0437 0
M  V30 426 H 43.6709 4.91147 2.51949 0
M  V30 427 H 46.1469 3.01611 2.86653 0
M  V30 428 H 45.0229 3.65971 4.09093 0
M  V30 429 H 45.2839 1.92624 3.9793 0
M  V30 430 N 44.343 -0.763751 1.37857 0
M  V30 431 C 45.253 -1.90817 1.36478 0
M  V30 432 C 46.269 -1.71997 0.263248 0
M  V30 433 O 47.445 -1.95095 0.499979 0
M  V30 434 C 44.51 -3.2605 1.17864 0
M  V30 435 C 43.571 -3.57467 2.3773 0
M  V30 436 C 42.804 -4.86249 2.19995 0
M  V30 437 O 43.027 -5.57884 1.18836 0
M  V30 438 O 41.961 -5.16911 3.08361 0
M  V30 439 H 45.787 -1.94933 2.32884 0
M  V30 440 H 43.372 -0.907619 1.1867 0
M  V30 441 H 45.254 -4.06924 1.09504 0
M  V30 442 H 43.929 -3.22769 0.245372 0
M  V30 443 H 42.836 -2.76796 2.51664 0
M  V30 444 H 44.169 -3.655 3.29652 0
M  V30 445 N 45.8211 -1.22559 -0.990812 0
M  V30 446 C 47.0691 -1.04933 -1.72724 0
M  V30 447 C 47.3901 0.416158 -1.90508 0
M  V30 448 O 46.6601 1.29918 -1.46622 0
M  V30 449 H 45.2401 -0.385296 -0.639965 0
M  V30 450 H 47.9021 -1.54105 -1.19322 0
M  V30 451 H 46.9981 -1.52886 -2.72089 0
M  V30 452 N 47.2992 1.18797 -1.03562 0
M  V30 453 C 48.5472 1.88278 -0.734569 0
M  V30 454 C 48.8682 1.8043 0.739586 0
M  V30 455 O 48.1382 1.21925 1.53333 0
M  V30 456 H 46.7182 0.696991 -0.268725 0
M  V30 457 H 49.3802 1.44192 -1.31129 0
M  V30 458 H 48.4762 2.94443 -1.03489 0
M  V30 459 N 48.7773 0.814389 1.34928 0
M  V30 460 C 50.0253 0.397636 1.9815 0
M  V30 461 C 50.3463 -1.04069 1.64908 0
M  V30 462 O 49.6163 -1.72121 0.93548 0
M  V30 463 H 48.1963 0.144043 0.732981 0
M  V30 464 H 50.8583 1.04195 1.6471 0
M  V30 465 H 49.9543 0.509688 3.0791 0
M  V30 466 N 50.2554 -1.46986 0.568584 0
M  V30 467 C 51.2034 -2.31858 -0.185649 0
M  V30 468 C 52.1974 -1.43624 -0.898249 0
M  V30 469 O 53.4034 -1.60327 -0.818242 0
M  V30 470 H 49.7784 -0.747866 -0.0787399 0
M  V30 471 H 51.7494 -2.93303 0.549191 0
M  V30 472 C 50.4984 -3.26513 -1.19519 0
M  V30 473 H 49.8214 -3.94377 -0.656285 0
M  V30 474 H 51.2614 -3.88707 -1.6936 0
M  V30 475 C 49.7204 -2.50847 -2.24894 0
M  V30 476 O 50.2504 -2.26119 -3.32014 0
M  V30 477 N 48.4564 -2.11656 -1.99124 0
M  V30 478 H 48.0034 -2.31966 -1.12024 0
M  V30 479 H 47.9614 -1.61347 -2.69842 0
M  V30 480 N 51.7335 -0.305618 -1.54608 0
M  V30 481 C 52.6655 0.602161 -2.21149 0
M  V30 482 C 53.6785 1.09394 -1.20569 0
M  V30 483 O 54.8675 1.0106 -1.47136 0
M  V30 484 C 51.9675 1.83692 -2.84799 0
M  V30 485 C 51.1405 1.48686 -4.11353 0
M  V30 486 C 50.1995 2.57725 -4.58764 0
M  V30 487 O 49.2255 2.22623 -5.23858 0
M  V30 488 N 50.4275 3.88346 -4.31471 0
M  V30 489 H 53.1925 0.0324966 -2.99682 0
M  V30 490 H 50.7535 -0.128021 -1.61393 0
M  V30 491 H 52.7455 2.55994 -3.13448 0
M  V30 492 H 51.3155 2.31486 -2.10078 0
M  V30 493 H 50.5355 0.596269 -3.89664 0
M  V30 494 H 51.8235 1.22842 -4.93748 0
M  V30 495 H 51.2215 4.19671 -3.79331 0
M  V30 496 H 49.7785 4.56932 -4.64818 0
M  V30 497 N 53.2116 1.57565 -0.0334293 0
M  V30 498 C 54.4886 1.83282 0.683163 0
M  V30 499 C 54.8686 0.91823 1.90084 0
M  V30 500 O 54.2166 -0.025113 2.28486 0
M  V30 501 C 54.4266 3.32599 1.0573 0
M  V30 502 C 55.7746 3.99179 1.44711 0
M  V30 503 O 56.7986 3.3712 1.15015 0
M  V30 504 O 55.6576 5.08565 2.0006 0
M  V30 505 H 52.7516 0.755869 0.335546 0
M  V30 506 H 55.2976 1.69589 -0.0614402 0
M  V30 507 H 54.0696 3.90834 0.190828 0
M  V30 508 H 53.6926 3.51415 1.85993 0
M  V30 509 N 54.6897 -0.239769 1.55765 0
M  V30 510 C 55.9357 -0.963942 1.79108 0
M  V30 511 C 56.2907 -1.82689 0.60352 0
M  V30 512 O 55.5837 -1.87313 -0.403033 0
M  V30 513 C 55.7777 -1.852 3.05672 0
M  V30 514 C 55.6067 -1.07651 4.36625 0
M  V30 515 C 54.3767 -0.778738 4.99263 0
M  V30 516 C 56.5747 -0.45062 5.12322 0
M  V30 517 N 54.5567 0.0200708 6.13897 0
M  V30 518 C 55.9277 0.212429 6.19636 0
M  V30 519 C 57.9827 -0.361806 4.96584 0
M  V30 520 C 56.6857 0.955772 7.12922 0
M  V30 521 C 58.7117 0.368023 5.90254 0
M  V30 522 C 58.0737 1.01968 6.96981 0
M  V30 523 H 54.1727 -0.333601 0.707272 0
M  V30 524 H 56.7567 -0.236425 1.93259 0
M  V30 525 H 54.9277 -2.55149 2.92837 0
M  V30 526 H 56.6597 -2.51228 3.1728 0
M  V30 527 H 53.4147 -1.09229 4.60832 0
M  V30 528 H 53.8387 0.407777 6.75771 0
M  V30 529 H 58.4807 -0.851286 4.14141 0
M  V30 530 H 56.1987 1.45683 7.9486 0
M  V30 531 H 59.7847 0.437504 5.80153 0
M  V30 532 H 58.6647 1.5754 7.68213 0
M  V30 533 N 56.1678 -1.49265 -0.50573 0
M  V30 534 C 57.4138 -1.59723 -1.25937 0
M  V30 535 C 57.7688 -0.278236 -1.90378 0
M  V30 536 O 57.0618 0.72113 -1.77511 0
M  V30 537 C 57.2558 -2.69008 -2.35308 0
M  V30 538 C 57.0848 -4.11405 -1.81592 0
M  V30 539 C 55.8548 -4.78252 -1.63105 0
M  V30 540 C 58.0528 -4.96792 -1.33048 0
M  V30 541 N 56.0348 -6.0498 -1.04269 0
M  V30 542 C 57.4058 -6.13962 -0.863168 0
M  V30 543 C 59.4608 -4.82828 -1.21577 0
M  V30 544 C 58.1638 -7.18705 -0.292489 0
M  V30 545 C 60.1898 -5.87716 -0.65907 0
M  V30 546 C 59.5518 -7.0411 -0.201954 0
M  V30 547 H 55.6508 -0.638864 -0.450973 0
M  V30 548 H 58.2348 -1.86251 -0.567326 0
M  V30 549 H 56.4058 -2.4426 -3.01979 0
M  V30 550 H 58.1378 -2.69013 -3.02348 0
M  V30 551 H 54.8928 -4.34974 -1.87336 0
M  V30 552 H 55.3168 -6.72631 -0.767919 0
M  V30 553 H 59.9588 -3.93159 -1.55518 0
M  V30 554 H 57.6768 -8.08078 0.0591987 0
M  V30 555 H 61.2628 -5.7897 -0.573156 0
M  V30 556 H 60.1428 -7.83885 0.222101 0
M  V30 557 N 57.6459 0.756429 -1.3826 0
M  V30 558 C 59.0569 1.33359 -1.30661 0
M  V30 559 C 59.4079 1.96161 0.0388875 0
M  V30 560 O 58.5329 1.94874 0.940918 0
M  V30 561 C 59.1279 2.42477 -2.36622 0
M  V30 562 C 57.6869 2.95922 -2.3261 0
M  V30 563 C 56.8339 1.69275 -2.19639 0
M  V30 564 H 59.7849 0.55552 -1.4866 0
M  V30 565 H 59.8059 3.22345 -2.02174 0
M  V30 566 H 59.3179 1.96739 -3.34538 0
M  V30 567 H 57.4189 3.45996 -1.38267 0
M  V30 568 H 57.5319 3.50494 -3.26636 0
M  V30 569 H 55.8959 1.92793 -1.66442 0
M  V30 570 H 56.6789 1.25619 -3.19491 0
M  V30 571 N 59.124 1.23083 0.984299 0
M  V30 572 C 60.072 1.00593 2.09723 0
M  V30 573 C 61.066 -0.0538014 1.69315 0
M  V30 574 O 62.272 0.0993719 1.79725 0
M  V30 575 H 58.647 0.30817 0.685956 0
M  V30 576 H 60.618 1.95012 2.2586 0
M  V30 577 C 59.367 0.609601 3.42314 0
M  V30 578 H 58.69 1.41675 3.73856 0
M  V30 579 H 60.13 0.491726 4.21139 0
M  V30 580 C 58.589 -0.681745 3.2993 0
M  V30 581 O 59.119 -1.73192 3.62446 0
M  V30 582 N 57.325 -0.656178 2.83095 0
M  V30 583 H 56.872 0.198759 2.56832 0
M  V30 584 H 56.83 -1.52044 2.75191 0
M  V30 585 N 60.6021 -1.18246 1.0419 0
M  V30 586 C 62.0181 -1.40269 0.761366 0
M  V30 587 C 62.2181 -1.90777 -0.648578 0
M  V30 588 O 61.2741 -2.0929 -1.41258 0
M  V30 589 C 62.5871 -2.40237 1.8085 0
M  V30 590 C 64.1351 -2.53961 1.82955 0
M  V30 591 C 64.6101 -3.57194 2.86664 0
M  V30 592 N 66.1011 -3.64702 2.85563 0
M  V30 593 C 66.8361 -4.44309 3.6246 0
M  V30 594 N 66.3321 -5.27514 4.49111 0
M  V30 595 N 68.1251 -4.39084 3.50944 0
M  V30 596 H 60.2761 -0.837882 1.95175 0
M  V30 597 H 62.5391 -0.430608 0.84456 0
M  V30 598 H 62.2451 -2.10176 2.81991 0
M  V30 599 H 62.1191 -3.39601 1.64168 0
M  V30 600 H 64.5061 -2.83338 0.824855 0
M  V30 601 H 64.5871 -1.54706 2.03715 0
M  V30 602 H 64.2311 -3.28558 3.87314 0
M  V30 603 H 64.1611 -4.5613 2.6316 0
M  V30 604 H 66.6521 -3.05289 2.22727 0
M  V30 605 H 66.9651 -5.85411 5.04493 0
M  V30 606 H 65.3101 -5.2693 4.53178 0
M  V30 607 H 68.5011 -3.7313 2.82651 0
M  V30 608 H 68.6741 -5.00883 4.11121 0
M  V30 609 N 62.0802 -0.821533 -1.34494 0
M  V30 610 C 63.0102 -0.257138 -2.3208 0
M  V30 611 C 63.9912 0.625645 -1.58176 0
M  V30 612 O 65.1762 0.552811 -1.86166 0
M  V30 613 C 62.3062 0.582958 -3.42372 0
M  V30 614 C 61.2602 -0.202571 -4.2752 0
M  V30 615 C 60.5862 0.760179 -5.29269 0
M  V30 616 C 61.8862 -1.40998 -5.02908 0
M  V30 617 H 63.5802 -1.07247 -2.79532 0
M  V30 618 H 61.1262 -0.517163 -1.34393 0
M  V30 619 H 63.0792 0.987972 -4.09655 0
M  V30 620 H 61.8032 1.43133 -2.93565 0
M  V30 621 H 60.4622 -0.588936 -3.61838 0
M  V30 622 H 60.1102 1.60447 -4.76724 0
M  V30 623 H 59.8102 0.238809 -5.87115 0
M  V30 624 H 61.3342 1.16308 -5.9942 0
M  V30 625 H 62.7482 -1.07905 -5.63054 0
M  V30 626 H 61.1452 -1.86689 -5.70322 0
M  V30 627 H 62.2152 -2.1889 -4.32684 0
M  V30 628 N 63.5583 1.46682 -0.576371 0
M  V30 629 C 64.5063 2.31953 0.17335 0
M  V30 630 C 65.5003 1.44098 0.89062 0
M  V30 631 O 66.7063 1.60759 0.809728 0
M  V30 632 H 63.0813 0.748273 0.0747727 0
M  V30 633 H 65.0523 2.93007 -0.564738 0
M  V30 634 C 63.8013 3.27142 1.17786 0
M  V30 635 H 63.1243 3.94719 0.635361 0
M  V30 636 H 64.5643 3.896 1.67296 0
M  V30 637 C 63.0233 2.52036 2.23561 0
M  V30 638 O 63.5533 2.27877 3.3081 0
M  V30 639 N 61.7593 2.12709 1.97998 0
M  V30 640 H 61.3063 2.32557 1.10792 0
M  V30 641 H 61.2643 1.62776 2.68982 0
M  V30 642 N 65.0364 0.313813 1.54444 0
M  V30 643 C 65.9664 -0.549454 2.26943 0
M  V30 644 C 66.9474 -1.12741 1.27372 0
M  V30 645 O 68.1324 -1.15436 1.56167 0
M  V30 646 C 65.2624 -1.71523 3.01989 0
M  V30 647 C 64.2164 -1.26703 4.08816 0
M  V30 648 C 63.5424 -2.51898 4.71647 0
M  V30 649 C 64.8424 -0.388962 5.2085 0
M  V30 650 H 66.5364 0.0552661 2.99349 0
M  V30 651 H 64.0824 0.0280207 1.43973 0
M  V30 652 H 66.0354 -2.32535 3.51433 0
M  V30 653 H 64.7594 -2.34639 2.27183 0
M  V30 654 H 63.4184 -0.679896 3.6024 0
M  V30 655 H 63.0664 -3.13356 3.93468 0
M  V30 656 H 62.7664 -2.22605 5.43802 0
M  V30 657 H 64.2904 -3.1369 5.23861 0
M  V30 658 H 65.7044 -0.905107 5.6611 0
M  V30 659 H 64.1014 -0.18924 5.99802 0
M  V30 660 H 65.1714 0.582699 4.81386 0
M  V30 661 N 66.5145 -1.57545 0.0417849 0
M  V30 662 C 67.4615 -2.10977 -0.935805 0
M  V30 663 C 68.4315 -1.01486 -1.31491 0
M  V30 664 O 69.6165 -1.2898 -1.40602 0
M  V30 665 C 66.7565 -2.65169 -2.2086 0
M  V30 666 C 65.8695 -3.88714 -1.88482 0
M  V30 667 C 65.0045 -4.31254 -3.1015 0
M  V30 668 C 64.0435 -5.47524 -2.7365 0
M  V30 669 N 63.1805 -5.85162 -3.87982 0
M  V30 670 H 68.0205 -2.94218 -0.473249 0
M  V30 671 H 65.5575 -1.45415 -0.221981 0
M  V30 672 H 67.5155 -2.94685 -2.95325 0
M  V30 673 H 66.1455 -1.8474 -2.64709 0
M  V30 674 H 65.1975 -3.65849 -1.04205 0
M  V30 675 H 66.5095 -4.73245 -1.57608 0
M  V30 676 H 65.6635 -4.62273 -3.92923 0
M  V30 677 H 64.4025 -3.45516 -3.44195 0
M  V30 678 H 63.4075 -5.16187 -1.89291 0
M  V30 679 H 64.6325 -6.34971 -2.40807 0
M  V30 680 H 62.5785 -5.02377 -4.21846 0
M  V30 681 H 62.4955 -6.64362 -3.60775 0
M  V30 682 H 63.7635 -6.20791 -4.71422 0
M  V30 683 N 67.9926 0.231505 -1.5589 0
M  V30 684 C 69.2386 0.95877 -1.78705 0
M  V30 685 C 69.5716 1.8438 -0.609725 0
M  V30 686 O 68.8466 1.90521 0.391426 0
M  V30 687 C 69.1296 1.8062 -3.11526 0
M  V30 688 C 68.9826 0.948328 -4.39689 0
M  V30 689 C 70.3016 2.78585 -3.40703 0
M  V30 690 H 67.4206 0.347129 -0.650131 0
M  V30 691 H 70.0626 0.228259 -1.88624 0
M  V30 692 H 68.2126 2.42902 -3.03201 0
M  V30 693 H 69.8846 0.343016 -4.60023 0
M  V30 694 H 68.1276 0.253314 -4.3306 0
M  V30 695 H 68.7986 1.57543 -5.29041 0
M  V30 696 H 71.2746 2.26439 -3.49091 0
M  V30 697 H 70.1506 3.34988 -4.34826 0
M  V30 698 H 70.4116 3.55825 -2.62375 0
M  V30 699 N 69.4707 1.49531 0.497807 0
M  V30 700 C 70.4007 1.6935 1.60757 0
M  V30 701 C 71.3817 0.542218 1.61227 0
M  V30 702 O 72.5667 0.778417 1.77917 0
M  V30 703 C 69.6967 1.76298 2.99226 0
M  V30 704 C 68.6507 2.91248 3.13622 0
M  V30 705 C 67.9767 2.83312 4.53474 0
M  V30 706 C 69.2767 4.3214 2.93346 0
M  V30 707 H 70.9707 2.62263 1.44425 0
M  V30 708 H 68.5167 1.26208 0.693367 0
M  V30 709 H 70.4697 1.88749 3.76765 0
M  V30 710 H 69.1937 0.799871 3.16654 0
M  V30 711 H 67.8527 2.78404 2.38509 0
M  V30 712 H 67.5007 1.84902 4.67782 0
M  V30 713 H 67.2007 3.60465 4.64046 0
M  V30 714 H 68.7247 2.97775 5.33069 0
M  V30 715 H 70.1387 4.45649 3.60652 0
M  V30 716 H 68.5357 5.1054 3.15387 0
M  V30 717 H 69.6057 4.46363 1.89441 0
M  V30 718 N 70.9488 -0.749086 1.3866 0
M  V30 719 C 71.8988 -1.85368 1.32751 0
M  V30 720 C 72.8828 -1.59511 0.210945 0
M  V30 721 O 74.0748 -1.71255 0.447299 0
M  V30 722 C 71.2038 -3.23131 1.15935 0
M  V30 723 C 70.2898 -3.54864 2.32233 0
M  V30 724 N 70.6808 -3.57625 3.57684 0
M  V30 725 C 68.9788 -3.85154 2.24883 0
M  V30 726 C 69.6798 -3.86753 4.34508 0
M  V30 727 N 68.6558 -4.03812 3.63918 0
M  V30 728 H 72.4578 -1.85787 2.27729 0
M  V30 729 H 69.9718 -0.946658 1.31955 0
M  V30 730 H 71.9688 -4.02185 1.09786 0
M  V30 731 H 70.6288 -3.23961 0.218947 0
M  V30 732 H 71.6398 -3.39276 3.91295 0
M  V30 733 H 68.3168 -3.93672 1.39027 0
M  V30 734 H 69.7068 -3.95474 5.43185 0
M  V30 735 N 72.4269 -1.23603 -0.977757 0
M  V30 736 C 73.3589 -0.977369 -2.07317 0
M  V30 737 C 74.3719 0.0495845 -1.62724 0
M  V30 738 O 75.5609 -0.186261 -1.77526 0
M  V30 739 C 72.6609 -0.451216 -3.35883 0
M  V30 740 C 71.8339 -1.53896 -4.09432 0
M  V30 741 C 70.8929 -1.01721 -5.16274 0
M  V30 742 O 69.9189 -1.70676 -5.43009 0
M  V30 743 N 71.1209 0.153594 -5.80297 0
M  V30 744 H 73.8859 -1.92047 -2.30082 0
M  V30 745 H 71.4469 -1.14497 -1.14465 0
M  V30 746 H 73.4389 -0.0871574 -4.04606 0
M  V30 747 H 72.0089 0.397368 -3.10064 0
M  V30 748 H 71.2289 -2.07566 -3.35127 0
M  V30 749 H 72.5169 -2.27037 -4.55337 0
M  V30 750 H 71.9149 0.730323 -5.60966 0
M  V30 751 H 70.4719 0.458892 -6.50183 0
M  V30 752 N 73.905 1.17692 -1.04816 0
M  V30 753 C 74.853 2.23632 -0.63966 0
M  V30 754 C 75.847 1.6601 0.337219 0
M  V30 755 O 77.053 1.78844 0.203693 0
M  V30 756 H 73.428 0.727949 -0.188665 0
M  V30 757 H 75.399 2.55387 -1.54337 0
M  V30 758 C 74.148 3.4769 -0.0264051 0
M  V30 759 H 73.471 3.92331 -0.769164 0
M  V30 760 H 74.911 4.23418 0.222098 0
M  V30 761 C 73.37 3.13807 1.22584 0
M  V30 762 O 73.9 3.28236 2.31569 0
M  V30 763 N 72.106 2.68065 1.12202 0
M  V30 764 H 71.653 2.56525 0.235133 0
M  V30 765 H 71.611 2.45767 1.96076 0
M  V30 766 N 75.3831 0.828654 1.34056 0
M  V30 767 C 76.7941 0.477534 1.8049 0
M  V30 768 C 77.1451 -1.00258 1.6865 0
M  V30 769 O 76.2701 -1.78057 1.22982 0
M  V30 770 C 76.8651 0.860018 3.27703 0
M  V30 771 C 75.4241 0.561185 3.72193 0
M  V30 772 C 74.5711 1.07385 2.55663 0
M  V30 773 H 77.5221 1.0183 1.21722 0
M  V30 774 H 77.5431 0.166038 3.80138 0
M  V30 775 H 77.0551 1.93731 3.36288 0
M  V30 776 H 75.1561 -0.506465 3.69142 0
M  V30 777 H 75.2691 1.10926 4.66082 0
M  V30 778 H 73.6331 0.495149 2.49841 0
M  V30 779 H 74.4161 2.15771 2.67016 0
M  V30 780 N 76.8612 -1.46375 0.584142 0
M  V30 781 C 77.8242 -2.28784 -0.138108 0
M  V30 782 C 78.8242 -1.38471 -0.817462 0
M  V30 783 O 80.0142 -1.60833 -0.669199 0
M  V30 784 C 77.1462 -3.18892 -1.20503 0
M  V30 785 H 78.3392 -2.94117 0.586127 0
M  V30 786 H 75.8922 -1.52509 0.342171 0
M  V30 787 H 76.6272 -2.58309 -1.96079 0
M  V30 788 H 76.4122 -3.85388 -0.722384 0
M  V30 789 H 77.9022 -3.80914 -1.71155 0
M  V30 790 N 78.3393 -0.321999 -1.54275 0
M  V30 791 C 79.5853 0.281461 -2.00837 0
M  V30 792 C 79.9183 1.51909 -1.20985 0
M  V30 793 O 79.1933 1.923 -0.291733 0
M  V30 794 C 79.4763 0.617162 -3.54772 0
M  V30 795 C 79.3293 -0.631064 -4.45351 0
M  V30 796 C 80.6483 1.43542 -4.16033 0
M  V30 797 H 77.7673 0.100826 -0.730071 0
M  V30 798 H 80.4093 -0.438268 -1.84876 0
M  V30 799 H 78.5593 1.23034 -3.68504 0
M  V30 800 H 80.2313 -1.26934 -4.43492 0
M  V30 801 H 78.4743 -1.26025 -4.15091 0
M  V30 802 H 79.1453 -0.351735 -5.50878 0
M  V30 803 H 81.6213 0.917134 -4.05867 0
M  V30 804 H 80.4973 1.63907 -5.23856 0
M  V30 805 H 80.7583 2.43108 -3.69257 0
M  V30 806 N 79.8174 1.5752 -0.0501392 0
M  V30 807 C 80.7804 2.1037 0.909786 0
M  V30 808 C 81.7804 1.02308 1.24056 0
M  V30 809 O 82.9704 1.28385 1.17741 0
M  V30 810 C 80.1024 2.58708 2.21998 0
M  V30 811 H 81.2954 2.96479 0.451665 0
M  V30 812 H 78.8484 1.55038 0.198248 0
M  V30 813 H 79.5834 1.75989 2.72394 0
M  V30 814 H 79.3684 3.37675 1.99295 0
M  V30 815 H 80.8584 2.99747 2.9076 0
M  V30 816 N 81.2955 -0.223234 1.56011 0
M  V30 817 C 82.5725 -0.972108 1.69733 0
M  V30 818 C 82.9525 -2.02485 0.59691 0
M  V30 819 O 82.3005 -2.25037 -0.396324 0
M  V30 820 C 82.5105 -1.58407 3.10979 0
M  V30 821 C 83.8585 -2.07696 3.70334 0
M  V30 822 O 84.8825 -1.68304 3.1393 0
M  V30 823 O 83.7415 -2.80096 4.69264 0
M  V30 824 H 80.8355 -0.453993 0.691245 0
M  V30 825 H 83.3815 -0.215149 1.68331 0
M  V30 826 H 82.1535 -0.823831 3.82529 0
M  V30 827 H 81.7765 -2.40661 3.16493 0
M  V30 828 N 82.7736 -1.49793 -0.48987 0
M  V30 829 C 84.1846 -1.52914 -1.07118 0
M  V30 830 C 84.5356 -0.321738 -1.93544 0
M  V30 831 O 83.6606 0.567338 -2.08831 0
M  V30 832 C 84.2556 -2.771 -1.94938 0
M  V30 833 C 82.8146 -2.82963 -2.48212 0
M  V30 834 C 81.9616 -2.46972 -1.26096 0
M  V30 835 H 84.9126 -1.56329 -0.273289 0
M  V30 836 H 84.9336 -2.57892 -2.79771 0
M  V30 837 H 84.4456 -3.64959 -1.32009 0
M  V30 838 H 82.5466 -1.99411 -3.14748 0
M  V30 839 H 82.6596 -3.85406 -2.84603 0
M  V30 840 H 81.0236 -1.98994 -1.58976 0
M  V30 841 H 81.8066 -3.37118 -0.648581 0
M  V30 842 N 84.2517 0.741722 -1.39055 0
M  V30 843 C 85.1847 1.86416 -1.31622 0
M  V30 844 C 86.1627 1.61473 -0.191076 0
M  V30 845 O 87.3467 1.84825 -0.370399 0
M  V30 846 C 84.4737 3.22266 -1.04221 0
M  V30 847 C 83.5197 3.66079 -2.18834 0
M  V30 848 S 84.3527 3.7623 -3.81066 0
M  V30 849 C 85.5087 5.14881 -3.55877 0
M  V30 850 H 85.7417 1.92437 -2.26617 0
M  V30 851 H 83.2747 0.905907 -1.25031 0
M  V30 852 H 85.2327 4.00714 -0.890964 0
M  V30 853 H 83.8937 3.1391 -0.109237 0
M  V30 854 H 83.0867 4.64648 -1.95238 0
M  V30 855 H 82.6887 2.94817 -2.30128 0
M  V30 856 H 84.9807 6.01006 -3.12726 0
M  V30 857 H 85.9237 5.43503 -4.53884 0
M  V30 858 H 86.3317 4.84239 -2.90126 0
M  V30 859 N 85.7298 1.2412 0.971189 0
M  V30 860 C 86.9778 1.07668 1.71032 0
M  V30 861 C 87.2988 -0.385797 1.91146 0
M  V30 862 O 86.5688 -1.27569 1.4867 0
M  V30 863 H 85.1488 0.395429 0.633755 0
M  V30 864 H 87.8108 1.55984 1.16855 0
M  V30 865 H 86.9068 1.57195 2.69622 0
M  V30 866 N 87.2079 -1.17134 1.05439 0
M  V30 867 C 88.1709 -2.19439 0.661764 0
M  V30 868 C 89.1709 -1.58199 -0.288042 0
M  V30 869 O 90.3609 -1.74053 -0.0715803 0
M  V30 870 C 87.4929 -3.40889 -0.0276209 0
M  V30 871 H 88.6859 -2.55688 1.56728 0
M  V30 872 H 86.2389 -1.31259 0.848567 0
M  V30 873 H 86.9739 -3.10187 -0.94629 0
M  V30 874 H 86.7589 -3.86586 0.655238 0
M  V30 875 H 88.2489 -4.16603 -0.288342 0
M  V30 876 N 88.686 -0.835752 -1.33615 0
M  V30 877 C 89.649 -0.272 -2.2758 0
M  V30 878 C 90.649 0.557487 -1.50827 0
M  V30 879 O 91.839 0.37173 -1.70188 0
M  V30 880 C 88.971 0.617173 -3.35267 0
M  V30 881 H 90.164 -1.10111 -2.78954 0
M  V30 882 H 87.717 -0.608594 -1.43965 0
M  V30 883 H 88.452 1.46884 -2.89129 0
M  V30 884 H 88.237 0.0237066 -3.92093 0
M  V30 885 H 89.727 1.005 -4.05326 0
M  V30 886 N 90.1641 1.46063 -0.591896 0
M  V30 887 C 91.4111 2.02338 -0.0809991 0
M  V30 888 C 91.7391 1.46228 1.28249 0
M  V30 889 O 90.9941 0.620818 1.85592 0
M  V30 890 C 91.2931 3.57391 0.0249813 0
M  V30 891 C 90.9591 4.32583 -1.27211 0
M  V30 892 C 89.6211 4.52844 -1.62745 0
M  V30 893 C 91.9731 4.75687 -2.13005 0
M  V30 894 C 89.3011 5.13462 -2.83855 0
M  V30 895 C 91.6531 5.37644 -3.3335 0
M  V30 896 C 90.3171 5.5613 -3.69155 0
M  V30 897 H 89.5871 0.740407 -0.0296397 0
M  V30 898 H 92.2341 1.75321 -0.770374 0
M  V30 899 H 90.5391 3.83597 0.797537 0
M  V30 900 H 92.2361 3.98621 0.436184 0
M  V30 901 H 88.8261 4.17116 -0.985499 0
M  V30 902 H 93.0101 4.59782 -1.86855 0
M  V30 903 H 88.2661 5.25965 -3.11722 0
M  V30 904 H 92.4401 5.7 -4.00092 0
M  V30 905 H 90.0671 6.0287 -4.63089 0
M  V30 906 N 91.6422 0.330177 1.54103 0
M  V30 907 C 92.9192 -0.325007 1.92881 0
M  V30 908 C 93.2992 -1.6934 1.26045 0
M  V30 909 O 92.6472 -2.24855 0.406526 0
M  V30 910 C 92.8572 -0.410634 3.46576 0
M  V30 911 C 94.2052 -0.667801 4.19316 0
M  V30 912 O 95.2292 -0.49329 3.52768 0
M  V30 913 O 94.0882 -1.00491 5.37181 0
M  V30 914 H 91.1822 -0.186873 0.80561 0
M  V30 915 H 93.7282 0.380376 1.65382 0
M  V30 916 H 92.5002 0.550164 3.87413 0
M  V30 917 H 92.1232 -1.16333 3.802 0
M  V30 918 N 93.1203 -1.57491 0.0584922 0
M  V30 919 C 94.3503 -1.9701 -0.622134 0
M  V30 920 C 94.7583 -0.935034 -1.6448 0
M  V30 921 O 94.1013 0.0882904 -1.83488 0
M  V30 922 C 94.1633 -3.32794 -1.35972 0
M  V30 923 C 93.8273 -4.54343 -0.492043 0
M  V30 924 C 94.8243 -5.19323 0.244901 0
M  V30 925 C 92.5093 -5.00534 -0.420821 0
M  V30 926 C 94.5033 -6.28835 1.04143 0
M  V30 927 C 92.1903 -6.09921 0.379389 0
M  V30 928 C 93.1883 -6.73933 1.10919 0
M  V30 929 O 92.8763 -7.81216 1.89623 0
M  V30 930 H 92.6083 -0.653127 -0.174359 0
M  V30 931 H 95.1623 -2.05029 0.123418 0
M  V30 932 H 93.3923 -3.21351 -2.15105 0
M  V30 933 H 95.0813 -3.5701 -1.93129 0
M  V30 934 H 95.8473 -4.8459 0.19939 0
M  V30 935 H 91.7263 -4.50496 -0.978474 0
M  V30 936 H 95.2703 -6.7873 1.61157 0
M  V30 937 H 91.1673 -6.44089 0.426512 0
M  V30 938 H 91.9353 -7.98029 1.81913 0
M  V30 939 N 94.5984 0.214957 -1.56127 0
M  V30 940 C 95.5614 1.24997 -1.92116 0
M  V30 941 C 96.5614 1.39467 -0.800344 0
M  V30 942 O 97.7514 1.37619 -1.06802 0
M  V30 943 C 94.8834 2.62271 -2.17777 0
M  V30 944 H 96.0764 0.942875 -2.84693 0
M  V30 945 H 93.6294 0.455654 -1.49511 0
M  V30 946 H 94.3644 2.98068 -1.27773 0
M  V30 947 H 94.1494 2.53143 -2.99434 0
M  V30 948 H 95.6394 3.36946 -2.46693 0
M  V30 949 N 96.0765 1.50051 0.48192 0
M  V30 950 C 97.0395 1.67584 1.5636 0
M  V30 951 C 98.0395 0.546894 1.51214 0
M  V30 952 O 99.2295 0.813725 1.54026 0
M  V30 953 C 96.3615 1.691 2.96003 0
M  V30 954 H 97.5545 2.64078 1.42136 0
M  V30 955 H 95.1075 1.39369 0.707533 0
M  V30 956 H 95.8425 0.742589 3.15684 0
M  V30 957 H 95.6275 2.51105 3.01146 0
M  V30 958 H 97.1175 1.84656 3.74556 0
M  V30 959 N 97.5546 -0.734337 1.39446 0
M  V30 960 C 98.4646 -1.87879 1.40495 0
M  V30 961 C 99.4806 -1.714 0.299672 0
M  V30 962 O 100.657 -1.93991 0.541249 0
M  V30 963 C 97.7216 -3.23477 1.24754 0
M  V30 964 C 96.7826 -3.52344 2.45259 0
M  V30 965 C 96.0156 -4.81473 2.30259 0
M  V30 966 O 96.2386 -5.55237 1.30643 0
M  V30 967 O 95.1726 -5.10254 3.19256 0
M  V30 968 H 98.9986 -1.89949 2.36966 0
M  V30 969 H 96.5836 -0.882243 1.20569 0
M  V30 970 H 98.4656 -4.04509 1.18111 0
M  V30 971 H 97.1406 -3.22176 0.313781 0
M  V30 972 H 96.0476 -2.71396 2.57478 0
M  V30 973 H 97.3806 -3.58426 3.37331 0
M  V30 974 N 99.0327 -1.24633 -0.964593 0
M  V30 975 C 100.279 -1.08949 -1.71049 0
M  V30 976 C 100.612 0.370302 -1.90637 0
M  V30 977 O 99.8867 1.27349 -1.47011 0
M  V30 978 C 100.17 -1.83329 -3.0994 0
M  V30 979 C 100.023 -3.37077 -2.97824 0
M  V30 980 C 101.342 -1.60846 -4.09654 0
M  V30 981 H 98.4607 -0.397178 -0.620821 0
M  V30 982 H 101.103 -1.5334 -1.12191 0
M  V30 983 H 99.2527 -1.45597 -3.60186 0
M  V30 984 H 100.925 -3.84425 -2.5498 0
M  V30 985 H 99.1677 -3.65298 -2.33965 0
M  V30 986 H 99.8387 -3.84324 -3.96231 0
M  V30 987 H 102.315 -1.93674 -3.68279 0
M  V30 988 H 101.191 -2.1534 -5.04896 0
M  V30 989 H 101.452 -0.547434 -4.38698 0
M  V30 990 N 100.511 1.16574 -1.06058 0
M  V30 991 C 101.474 2.19085 -0.673392 0
M  V30 992 C 102.474 1.5835 0.279648 0
M  V30 993 O 103.664 1.74088 0.0623488 0
M  V30 994 C 100.796 3.40899 0.00954234 0
M  V30 995 H 101.989 2.54853 -1.58081 0
M  V30 996 H 99.5418 1.30808 -0.855516 0
M  V30 997 H 100.277 3.10684 0.929826 0
M  V30 998 H 100.062 3.86233 -0.67573 0
M  V30 999 H 101.552 4.1675 0.266245 0
M  V30 1000 N 101.989 0.842826 1.3317 0
M  V30 1001 C 103.217 0.454055 2.01856 0
M  V30 1002 C 103.632 -0.94587 1.63397 0
M  V30 1003 O 102.989 -1.61534 0.849302 0
M  V30 1004 C 103.04 0.569715 3.56982 0
M  V30 1005 O 102.761 1.91448 3.94055 0
M  V30 1006 C 104.262 0.178412 4.42941 0
M  V30 1007 H 101.482 0.17979 0.646465 0
M  V30 1008 H 104.026 1.1365 1.70012 0
M  V30 1009 H 102.181 -0.0648587 3.87346 0
M  V30 1010 H 102.595 1.90282 4.88767 0
M  V30 1011 H 104.069 0.310376 5.51127 0
M  V30 1012 H 104.546 -0.880056 4.30293 0
M  V30 1013 H 105.152 0.787579 4.17944 0
M  V30 1014 N 103.467 -1.45747 0.599634 0
M  V30 1015 C 104.716 -2.01502 0.0893511 0
M  V30 1016 C 105.029 -1.4748 -1.28488 0
M  V30 1017 O 106.235 -1.95161 -1.88745 0
M  V30 1018 C 104.691 -3.59735 0.109082 0
M  V30 1019 C 104.299 -4.22754 1.48267 0
M  V30 1020 C 106.043 -4.23085 -0.346374 0
M  V30 1021 C 103.95 -5.73115 1.45921 0
M  V30 1022 H 102.88 -0.753417 0.0296347 0
M  V30 1023 H 105.531 -1.67303 0.753788 0
M  V30 1024 H 103.913 -3.91087 -0.621854 0
M  V30 1025 H 105.087 -4.02987 2.23468 0
M  V30 1026 H 103.402 -3.71567 1.87955 0
M  V30 1027 H 105.999 -5.33327 -0.38298 0
M  V30 1028 H 106.342 -3.93201 -1.36743 0
M  V30 1029 H 106.875 -3.9642 0.331038 0
M  V30 1030 H 103.614 -6.07685 2.45762 0
M  V30 1031 H 103.134 -5.95097 0.749665 0
M  V30 1032 H 104.813 -6.3616 1.17941 0
M  V30 1033 N 104.945 -0.338344 -1.53925 0
M  V30 1034 C 106.222 0.314774 -1.93051 0
M  V30 1035 C 106.602 1.68669 -1.26941 0
M  V30 1036 O 105.95 2.24636 -0.418445 0
M  V30 1037 C 106.16 0.392249 -3.46789 0
M  V30 1038 C 107.508 0.645554 -4.19664 0
M  V30 1039 O 108.532 0.474575 -3.53024 0
M  V30 1040 O 107.391 0.976408 -5.37707 0
M  V30 1041 H 104.485 0.182598 -0.80659 0
M  V30 1042 H 107.031 -0.389141 -1.65178 0
M  V30 1043 H 105.803 -0.570702 -3.87116 0
M  V30 1044 H 105.426 1.14316 -3.80812 0
M  V30 1045 N 106.423 1.57458 -0.0668435 0
M  V30 1046 C 107.669 1.93587 0.6043 0
M  V30 1047 C 108.002 0.946722 1.69561 0
M  V30 1048 O 107.277 -0.0248516 1.94484 0
M  V30 1049 C 107.56 3.40014 1.18585 0
M  V30 1050 C 107.413 4.49685 0.101529 0
M  V30 1051 C 108.732 3.87154 2.09284 0
M  V30 1052 H 105.851 0.703958 0.218202 0
M  V30 1053 H 108.493 1.89542 -0.131804 0
M  V30 1054 H 106.643 3.43592 1.81319 0
M  V30 1055 H 108.315 4.5823 -0.531279 0
M  V30 1056 H 106.558 4.30059 -0.568487 0
M  V30 1057 H 107.229 5.49266 0.54874 0
M  V30 1058 H 109.705 3.85551 1.56491 0
M  V30 1059 H 108.581 4.90231 2.46911 0
M  V30 1060 H 108.842 3.2481 2.99918 0
M  V30 1061 N 107.901 -0.206675 1.56239 0
M  V30 1062 C 109.178 -0.954051 1.70755 0
M  V30 1063 C 109.558 -2.01841 0.618353 0
M  V30 1064 O 108.906 -2.25444 -0.372434 0
M  V30 1065 C 109.116 -1.551 3.12642 0
M  V30 1066 C 110.464 -2.03757 3.72516 0
M  V30 1067 O 111.488 -1.64965 3.15698 0
M  V30 1068 O 110.347 -2.75103 4.72208 0
M  V30 1069 H 107.441 -0.446636 0.696021 0
M  V30 1070 H 109.987 -0.197283 1.68549 0
M  V30 1071 H 108.759 -0.783212 3.83382 0
M  V30 1072 H 108.382 -2.37291 3.19028 0
M  V30 1073 N 109.379 -1.50304 -0.473955 0
M  V30 1074 C 110.342 -1.6841 -1.55469 0
M  V30 1075 C 111.342 -0.554905 -1.50922 0
M  V30 1076 O 112.532 -0.821882 -1.53593 0
M  V30 1077 C 109.664 -1.70667 -2.95102 0
M  V30 1078 H 110.857 -2.64828 -1.40733 0
M  V30 1079 H 108.41 -1.39742 -0.700132 0
M  V30 1080 H 109.145 -0.75932 -3.15285 0
M  V30 1081 H 108.93 -2.52698 -2.9981 0
M  V30 1082 H 110.42 -1.8664 -3.73571 0
M  V30 1083 N 110.857 0.726932 -1.39834 0
M  V30 1084 C 111.787 1.85405 -1.41941 0
M  V30 1085 C 112.768 1.67751 -0.281728 0
M  V30 1086 O 113.953 1.8795 -0.488717 0
M  V30 1087 C 111.083 3.23243 -1.2701 0
M  V30 1088 C 110.037 3.55549 -2.38262 0
M  V30 1089 C 109.363 4.9241 -2.08415 0
M  V30 1090 C 110.663 3.577 -3.80589 0
M  V30 1091 H 112.357 1.83899 -2.36266 0
M  V30 1092 H 109.903 0.883349 -1.13723 0
M  V30 1093 H 111.856 4.01775 -1.27103 0
M  V30 1094 H 110.58 3.25296 -0.291564 0
M  V30 1095 H 109.239 2.79351 -2.37399 0
M  V30 1096 H 108.887 4.91052 -1.0898 0
M  V30 1097 H 108.587 5.14992 -2.82943 0
M  V30 1098 H 110.111 5.73289 -2.10171 0
M  V30 1099 H 111.525 4.26293 -3.83337 0
M  V30 1100 H 109.922 3.91804 -4.54543 0
M  V30 1101 H 110.992 2.57328 -4.10987 0
M  V30 1102 N 112.336 1.25143 0.95797 0
M  V30 1103 C 113.564 1.12424 1.73691 0
M  V30 1104 C 113.979 -0.322304 1.86029 0
M  V30 1105 O 113.336 -1.22186 1.35561 0
M  V30 1106 C 113.387 1.76933 3.15241 0
M  V30 1107 O 113.108 3.15932 3.03511 0
M  V30 1108 C 114.609 1.6995 4.09429 0
M  V30 1109 H 111.829 0.3923 0.544373 0
M  V30 1110 H 114.373 1.6544 1.20207 0
M  V30 1111 H 112.528 1.27895 3.6568 0
M  V30 1112 H 112.942 3.47598 3.9278 0
M  V30 1113 H 114.416 2.19753 5.06372 0
M  V30 1114 H 114.893 0.662619 4.34173 0
M  V30 1115 H 115.499 2.18461 3.64904 0
M  V30 1116 N 113.814 -1.1601 1.06675 0
M  V30 1117 C 115.23 -1.38622 0.790948 0
M  V30 1118 C 115.43 -1.92109 -0.607965 0
M  V30 1119 O 114.486 -2.12239 -1.36787 0
M  V30 1120 C 115.799 -2.36347 1.85905 0
M  V30 1121 C 117.347 -2.50023 1.88301 0
M  V30 1122 C 117.822 -3.51033 2.94176 0
M  V30 1123 N 119.313 -3.58563 2.93235 0
M  V30 1124 C 120.048 -4.36521 3.71803 0
M  V30 1125 N 119.544 -5.17869 4.602 0
M  V30 1126 N 121.337 -4.31541 3.60178 0
M  V30 1127 H 113.488 -0.796294 1.96908 0
M  V30 1128 H 115.751 -0.412597 0.853503 0
M  V30 1129 H 115.457 -2.04147 2.86386 0
M  V30 1130 H 115.331 -3.36042 1.71334 0
M  V30 1131 H 117.718 -2.81524 0.884769 0
M  V30 1132 H 117.799 -1.5035 2.06951 0
M  V30 1133 H 117.443 -3.20268 3.94196 0
M  V30 1134 H 117.373 -4.50445 2.72776 0
M  V30 1135 H 119.864 -3.00496 2.29152 0
M  V30 1136 H 120.177 -5.74578 5.16797 0
M  V30 1137 H 118.522 -5.17199 4.64253 0
M  V30 1138 H 121.713 -3.67051 2.90502 0
M  V30 1139 H 121.886 -4.9205 4.21653 0
M  V30 1140 N 115.292 -0.849877 -1.32721 0
M  V30 1141 C 116.569 -0.372405 -1.92022 0
M  V30 1142 C 116.949 1.1435 -1.77447 0
M  V30 1143 O 116.297 1.96296 -1.16962 0
M  V30 1144 C 116.507 -0.831482 -3.3895 0
M  V30 1145 C 117.855 -0.845882 -4.16089 0
M  V30 1146 O 118.879 -0.775806 -3.47649 0
M  V30 1147 O 117.738 -0.943753 -5.38289 0
M  V30 1148 H 114.832 -0.107667 -0.819961 0
M  V30 1149 H 117.378 -0.93646 -1.41522 0
M  V30 1150 H 116.15 -1.87448 -3.4348 0
M  V30 1151 H 115.773 -0.24461 -3.96847 0
M  V30 1152 N 116.77 1.45427 -0.607355 0
M  V30 1153 C 118.019 2.01452 -0.100036 0
M  V30 1154 C 118.332 1.48159 1.27704 0
M  V30 1155 O 119.538 1.96159 1.87707 0
M  V30 1156 C 117.994 3.59672 -0.128158 0
M  V30 1157 C 117.602 4.21962 -1.50507 0
M  V30 1158 C 119.346 4.23262 0.323932 0
M  V30 1159 C 117.253 5.72333 -1.48959 0
M  V30 1160 H 116.183 0.75325 -0.0336299 0
M  V30 1161 H 118.834 1.66901 -0.76265 0
M  V30 1162 H 117.216 3.91411 0.601105 0
M  V30 1163 H 118.39 4.01796 -2.25602 0
M  V30 1164 H 116.705 3.70565 -1.89923 0
M  V30 1165 H 119.302 5.33522 0.354691 0
M  V30 1166 H 119.645 3.93921 1.34656 0
M  V30 1167 H 120.178 3.96239 -0.352056 0
M  V30 1168 H 116.917 6.06373 -2.48981 0
M  V30 1169 H 116.437 5.94691 -0.781214 0
M  V30 1170 H 118.116 6.35525 -1.21313 0
M  V30 1171 N 118.248 0.346503 1.53744 0
M  V30 1172 C 119.158 -0.517293 2.28826 0
M  V30 1173 C 120.174 -1.10935 1.3405 0
M  V30 1174 O 121.35 -1.1244 1.6709 0
M  V30 1175 C 118.415 -1.65098 3.04866 0
M  V30 1176 C 117.476 -1.0884 4.15274 0
M  V30 1177 C 116.709 -2.16806 4.87679 0
M  V30 1178 O 116.932 -3.3758 4.59778 0
M  V30 1179 O 115.866 -1.80934 5.74061 0
M  V30 1180 H 119.692 0.0931396 3.03557 0
M  V30 1181 H 117.277 0.111458 1.48984 0
M  V30 1182 H 119.159 -2.31053 3.5241 0
M  V30 1183 H 117.834 -2.24717 2.32989 0
M  V30 1184 H 116.741 -0.3933 3.72027 0
M  V30 1185 H 118.074 -0.537036 4.89261 0
M  V30 1186 N 119.726 -1.57421 0.075193 0
M  V30 1187 C 120.636 -2.1642 -0.905511 0
M  V30 1188 C 121.652 -1.12828 -1.32461 0
M  V30 1189 O 122.828 -1.45109 -1.39661 0
M  V30 1190 C 119.893 -2.71693 -2.15369 0
M  V30 1191 C 118.954 -3.90171 -1.79068 0
M  V30 1192 C 118.187 -4.42798 -2.97936 0
M  V30 1193 O 118.41 -3.94416 -4.12058 0
M  V30 1194 O 117.344 -5.34085 -2.77555 0
M  V30 1195 H 121.17 -3.00588 -0.433626 0
M  V30 1196 H 118.755 -1.48664 -0.148067 0
M  V30 1197 H 120.637 -3.07104 -2.88557 0
M  V30 1198 H 119.312 -1.90582 -2.61649 0
M  V30 1199 H 118.219 -3.59606 -1.03122 0
M  V30 1200 H 119.552 -4.72584 -1.37569 0
M  V30 1201 N 121.204 0.198386 -1.56346 0
M  V30 1202 C 122.45 0.920648 -1.80698 0
M  V30 1203 C 122.783 1.83045 -0.648697 0
M  V30 1204 O 122.058 1.91308 0.350925 0
M  V30 1205 C 122.341 1.73971 -3.15287 0
M  V30 1206 C 122.194 0.85485 -4.41602 0
M  V30 1207 C 123.513 2.71296 -3.46535 0
M  V30 1208 H 120.632 0.333261 -0.657348 0
M  V30 1209 H 123.274 0.188198 -1.89066 0
M  V30 1210 H 121.424 2.36416 -3.08285 0
M  V30 1211 H 123.096 0.245362 -4.60647 0
M  V30 1212 H 121.339 0.161398 -4.335 0
M  V30 1213 H 122.01 1.46286 -5.32264 0
M  V30 1214 H 124.486 2.18983 -3.53816 0
M  V30 1215 H 123.362 3.2569 -4.41834 0
M  V30 1216 H 123.623 3.5018 -2.69864 0
M  V30 1217 N 122.682 1.50554 0.465978 0
M  V30 1218 C 123.615 1.64436 1.58227 0
M  V30 1219 C 124.593 0.492367 1.54966 0
M  V30 1220 O 125.777 0.712536 1.74514 0
M  V30 1221 C 122.904 1.63165 2.96808 0
M  V30 1222 C 121.95 2.83987 3.18204 0
M  V30 1223 S 122.783 4.45219 2.97557 0
M  V30 1224 C 123.939 4.46649 4.3847 0
M  V30 1225 H 124.172 2.58861 1.46213 0
M  V30 1226 H 121.705 1.3988 0.653678 0
M  V30 1227 H 123.663 1.63116 3.76701 0
M  V30 1228 H 122.324 0.69967 3.06208 0
M  V30 1229 H 121.517 2.79416 4.19455 0
M  V30 1230 H 121.119 2.81629 2.46092 0
M  V30 1231 H 123.411 4.20526 5.31191 0
M  V30 1232 H 124.354 5.48295 4.48082 0
M  V30 1233 H 124.762 3.76296 4.20787 0
M  V30 1234 N 124.16 -0.719506 1.40217 0
M  V30 1235 C 125.388 -1.50864 1.41589 0
M  V30 1236 C 125.803 -1.88794 0.0145275 0
M  V30 1237 O 125.16 -1.55174 -0.960594 0
M  V30 1238 C 125.211 -2.78646 2.30302 0
M  V30 1239 O 124.932 -2.42321 3.64983 0
M  V30 1240 C 126.433 -3.72569 2.40224 0
M  V30 1241 H 123.653 -0.465709 0.48307 0
M  V30 1242 H 126.197 -0.88785 1.84221 0
M  V30 1243 H 124.352 -3.37019 1.91042 0
M  V30 1244 H 124.766 -3.24514 4.12057 0
M  V30 1245 H 126.24 -4.5908 3.06512 0
M  V30 1246 H 126.717 -4.15403 1.42608 0
M  V30 1247 H 127.323 -3.20109 2.80019 0
M  V30 1248 N 125.638 -1.25649 -0.95132 0
M  V30 1249 C 126.866 -1.13343 -1.73092 0
M  V30 1250 C 127.281 0.312434 -1.86197 0
M  V30 1251 O 126.638 1.21465 -1.36207 0
M  V30 1252 C 126.689 -1.78602 -3.14299 0
M  V30 1253 O 126.41 -3.17537 -3.01831 0
M  V30 1254 C 127.911 -1.72119 -4.08522 0
M  V30 1255 H 125.131 -0.395181 -0.542285 0
M  V30 1256 H 127.675 -1.66076 -1.19328 0
M  V30 1257 H 125.83 -1.29832 -3.64996 0
M  V30 1258 H 126.244 -3.49676 -3.90931 0
M  V30 1259 H 127.718 -2.22435 -5.052 0
M  V30 1260 H 128.195 -0.685635 -4.33815 0
M  V30 1261 H 128.801 -2.20393 -3.63741 0
M  V30 1262 N 127.117 1.15442 -1.07289 0
M  V30 1263 C 128.342 1.90638 -0.816828 0
M  V30 1264 C 128.767 1.77445 0.624083 0
M  V30 1265 O 128.125 1.10671 1.43602 0
M  V30 1266 C 128.173 3.39008 -1.22906 0
M  V30 1267 O 127.277 4.10701 -0.373975 0
M  V30 1268 H 126.618 0.593555 -0.297638 0
M  V30 1269 H 129.148 1.46198 -1.43134 0
M  V30 1270 H 129.158 3.89801 -1.20497 0
M  V30 1271 H 127.833 3.47929 -2.27856 0
M  V30 1272 H 126.41 3.70046 -0.460499 0
M  V30 1273 N 128.595 0.856903 1.32268 0
M  V30 1274 C 129.527 0.260412 2.27716 0
M  V30 1275 C 130.54 -0.569137 1.52528 0
M  V30 1276 O 131.729 -0.39326 1.74114 0
M  V30 1277 C 128.829 -0.650477 3.32599 0
M  V30 1278 C 128.002 0.14372 4.37164 0
M  V30 1279 C 127.061 -0.69328 5.21613 0
M  V30 1280 O 126.087 -0.12599 5.69061 0
M  V30 1281 N 127.289 -2.00761 5.44679 0
M  V30 1282 H 130.054 1.08059 2.79541 0
M  V30 1283 H 127.615 0.717103 1.45152 0
M  V30 1284 H 129.607 -1.21581 3.86005 0
M  V30 1285 H 128.177 -1.37133 2.80915 0
M  V30 1286 H 127.397 0.890486 3.8401 0
M  V30 1287 H 128.685 0.68915 5.04111 0
M  V30 1288 H 128.083 -2.49181 5.07863 0
M  V30 1289 H 126.64 -2.52103 6.01072 0
M  V30 1290 N 130.073 -1.45103 0.615059 0
M  V30 1291 C 131.484 -1.85654 0.197383 0
M  V30 1292 C 131.835 -1.51433 -1.24749 0
M  V30 1293 O 130.96 -0.944608 -1.94695 0
M  V30 1294 C 131.555 -3.36972 0.351448 0
M  V30 1295 C 130.114 -3.76398 -0.011593 0
M  V30 1296 C 129.261 -2.69024 0.672394 0
M  V30 1297 H 132.212 -1.35797 0.821263 0
M  V30 1298 H 132.233 -3.78239 -0.414227 0
M  V30 1299 H 131.745 -3.61847 1.40314 0
M  V30 1300 H 129.846 -3.5714 -1.06217 0
M  V30 1301 H 129.959 -4.77532 0.387265 0
M  V30 1302 H 128.323 -2.54465 0.109284 0
M  V30 1303 H 129.106 -2.96735 1.72636 0
M  V30 1304 N 131.551 -0.354651 -1.53558 0
M  V30 1305 C 132.797 0.231422 -2.02079 0
M  V30 1306 C 133.152 1.47308 -1.23767 0
M  V30 1307 O 132.445 1.8891 -0.319947 0
M  V30 1308 C 132.639 0.587121 -3.52545 0
M  V30 1309 C 132.468 -0.618513 -4.45426 0
M  V30 1310 C 131.238 -1.12724 -4.92566 0
M  V30 1311 C 133.436 -1.48039 -4.92533 0
M  V30 1312 N 131.418 -2.29404 -5.69427 0
M  V30 1313 C 132.789 -2.49397 -5.67628 0
M  V30 1314 C 134.844 -1.50454 -4.74624 0
M  V30 1315 C 133.547 -3.53013 -6.26717 0
M  V30 1316 C 135.573 -2.52958 -5.34571 0
M  V30 1317 C 134.935 -3.5304 -6.09543 0
M  V30 1318 H 131.034 0.0476909 -0.780544 0
M  V30 1319 H 133.618 -0.496727 -1.88257 0
M  V30 1320 H 131.789 1.28436 -3.6655 0
M  V30 1321 H 133.521 1.15734 -3.87799 0
M  V30 1322 H 130.276 -0.693577 -4.68494 0
M  V30 1323 H 130.7 -2.88347 -6.12524 0
M  V30 1324 H 135.342 -0.744356 -4.16196 0
M  V30 1325 H 133.06 -4.2992 -6.84247 0
M  V30 1326 H 136.646 -2.55667 -5.22614 0
M  V30 1327 H 135.526 -4.31056 -6.55103 0
M  V30 1328 N 133.029 1.57378 -0.0835403 0
M  V30 1329 C 134.275 1.95025 0.577664 0
M  V30 1330 C 134.63 0.964049 1.66505 0
M  V30 1331 O 133.923 -0.0118235 1.91596 0
M  V30 1332 C 134.117 3.37063 1.1884 0
M  V30 1333 C 133.946 4.49409 0.16171 0
M  V30 1334 C 132.716 5.04642 -0.257756 0
M  V30 1335 C 134.914 5.10722 -0.605634 0
M  V30 1336 N 132.896 6.00537 -1.27393 0
M  V30 1337 C 134.267 6.02225 -1.47395 0
M  V30 1338 C 136.322 4.93501 -0.660418 0
M  V30 1339 C 135.025 6.78355 -2.39221 0
M  V30 1340 C 137.051 5.70283 -1.56623 0
M  V30 1341 C 136.413 6.61444 -2.4222 0
M  V30 1342 H 132.512 0.760512 0.182058 0
M  V30 1343 H 135.096 1.94013 -0.163419 0
M  V30 1344 H 133.267 3.3879 1.89936 0
M  V30 1345 H 134.999 3.61917 1.81103 0
M  V30 1346 H 131.754 4.73428 0.127702 0
M  V30 1347 H 132.178 6.53184 -1.77987 0
M  V30 1348 H 136.82 4.22798 -0.0128221 0
M  V30 1349 H 134.538 7.48327 -3.05011 0
M  V30 1350 H 138.124 5.58976 -1.61361 0
M  V30 1351 H 137.004 7.1982 -3.11174 0
M  V30 1352 N 134.507 -0.190092 1.56449 0
M  V30 1353 C 135.918 -0.754312 1.70784 0
M  V30 1354 C 136.269 -1.83631 0.690951 0
M  V30 1355 O 135.394 -2.15868 -0.151604 0
M  V30 1356 C 135.989 -1.37503 3.09642 0
M  V30 1357 C 134.548 -1.88628 3.25725 0
M  V30 1358 C 133.695 -0.758098 2.66736 0
M  V30 1359 H 136.646 0.0350524 1.58661 0
M  V30 1360 H 136.667 -2.2445 3.0725 0
M  V30 1361 H 136.179 -0.587302 3.83631 0
M  V30 1362 H 134.28 -2.70103 2.56661 0
M  V30 1363 H 134.393 -2.04462 4.3328 0
M  V30 1364 H 132.757 -1.17369 2.26046 0
M  V30 1365 H 133.54 0.0174705 3.43296 0
M  V30 1366 N 135.985 -1.50799 -0.457987 0
M  V30 1367 C 136.948 -1.7005 -1.53674 0
M  V30 1368 C 137.948 -0.570881 -1.50325 0
M  V30 1369 O 139.138 -0.838126 -1.52712 0
M  V30 1370 C 136.27 -1.73788 -2.93276 0
M  V30 1371 H 137.463 -2.66306 -1.37917 0
M  V30 1372 H 135.016 -1.40477 -0.685271 0
M  V30 1373 H 135.751 -0.792717 -3.14462 0
M  V30 1374 H 135.536 -2.55864 -2.97113 0
M  V30 1375 H 137.026 -1.90591 -3.71571 0
M  V30 1376 N 137.463 0.71206 -1.40597 0
M  V30 1377 C 138.74 1.46536 -1.29563 0
M  V30 1378 C 139.12 2.10931 0.0844217 0
M  V30 1379 O 138.468 2.00418 1.0975 0
M  V30 1380 C 138.678 2.49821 -2.43701 0
M  V30 1381 C 140.026 3.15551 -2.841 0
M  V30 1382 O 141.05 2.60142 -2.4332 0
M  V30 1383 O 139.909 4.15867 -3.54566 0
M  V30 1384 H 137.003 0.651801 -0.509004 0
M  V30 1385 H 139.549 0.743935 -1.52524 0
M  V30 1386 H 138.321 2.00778 -3.35863 0
M  V30 1387 H 137.944 3.29495 -2.22528 0
M  V30 1388 N 138.941 1.26152 0.944643 0
M  V30 1389 C 140.171 1.14094 1.72239 0
M  V30 1390 C 140.579 -0.306931 1.86694 0
M  V30 1391 O 139.922 -1.22222 1.3714 0
M  V30 1392 C 139.984 1.73316 3.14963 0
M  V30 1393 C 139.648 3.2239 3.23904 0
M  V30 1394 C 140.645 4.19252 3.07447 0
M  V30 1395 C 138.33 3.62788 3.47405 0
M  V30 1396 C 140.324 5.54491 3.14353 0
M  V30 1397 C 138.011 4.98162 3.53947 0
M  V30 1398 C 139.009 5.93823 3.37436 0
M  V30 1399 O 138.697 7.26732 3.43679 0
M  V30 1400 H 138.429 0.398292 0.546205 0
M  V30 1401 H 140.983 1.67201 1.19301 0
M  V30 1402 H 139.213 1.14667 3.69308 0
M  V30 1403 H 140.902 1.56214 3.74636 0
M  V30 1404 H 141.668 3.8938 2.8915 0
M  V30 1405 H 137.547 2.88816 3.59313 0
M  V30 1406 H 141.091 6.29137 3.01384 0
M  V30 1407 H 136.988 5.27695 3.71763 0
M  V30 1408 H 137.756 7.3496 3.60245 0
M  V30 1409 N 140.419 -1.14872 1.07899 0
M  V30 1410 C 141.667 -1.85422 0.803941 0
M  V30 1411 C 141.988 -1.83051 -0.67211 0
M  V30 1412 O 141.258 -1.27532 -1.48703 0
M  V30 1413 H 139.838 -0.686537 0.294408 0
M  V30 1414 H 142.5 -1.39226 1.3639 0
M  V30 1415 H 141.596 -2.90399 1.14346 0
M  V30 1416 N 141.898 -0.863906 -1.31812 0
M  V30 1417 C 142.848 -0.286898 -2.26188 0
M  V30 1418 C 143.832 0.572577 -1.50367 0
M  V30 1419 O 145.024 0.420447 -1.71934 0
M  V30 1420 C 142.153 0.515849 -3.39402 0
M  V30 1421 C 141.239 -0.356531 -4.22599 0
M  V30 1422 N 141.63 -1.44716 -4.84656 0
M  V30 1423 C 139.928 -0.147898 -4.45755 0
M  V30 1424 C 140.629 -1.98462 -5.46798 0
M  V30 1425 N 139.605 -1.28247 -5.28255 0
M  V30 1426 H 143.407 -1.12055 -2.717 0
M  V30 1427 H 140.921 -0.711012 -1.46008 0
M  V30 1428 H 142.918 0.945701 -4.06032 0
M  V30 1429 H 141.578 1.34718 -2.95434 0
M  V30 1430 H 142.589 -1.83008 -4.84488 0
M  V30 1431 H 139.266 0.647973 -4.12441 0
M  V30 1432 H 140.656 -2.89932 -6.06126 0
M  V30 1433 N 143.376 1.44774 -0.622745 0
M  V30 1434 C 144.606 2.06187 -0.130532 0
M  V30 1435 C 145.014 1.46547 1.19669 0
M  V30 1436 O 144.357 0.579636 1.74316 0
M  V30 1437 C 144.419 3.59437 0.0674983 0
M  V30 1438 C 144.083 4.41496 -1.18026 0
M  V30 1439 C 145.08 4.75512 -2.102 0
M  V30 1440 C 142.765 4.82007 -1.41333 0
M  V30 1441 C 144.759 5.48912 -3.23998 0
M  V30 1442 C 142.446 5.55157 -2.55429 0
M  V30 1443 C 143.444 5.88528 -3.46589 0
M  V30 1444 O 143.132 6.60191 -4.58697 0
M  V30 1445 H 142.864 0.672045 -0.0730162 0
M  V30 1446 H 145.418 1.86768 -0.854802 0
M  V30 1447 H 143.648 3.77314 0.846825 0
M  V30 1448 H 145.337 4.02642 0.513209 0
M  V30 1449 H 146.103 4.4476 -1.93425 0
M  V30 1450 H 141.982 4.55457 -0.712709 0
M  V30 1451 H 145.526 5.74877 -3.95174 0
M  V30 1452 H 141.423 5.85324 -2.72151 0
M  V30 1453 H 142.191 6.78654 -4.57571 0
M  V30 1454 N 144.854 0.36279 1.53368 0
M  V30 1455 C 146.102 -0.227326 2.00817 0
M  V30 1456 C 146.423 -1.49511 1.25186 0
M  V30 1457 O 145.693 -1.92482 0.364348 0
M  V30 1458 H 144.273 -0.0869923 0.741917 0
M  V30 1459 H 146.935 0.488381 1.88682 0
M  V30 1460 H 146.031 -0.456273 3.08747 0
M  V30 1461 N 146.332 -1.57332 0.0918853 0
M  V30 1462 C 147.743 -1.81496 -0.437739 0
M  V30 1463 C 148.094 -1.00727 -1.6837 0
M  V30 1464 O 147.219 -0.235694 -2.15113 0
M  V30 1465 C 147.814 -3.29197 -0.800939 0
M  V30 1466 C 146.373 -3.54136 -1.27532 0
M  V30 1467 C 145.52 -2.75979 -0.270392 0
M  V30 1468 H 148.471 -1.55494 0.317366 0
M  V30 1469 H 148.492 -3.42344 -1.66074 0
M  V30 1470 H 148.004 -3.87955 0.106078 0
M  V30 1471 H 146.105 -3.00705 -2.20016 0
M  V30 1472 H 146.218 -4.62792 -1.23938 0
M  V30 1473 H 144.582 -2.43349 -0.751872 0
M  V30 1474 H 145.365 -3.37484 0.629248 0
M  V30 1475 N 147.81 0.181792 -1.56548 0
M  V30 1476 C 148.74 1.22765 -1.98623 0
M  V30 1477 C 149.721 1.46747 -0.860189 0
M  V30 1478 O 150.906 1.58259 -1.12551 0
M  V30 1479 C 148.036 2.56894 -2.33715 0
M  V30 1480 C 146.99 2.475 -3.49182 0
M  V30 1481 C 146.316 3.86023 -3.69986 0
M  V30 1482 C 147.616 1.98866 -4.82959 0
M  V30 1483 H 149.31 0.877942 -2.86239 0
M  V30 1484 H 146.856 0.42088 -1.37712 0
M  V30 1485 H 148.809 3.30253 -2.61746 0
M  V30 1486 H 147.533 2.93632 -1.42997 0
M  V30 1487 H 146.192 1.76596 -3.21262 0
M  V30 1488 H 145.84 4.20136 -2.76576 0
M  V30 1489 H 145.54 3.80609 -4.47672 0
M  V30 1490 H 147.064 4.60984 -4.00407 0
M  V30 1491 H 148.478 2.61992 -5.09934 0
M  V30 1492 H 146.875 2.04424 -5.64208 0
M  V30 1493 H 147.945 0.942465 -4.75653 0
M  V30 1494 N 149.288 1.51039 0.449983 0
M  V30 1495 C 150.535 1.63081 1.20045 0
M  V30 1496 C 150.863 0.341024 1.91487 0
M  V30 1497 O 150.118 -0.674276 1.83717 0
M  V30 1498 C 150.417 2.77556 2.25161 0
M  V30 1499 C 150.083 4.17289 1.70823 0
M  V30 1500 C 148.745 4.55305 1.55725 0
M  V30 1501 C 151.097 5.04536 1.3074 0
M  V30 1502 C 148.425 5.78287 0.989999 0
M  V30 1503 C 150.777 6.28085 0.754482 0
M  V30 1504 C 149.441 6.64885 0.590308 0
M  V30 1505 H 148.711 0.596755 0.439277 0
M  V30 1506 H 151.358 1.85037 0.49333 0
M  V30 1507 H 149.663 2.49771 3.01863 0
M  V30 1508 H 151.36 2.84073 2.83026 0
M  V30 1509 H 147.95 3.8731 1.83546 0
M  V30 1510 H 152.134 4.75782 1.41229 0
M  V30 1511 H 147.39 6.05456 0.850451 0
M  V30 1512 H 151.564 6.95038 0.435324 0
M  V30 1513 H 149.191 7.60055 0.14862 0
M  V30 1514 N 150.766 -0.704594 1.40972 0
M  V30 1515 C 152.015 -1.46018 1.39146 0
M  V30 1516 C 152.328 -1.956 0.000589254 0
M  V30 1517 O 153.534 -2.71137 -0.1403 0
M  V30 1518 C 151.99 -2.63996 2.4461 0
M  V30 1519 C 151.598 -2.21238 3.89561 0
M  V30 1520 C 153.342 -3.41677 2.51907 0
M  V30 1521 C 151.249 -3.3612 4.86598 0
M  V30 1522 H 150.179 -0.548444 0.517422 0
M  V30 1523 H 152.83 -0.765784 1.66757 0
M  V30 1524 H 151.212 -3.3566 2.10115 0
M  V30 1525 H 152.386 -1.56923 4.33257 0
M  V30 1526 H 150.701 -1.56574 3.85841 0
M  V30 1527 H 153.298 -4.27182 3.2159 0
M  V30 1528 H 153.641 -3.86247 1.55303 0
M  V30 1529 H 154.174 -2.77064 2.85448 0
M  V30 1530 H 150.913 -2.96572 5.84573 0
M  V30 1531 H 150.433 -3.99315 4.47557 0
M  V30 1532 H 152.112 -4.02029 5.06934 0
M  V30 1533 N 152.244 -1.26651 -0.937939 0
M  V30 1534 C 153.66 -1.03834 -1.21205 0
M  V30 1535 C 153.86 0.234502 -2.00131 0
M  V30 1536 O 152.916 0.942767 -2.3424 0
M  V30 1537 C 154.229 -2.27167 -1.97017 0
M  V30 1538 C 155.777 -2.32101 -2.09996 0
M  V30 1539 C 156.252 -3.55136 -2.8921 0
M  V30 1540 N 157.743 -3.55632 -2.96783 0
M  V30 1541 C 158.478 -4.475 -3.58512 0
M  V30 1542 N 157.974 -5.4966 -4.21717 0
M  V30 1543 N 159.767 -4.35145 -3.55816 0
M  V30 1544 H 151.918 -2.08398 -0.410391 0
M  V30 1545 H 154.181 -0.916031 -0.244114 0
M  V30 1546 H 153.887 -3.19765 -1.46434 0
M  V30 1547 H 153.761 -2.31672 -2.97671 0
M  V30 1548 H 156.148 -1.40015 -2.59769 0
M  V30 1549 H 156.229 -2.31605 -1.08594 0
M  V30 1550 H 155.873 -4.47553 -2.40123 0
M  V30 1551 H 155.803 -3.5288 -3.90875 0
M  V30 1552 H 158.294 -2.81743 -2.51852 0
M  V30 1553 H 158.607 -6.15943 -4.66727 0
M  V30 1554 H 156.952 -5.53514 -4.20294 0
M  V30 1555 H 160.143 -3.5455 -3.05634 0
M  V30 1556 H 160.316 -5.06934 -4.03636 0
M  V30 1557 N 153.722 1.14298 -1.08507 0
M  V30 1558 C 154.655 2.18447 -0.660004 0
M  V30 1559 C 155.633 1.59242 0.328749 0
M  V30 1560 O 156.817 1.87062 0.232367 0
M  V30 1561 C 153.944 3.38688 0.0290807 0
M  V30 1562 C 152.99 4.1646 -0.919982 0
M  V30 1563 S 153.823 4.77334 -2.42718 0
M  V30 1564 C 154.979 6.00931 -1.75024 0
M  V30 1565 H 155.212 2.54166 -1.54231 0
M  V30 1566 H 152.745 1.25446 -0.900149 0
M  V30 1567 H 154.703 4.08342 0.420378 0
M  V30 1568 H 153.364 3.01289 0.887895 0
M  V30 1569 H 152.557 5.02529 -0.384751 0
M  V30 1570 H 152.159 3.52414 -1.25223 0
M  V30 1571 H 154.451 6.69017 -1.06877 0
M  V30 1572 H 155.394 6.59044 -2.58971 0
M  V30 1573 H 155.802 5.51089 -1.22317 0
M  V30 1574 N 155.201 0.870884 1.31352 0
M  V30 1575 C 156.164 0.332243 2.26779 0
M  V30 1576 C 157.164 -0.517302 1.52252 0
M  V30 1577 O 158.354 -0.326477 1.71113 0
M  V30 1578 C 155.486 -0.528066 3.36785 0
M  V30 1579 H 156.679 1.17469 2.75937 0
M  V30 1580 H 154.232 0.64655 1.423 0
M  V30 1581 H 154.967 -1.39167 2.92922 0
M  V30 1582 H 154.752 0.0802582 3.92018 0
M  V30 1583 H 156.242 -0.897179 4.07849 0
M  V30 1584 N 156.679 -1.44442 0.630414 0
M  V30 1585 C 157.925 -2.02894 0.143332 0
M  V30 1586 C 158.28 -1.48697 -1.22094 0
M  V30 1587 O 157.573 -0.661171 -1.79831 0
M  V30 1588 C 157.767 -3.57332 0.0697835 0
M  V30 1589 C 157.596 -4.26512 1.42539 0
M  V30 1590 C 156.366 -4.63516 2.01198 0
M  V30 1591 C 158.564 -4.57004 2.35907 0
M  V30 1592 N 156.546 -5.17661 3.30001 0
M  V30 1593 C 157.917 -5.12223 3.49324 0
M  V30 1594 C 159.972 -4.38955 2.34995 0
M  V30 1595 C 158.675 -5.51295 4.62024 0
M  V30 1596 C 160.701 -4.79075 3.46758 0
M  V30 1597 C 160.063 -5.34407 4.58899 0
M  V30 1598 H 156.162 -0.776041 0.0963523 0
M  V30 1599 H 158.746 -1.75945 0.833752 0
M  V30 1600 H 156.917 -3.83894 -0.589915 0
M  V30 1601 H 158.649 -4.02451 -0.42606 0
M  V30 1602 H 155.404 -4.47811 1.54151 0
M  V30 1603 H 155.828 -5.4921 3.95851 0
M  V30 1604 H 160.47 -3.95469 1.49545 0
M  V30 1605 H 158.188 -5.93736 5.48182 0
M  V30 1606 H 161.774 -4.66824 3.47227 0
M  V30 1607 H 160.654 -5.64878 5.4395 0
M  V30 1608 N 158.157 -0.370918 -1.53173 0
M  V30 1609 C 159.107 0.489588 -2.22681 0
M  V30 1610 C 160.091 1.04442 -1.22395 0
M  V30 1611 O 161.283 0.973578 -1.47819 0
M  V30 1612 C 158.412 1.626 -3.02351 0
M  V30 1613 C 157.498 1.08379 -4.10018 0
M  V30 1614 N 157.889 0.265004 -5.05105 0
M  V30 1615 C 156.187 1.35809 -4.2482 0
M  V30 1616 C 156.888 -0.0324755 -5.81691 0
M  V30 1617 N 155.864 0.566581 -5.40639 0
M  V30 1618 H 159.666 -0.142729 -2.93553 0
M  V30 1619 H 157.18 -0.179221 -1.61408 0
M  V30 1620 H 159.177 2.2547 -3.50669 0
M  V30 1621 H 157.837 2.26132 -2.33011 0
M  V30 1622 H 158.848 -0.0962352 -5.17811 0
M  V30 1623 H 155.525 1.9958 -3.66707 0
M  V30 1624 H 156.915 -0.69473 -6.68299 0
M  V30 1625 N 159.635 1.57281 -0.100228 0
M  V30 1626 C 160.598 2.13158 0.842398 0
M  V30 1627 C 161.598 1.06202 1.20738 0
M  V30 1628 O 162.788 1.32066 1.13597 0
M  V30 1629 C 159.92 2.65639 2.13655 0
M  V30 1630 H 161.113 2.97766 0.357114 0
M  V30 1631 H 158.666 1.5559 0.148823 0
M  V30 1632 H 159.401 1.84566 2.66657 0
M  V30 1633 H 159.186 3.43844 1.88451 0
M  V30 1634 H 160.676 3.08846 2.81077 0
M  V30 1635 N 161.113 -0.173488 1.56642 0
M  V30 1636 C 162.076 -1.19859 1.95362 0
M  V30 1637 C 163.076 -1.37296 0.83704 0
M  V30 1638 O 164.266 -1.34739 1.10413 0
M  V30 1639 C 161.398 -2.56405 2.24654 0
M  V30 1640 H 162.591 -0.867062 2.87092 0
M  V30 1641 H 160.144 -0.415853 1.50666 0
M  V30 1642 H 160.879 -2.94576 1.35631 0
M  V30 1643 H 160.664 -2.45115 3.06041 0
M  V30 1644 H 162.154 -3.30287 2.5554 0
M  V30 1645 N 162.591 -1.51276 -0.441967 0
M  V30 1646 C 163.839 -1.63392 -1.18943 0
M  V30 1647 C 164.16 -0.350159 -1.9183 0
M  V30 1648 O 163.43 0.633784 -1.85364 0
M  V30 1649 H 162.01 -0.602164 -0.442049 0
M  V30 1650 H 164.672 -1.88186 -0.507165 0
M  V30 1651 H 163.768 -2.45934 -1.92154 0
M  V30 1652 N 164.069 0.697108 -1.41344 0
M  V30 1653 C 165.297 1.48593 -1.43972 0
M  V30 1654 C 165.712 1.88747 -0.0445612 0
M  V30 1655 O 165.069 1.56682 0.935785 0
M  V30 1656 C 165.12 2.74946 -2.34706 0
M  V30 1657 O 164.841 2.36484 -3.68791 0
M  V30 1658 C 166.342 3.687 -2.46121 0
M  V30 1659 H 163.562 0.457964 -0.490418 0
M  V30 1660 H 166.106 0.858429 -1.8561 0
M  V30 1661 H 164.261 3.33937 -1.9638 0
M  V30 1662 H 164.675 3.17918 -4.17167 0
M  V30 1663 H 166.149 4.54145 -3.13777 0
M  V30 1664 H 166.626 4.13081 -1.49199 0
M  V30 1665 H 167.232 3.15613 -2.85076 0
M  V30 1666 N 165.547 1.27147 0.931209 0
M  V30 1667 C 166.777 1.15914 1.71019 0
M  V30 1668 C 167.185 -0.287112 1.87009 0
M  V30 1669 O 166.528 -1.20761 1.38429 0
M  V30 1670 C 166.59 1.76647 3.13107 0
M  V30 1671 C 166.254 3.25807 3.20467 0
M  V30 1672 C 167.251 4.22489 3.02983 0
M  V30 1673 C 164.936 3.66452 3.43538 0
M  V30 1674 C 166.93 5.57794 3.08454 0
M  V30 1675 C 164.617 5.01888 3.48643 0
M  V30 1676 C 165.615 5.97369 3.31119 0
M  V30 1677 O 165.303 7.30337 3.35952 0
M  V30 1678 H 165.035 0.404062 0.54195 0
M  V30 1679 H 167.589 1.68457 1.17521 0
M  V30 1680 H 165.819 1.18578 3.68071 0
M  V30 1681 H 167.508 1.60179 3.72958 0
M  V30 1682 H 168.274 3.92425 2.85004 0
M  V30 1683 H 164.153 2.92611 3.5623 0
M  V30 1684 H 167.697 6.32298 2.94694 0
M  V30 1685 H 163.594 5.31609 3.66145 0
M  V30 1686 H 164.362 7.38739 3.5243 0
M  V30 1687 N 167.025 -1.13721 1.09112 0
M  V30 1688 C 168.441 -1.36914 0.820174 0
M  V30 1689 C 168.641 -1.93356 -0.567079 0
M  V30 1690 O 167.697 -2.15093 -1.32255 0
M  V30 1691 C 169.01 -2.3235 1.90877 0
M  V30 1692 C 170.558 -2.45973 1.93562 0
M  V30 1693 C 171.033 -3.44714 3.01556 0
M  V30 1694 N 172.524 -3.52263 3.00775 0
M  V30 1695 C 173.259 -4.28536 3.80978 0
M  V30 1696 N 172.755 -5.07991 4.71081 0
M  V30 1697 N 174.548 -4.23804 3.69251 0
M  V30 1698 H 166.699 -0.754348 1.98553 0
M  V30 1699 H 168.962 -0.3944 0.862063 0
M  V30 1700 H 168.668 -1.98027 2.90651 0
M  V30 1701 H 168.542 -3.32332 1.78424 0
M  V30 1702 H 170.929 -2.79584 0.944286 0
M  V30 1703 H 171.01 -1.45926 2.10093 0
M  V30 1704 H 170.654 -3.11835 4.00901 0
M  V30 1705 H 170.584 -4.44558 2.82269 0
M  V30 1706 H 173.075 -2.95567 2.35475 0
M  V30 1707 H 173.388 -5.63487 5.28869 0
M  V30 1708 H 171.733 -5.07235 4.75119 0
M  V30 1709 H 174.924 -3.60806 2.98222 0
M  V30 1710 H 175.097 -4.82995 4.31995 0
M  V30 1711 N 168.503 -0.877838 -1.30888 0
M  V30 1712 C 169.752 -0.488793 -1.95688 0
M  V30 1713 C 170.065 0.965485 -1.70111 0
M  V30 1714 O 171.271 1.46104 -2.28836 0
M  V30 1715 C 169.727 -0.823201 -3.50359 0
M  V30 1716 C 169.335 -2.29477 -3.84765 0
M  V30 1717 C 171.079 -0.503009 -4.21509 0
M  V30 1718 C 168.986 -2.57118 -5.32583 0
M  V30 1719 H 167.916 -0.179062 -0.732429 0
M  V30 1720 H 170.567 -1.07183 -1.48943 0
M  V30 1721 H 168.949 -0.169331 -3.95638 0
M  V30 1722 H 170.123 -2.99236 -3.5042 0
M  V30 1723 H 168.438 -2.58178 -3.267 0
M  V30 1724 H 171.035 -0.68665 -5.30273 0
M  V30 1725 H 171.378 0.557109 -4.12555 0
M  V30 1726 H 171.911 -1.11376 -3.8189 0
M  V30 1727 H 168.65 -3.61843 -5.4658 0
M  V30 1728 H 168.17 -1.91961 -5.68253 0
M  V30 1729 H 169.849 -2.42251 -5.99936 0
M  V30 1730 N 169.982 1.44106 -0.638065 0
M  V30 1731 C 170.932 2.27843 0.0847285 0
M  V30 1732 C 171.916 1.39055 0.809471 0
M  V30 1733 O 173.108 1.62808 0.694435 0
M  V30 1734 C 170.237 3.26497 1.06089 0
M  V30 1735 C 169.323 4.22772 0.33541 0
M  V30 1736 N 169.714 5.01737 -0.639787 0
M  V30 1737 C 168.012 4.42227 0.578921 0
M  V30 1738 C 168.713 5.71792 -1.06904 0
M  V30 1739 N 167.689 5.42079 -0.406395 0
M  V30 1740 H 171.491 2.86305 -0.663814 0
M  V30 1741 H 169.005 1.55627 -0.464122 0
M  V30 1742 H 171.002 3.8525 1.59337 0
M  V30 1743 H 169.662 2.69595 1.80966 0
M  V30 1744 H 170.673 5.07799 -1.01789 0
M  V30 1745 H 167.35 3.96415 1.31003 0
M  V30 1746 H 168.74 6.45205 -1.8751 0
M  V30 1747 N 171.46 0.379036 1.52974 0
M  V30 1748 C 172.737 -0.263479 1.93817 0
M  V30 1749 C 173.117 -1.65244 1.31368 0
M  V30 1750 O 172.465 -2.23448 0.477856 0
M  V30 1751 C 172.675 -0.300166 3.47707 0
M  V30 1752 C 174.023 -0.534061 4.21228 0
M  V30 1753 O 175.047 -0.38081 3.54159 0
M  V30 1754 O 173.906 -0.833501 5.40106 0
M  V30 1755 H 171 -0.161149 0.811147 0
M  V30 1756 H 173.546 0.432798 1.64088 0
M  V30 1757 H 172.318 0.673138 3.85467 0
M  V30 1758 H 171.941 -1.04179 3.83709 0
M  V30 1759 N 172.938 -1.57226 0.108567 0
M  V30 1760 C 174.186 -1.94448 -0.550853 0
M  V30 1761 C 174.507 -0.992074 -1.67878 0
M  V30 1762 O 173.777 -0.0465 -1.95845 0
M  V30 1763 H 172.357 -0.717897 -0.206479 0
M  V30 1764 H 175.019 -1.94112 0.175062 0
M  V30 1765 H 174.115 -2.97218 -0.952259 0
M  V30 1766 N 174.416 0.165178 -1.56732 0
M  V30 1767 C 175.832 0.517174 -1.50988 0
M  V30 1768 C 176.032 1.84331 -0.813894 0
M  V30 1769 O 175.088 2.49672 -0.37682 0
M  V30 1770 C 176.401 0.544261 -2.95733 0
M  V30 1771 C 177.949 0.631039 -3.06573 0
M  V30 1772 C 178.424 0.68896 -4.52788 0
M  V30 1773 N 179.915 0.751683 -4.5706 0
M  V30 1774 C 180.65 0.817177 -5.67547 0
M  V30 1775 N 180.146 0.843129 -6.8765 0
M  V30 1776 N 181.939 0.856668 -5.55534 0
M  V30 1777 H 174.09 -0.704318 -2.00382 0
M  V30 1778 H 176.353 -0.254687 -0.913148 0
M  V30 1779 H 176.059 -0.361607 -3.49836 0
M  V30 1780 H 175.933 1.3886 -3.5071 0
M  V30 1781 H 178.32 1.52733 -2.52501 0
M  V30 1782 H 178.401 -0.240095 -2.54671 0
M  V30 1783 H 178.045 -0.2031 -5.07494 0
M  V30 1784 H 177.975 1.57633 -5.02454 0
M  V30 1785 H 180.466 0.739661 -3.70591 0
M  V30 1786 H 180.779 0.894448 -7.67606 0
M  V30 1787 H 179.124 0.811304 -6.90248 0
M  V30 1788 H 182.315 0.833437 -4.60621 0
M  V30 1789 H 182.488 0.904247 -6.4166 0
M  V30 1790 N 175.894 1.51508 0.433938 0
M  V30 1791 C 177.142 1.6402 1.18075 0
M  V30 1792 C 177.463 0.360328 1.91642 0
M  V30 1793 O 176.733 -0.623945 1.85698 0
M  V30 1794 H 175.313 0.6045 0.43885 0
M  V30 1795 H 177.975 1.88452 0.497178 0
M  V30 1796 H 177.071 2.46949 1.90847 0
M  V30 1797 N 177.372 -0.689602 1.41712 0
M  V30 1798 C 178.62 -1.4468 1.4111 0
M  V30 1799 C 178.941 -1.94986 0.0232196 0
M  V30 1800 O 178.211 -1.72097 -0.935913 0
M  V30 1801 H 176.791 -0.536847 0.519427 0
M  V30 1802 H 179.453 -0.815825 1.77004 0
M  V30 1803 H 178.549 -2.30706 2.10193 0
M  V30 1804 N 178.85 -1.27639 -0.924453 0
M  V30 1805 C 179.813 -1.10681 -2.00705 0
M  V30 1806 C 180.813 -0.0497823 -1.60723 0
M  V30 1807 O 182.003 -0.294654 -1.7169 0
M  V30 1808 C 179.135 -0.687164 -3.33902 0
M  V30 1809 H 180.328 -2.06817 -2.17179 0
M  V30 1810 H 177.881 -1.10473 -1.10569 0
M  V30 1811 H 178.616 0.275439 -3.23128 0
M  V30 1812 H 178.401 -1.45061 -3.6428 0
M  V30 1813 H 179.891 -0.590853 -4.13399 0
M  V30 1814 N 180.328 1.1314 -1.09713 0
M  V30 1815 C 181.576 1.84119 -0.833338 0
M  V30 1816 C 181.897 1.84097 0.642904 0
M  V30 1817 O 181.167 1.29881 1.46655 0
M  V30 1818 H 179.747 0.681766 -0.305293 0
M  V30 1819 H 182.409 1.37038 -1.38588 0
M  V30 1820 H 181.505 2.88543 -1.18951 0
M  V30 1821 N 181.806 0.884767 1.30421 0
M  V30 1822 C 183.054 0.502112 1.95763 0
M  V30 1823 C 183.375 -0.951815 1.70192 0
M  V30 1824 O 182.645 -1.6692 1.0254 0
M  V30 1825 H 181.225 0.182694 0.724315 0
M  V30 1826 H 183.887 1.1278 1.58955 0
M  V30 1827 H 182.983 0.672188 3.04775 0
M  V30 1828 N 183.284 -1.43765 0.645699 0
M  V30 1829 C 184.532 -2.01499 0.155731 0
M  V30 1830 C 184.853 -1.51151 -1.232 0
M  V30 1831 O 184.123 -0.721044 -1.82148 0
M  V30 1832 H 182.703 -0.745003 0.0545817 0
M  V30 1833 H 185.365 -1.76075 0.835677 0
M  V30 1834 H 184.461 -3.1181 0.134577 0
M  V30 1835 N 184.763 -0.387143 -1.52771 0
M  V30 1836 C 185.696 0.493123 -2.22808 0
M  V30 1837 C 186.674 1.0658 -1.22798 0
M  V30 1838 O 187.858 1.11785 -1.51777 0
M  V30 1839 C 184.985 1.68238 -2.93962 0
M  V30 1840 C 184.031 1.23515 -4.08223 0
M  V30 1841 S 184.864 0.21848 -5.35054 0
M  V30 1842 C 186.02 1.41357 -6.09729 0
M  V30 1843 H 186.253 -0.101625 -2.97126 0
M  V30 1844 H 183.786 -0.171323 -1.53447 0
M  V30 1845 H 185.744 2.36443 -3.35567 0
M  V30 1846 H 184.405 2.24842 -2.19328 0
M  V30 1847 H 183.598 2.12304 -4.57103 0
M  V30 1848 H 183.2 0.632044 -3.68621 0
M  V30 1849 H 185.492 2.34101 -6.3577 0
M  V30 1850 H 186.435 0.965736 -7.01484 0
M  V30 1851 H 186.843 1.6294 -5.40473 0
M  V30 1852 N 186.241 1.57166 -0.116904 0
M  V30 1853 C 187.173 2.12271 0.864507 0
M  V30 1854 C 188.186 1.06494 1.23138 0
M  V30 1855 O 189.375 1.33873 1.18069 0
M  V30 1856 C 186.475 2.60564 2.16702 0
M  V30 1857 C 185.648 3.90416 1.97216 0
M  V30 1858 C 184.707 4.24329 3.11178 0
M  V30 1859 O 183.733 4.93182 2.84184 0
M  V30 1860 N 184.935 3.8148 4.37554 0
M  V30 1861 H 187.7 2.97102 0.393726 0
M  V30 1862 H 185.261 1.61759 0.0675805 0
M  V30 1863 H 187.253 2.80282 2.91932 0
M  V30 1864 H 185.823 1.80623 2.55135 0
M  V30 1865 H 185.043 3.79627 1.06192 0
M  V30 1866 H 186.331 4.75327 1.81499 0
M  V30 1867 H 185.729 3.25943 4.62361 0
M  V30 1868 H 184.286 4.06311 5.09661 0
M  V30 1869 N 187.719 -0.156864 1.56817 0
M  V30 1870 C 189.135 -0.50916 1.5126 0
M  V30 1871 C 189.335 -1.83897 0.823658 0
M  V30 1872 O 188.391 -2.49469 0.390055 0
M  V30 1873 C 189.704 -0.52857 2.96018 0
M  V30 1874 C 191.252 -0.614771 3.06903 0
M  V30 1875 C 191.727 -0.664938 4.53147 0
M  V30 1876 N 193.218 -0.727433 4.57452 0
M  V30 1877 C 193.953 -0.787067 5.67973 0
M  V30 1878 N 193.449 -0.806649 6.88088 0
M  V30 1879 N 195.242 -0.827195 5.5598 0
M  V30 1880 H 187.393 0.714935 2.00006 0
M  V30 1881 H 189.656 0.259526 0.911784 0
M  V30 1882 H 189.362 0.380154 3.49639 0
M  V30 1883 H 189.236 -1.36998 3.51442 0
M  V30 1884 H 191.623 -1.51392 2.53307 0
M  V30 1885 H 191.704 0.253597 2.5454 0
M  V30 1886 H 191.348 0.230011 5.07379 0
M  V30 1887 H 191.278 -1.54966 5.03282 0
M  V30 1888 H 193.769 -0.719998 3.70978 0
M  V30 1889 H 194.082 -0.853727 7.6807 0
M  V30 1890 H 192.427 -0.774687 6.90669 0
M  V30 1891 H 195.618 -0.808998 4.61056 0
M  V30 1892 H 195.791 -0.870206 6.4213 0
M  V30 1893 N 189.197 -1.51736 -0.425897 0
M  V30 1894 C 190.444 -1.6497 -1.17436 0
M  V30 1895 C 190.772 -0.371445 -1.9092 0
M  V30 1896 O 190.027 0.644963 -1.84767 0
M  V30 1897 C 190.326 -2.81103 -2.20717 0
M  V30 1898 C 189.992 -4.19954 -1.64162 0
M  V30 1899 C 188.654 -4.57725 -1.48462 0
M  V30 1900 C 191.006 -5.06552 -1.22696 0
M  V30 1901 C 188.334 -5.79789 -0.897873 0
M  V30 1902 C 190.686 -6.29205 -0.654464 0
M  V30 1903 C 189.35 -6.6574 -0.484456 0
M  V30 1904 H 188.62 -0.603668 -0.429727 0
M  V30 1905 H 191.267 -1.85798 -0.463829 0
M  V30 1906 H 189.572 -2.54542 -2.97852 0
M  V30 1907 H 191.269 -2.8854 -2.78471 0
M  V30 1908 H 187.859 -3.90181 -1.77361 0
M  V30 1909 H 192.043 -4.77968 -1.33642 0
M  V30 1910 H 187.299 -6.06733 -0.75402 0
M  V30 1911 H 191.473 -6.95643 -0.324694 0
M  V30 1912 H 189.1 -7.60195 -0.0276833 0
M  V30 1913 N 190.675 0.682077 -1.42076 0
M  V30 1914 C 191.638 1.77756 -1.44691 0
M  V30 1915 C 192.638 1.5726 -0.335535 0
M  V30 1916 O 193.828 1.63686 -0.596037 0
M  V30 1917 C 190.96 3.16301 -1.27146 0
M  V30 1918 H 192.153 1.76826 -2.42224 0
M  V30 1919 H 189.706 0.891012 -1.28416 0
M  V30 1920 H 190.441 3.22862 -0.305075 0
M  V30 1921 H 190.226 3.32581 -2.07683 0
M  V30 1922 H 191.716 3.96241 -1.31843 0
M  V30 1923 N 192.153 1.28127 0.917671 0
M  V30 1924 C 193.564 1.13622 1.48145 0
M  V30 1925 C 193.915 -0.275207 1.9426 0
M  V30 1926 O 193.04 -1.1691 1.82102 0
M  V30 1927 C 193.635 2.05648 2.69248 0
M  V30 1928 C 192.194 1.95219 3.21818 0
M  V30 1929 C 191.341 1.97618 1.94532 0
M  V30 1930 H 194.292 1.40874 0.730772 0
M  V30 1931 H 194.313 1.61818 3.44377 0
M  V30 1932 H 193.825 3.08365 2.35653 0
M  V30 1933 H 191.926 0.955244 3.60147 0
M  V30 1934 H 192.039 2.81976 3.87333 0
M  V30 1935 H 190.403 1.41973 2.11461 0
M  V30 1936 H 191.186 3.02007 1.63238 0
M  V30 1937 N 193.631 -1.12557 1.10312 0
M  V30 1938 C 194.561 -2.20341 0.772798 0
M  V30 1939 C 195.542 -1.68198 -0.25365 0
M  V30 1940 O 196.727 -1.93831 -0.119699 0
M  V30 1941 C 193.857 -3.46709 0.202443 0
M  V30 1942 C 192.811 -4.11996 1.15943 0
M  V30 1943 C 192.137 -5.328 0.450345 0
M  V30 1944 C 193.437 -4.5828 2.50552 0
M  V30 1945 H 195.131 -2.48229 1.674 0
M  V30 1946 H 192.677 -1.19308 0.806326 0
M  V30 1947 H 194.63 -4.2138 -0.0407752 0
M  V30 1948 H 193.354 -3.18245 -0.734001 0
M  V30 1949 H 192.013 -3.39305 1.38808 0
M  V30 1950 H 191.661 -5.00602 -0.490531 0
M  V30 1951 H 191.361 -5.7743 1.08851 0
M  V30 1952 H 192.885 -6.10219 0.215642 0
M  V30 1953 H 194.299 -5.2433 2.31843 0
M  V30 1954 H 192.696 -5.13683 3.10242 0
M  V30 1955 H 193.766 -3.72329 3.10643 0
M  V30 1956 N 195.109 -0.891671 -1.2995 0
M  V30 1957 C 196.057 -0.353066 -2.29905 0
M  V30 1958 C 197.051 0.543509 -1.60444 0
M  V30 1959 O 198.257 0.4272 -1.74857 0
M  V30 1960 H 194.632 -0.095531 -0.745907 0
M  V30 1961 H 196.603 -1.20961 -2.72784 0
M  V30 1962 C 195.352 0.411475 -3.45257 0
M  V30 1963 H 194.675 -0.269182 -3.98893 0
M  V30 1964 H 196.115 0.753328 -4.17254 0
M  V30 1965 C 194.574 1.6111 -2.9588 0
M  V30 1966 O 195.104 2.71045 -2.96475 0
M  V30 1967 N 193.31 1.45054 -2.51809 0
M  V30 1968 H 192.857 0.556175 -2.51524 0
M  V30 1969 H 192.815 2.25453 -2.1913 0
M  V30 1970 N 196.587 1.43421 -0.653314 0
M  V30 1971 C 197.812 2.06678 -0.172846 0
M  V30 1972 C 198.237 1.48648 1.15262 0
M  V30 1973 O 197.595 0.596457 1.71208 0
M  V30 1974 C 197.643 3.60474 -0.0953184 0
M  V30 1975 O 196.747 4.01487 0.942442 0
M  V30 1976 H 196.088 0.657181 -0.0949155 0
M  V30 1977 H 198.618 1.83925 -0.896265 0
M  V30 1978 H 198.628 4.07905 0.0879728 0
M  V30 1979 H 197.303 4.02088 -1.06291 0
M  V30 1980 H 195.88 3.65646 0.731932 0
M  V30 1981 N 198.065 0.39524 1.52563 0
M  V30 1982 C 199.311 -0.177763 2.02622 0
M  V30 1983 C 199.666 -1.43974 1.27629 0
M  V30 1984 O 198.959 -1.87995 0.36992 0
M  V30 1985 C 199.153 -0.493444 3.53977 0
M  V30 1986 C 198.982 0.736392 4.4363 0
M  V30 1987 C 197.752 1.25744 4.89404 0
M  V30 1988 C 199.95 1.61046 4.88435 0
M  V30 1989 N 197.932 2.44421 5.63145 0
M  V30 1990 C 199.303 2.64359 5.60816 0
M  V30 1991 C 201.358 1.62985 4.70468 0
M  V30 1992 C 200.061 3.69505 6.17137 0
M  V30 1993 C 202.087 2.67042 5.27677 0
M  V30 1994 C 201.449 3.69077 5.99968 0
M  V30 1995 H 197.548 -0.0269794 0.781534 0
M  V30 1996 H 200.132 0.546466 1.86874 0
M  V30 1997 H 198.303 -1.18672 3.69826 0
M  V30 1998 H 200.035 -1.05412 3.90731 0
M  V30 1999 H 196.79 0.817546 4.6649 0
M  V30 2000 H 197.214 3.04485 6.04663 0
M  V30 2001 H 201.856 0.854442 4.14076 0
M  V30 2002 H 199.574 4.4791 6.72608 0
M  V30 2003 H 203.16 2.69433 5.15652 0
M  V30 2004 H 202.04 4.48273 6.43444 0
M  V30 2005 N 199.544 -1.57102 0.125237 0
M  V30 2006 C 200.955 -1.82384 -0.399142 0
M  V30 2007 C 201.306 -1.04276 -1.66195 0
M  V30 2008 O 200.431 -0.281269 -2.14564 0
M  V30 2009 C 201.026 -3.30821 -0.730932 0
M  V30 2010 C 199.585 -3.56762 -1.19992 0
M  V30 2011 C 198.732 -2.7649 -0.211792 0
M  V30 2012 H 201.683 -1.54786 0.350277 0
M  V30 2013 H 201.704 -3.4579 -1.58775 0
M  V30 2014 H 201.216 -3.87643 0.188345 0
M  V30 2015 H 199.317 -3.05305 -2.13588 0
M  V30 2016 H 199.43 -4.65317 -1.14093 0
M  V30 2017 H 197.794 -2.4489 -0.700085 0
M  V30 2018 H 198.577 -3.36073 0.700691 0
M  V30 2019 N 201.022 0.148545 -1.56898 0
M  V30 2020 C 202.299 0.890019 -1.74178 0
M  V30 2021 C 202.679 1.99407 -0.692839 0
M  V30 2022 O 202.027 2.26671 0.288505 0
M  V30 2023 C 202.237 1.43389 -3.18183 0
M  V30 2024 C 203.585 1.89791 -3.79822 0
M  V30 2025 O 204.609 1.53134 -3.21603 0
M  V30 2026 O 203.468 2.57387 -4.82093 0
M  V30 2027 H 200.562 0.420496 -0.712118 0
M  V30 2028 H 203.108 0.134591 -1.69165 0
M  V30 2029 H 201.88 0.640383 -3.86024 0
M  V30 2030 H 201.503 2.25287 -3.27615 0
M  V30 2031 N 202.5 1.5196 0.417844 0
M  V30 2032 C 203.448 1.75278 1.52907 0
M  V30 2033 C 204.442 0.619611 1.57662 0
M  V30 2034 O 205.648 0.801457 1.61173 0
M  V30 2035 H 202.023 0.554141 0.508362 0
M  V30 2036 H 203.994 2.68389 1.30422 0
M  V30 2037 C 202.743 1.91262 2.90369 0
M  V30 2038 H 202.066 2.77872 2.8745 0
M  V30 2039 H 203.506 2.11581 3.67436 0
M  V30 2040 C 201.965 0.677431 3.30019 0
M  V30 2041 O 202.495 -0.158799 4.01386 0
M  V30 2042 N 200.701 0.515851 2.85985 0
M  V30 2043 H 200.248 1.19744 2.28077 0
M  V30 2044 H 200.206 -0.309315 3.12875 0
M  V30 2045 N 203.978 -0.674533 1.42435 0
M  V30 2046 C 204.941 -1.76986 1.45632 0
M  V30 2047 C 205.941 -1.5708 0.343871 0
M  V30 2048 O 207.131 -1.63367 0.604709 0
M  V30 2049 C 204.263 -3.15623 1.28822 0
M  V30 2050 H 205.456 -1.75539 2.43158 0
M  V30 2051 H 203.009 -0.884189 1.28887 0
M  V30 2052 H 203.744 -3.22696 0.322193 0
M  V30 2053 H 203.529 -3.31475 2.09444 0
M  V30 2054 H 205.019 -3.95537 1.33942 0
M  V30 2055 N 205.456 -1.28612 -0.910864 0
M  V30 2056 C 206.681 -1.1891 -1.69927 0
M  V30 2057 C 207.106 0.248372 -1.86453 0
M  V30 2058 O 206.464 1.17961 -1.37676 0
M  V30 2059 C 206.512 -1.89578 -3.06745 0
M  V30 2060 O 205.616 -1.20521 -3.94396 0
M  V30 2061 H 204.957 -0.412632 -0.520222 0
M  V30 2062 H 207.487 -1.69985 -1.1387 0
M  V30 2063 H 207.497 -1.97597 -3.56958 0
M  V30 2064 H 206.172 -2.94136 -2.94035 0
M  V30 2065 H 204.749 -1.20684 -3.52831 0
M  V30 2066 N 206.934 1.1197 -1.10907 0
M  V30 2067 C 207.864 2.19928 -0.784473 0
M  V30 2068 C 208.845 1.6833 0.244726 0
M  V30 2069 O 210.03 1.93892 0.109418 0
M  V30 2070 C 207.16 3.46597 -0.220827 0
M  V30 2071 C 206.114 4.11376 -1.18127 0
M  V30 2072 C 205.44 5.32554 -0.478594 0
M  V30 2073 C 206.74 4.56945 -2.52979 0
M  V30 2074 H 208.434 2.47337 -1.68715 0
M  V30 2075 H 205.98 1.18879 -0.812642 0
M  V30 2076 H 207.933 4.21396 0.0184278 0
M  V30 2077 H 206.657 3.1863 0.717113 0
M  V30 2078 H 205.316 3.38564 -1.40606 0
M  V30 2079 H 204.964 5.00856 0.463976 0
M  V30 2080 H 204.664 5.76844 -1.11912 0
M  V30 2081 H 206.188 6.10096 -0.248 0
M  V30 2082 H 207.602 5.23093 -2.3462 0
M  V30 2083 H 205.999 5.1203 -3.12962 0
M  V30 2084 H 207.069 3.70676 -3.12614 0
M  V30 2085 N 208.412 0.89855 1.29475 0
M  V30 2086 C 209.689 0.443416 1.90508 0
M  V30 2087 C 210.069 -1.07685 1.81569 0
M  V30 2088 O 209.417 -1.9182 1.24166 0
M  V30 2089 C 209.627 0.956708 3.35631 0
M  V30 2090 C 210.975 0.999728 4.12663 0
M  V30 2091 O 211.999 0.904299 3.4453 0
M  V30 2092 O 210.858 1.14289 5.34416 0
M  V30 2093 H 207.952 0.138025 0.815401 0
M  V30 2094 H 210.498 0.98834 1.37949 0
M  V30 2095 H 209.27 2.00067 3.36287 0
M  V30 2096 H 208.893 0.391728 3.95666 0
M  V30 2097 N 209.89 -1.43072 0.660911 0
M  V30 2098 C 210.837 -2.30785 -0.0259884 0
M  V30 2099 C 211.807 -1.45184 -0.806888 0
M  V30 2100 O 212.992 -1.74041 -0.781943 0
M  V30 2101 C 210.132 -3.30861 -0.981067 0
M  V30 2102 C 209.245 -4.31558 -0.195458 0
M  V30 2103 C 208.38 -5.18712 -1.14503 0
M  V30 2104 C 207.419 -6.11097 -0.350299 0
M  V30 2105 N 206.556 -6.90849 -1.25186 0
M  V30 2106 H 211.396 -2.88975 0.727846 0
M  V30 2107 H 208.933 -1.42353 0.370682 0
M  V30 2108 H 210.891 -3.87399 -1.54849 0
M  V30 2109 H 209.521 -2.74304 -1.70169 0
M  V30 2110 H 208.573 -3.77252 0.488374 0
M  V30 2111 H 209.885 -4.9701 0.422176 0
M  V30 2112 H 209.039 -5.79914 -1.78284 0
M  V30 2113 H 207.778 -4.53404 -1.79656 0
M  V30 2114 H 206.783 -5.48976 0.300808 0
M  V30 2115 H 208.008 -6.7845 0.296941 0
M  V30 2116 H 205.954 -6.28182 -1.89005 0
M  V30 2117 H 205.871 -7.52854 -0.688971 0
M  V30 2118 H 207.139 -7.5655 -1.87757 0
M  V30 2119 N 211.368 -0.403325 -1.52352 0
M  V30 2120 C 212.331 0.413051 -2.25447 0
M  V30 2121 C 213.331 0.978513 -1.276 0
M  V30 2122 O 214.521 0.858305 -1.51587 0
M  V30 2123 C 211.653 1.58087 -3.02029 0
M  V30 2124 H 212.846 -0.227094 -2.99039 0
M  V30 2125 H 210.399 -0.155722 -1.55522 0
M  V30 2126 H 211.134 2.25804 -2.32772 0
M  V30 2127 H 210.919 1.18195 -3.73861 0
M  V30 2128 H 212.409 2.1585 -3.57489 0
M  V30 2129 N 212.846 1.57033 -0.133567 0
M  V30 2130 C 214.262 1.58035 0.222944 0
M  V30 2131 C 214.462 1.14713 1.6566 0
M  V30 2132 O 213.518 0.841218 2.38075 0
M  V30 2133 C 214.831 3.00691 -0.0236116 0
M  V30 2134 C 216.379 3.12973 0.0411512 0
M  V30 2135 C 216.854 4.57654 -0.177899 0
M  V30 2136 N 218.345 4.63033 -0.124365 0
M  V30 2137 C 219.08 5.72771 -0.268553 0
M  V30 2138 N 218.576 6.91206 -0.46972 0
M  V30 2139 N 220.369 5.61718 -0.2071 0
M  V30 2140 H 212.52 1.8349 -1.06981 0
M  V30 2141 H 214.783 0.848677 -0.422436 0
M  V30 2142 H 214.489 3.36726 -1.0153 0
M  V30 2143 H 214.363 3.70614 0.701808 0
M  V30 2144 H 216.75 2.76787 1.02338 0
M  V30 2145 H 216.831 2.45564 -0.716383 0
M  V30 2146 H 216.475 4.94542 -1.15717 0
M  V30 2147 H 216.405 5.23173 0.599797 0
M  V30 2148 H 218.896 3.7789 0.027011 0
M  V30 2149 H 219.209 7.70693 -0.570212 0
M  V30 2150 H 217.554 6.93156 -0.505876 0
M  V30 2151 H 220.745 4.68072 -0.0507986 0
M  V30 2152 H 220.918 6.47195 -0.322909 0
M  V30 2153 N 214.325 -0.140222 1.56975 0
M  V30 2154 C 215.741 -0.493088 1.51792 0
M  V30 2155 C 215.941 -1.83013 0.843116 0
M  V30 2156 O 214.997 -2.49041 0.416493 0
M  V30 2157 C 216.31 -0.497144 2.96562 0
M  V30 2158 C 217.858 -0.582186 3.07538 0
M  V30 2159 C 218.333 -0.616838 4.53827 0
M  V30 2160 N 219.824 -0.678873 4.58198 0
M  V30 2161 C 220.559 -0.726782 5.68775 0
M  V30 2162 N 220.055 -0.733623 6.88905 0
M  V30 2163 N 221.848 -0.768179 5.56826 0
M  V30 2164 H 213.999 0.736108 1.99237 0
M  V30 2165 H 216.262 0.269182 0.90898 0
M  V30 2166 H 215.968 0.417217 3.49217 0
M  V30 2167 H 215.842 -1.33263 3.52875 0
M  V30 2168 H 218.229 -1.48697 2.54899 0
M  V30 2169 H 218.31 0.280581 2.54257 0
M  V30 2170 H 217.954 0.283812 5.07106 0
M  V30 2171 H 217.884 -1.49619 5.04898 0
M  V30 2172 H 220.375 -0.68061 3.7172 0
M  V30 2173 H 220.688 -0.772215 7.68932 0
M  V30 2174 H 219.033 -0.701389 6.91452 0
M  V30 2175 H 222.224 -0.760051 4.61888 0
M  V30 2176 H 222.397 -0.80205 6.43017 0
M  V30 2177 N 215.803 -1.52179 -0.40978 0
M  V30 2178 C 216.733 -1.78435 -1.5061 0
M  V30 2179 C 217.714 -0.635295 -1.57791 0
M  V30 2180 O 218.899 -0.880823 -1.73076 0
M  V30 2181 C 216.029 -1.93444 -2.88439 0
M  V30 2182 C 214.983 -3.09038 -2.96108 0
M  V30 2183 C 214.309 -3.09268 -4.36185 0
M  V30 2184 C 215.609 -4.48508 -2.67652 0
M  V30 2185 H 217.303 -2.70237 -1.28889 0
M  V30 2186 H 214.849 -1.30036 -0.618605 0
M  V30 2187 H 216.802 -2.10394 -3.65119 0
M  V30 2188 H 215.526 -0.983129 -3.11452 0
M  V30 2189 H 214.185 -2.91837 -2.21872 0
M  V30 2190 H 213.833 -2.11861 -4.56206 0
M  V30 2191 H 213.533 -3.86907 -4.42241 0
M  V30 2192 H 215.057 -3.28348 -5.14801 0
M  V30 2193 H 216.471 -4.65918 -3.34056 0
M  V30 2194 H 214.868 -5.28059 -2.85085 0
M  V30 2195 H 215.938 -4.56649 -1.63095 0
M  V30 2196 N 217.281 0.66697 -1.42791 0
M  V30 2197 C 218.211 1.79218 -1.49677 0
M  V30 2198 C 219.192 1.66405 -0.352623 0
M  V30 2199 O 220.377 1.85708 -0.567993 0
M  V30 2200 C 217.507 3.17565 -1.40605 0
M  V30 2201 C 216.461 3.45124 -2.53127 0
M  V30 2202 C 215.787 4.83127 -2.29112 0
M  V30 2203 C 217.087 3.41236 -3.95418 0
M  V30 2204 H 218.781 1.73713 -2.43853 0
M  V30 2205 H 216.327 0.83432 -1.17367 0
M  V30 2206 H 218.28 3.96022 -1.44029 0
M  V30 2207 H 217.004 3.23767 -0.429271 0
M  V30 2208 H 215.663 2.69031 -2.49034 0
M  V30 2209 H 215.311 4.85988 -1.29709 0
M  V30 2210 H 215.011 5.02528 -3.04531 0
M  V30 2211 H 216.535 5.63859 -2.34297 0
M  V30 2212 H 217.949 4.09651 -4.01073 0
M  V30 2213 H 216.346 3.72173 -4.70752 0
M  V30 2214 H 217.416 2.39665 -4.21532 0
M  V30 2215 N 218.759 1.29093 0.90403 0
M  V30 2216 C 220.005 1.17996 1.65676 0
M  V30 2217 C 220.36 -0.266816 1.90541 0
M  V30 2218 O 219.653 -1.19 1.50165 0
M  V30 2219 C 219.847 1.92224 3.01305 0
M  V30 2220 C 219.676 3.43972 2.89678 0
M  V30 2221 C 218.446 4.1332 2.90679 0
M  V30 2222 C 220.644 4.39546 2.67028 0
M  V30 2223 N 218.626 5.51463 2.69743 0
M  V30 2224 C 219.997 5.65119 2.5503 0
M  V30 2225 C 222.052 4.29359 2.52101 0
M  V30 2226 C 220.755 6.81663 2.29626 0
M  V30 2227 C 222.781 5.4565 2.28079 0
M  V30 2228 C 222.143 6.70193 2.16843 0
M  V30 2229 H 218.242 0.486759 0.612037 0
M  V30 2230 H 220.826 1.62868 1.06688 0
M  V30 2231 H 218.997 1.49773 3.58361 0
M  V30 2232 H 220.729 1.73429 3.65656 0
M  V30 2233 H 217.484 3.64984 3.01801 0
M  V30 2234 H 217.908 6.24105 2.6234 0
M  V30 2235 H 222.55 3.33769 2.59534 0
M  V30 2236 H 220.268 7.77313 2.20932 0
M  V30 2237 H 223.854 5.39664 2.1738 0
M  V30 2238 H 222.734 7.58659 1.98511 0
M  V30 2239 N 220.237 -1.11381 1.11499 0
M  V30 2240 C 221.648 -1.6465 0.880191 0
M  V30 2241 C 221.999 -1.87199 -0.587434 0
M  V30 2242 O 221.124 -1.60667 -1.44966 0
M  V30 2243 C 221.719 -2.99105 1.59128 0
M  V30 2244 C 220.278 -3.49279 1.40289 0
M  V30 2245 C 219.425 -2.24077 1.63354 0
M  V30 2246 H 222.376 -0.950123 1.27116 0
M  V30 2247 H 222.397 -3.66107 1.03664 0
M  V30 2248 H 221.909 -2.82661 2.65941 0
M  V30 2249 H 220.01 -3.70887 0.356888 0
M  V30 2250 H 220.123 -4.2803 2.15238 0
M  V30 2251 H 218.487 -2.31733 1.05698 0
M  V30 2252 H 219.27 -2.10175 2.71443 0
M  V30 2253 N 221.715 -0.905404 -1.28997 0
M  V30 2254 C 222.961 -0.535039 -1.95615 0
M  V30 2255 C 223.294 0.917404 -1.71165 0
M  V30 2256 O 222.569 1.65123 -1.02785 0
M  V30 2257 C 222.852 -0.834918 -3.50287 0
M  V30 2258 C 222.705 -2.33948 -3.84172 0
M  V30 2259 C 224.024 -0.325318 -4.38896 0
M  V30 2260 H 221.143 -0.195861 -0.710498 0
M  V30 2261 H 223.785 -1.13313 -1.52513 0
M  V30 2262 H 221.935 -0.325904 -3.87131 0
M  V30 2263 H 223.607 -2.91847 -3.57243 0
M  V30 2264 H 221.85 -2.79789 -3.31513 0
M  V30 2265 H 222.521 -2.49987 -4.92149 0
M  V30 2266 H 224.997 -0.761256 -4.09077 0
M  V30 2267 H 223.873 -0.564295 -5.45992 0
M  V30 2268 H 224.134 0.774144 -4.35269 0
M  V30 2269 N 223.193 1.4272 -0.668489 0
M  V30 2270 C 224.14 2.30796 0.0137489 0
M  V30 2271 C 225.11 1.4561 0.799177 0
M  V30 2272 O 226.295 1.74453 0.772702 0
M  V30 2273 C 223.435 3.31377 0.963507 0
M  V30 2274 C 222.548 4.31655 0.172569 0
M  V30 2275 C 221.683 5.19312 1.1175 0
M  V30 2276 C 220.722 6.11274 0.317886 0
M  V30 2277 N 219.859 6.91504 1.2152 0
M  V30 2278 H 224.699 2.88585 -0.743161 0
M  V30 2279 H 222.236 1.42154 -0.378226 0
M  V30 2280 H 224.194 3.88214 1.52792 0
M  V30 2281 H 222.824 2.75202 1.68712 0
M  V30 2282 H 221.876 3.76988 -0.508374 0
M  V30 2283 H 223.188 4.96779 -0.448527 0
M  V30 2284 H 222.342 5.80851 1.75206 0
M  V30 2285 H 221.081 4.5435 1.77249 0
M  V30 2286 H 220.086 5.48809 -0.329918 0
M  V30 2287 H 221.311 6.78283 -0.332917 0
M  V30 2288 H 219.257 6.29176 1.85671 0
M  V30 2289 H 219.174 7.53209 0.649036 0
M  V30 2290 H 220.442 7.57535 1.83742 0
M  V30 2291 N 224.671 0.411399 1.52136 0
M  V30 2292 C 225.618 -0.412975 2.27075 0
M  V30 2293 C 226.588 -1.03912 1.29582 0
M  V30 2294 O 227.773 -1.06296 1.58448 0
M  V30 2295 C 224.913 -1.52247 3.09701 0
M  V30 2296 C 224.026 -0.917021 4.22155 0
M  V30 2297 C 223.161 -1.9994 4.92135 0
M  V30 2298 C 222.2 -1.37101 5.96548 0
M  V30 2299 N 221.337 -2.39364 6.60038 0
M  V30 2300 H 226.177 0.232499 2.97092 0
M  V30 2301 H 223.714 0.126496 1.46555 0
M  V30 2302 H 225.672 -2.17674 3.55913 0
M  V30 2303 H 224.302 -2.13794 2.41851 0
M  V30 2304 H 223.354 -0.151742 3.80097 0
M  V30 2305 H 224.666 -0.418006 4.97045 0
M  V30 2306 H 223.82 -2.73088 5.41763 0
M  V30 2307 H 222.559 -2.53208 4.16818 0
M  V30 2308 H 221.564 -0.624873 5.46237 0
M  V30 2309 H 222.789 -0.845998 6.7381 0
M  V30 2310 H 220.735 -2.91759 5.87548 0
M  V30 2311 H 220.652 -1.9428 7.3061 0
M  V30 2312 H 221.92 -3.12074 7.14304 0
M  V30 2313 N 226.149 -1.5696 0.141893 0
M  V30 2314 C 227.096 -2.16501 -0.799737 0
M  V30 2315 C 228.066 -1.09643 -1.24771 0
M  V30 2316 O 229.251 -1.3766 -1.32115 0
M  V30 2317 C 226.391 -2.78679 -2.03549 0
M  V30 2318 C 225.504 -3.99914 -1.6338 0
M  V30 2319 C 224.639 -4.50106 -2.82096 0
M  V30 2320 C 223.678 -5.63819 -2.38275 0
M  V30 2321 N 222.815 -6.08651 -3.49983 0
M  V30 2322 H 227.655 -2.96632 -0.285179 0
M  V30 2323 H 225.192 -1.46533 -0.129053 0
M  V30 2324 H 227.15 -3.1287 -2.75986 0
M  V30 2325 H 225.78 -2.012 -2.52425 0
M  V30 2326 H 224.832 -3.71735 -0.807279 0
M  V30 2327 H 226.144 -4.82311 -1.27192 0
M  V30 2328 H 225.298 -4.86325 -3.62729 0
M  V30 2329 H 224.037 -3.66706 -3.21525 0
M  V30 2330 H 223.042 -5.2718 -1.56081 0
M  V30 2331 H 224.267 -6.49 -1.99938 0
M  V30 2332 H 222.213 -5.28188 -3.89042 0
M  V30 2333 H 222.13 -6.85961 -3.17794 0
M  V30 2334 H 223.398 -6.49515 -4.30988 0
M  V30 2335 N 227.627 0.131896 -1.57047 0
M  V30 2336 C 228.857 0.855219 -1.88068 0
M  V30 2337 C 229.265 1.74557 -0.729817 0
M  V30 2338 O 228.608 1.81083 0.308962 0
M  V30 2339 C 228.67 1.75119 -3.13964 0
M  V30 2340 C 228.334 1.03646 -4.45091 0
M  V30 2341 C 229.331 0.383276 -5.18485 0
M  V30 2342 C 227.016 1.02148 -4.91804 0
M  V30 2343 C 229.01 -0.275347 -6.36805 0
M  V30 2344 C 226.697 0.359047 -6.10044 0
M  V30 2345 C 227.695 -0.288222 -6.82392 0
M  V30 2346 O 227.383 -0.94011 -7.98384 0
M  V30 2347 H 227.115 0.251864 -0.627328 0
M  V30 2348 H 229.669 0.124782 -2.05021 0
M  V30 2349 H 227.899 2.52295 -2.9306 0
M  V30 2350 H 229.588 2.3478 -3.31109 0
M  V30 2351 H 230.354 0.386562 -4.83457 0
M  V30 2352 H 226.233 1.5147 -4.35405 0
M  V30 2353 H 229.777 -0.781148 -6.93213 0
M  V30 2354 H 225.674 0.35348 -6.44531 0
M  V30 2355 H 226.442 -0.84329 -8.14144 0
M  V30 2356 N 229.106 1.52395 0.401703 0
M  V30 2357 C 230.354 1.66488 1.14569 0
M  V30 2358 C 230.675 0.400897 1.90835 0
M  V30 2359 O 229.945 -0.584415 1.8698 0
M  V30 2360 H 228.525 0.613672 0.425929 0
M  V30 2361 H 231.187 1.89464 0.457093 0
M  V30 2362 H 230.283 2.50942 1.85566 0
M  V30 2363 N 230.584 -0.659388 1.43143 0
M  V30 2364 C 231.531 -1.77249 1.47822 0
M  V30 2365 C 232.501 -1.62818 0.328558 0
M  V30 2366 O 233.686 -1.83151 0.534838 0
M  V30 2367 C 230.826 -3.15371 1.40126 0
M  V30 2368 C 229.939 -3.4098 2.65249 0
M  V30 2369 C 229.074 -4.68915 2.49584 0
M  V30 2370 C 228.113 -4.87608 3.70006 0
M  V30 2371 N 227.25 -6.06796 3.53189 0
M  V30 2372 H 232.09 -1.72584 2.42938 0
M  V30 2373 H 229.627 -0.842297 1.20598 0
M  V30 2374 H 231.585 -3.9521 1.33659 0
M  V30 2375 H 230.215 -3.19121 0.485964 0
M  V30 2376 H 229.267 -2.55282 2.8202 0
M  V30 2377 H 230.579 -3.50681 3.54717 0
M  V30 2378 H 229.733 -5.56871 2.4079 0
M  V30 2379 H 228.472 -4.61524 1.5763 0
M  V30 2380 H 227.477 -3.9809 3.79215 0
M  V30 2381 H 228.702 -4.96834 4.62961 0
M  V30 2382 H 226.648 -6.00549 2.63965 0
M  V30 2383 H 226.565 -6.17428 4.36255 0
M  V30 2384 H 227.833 -6.9739 3.48236 0
M  V30 2385 N 232.062 -1.29571 -0.897171 0
M  V30 2386 C 233.009 -1.14916 -2.00158 0
M  V30 2387 C 233.979 -0.0418149 -1.66047 0
M  V30 2388 O 235.164 -0.209793 -1.89643 0
M  V30 2389 C 232.304 -0.834307 -3.34863 0
M  V30 2390 C 231.417 -2.02234 -3.8174 0
M  V30 2391 C 230.552 -1.64664 -5.05034 0
M  V30 2392 C 229.591 -2.80033 -5.44286 0
M  V30 2393 N 228.728 -2.42843 -6.58765 0
M  V30 2394 H 233.568 -2.09403 -2.12025 0
M  V30 2395 H 231.105 -1.042 -1.0383 0
M  V30 2396 H 233.063 -0.632436 -4.12379 0
M  V30 2397 H 231.693 0.0736656 -3.22716 0
M  V30 2398 H 230.745 -2.33583 -3.00238 0
M  V30 2399 H 232.057 -2.88673 -4.06779 0
M  V30 2400 H 231.211 -1.4078 -5.9014 0
M  V30 2401 H 229.95 -0.753766 -4.8184 0
M  V30 2402 H 228.955 -3.04596 -4.57713 0
M  V30 2403 H 230.18 -3.69989 -5.6946 0
M  V30 2404 H 228.126 -1.56046 -6.3717 0
M  V30 2405 H 228.043 -3.22815 -6.83613 0
M  V30 2406 H 229.311 -2.22285 -7.47134 0
M  V30 2407 N 233.54 1.10788 -1.12088 0
M  V30 2408 C 234.47 2.19083 -0.807755 0
M  V30 2409 C 235.451 1.6858 0.226859 0
M  V30 2410 O 236.636 1.93997 0.0888475 0
M  V30 2411 C 233.766 3.46344 -0.257576 0
M  V30 2412 C 232.72 4.101 -1.22483 0
M  V30 2413 C 232.046 5.32016 -0.535052 0
M  V30 2414 C 233.346 4.54236 -2.57811 0
M  V30 2415 H 235.04 2.45534 -1.71328 0
M  V30 2416 H 232.586 1.1801 -0.825205 0
M  V30 2417 H 234.539 4.21392 -0.0262679 0
M  V30 2418 H 233.263 3.19373 0.683278 0
M  V30 2419 H 231.922 3.37054 -1.44189 0
M  V30 2420 H 231.57 5.01319 0.410827 0
M  V30 2421 H 231.27 5.75625 -1.18024 0
M  V30 2422 H 232.794 6.09799 -0.312695 0
M  V30 2423 H 234.208 5.20575 -2.40155 0
M  V30 2424 H 232.605 5.08682 -3.18375 0
M  V30 2425 H 233.675 3.6734 -3.16528 0
M  V30 2426 N 235.018 0.912232 1.28515 0
M  V30 2427 C 236.243 0.559774 1.99703 0
M  V30 2428 C 236.668 -0.851393 1.67729 0
M  V30 2429 O 236.026 -1.56875 0.908834 0
M  V30 2430 C 236.074 0.773874 3.52198 0
M  V30 2431 O 235.178 -0.167842 4.12058 0
M  V30 2432 H 234.519 0.21723 0.627461 0
M  V30 2433 H 237.049 1.22725 1.63706 0
M  V30 2434 H 237.059 0.683386 4.02236 0
M  V30 2435 H 235.734 1.80261 3.74805 0
M  V30 2436 H 234.311 -0.0287509 3.72889 0
M  V30 2437 N 236.496 -1.42363 0.676048 0
M  V30 2438 C 237.742 -2.02336 0.207809 0
M  V30 2439 C 238.097 -1.52506 -1.17302 0
M  V30 2440 O 237.39 -0.718048 -1.77636 0
M  V30 2441 C 237.584 -3.56929 0.183431 0
M  V30 2442 C 237.413 -4.21762 1.56036 0
M  V30 2443 C 236.183 -4.56881 2.15842 0
M  V30 2444 C 238.381 -4.49267 2.50327 0
M  V30 2445 N 236.363 -5.069 3.46303 0
M  V30 2446 C 237.734 -5.00851 3.65443 0
M  V30 2447 C 239.789 -4.31257 2.48841 0
M  V30 2448 C 238.492 -5.36317 4.79329 0
M  V30 2449 C 240.518 -4.678 3.61824 0
M  V30 2450 C 239.88 -5.19537 4.75668 0
M  V30 2451 H 235.979 -0.772583 0.120993 0
M  V30 2452 H 238.563 -1.73203 0.889306 0
M  V30 2453 H 236.734 -3.85576 -0.467483 0
M  V30 2454 H 238.466 -4.03603 -0.297808 0
M  V30 2455 H 235.221 -4.4268 1.68319 0
M  V30 2456 H 235.645 -5.36338 4.13123 0
M  V30 2457 H 240.287 -3.90511 1.62051 0
M  V30 2458 H 238.005 -5.75995 5.66794 0
M  V30 2459 H 241.591 -4.55541 3.61903 0
M  V30 2460 H 240.471 -5.47287 5.61646 0
M  V30 2461 N 237.974 -0.419461 -1.51915 0
M  V30 2462 C 238.937 0.389116 -2.25873 0
M  V30 2463 C 239.937 0.964924 -1.28631 0
M  V30 2464 O 241.127 0.842179 -1.52489 0
M  V30 2465 C 238.259 1.54874 -3.03689 0
M  V30 2466 H 239.452 -0.258799 -2.98781 0
M  V30 2467 H 237.005 -0.172209 -1.55348 0
M  V30 2468 H 237.74 2.23323 -2.35154 0
M  V30 2469 H 237.525 1.14223 -3.75094 0
M  V30 2470 H 239.015 2.12046 -3.59759 0
M  V30 2471 N 239.452 1.56882 -0.150215 0
M  V30 2472 C 240.729 1.87844 0.545327 0
M  V30 2473 C 241.109 1.0567 1.82749 0
M  V30 2474 O 240.457 0.144442 2.28043 0
M  V30 2475 C 240.667 3.39526 0.80767 0
M  V30 2476 C 242.015 4.08814 1.14703 0
M  V30 2477 O 243.039 3.44723 0.896917 0
M  V30 2478 O 241.898 5.22004 1.61784 0
M  V30 2479 H 238.992 0.778677 0.278553 0
M  V30 2480 H 241.538 1.68666 -0.187068 0
M  V30 2481 H 240.31 3.91173 -0.0996096 0
M  V30 2482 H 239.933 3.64243 1.59413 0
M  V30 2483 N 240.93 -0.123565 1.57115 0
M  V30 2484 C 241.86 -1.15309 2.03042 0
M  V30 2485 C 242.841 -1.43454 0.914061 0
M  V30 2486 O 244.026 -1.53973 1.18347 0
M  V30 2487 C 241.156 -2.48043 2.43089 0
M  V30 2488 C 240.11 -2.3437 3.58127 0
M  V30 2489 C 239.436 -3.72026 3.84059 0
M  V30 2490 C 240.736 -1.80804 4.90007 0
M  V30 2491 H 242.43 -0.771102 2.893 0
M  V30 2492 H 239.976 -0.369479 1.39179 0
M  V30 2493 H 241.929 -3.20311 2.73823 0
M  V30 2494 H 240.653 -2.88122 1.53796 0
M  V30 2495 H 239.312 -1.64551 3.27595 0
M  V30 2496 H 238.96 -4.09582 2.91979 0
M  V30 2497 H 238.66 -3.63732 4.6149 0
M  V30 2498 H 240.184 -4.45806 4.1724 0
M  V30 2499 H 241.598 -2.42886 5.19307 0
M  V30 2500 H 239.995 -1.83343 5.71407 0
M  V30 2501 H 241.065 -0.76528 4.78823 0
M  V30 2502 N 242.408 -1.52605 -0.393616 0
M  V30 2503 C 243.657 -1.66649 -1.13627 0
M  V30 2504 C 243.97 -0.410364 -1.91247 0
M  V30 2505 O 245.176 -0.430854 -2.68059 0
M  V30 2506 C 243.632 -2.9449 -2.06891 0
M  V30 2507 C 243.24 -4.27266 -1.34714 0
M  V30 2508 C 244.984 -3.17899 -2.81319 0
M  V30 2509 C 242.891 -5.46217 -2.26717 0
M  V30 2510 H 241.821 -0.62084 -0.427871 0
M  V30 2511 H 244.472 -1.791 -0.399428 0
M  V30 2512 H 242.854 -2.75774 -2.84191 0
M  V30 2513 H 244.028 -4.56518 -0.626714 0
M  V30 2514 H 242.343 -4.10081 -0.722643 0
M  V30 2515 H 244.94 -4.03949 -3.50328 0
M  V30 2516 H 245.283 -2.32777 -3.45139 0
M  V30 2517 H 245.816 -3.37159 -2.11113 0
M  V30 2518 H 242.555 -6.33733 -1.67521 0
M  V30 2519 H 242.075 -5.21283 -2.96689 0
M  V30 2520 H 243.754 -5.7991 -2.86903 0
M  V30 2521 N 243.887 0.651787 -1.4349 0
M  V30 2522 C 245.133 1.41376 -1.45398 0
M  V30 2523 C 245.466 1.94041 -0.0784823 0
M  V30 2524 O 244.741 1.72379 0.900878 0
M  V30 2525 C 245.024 2.59414 -2.49752 0
M  V30 2526 C 244.877 2.12232 -3.96582 0
M  V30 2527 C 246.196 3.61626 -2.50827 0
M  V30 2528 H 243.315 0.512719 -0.529422 0
M  V30 2529 H 245.957 0.738796 -1.75048 0
M  V30 2530 H 244.107 3.16997 -2.246 0
M  V30 2531 H 245.779 1.59639 -4.32797 0
M  V30 2532 H 244.022 1.43592 -4.09346 0
M  V30 2533 H 244.693 2.9712 -4.65214 0
M  V30 2534 H 247.169 3.13805 -2.7325 0
M  V30 2535 H 246.045 4.41766 -3.25783 0
M  V30 2536 H 246.306 4.14314 -1.5426 0
M  V30 2537 N 245.365 1.30045 0.890287 0
M  V30 2538 C 246.612 1.18561 1.64163 0
M  V30 2539 C 246.94 -0.260852 1.92743 0
M  V30 2540 O 246.195 -1.20376 1.54299 0
M  V30 2541 C 246.494 1.95409 2.99249 0
M  V30 2542 C 246.16 3.45066 2.90242 0
M  V30 2543 C 244.822 3.85878 2.87492 0
M  V30 2544 C 247.174 4.4039 2.78758 0
M  V30 2545 C 244.502 5.20314 2.7109 0
M  V30 2546 C 246.854 5.74928 2.63894 0
M  V30 2547 C 245.518 6.14986 2.59516 0
M  V30 2548 H 244.788 0.433846 0.600715 0
M  V30 2549 H 247.435 1.61088 1.03552 0
M  V30 2550 H 245.74 1.45501 3.63781 0
M  V30 2551 H 247.437 1.8392 3.56334 0
M  V30 2552 H 244.027 3.12631 2.93189 0
M  V30 2553 H 248.211 4.09806 2.79952 0
M  V30 2554 H 243.467 5.50449 2.66112 0
M  V30 2555 H 247.641 6.48434 2.53981 0
M  V30 2556 H 245.268 7.19104 2.46565 0
M  V30 2557 N 246.843 -1.10192 1.12674 0
M  V30 2558 C 247.806 -2.14786 0.799979 0
M  V30 2559 C 248.806 -1.59711 -0.18685 0
M  V30 2560 O 249.996 -1.74156 0.0392558 0
M  V30 2561 C 247.128 -3.40374 0.189228 0
M  V30 2562 H 248.321 -2.45203 1.72671 0
M  V30 2563 H 245.874 -1.25597 0.930326 0
M  V30 2564 H 246.609 -3.15577 -0.747107 0
M  V30 2565 H 246.394 -3.81637 0.899766 0
M  V30 2566 H 247.884 -4.17594 -0.0228143 0
M  V30 2567 N 248.321 -0.919034 -1.28029 0
M  V30 2568 C 249.569 -0.553838 -1.94363 0
M  V30 2569 C 249.89 0.906357 -1.72656 0
M  V30 2570 O 249.16 1.64143 -1.0693 0
M  V30 2571 H 247.74 -0.201834 -0.719216 0
M  V30 2572 H 250.402 -1.16954 -1.55909 0
M  V30 2573 H 249.498 -0.752758 -3.02886 0
M  V30 2574 N 249.799 1.42003 -0.683588 0
M  V30 2575 C 250.747 2.326 0.000815408 0
M  V30 2576 C 251.741 1.50308 0.781278 0
M  V30 2577 O 252.947 1.66322 0.688251 0
M  V30 2578 H 249.322 0.751758 0.0190616 0
M  V30 2579 H 251.293 2.88011 -0.780528 0
M  V30 2580 C 250.042 3.34978 0.93195 0
M  V30 2581 H 249.365 3.98345 0.340817 0
M  V30 2582 H 250.805 4.00936 1.37936 0
M  V30 2583 C 249.264 2.67925 2.04249 0
M  V30 2584 O 249.794 2.51788 3.12995 0
M  V30 2585 N 248 2.2681 1.81675 0
M  V30 2586 H 247.547 2.40135 0.932363 0
M  V30 2587 H 247.505 1.8228 2.56167 0
M  V30 2588 N 251.277 0.427512 1.51691 0
M  V30 2589 C 252.517 -0.141524 2.03909 0
M  V30 2590 C 252.881 -1.40811 1.30523 0
M  V30 2591 O 254.082 -2.05676 1.73063 0
M  V30 2592 C 252.353 -0.364962 3.55532 0
M  V30 2593 S 253.912 -0.898812 4.29496 0
M  V30 2594 H 250.73 -0.0364542 0.710065 0
M  V30 2595 H 253.332 0.584659 1.86553 0
M  V30 2596 H 252.036 0.56336 4.06515 0
M  V30 2597 H 251.567 -1.1185 3.77164 0
M  V30 2598 H 253.582 -2.17747 4.45871 0
M  V30 2599 N 252.755 -1.56801 0.158532 0
M  V30 2600 C 253.718 -2.16138 -0.762705 0
M  V30 2601 C 254.718 -1.1061 -1.16713 0
M  V30 2602 O 255.908 -1.36191 -1.08617 0
M  V30 2603 C 253.04 -2.73386 -2.03649 0
M  V30 2604 H 254.233 -2.98886 -0.246354 0
M  V30 2605 H 251.786 -1.56035 -0.0909744 0
M  V30 2606 H 252.521 -1.94335 -2.59623 0
M  V30 2607 H 252.306 -3.50601 -1.75559 0
M  V30 2608 H 253.796 -3.19065 -2.6942 0
M  V30 2609 N 254.233 0.115231 -1.57178 0
M  V30 2610 C 255.163 1.1423 -2.03651 0
M  V30 2611 C 256.144 1.42967 -0.921655 0
M  V30 2612 O 257.329 1.53343 -1.19162 0
M  V30 2613 C 254.459 2.4675 -2.44401 0
M  V30 2614 C 253.413 2.32467 -3.59365 0
M  V30 2615 C 252.739 3.69984 -3.86026 0
M  V30 2616 C 254.039 1.78203 -4.90959 0
M  V30 2617 H 255.733 0.755749 -2.89705 0
M  V30 2618 H 253.279 0.362093 -1.39373 0
M  V30 2619 H 255.232 3.18854 -2.75517 0
M  V30 2620 H 253.956 2.87302 -1.55322 0
M  V30 2621 H 252.615 1.62811 -3.28463 0
M  V30 2622 H 252.263 4.08028 -2.94147 0
M  V30 2623 H 251.963 3.61279 -4.63412 0
M  V30 2624 H 253.487 4.43587 -4.19599 0
M  V30 2625 H 254.901 2.40128 -5.20587 0
M  V30 2626 H 253.298 1.8031 -5.72371 0
M  V30 2627 H 254.368 0.739876 -4.79222 0
M  V30 2628 N 255.711 1.52812 0.385517 0
M  V30 2629 C 256.621 1.80766 1.49535 0
M  V30 2630 C 257.637 0.694651 1.59532 0
M  V30 2631 O 258.813 0.982611 1.75803 0
M  V30 2632 C 255.878 1.97381 2.85029 0
M  V30 2633 C 254.939 3.21295 2.84724 0
M  V30 2634 C 254.172 3.37108 4.13756 0
M  V30 2635 O 254.395 2.5765 5.08893 0
M  V30 2636 O 253.329 4.30378 4.20783 0
M  V30 2637 H 257.155 2.75015 1.28842 0
M  V30 2638 H 254.74 1.37946 0.573697 0
M  V30 2639 H 256.622 2.09996 3.65349 0
M  V30 2640 H 255.297 1.06322 3.05741 0
M  V30 2641 H 254.204 3.1412 2.03174 0
M  V30 2642 H 255.537 4.12212 2.68965 0
M  V30 2643 N 257.189 -0.644168 1.43834 0
M  V30 2644 C 258.414 -1.43642 1.49605 0
M  V30 2645 C 258.839 -1.8773 0.117913 0
M  V30 2646 O 258.197 -1.57938 -0.890239 0
M  V30 2647 C 258.245 -2.6416 2.45463 0
M  V30 2648 O 257.349 -3.63538 1.94714 0
M  V30 2649 H 256.69 -0.430329 0.50568 0
M  V30 2650 H 259.22 -0.787448 1.8884 0
M  V30 2651 H 259.23 -3.11864 2.63068 0
M  V30 2652 H 257.905 -2.31414 3.45572 0
M  V30 2653 H 256.482 -3.2273 1.86814 0
M  V30 2654 N 258.668 -1.30515 -0.883378 0
M  V30 2655 C 259.601 -1.11359 -1.99184 0
M  V30 2656 C 260.579 -0.0207858 -1.62587 0
M  V30 2657 O 261.763 -0.174646 -1.87689 0
M  V30 2658 C 258.89 -0.69871 -3.31415 0
M  V30 2659 C 257.936 -1.79261 -3.86998 0
M  V30 2660 S 258.769 -3.39536 -4.14096 0
M  V30 2661 C 259.925 -2.99954 -5.49344 0
M  V30 2662 H 260.158 -2.052 -2.15128 0
M  V30 2663 H 257.691 -1.14847 -1.03196 0
M  V30 2664 H 259.649 -0.466075 -4.07846 0
M  V30 2665 H 258.31 0.220368 -3.13326 0
M  V30 2666 H 257.503 -1.45464 -4.82552 0
M  V30 2667 H 257.105 -1.97961 -3.17313 0
M  V30 2668 H 259.397 -2.48013 -6.30473 0
M  V30 2669 H 260.34 -3.9442 -5.8808 0
M  V30 2670 H 260.748 -2.37775 -5.1198 0
M  V30 2671 N 260.146 1.09593 -1.13257 0
M  V30 2672 C 261.394 1.81375 -0.891492 0
M  V30 2673 C 261.715 1.86049 0.584009 0
M  V30 2674 O 260.985 1.34481 1.42449 0
M  V30 2675 H 259.565 0.671708 -0.326828 0
M  V30 2676 H 262.227 1.3256 -1.42877 0
M  V30 2677 H 261.323 2.84612 -1.28071 0
M  V30 2678 N 261.624 0.925811 1.2754 0
M  V30 2679 C 262.871 0.565255 1.94451 0
M  V30 2680 C 263.199 -0.89316 1.7278 0
M  V30 2681 O 262.454 -1.65213 1.04895 0
M  V30 2682 C 262.753 0.835296 3.47502 0
M  V30 2683 C 262.419 2.27515 3.89291 0
M  V30 2684 C 261.081 2.66879 4.00411 0
M  V30 2685 C 263.433 3.21158 4.10496 0
M  V30 2686 C 260.761 3.99014 4.30122 0
M  V30 2687 C 263.113 4.52871 4.4169 0
M  V30 2688 C 261.777 4.92072 4.51023 0
M  V30 2689 H 261.047 0.206841 0.711546 0
M  V30 2690 H 263.694 1.16942 1.51647 0
M  V30 2691 H 261.999 0.148442 3.91519 0
M  V30 2692 H 263.696 0.535322 3.97411 0
M  V30 2693 H 260.286 1.95976 3.81171 0
M  V30 2694 H 264.47 2.9195 4.01346 0
M  V30 2695 H 259.726 4.2907 4.35556 0
M  V30 2696 H 263.9 5.25436 4.57045 0
M  V30 2697 H 261.527 5.9449 4.738 0
M  V30 2698 N 263.102 -1.41638 0.69111 0
M  V30 2699 C 264.049 -2.30789 0.0229705 0
M  V30 2700 C 265.019 -1.46863 -0.775911 0
M  V30 2701 O 266.204 -1.75661 -0.74485 0
M  V30 2702 C 263.344 -3.32868 -0.910666 0
M  V30 2703 C 262.457 -4.31875 -0.103874 0
M  V30 2704 C 261.592 -5.21024 -1.03475 0
M  V30 2705 C 260.631 -6.11702 -0.220598 0
M  V30 2706 N 259.768 -6.93349 -1.10504 0
M  V30 2707 H 264.608 -2.87366 0.788978 0
M  V30 2708 H 262.145 -1.41535 0.400794 0
M  V30 2709 H 264.103 -3.90596 -1.46597 0
M  V30 2710 H 262.733 -2.77851 -1.64312 0
M  V30 2711 H 261.785 -3.76131 0.568285 0
M  V30 2712 H 263.097 -4.96003 0.527504 0
M  V30 2713 H 262.251 -5.83565 -1.65943 0
M  V30 2714 H 260.99 -4.57112 -1.69999 0
M  V30 2715 H 259.995 -5.48215 0.417187 0
M  V30 2716 H 261.22 -6.77668 0.440784 0
M  V30 2717 H 259.166 -6.3205 -1.75638 0
M  V30 2718 H 259.083 -7.54146 -0.529125 0
M  V30 2719 H 260.351 -7.60362 -1.71667 0
M  V30 2720 N 264.58 -0.43555 -1.51462 0
M  V30 2721 C 265.808 0.130242 -2.0649 0
M  V30 2722 C 266.223 1.36614 -1.30315 0
M  V30 2723 O 265.58 1.78869 -0.362223 0
M  V30 2724 C 265.631 0.454253 -3.58635 0
M  V30 2725 O 265.352 -0.73259 -4.31931 0
M  V30 2726 C 266.853 1.07091 -4.3017 0
M  V30 2727 H 264.073 0.00871669 -0.670943 0
M  V30 2728 H 266.617 -0.614117 -1.95061 0
M  V30 2729 H 264.772 1.14851 -3.69984 0
M  V30 2730 H 265.186 -0.455787 -5.22516 0
M  V30 2731 H 266.66 1.24764 -5.37716 0
M  V30 2732 H 267.137 2.05144 -3.88346 0
M  V30 2733 H 267.743 0.416089 -4.2326 0
M  V30 2734 N 266.058 1.56714 -0.166846 0
M  V30 2735 C 267.305 1.96747 0.479252 0
M  V30 2736 C 267.633 1.05263 1.63554 0
M  V30 2737 O 266.888 0.0858098 1.95512 0
M  V30 2738 C 267.187 3.42889 1.00806 0
M  V30 2739 C 266.853 4.50889 -0.0318574 0
M  V30 2740 C 265.515 4.8015 -0.317675 0
M  V30 2741 C 267.867 5.15949 -0.737956 0
M  V30 2742 C 265.195 5.71772 -1.31506 0
M  V30 2743 C 267.547 6.08647 -1.72429 0
M  V30 2744 C 266.211 6.36277 -2.0176 0
M  V30 2745 H 265.481 0.719949 0.175371 0
M  V30 2746 H 268.128 1.89756 -0.257864 0
M  V30 2747 H 266.433 3.4681 1.82291 0
M  V30 2748 H 268.13 3.71203 1.51689 0
M  V30 2749 H 264.72 4.28128 0.201088 0
M  V30 2750 H 268.904 4.93458 -0.530351 0
M  V30 2751 H 264.16 5.91465 -1.54853 0
M  V30 2752 H 268.334 6.58129 -2.27682 0
M  V30 2753 H 265.961 7.07075 -2.79194 0
M  V30 2754 N 267.536 -0.106894 1.57237 0
M  V30 2755 C 268.784 -0.810921 1.85117 0
M  V30 2756 C 269.105 -1.7984 0.753827 0
M  V30 2757 O 268.375 -1.94649 -0.221056 0
M  V30 2758 H 266.955 -0.302466 0.683025 0
M  V30 2759 H 269.617 -0.0913324 1.94686 0
M  V30 2760 H 268.713 -1.34875 2.81452 0
M  V30 2761 N 269.014 -1.53014 -0.377408 0
M  V30 2762 C 270.261 -1.68623 -1.12128 0
M  V30 2763 C 270.589 -0.431997 -1.89642 0
M  V30 2764 O 269.844 0.585855 -1.86725 0
M  V30 2765 C 270.143 -2.87982 -2.11663 0
M  V30 2766 C 269.809 -4.24964 -1.50719 0
M  V30 2767 C 268.471 -4.62217 -1.33825 0
M  V30 2768 C 270.823 -5.10199 -1.06519 0
M  V30 2769 C 268.151 -5.82352 -0.712963 0
M  V30 2770 C 270.503 -6.30969 -0.453955 0
M  V30 2771 C 269.167 -6.66944 -0.272411 0
M  V30 2772 H 268.437 -0.617034 -0.410305 0
M  V30 2773 H 271.084 -1.8718 -0.404484 0
M  V30 2774 H 269.389 -2.63889 -2.89603 0
M  V30 2775 H 271.086 -2.97253 -2.6915 0
M  V30 2776 H 267.676 -3.95626 -1.64858 0
M  V30 2777 H 271.86 -4.81978 -1.18368 0
M  V30 2778 H 267.116 -6.08824 -0.560611 0
M  V30 2779 H 271.29 -6.96324 -0.103217 0
M  V30 2780 H 268.917 -7.59898 0.214181 0
M  V30 2781 N 270.492 0.636531 -1.44174 0
M  V30 2782 C 271.74 1.39343 -1.46383 0
M  V30 2783 C 272.061 1.94766 -0.0955715 0
M  V30 2784 O 271.331 1.75452 0.871395 0
M  V30 2785 H 269.911 0.517199 -0.538994 0
M  V30 2786 H 272.573 0.74957 -1.7991 0
M  V30 2787 H 271.669 2.22746 -2.18611 0
M  V30 2788 N 271.97 1.30982 0.876444 0
M  V30 2789 C 273.217 1.20296 1.62896 0
M  V30 2790 C 273.545 -0.240395 1.93009 0
M  V30 2791 O 272.8 -1.18733 1.55567 0
M  V30 2792 C 273.099 1.98572 2.9716 0
M  V30 2793 C 272.765 3.48125 2.86566 0
M  V30 2794 C 271.427 3.88905 2.83383 0
M  V30 2795 C 273.779 4.43322 2.74071 0
M  V30 2796 C 271.107 5.2316 2.65556 0
M  V30 2797 C 273.459 5.77695 2.57781 0
M  V30 2798 C 272.123 6.17704 2.52979 0
M  V30 2799 H 271.393 0.440193 0.59608 0
M  V30 2800 H 274.04 1.62177 1.01837 0
M  V30 2801 H 272.345 1.49352 3.62217 0
M  V30 2802 H 274.042 1.8769 3.54364 0
M  V30 2803 H 270.632 3.15723 2.89856 0
M  V30 2804 H 274.816 4.12752 2.75589 0
M  V30 2805 H 270.072 5.53241 2.60259 0
M  V30 2806 H 274.246 6.51091 2.47089 0
M  V30 2807 H 271.873 7.21678 2.38924 0
M  V30 2808 N 273.449 -1.08991 1.13837 0
M  V30 2809 C 274.697 -1.80899 0.901098 0
M  V30 2810 C 275.018 -1.86356 -0.574134 0
M  V30 2811 O 274.288 -1.35235 -1.41733 0
M  V30 2812 H 272.868 -0.669966 0.330386 0
M  V30 2813 H 275.53 -1.318 1.43578 0
M  V30 2814 H 274.626 -2.83929 1.29578 0
M  V30 2815 N 274.927 -0.932562 -1.27047 0
M  V30 2816 C 276.343 -0.633544 -1.46487 0
M  V30 2817 C 276.543 0.815746 -1.84249 0
M  V30 2818 O 275.599 1.59319 -1.95892 0
M  V30 2819 C 276.912 -1.58758 -2.55375 0
M  V30 2820 C 278.46 -1.59634 -2.69232 0
M  V30 2821 C 278.935 -2.53747 -3.81283 0
M  V30 2822 N 280.426 -2.51982 -3.88664 0
M  V30 2823 C 281.161 -3.21491 -4.74796 0
M  V30 2824 N 280.657 -4.00395 -5.65381 0
M  V30 2825 N 282.45 -3.10485 -4.68568 0
M  V30 2826 H 274.601 -1.86946 -1.00821 0
M  V30 2827 H 276.864 -0.802897 -0.504044 0
M  V30 2828 H 276.57 -2.62172 -2.34432 0
M  V30 2829 H 276.444 -1.33301 -3.52861 0
M  V30 2830 H 278.831 -0.569488 -2.89553 0
M  V30 2831 H 278.912 -1.89142 -1.72218 0
M  V30 2832 H 278.556 -3.56545 -3.61715 0
M  V30 2833 H 278.486 -2.21532 -4.77735 0
M  V30 2834 H 280.977 -1.94681 -3.23895 0
M  V30 2835 H 281.29 -4.50406 -6.27976 0
M  V30 2836 H 279.635 -4.04498 -5.65161 0
M  V30 2837 H 282.826 -2.48331 -3.96799 0
M  V30 2838 H 282.999 -3.64925 -5.35475 0
M  V30 2839 N 276.405 1.4127 -0.698611 0
M  V30 2840 C 277.651 2.01478 -0.231207 0
M  V30 2841 C 277.984 1.55215 1.16713 0
M  V30 2842 O 277.259 0.764672 1.78838 0
M  V30 2843 C 277.542 3.58912 -0.292281 0
M  V30 2844 C 277.395 4.15293 -1.72778 0
M  V30 2845 C 278.714 4.38736 0.346194 0
M  V30 2846 H 275.833 0.732025 -0.0854878 0
M  V30 2847 H 278.475 1.67977 -0.887906 0
M  V30 2848 H 276.625 3.87582 0.26686 0
M  V30 2849 H 278.297 3.97486 -2.341 0
M  V30 2850 H 276.54 3.7022 -2.26096 0
M  V30 2851 H 277.211 5.24452 -1.72202 0
M  V30 2852 H 279.687 4.15897 -0.130035 0
M  V30 2853 H 278.563 5.48221 0.272932 0
M  V30 2854 H 278.824 4.18425 1.42734 0
M  V30 2855 N 277.883 0.443576 1.51229 0
M  V30 2856 C 279.16 -0.181038 1.9476 0
M  V30 2857 C 279.54 -1.59523 1.38259 0
M  V30 2858 O 278.888 -2.2122 0.572198 0
M  V30 2859 C 279.098 -0.152422 3.48667 0
M  V30 2860 C 280.446 -0.354923 4.23114 0
M  V30 2861 O 281.47 -0.230257 3.55455 0
M  V30 2862 O 280.329 -0.603674 5.43156 0
M  V30 2863 H 277.423 -0.1266 0.817252 0
M  V30 2864 H 279.969 0.502004 1.62105 0
M  V30 2865 H 278.741 0.836022 3.82265 0
M  V30 2866 H 278.364 -0.878107 3.87782 0
M  V30 2867 N 279.361 -1.56624 0.175154 0
M  V30 2868 C 280.293 -2.15333 -0.785128 0
M  V30 2869 C 281.306 -1.1099 -1.19101 0
M  V30 2870 O 282.495 -1.38162 -1.13019 0
M  V30 2871 C 279.595 -2.68427 -2.06882 0
M  V30 2872 C 278.768 -3.97466 -1.8259 0
M  V30 2873 C 277.827 -4.35585 -2.95215 0
M  V30 2874 O 276.853 -5.03389 -2.65684 0
M  V30 2875 N 278.055 -3.97457 -4.23094 0
M  V30 2876 H 280.82 -2.98359 -0.283187 0
M  V30 2877 H 278.381 -1.61898 -0.00749817 0
M  V30 2878 H 280.373 -2.90924 -2.81328 0
M  V30 2879 H 278.943 -1.89968 -2.48256 0
M  V30 2880 H 278.163 -3.83307 -0.920287 0
M  V30 2881 H 279.451 -4.81736 -1.63733 0
M  V30 2882 H 278.849 -3.42878 -4.49945 0
M  V30 2883 H 277.406 -4.24947 -4.9423 0
M  V30 2884 N 280.839 0.0985539 -1.57292 0
M  V30 2885 C 282.085 0.798769 -1.87059 0
M  V30 2886 C 282.44 1.76514 -0.76555 0
M  V30 2887 O 281.733 1.90181 0.232752 0
M  V30 2888 C 281.927 1.56927 -3.21105 0
M  V30 2889 C 281.756 0.679026 -4.44544 0
M  V30 2890 C 280.526 0.326071 -5.04247 0
M  V30 2891 C 282.724 -0.0124715 -5.14298 0
M  V30 2892 N 280.706 -0.572702 -6.11223 0
M  V30 2893 C 282.077 -0.769446 -6.15207 0
M  V30 2894 C 284.132 -0.0867545 -4.97824 0
M  V30 2895 C 282.835 -1.59376 -7.01421 0
M  V30 2896 C 284.861 -0.897955 -5.84543 0
M  V30 2897 C 284.223 -1.64306 -6.84969 0
M  V30 2898 H 280.322 0.268568 -0.734435 0
M  V30 2899 H 282.906 0.0614664 -1.94603 0
M  V30 2900 H 281.077 2.27748 -3.1462 0
M  V30 2901 H 282.809 2.21641 -3.38611 0
M  V30 2902 H 279.564 0.67295 -4.68795 0
M  V30 2903 H 279.988 -1.01454 -6.69355 0
M  V30 2904 H 284.63 0.474963 -4.20124 0
M  V30 2905 H 282.348 -2.16655 -7.78515 0
M  V30 2906 H 285.934 -0.958059 -5.73858 0
M  V30 2907 H 284.814 -2.26065 -7.50909 0
M  V30 2908 N 282.317 1.53212 0.369288 0
M  V30 2909 C 283.227 1.82342 1.47609 0
M  V30 2910 C 284.243 0.711532 1.58787 0
M  V30 2911 O 285.419 1.0012 1.74751 0
M  V30 2912 C 282.484 2.00393 2.8292 0
M  V30 2913 C 281.545 3.24297 2.81301 0
M  V30 2914 C 280.778 3.41478 4.10157 0
M  V30 2915 O 281.001 2.63033 5.06132 0
M  V30 2916 O 279.935 4.34817 4.16194 0
M  V30 2917 H 283.761 2.76366 1.25918 0
M  V30 2918 H 281.346 1.38547 0.559034 0
M  V30 2919 H 283.228 2.13859 3.63101 0
M  V30 2920 H 281.903 1.09559 3.04596 0
M  V30 2921 H 280.81 3.16257 1.99831 0
M  V30 2922 H 282.143 4.15041 2.64578 0
M  V30 2923 N 283.795 -0.628877 1.44509 0
M  V30 2924 C 285.206 -1.21054 1.42137 0
M  V30 2925 C 285.557 -1.95715 0.137881 0
M  V30 2926 O 284.682 -2.02554 -0.761645 0
M  V30 2927 C 285.277 -2.20189 2.57493 0
M  V30 2928 C 283.836 -2.73777 2.58308 0
M  V30 2929 C 282.983 -1.48813 2.33987 0
M  V30 2930 H 285.934 -0.41942 1.53057 0
M  V30 2931 H 285.955 -3.02833 2.30375 0
M  V30 2932 H 285.467 -1.6582 3.50892 0
M  V30 2933 H 283.568 -3.32142 1.68856 0
M  V30 2934 H 283.681 -3.19662 3.56865 0
M  V30 2935 H 282.045 -1.77024 1.83124 0
M  V30 2936 H 282.828 -0.963442 3.29504 0
M  V30 2937 N 285.273 -1.31445 -0.869486 0
M  V30 2938 C 286.55 -1.11795 -1.60503 0
M  V30 2939 C 286.93 0.327168 -2.08549 0
M  V30 2940 O 286.278 1.32135 -1.8642 0
M  V30 2941 C 286.488 -2.13258 -2.76265 0
M  V30 2942 C 287.836 -2.45805 -3.46215 0
M  V30 2943 O 288.86 -2.11688 -2.86473 0
M  V30 2944 O 287.719 -3.04228 -4.5399 0
M  V30 2945 H 284.813 -0.430421 -0.706163 0
M  V30 2946 H 287.359 -1.42925 -0.914907 0
M  V30 2947 H 286.131 -3.10461 -2.3818 0
M  V30 2948 H 285.754 -1.83035 -3.52964 0
M  V30 2949 N 286.751 1.08385 -1.14413 0
M  V30 2950 C 287.661 2.18856 -0.844951 0
M  V30 2951 C 288.677 1.73121 0.174668 0
M  V30 2952 O 289.853 2.014 0.00312857 0
M  V30 2953 C 286.918 3.45155 -0.32696 0
M  V30 2954 C 285.979 4.05513 -1.40916 0
M  V30 2955 C 285.212 5.25784 -0.915793 0
M  V30 2956 O 285.435 5.69884 0.242651 0
M  V30 2957 O 284.369 5.77545 -1.69487 0
M  V30 2958 H 288.195 2.46919 -1.76818 0
M  V30 2959 H 285.78 1.17524 -0.922411 0
M  V30 2960 H 287.662 4.21377 -0.0440211 0
M  V30 2961 H 286.337 3.18668 0.568539 0
M  V30 2962 H 285.244 3.30879 -1.74556 0
M  V30 2963 H 286.577 4.3625 -2.27919 0
M  V30 2964 N 288.23 0.939286 1.26551 0
M  V30 2965 C 289.476 0.586715 1.94128 0
M  V30 2966 C 289.809 -0.8717 1.73537 0
M  V30 2967 O 289.084 -1.62339 1.07127 0
M  V30 2968 C 289.367 0.927497 3.4795 0
M  V30 2969 C 289.22 2.44052 3.77834 0
M  V30 2970 C 290.539 0.441569 4.37879 0
M  V30 2971 H 287.658 0.21463 0.705055 0
M  V30 2972 H 290.3 1.17316 1.49455 0
M  V30 2973 H 288.45 0.428431 3.8613 0
M  V30 2974 H 290.122 3.01216 3.4938 0
M  V30 2975 H 288.365 2.8848 3.23978 0
M  V30 2976 H 289.036 2.62947 4.85348 0
M  V30 2977 H 291.512 0.869448 4.06915 0
M  V30 2978 H 290.388 0.708856 5.44304 0
M  V30 2979 H 290.649 -0.658467 4.37169 0
M  V30 2980 N 289.708 -1.40897 0.706093 0
M  V30 2981 C 290.938 -2.05075 0.250523 0
M  V30 2982 C 291.346 -1.53275 -1.10921 0
M  V30 2983 O 290.689 -0.680281 -1.7064 0
M  V30 2984 C 290.751 -3.59219 0.142178 0
M  V30 2985 C 290.415 -4.33864 1.43566 0
M  V30 2986 C 291.412 -4.62448 2.37566 0
M  V30 2987 C 289.097 -4.72946 1.69195 0
M  V30 2988 C 291.091 -5.29088 3.5545 0
M  V30 2989 C 288.778 -5.3932 2.87362 0
M  V30 2990 C 289.776 -5.6732 3.80312 0
M  V30 2991 O 289.464 -6.32325 4.96408 0
M  V30 2992 H 289.196 -0.666645 0.112074 0
M  V30 2993 H 291.75 -1.81467 0.962239 0
M  V30 2994 H 289.98 -3.81609 -0.6254 0
M  V30 2995 H 291.669 -4.0495 -0.277584 0
M  V30 2996 H 292.435 -4.32727 2.19027 0
M  V30 2997 H 288.314 -4.50527 0.977042 0
M  V30 2998 H 291.858 -5.50859 4.28018 0
M  V30 2999 H 287.755 -5.68461 3.05814 0
M  V30 3000 H 288.523 -6.50821 4.9636 0
M  V30 3001 N 291.186 -0.45159 -1.50991 0
M  V30 3002 C 292.432 0.102439 -2.03142 0
M  V30 3003 C 292.787 1.39138 -1.32884 0
M  V30 3004 O 292.08 1.86493 -0.439438 0
M  V30 3005 C 292.274 0.361728 -3.55565 0
M  V30 3006 C 292.103 -0.900535 -4.40591 0
M  V30 3007 C 290.873 -1.43821 -4.844 0
M  V30 3008 C 293.071 -1.79063 -4.82121 0
M  V30 3009 N 291.053 -2.65153 -5.53685 0
M  V30 3010 C 292.424 -2.84991 -5.50618 0
M  V30 3011 C 294.479 -1.80334 -4.64095 0
M  V30 3012 C 293.182 -3.92155 -6.02998 0
M  V30 3013 C 295.208 -2.86442 -5.17402 0
M  V30 3014 C 294.57 -3.9109 -5.85857 0
M  V30 3015 H 290.669 -0.00204537 -0.781997 0
M  V30 3016 H 293.253 -0.615446 -1.84717 0
M  V30 3017 H 291.424 1.04865 -3.73976 0
M  V30 3018 H 293.156 0.908372 -3.94374 0
M  V30 3019 H 289.911 -0.990117 -4.63135 0
M  V30 3020 H 290.335 -3.26717 -5.92946 0
M  V30 3021 H 294.977 -1.00753 -4.1062 0
M  V30 3022 H 292.695 -4.72565 -6.55521 0
M  V30 3023 H 296.281 -2.88386 -5.05297 0
M  V30 3024 H 295.161 -4.71845 -6.26364 0
M  V30 3025 N 292.664 1.56529 -0.183458 0
M  V30 3026 C 293.912 1.96855 0.457452 0
M  V30 3027 C 294.233 1.07104 1.62953 0
M  V30 3028 O 293.503 0.139887 1.954 0
M  V30 3029 H 292.083 0.72693 0.171992 0
M  V30 3030 H 294.745 1.93056 -0.267476 0
M  V30 3031 H 293.841 3.01423 0.809368 0
M  V30 3032 N 294.142 -0.090211 1.57342 0
M  V30 3033 C 295.089 -1.10909 2.02405 0
M  V30 3034 C 296.059 -1.39523 0.901252 0
M  V30 3035 O 297.244 -1.50903 1.1676 0
M  V30 3036 C 294.384 -2.42277 2.45755 0
M  V30 3037 C 293.497 -2.20352 3.71576 0
M  V30 3038 C 292.632 -3.45154 4.03785 0
M  V30 3039 C 291.671 -3.18512 5.22701 0
M  V30 3040 N 290.808 -4.35593 5.50639 0
M  V30 3041 H 295.648 -0.71782 2.89225 0
M  V30 3042 H 293.185 -0.342901 1.43048 0
M  V30 3043 H 295.143 -3.18951 2.68935 0
M  V30 3044 H 293.773 -2.79242 1.61938 0
M  V30 3045 H 292.825 -1.34458 3.55844 0
M  V30 3046 H 294.137 -1.96661 4.58395 0
M  V30 3047 H 293.291 -4.30233 4.27767 0
M  V30 3048 H 292.03 -3.71904 3.15498 0
M  V30 3049 H 291.035 -2.31827 4.98534 0
M  V30 3050 H 292.26 -2.93103 6.12591 0
M  V30 3051 H 290.206 -4.6241 4.6531 0
M  V30 3052 H 290.123 -4.1511 6.31838 0
M  V30 3053 H 291.391 -5.21723 5.7916 0
M  V30 3054 N 295.62 -1.53406 -0.361157 0
M  V30 3055 C 296.53 -1.83122 -1.4664 0
M  V30 3056 C 297.546 -0.719943 -1.58407 0
M  V30 3057 O 298.722 -1.01046 -1.74218 0
M  V30 3058 C 295.787 -2.01891 -2.81853 0
M  V30 3059 C 294.848 -3.25784 -2.79577 0
M  V30 3060 C 294.081 -3.43648 -4.0834 0
M  V30 3061 O 294.304 -2.65714 -5.0473 0
M  V30 3062 O 293.238 -4.37018 -4.13883 0
M  V30 3063 H 297.064 -2.7703 -1.24451 0
M  V30 3064 H 294.649 -1.38841 -0.551678 0
M  V30 3065 H 296.531 -2.15782 -3.61962 0
M  V30 3066 H 295.206 -1.11173 -3.0401 0
M  V30 3067 H 294.113 -3.17312 -1.98151 0
M  V30 3068 H 295.446 -4.16439 -2.62373 0
M  V30 3069 N 297.098 0.621204 -1.44841 0
M  V30 3070 C 298.061 1.71459 -1.521 0
M  V30 3071 C 299.061 1.55696 -0.401933 0
M  V30 3072 O 300.251 1.61011 -0.664925 0
M  V30 3073 C 297.383 3.10624 -1.40447 0
M  V30 3074 H 298.576 1.66394 -2.49506 0
M  V30 3075 H 296.129 0.835745 -1.3208 0
M  V30 3076 H 296.864 3.21277 -0.441737 0
M  V30 3077 H 296.649 3.23473 -2.21602 0
M  V30 3078 H 298.139 3.90293 -1.4853 0
M  V30 3079 N 298.576 1.31904 0.862503 0
M  V30 3080 C 299.804 1.24998 1.64873 0
M  V30 3081 C 300.219 -0.183425 1.87907 0
M  V30 3082 O 299.576 -1.11794 1.44251 0
M  V30 3083 C 299.627 1.99829 3.01248 0
M  V30 3084 O 299.348 3.37575 2.79239 0
M  V30 3085 C 300.849 1.99852 3.95694 0
M  V30 3086 H 298.069 0.431599 0.513773 0
M  V30 3087 H 300.613 1.73901 1.07604 0
M  V30 3088 H 298.768 1.54668 3.55185 0
M  V30 3089 H 299.182 3.75776 3.65914 0
M  V30 3090 H 300.656 2.56709 4.88676 0
M  V30 3091 H 301.133 0.982852 4.28062 0
M  V30 3092 H 301.739 2.44926 3.47694 0
M  V30 3093 N 300.054 -1.07777 1.14986 0
M  V30 3094 C 301.3 -1.80719 0.93339 0
M  V30 3095 C 301.655 -1.8484 -0.534019 0
M  V30 3096 O 300.948 -1.31795 -1.3907 0
M  V30 3097 C 301.142 -3.25495 1.47608 0
M  V30 3098 C 300.971 -3.3548 2.99472 0
M  V30 3099 C 299.741 -3.46293 3.6798 0
M  V30 3100 C 301.939 -3.26596 3.97291 0
M  V30 3101 N 299.921 -3.45136 5.07695 0
M  V30 3102 C 301.292 -3.32506 5.23297 0
M  V30 3103 C 303.347 -3.10376 3.89321 0
M  V30 3104 C 302.05 -3.23866 6.42264 0
M  V30 3105 C 304.076 -3.03069 5.07842 0
M  V30 3106 C 303.438 -3.09587 6.32721 0
M  V30 3107 H 299.537 -0.674814 0.395158 0
M  V30 3108 H 302.121 -1.28681 1.46114 0
M  V30 3109 H 300.292 -3.75963 0.975022 0
M  V30 3110 H 302.024 -3.86535 1.19887 0
M  V30 3111 H 298.779 -3.50456 3.18555 0
M  V30 3112 H 299.203 -3.48097 5.80653 0
M  V30 3113 H 303.845 -3.04194 2.93642 0
M  V30 3114 H 301.563 -3.28807 7.38181 0
M  V30 3115 H 305.149 -2.91629 5.03432 0
M  V30 3116 H 304.029 -3.0397 7.22891 0
M  V30 3117 N 301.532 -0.945985 -1.26051 0
M  V30 3118 C 302.462 -0.477172 -2.28572 0
M  V30 3119 C 303.443 0.472032 -1.63419 0
M  V30 3120 O 304.628 0.372853 -1.90587 0
M  V30 3121 C 301.758 0.253975 -3.4637 0
M  V30 3122 C 300.712 -0.609135 -4.23643 0
M  V30 3123 C 300.038 0.252252 -5.34105 0
M  V30 3124 C 301.338 -1.8829 -4.8718 0
M  V30 3125 H 303.032 -1.33402 -2.68038 0
M  V30 3126 H 300.578 -0.642904 -1.28852 0
M  V30 3127 H 302.531 0.593016 -4.17207 0
M  V30 3128 H 301.255 1.145 -3.05871 0
M  V30 3129 H 299.914 -0.931138 -3.54578 0
M  V30 3130 H 299.562 1.14278 -4.89846 0
M  V30 3131 H 299.262 -0.32188 -5.86718 0
M  V30 3132 H 300.786 0.586454 -6.07777 0
M  V30 3133 H 302.2 -1.61081 -5.50205 0
M  V30 3134 H 300.597 -2.40199 -5.49931 0
M  V30 3135 H 301.667 -2.59134 -4.09851 0
M  V30 3136 N 303.011 1.40521 -0.713556 0
M  V30 3137 C 304.259 2.00527 -0.251692 0
M  V30 3138 C 304.58 1.56857 1.15848 0
M  V30 3139 O 303.85 0.807127 1.785 0
M  V30 3140 H 302.43 0.741551 -0.0900646 0
M  V30 3141 H 305.092 1.71887 -0.918733 0
M  V30 3142 H 304.188 3.10813 -0.283192 0
M  V30 3143 N 304.489 0.459591 1.5075 0
M  V30 3144 C 305.766 -0.160371 1.94941 0
M  V30 3145 C 306.146 -1.58048 1.39943 0
M  V30 3146 O 305.494 -2.206 0.595629 0
M  V30 3147 C 305.704 -0.115432 3.48809 0
M  V30 3148 C 307.052 -0.310026 4.23467 0
M  V30 3149 O 308.076 -0.192543 3.55679 0
M  V30 3150 O 306.935 -0.546031 5.43765 0
M  V30 3151 H 304.029 -0.117925 0.818549 0
M  V30 3152 H 306.575 0.519169 1.61563 0
M  V30 3153 H 305.347 0.87652 3.81357 0
M  V30 3154 H 304.97 -0.836928 3.88692 0
M  V30 3155 N 305.967 -1.56429 0.191757 0
M  V30 3156 C 306.877 -2.22541 -0.742481 0
M  V30 3157 C 307.893 -1.22342 -1.23727 0
M  V30 3158 O 309.069 -1.55069 -1.28513 0
M  V30 3159 C 306.134 -2.8692 -1.94623 0
M  V30 3160 C 305.195 -4.02378 -1.49633 0
M  V30 3161 C 304.428 -4.63678 -2.6427 0
M  V30 3162 O 304.651 -4.23895 -3.81666 0
M  V30 3163 O 303.585 -5.53202 -2.37174 0
M  V30 3164 H 307.411 -3.02977 -0.209462 0
M  V30 3165 H 304.996 -1.49353 -0.0373832 0
M  V30 3166 H 306.878 -3.27663 -2.64982 0
M  V30 3167 H 305.553 -2.09466 -2.46791 0
M  V30 3168 H 304.46 -3.66265 -0.761636 0
M  V30 3169 H 305.793 -4.81487 -1.02134 0
M  V30 3170 N 307.445 0.0818655 -1.57387 0
M  V30 3171 C 308.861 0.436412 -1.53517 0
M  V30 3172 C 309.061 1.79758 -0.910459 0
M  V30 3173 O 308.117 2.47324 -0.508636 0
M  V30 3174 C 309.43 0.386734 -2.98203 0
M  V30 3175 C 310.978 0.467644 -3.09487 0
M  V30 3176 C 311.453 0.447978 -4.55804 0
M  V30 3177 N 312.944 0.508348 -4.60402 0
M  V30 3178 C 313.679 0.515184 -5.71081 0
M  V30 3179 N 313.175 0.477435 -6.91153 0
M  V30 3180 N 314.968 0.560988 -5.59294 0
M  V30 3181 H 307.119 -0.809546 -1.96367 0
M  V30 3182 H 309.382 -0.302733 -0.898363 0
M  V30 3183 H 309.088 -0.546539 -3.47427 0
M  V30 3184 H 308.962 1.20075 -3.57578 0
M  V30 3185 H 311.349 1.39134 -2.60242 0
M  V30 3186 H 311.43 -0.374753 -2.5304 0
M  V30 3187 H 311.074 -0.471826 -5.05704 0
M  V30 3188 H 311.004 1.30777 -5.10103 0
M  V30 3189 H 313.495 0.54218 -3.7399 0
M  V30 3190 H 313.808 0.486299 -7.71268 0
M  V30 3191 H 312.153 0.444278 -6.93579 0
M  V30 3192 H 315.344 0.5881 -4.64391 0
M  V30 3193 H 315.517 0.562846 -6.45551 0
M  V30 3194 N 308.923 1.53595 0.353017 0
M  V30 3195 C 310.153 1.74058 1.11299 0
M  V30 3196 C 310.561 0.475205 1.83135 0
M  V30 3197 O 309.904 -0.562344 1.74881 0
M  V30 3198 C 309.966 2.85994 2.17825 0
M  V30 3199 C 309.63 4.25923 1.65647 0
M  V30 3200 C 310.627 5.07829 1.11383 0
M  V30 3201 C 308.312 4.72377 1.7078 0
M  V30 3202 C 310.306 6.34285 0.629439 0
M  V30 3203 C 307.993 5.98808 1.21953 0
M  V30 3204 C 308.991 6.79594 0.681265 0
M  V30 3205 O 308.679 8.03651 0.200248 0
M  V30 3206 H 308.411 0.585327 0.338183 0
M  V30 3207 H 310.965 2.01186 0.413927 0
M  V30 3208 H 309.195 2.54368 2.91262 0
M  V30 3209 H 310.884 2.94515 2.79313 0
M  V30 3210 H 311.65 4.73107 1.06746 0
M  V30 3211 H 307.529 4.0956 2.11617 0
M  V30 3212 H 311.073 6.97288 0.208636 0
M  V30 3213 H 306.97 6.33026 1.26287 0
M  V30 3214 H 307.738 8.1788 0.318416 0
M  V30 3215 N 310.401 -0.613514 1.45168 0
M  V30 3216 C 311.626 -1.40437 1.52618 0
M  V30 3217 C 312.051 -1.87438 0.157707 0
M  V30 3218 O 311.409 -1.59791 -0.856537 0
M  V30 3219 C 311.457 -2.58894 2.51011 0
M  V30 3220 O 310.561 -3.59326 2.02382 0
M  V30 3221 H 309.902 -0.419506 0.514695 0
M  V30 3222 H 312.432 -0.747215 1.90467 0
M  V30 3223 H 312.442 -3.06214 2.69624 0
M  V30 3224 H 311.117 -2.24032 3.50403 0
M  V30 3225 H 309.694 -3.18695 1.93618 0
M  V30 3226 N 311.879 -1.3236 -0.855495 0
M  V30 3227 C 313.127 -1.22629 -1.60644 0
M  V30 3228 C 313.448 0.212136 -1.93843 0
M  V30 3229 O 312.718 1.13666 -1.59552 0
M  V30 3230 H 311.298 -0.450882 -0.595579 0
M  V30 3231 H 313.96 -1.65871 -1.02337 0
M  V30 3232 H 313.056 -1.80832 -2.54374 0
M  V30 3233 N 313.357 1.07166 -1.15556 0
M  V30 3234 C 314.304 2.14417 -0.854055 0
M  V30 3235 C 315.274 1.64965 0.193806 0
M  V30 3236 O 316.459 1.90703 0.0609443 0
M  V30 3237 C 313.599 3.43304 -0.351574 0
M  V30 3238 C 312.712 4.06537 -1.46123 0
M  V30 3239 C 311.847 5.23266 -0.914677 0
M  V30 3240 C 310.886 5.78464 -2.00114 0
M  V30 3241 N 310.023 6.86521 -1.47083 0
M  V30 3242 H 314.863 2.39548 -1.77259 0
M  V30 3243 H 312.4 1.17543 -0.884425 0
M  V30 3244 H 314.358 4.17179 -0.0419409 0
M  V30 3245 H 312.988 3.18419 0.530037 0
M  V30 3246 H 312.04 3.30297 -1.88701 0
M  V30 3247 H 313.352 4.43567 -2.28144 0
M  V30 3248 H 312.506 6.04131 -0.557698 0
M  V30 3249 H 311.245 4.87658 -0.0636583 0
M  V30 3250 H 310.25 4.96243 -2.36692 0
M  V30 3251 H 311.475 6.16126 -2.85597 0
M  V30 3252 H 309.421 6.52849 -0.642198 0
M  V30 3253 H 309.338 7.22446 -2.22729 0
M  V30 3254 H 310.606 7.71087 -1.14215 0
M  V30 3255 N 314.835 0.952656 1.25548 0
M  V30 3256 C 316.251 0.656769 1.4546 0
M  V30 3257 C 316.451 -0.78633 1.85524 0
M  V30 3258 O 315.507 -1.56183 1.98402 0
M  V30 3259 C 316.82 1.62801 2.52817 0
M  V30 3260 C 318.368 1.63897 2.66659 0
M  V30 3261 C 318.843 2.5978 3.77198 0
M  V30 3262 N 320.334 2.58133 3.84606 0
M  V30 3263 C 321.069 3.29003 4.69621 0
M  V30 3264 N 320.565 4.09339 5.58939 0
M  V30 3265 N 322.358 3.179 4.63569 0
M  V30 3266 H 314.509 1.88526 0.978344 0
M  V30 3267 H 316.772 0.810815 0.491206 0
M  V30 3268 H 316.478 2.65869 2.30232 0
M  V30 3269 H 316.352 1.38898 3.50695 0
M  V30 3270 H 318.739 0.615481 2.8861 0
M  V30 3271 H 318.82 1.91858 1.69187 0
M  V30 3272 H 318.464 3.62254 3.55997 0
M  V30 3273 H 318.394 2.29105 4.7415 0
M  V30 3274 H 320.885 1.99809 3.20757 0
M  V30 3275 H 321.198 4.6034 6.20731 0
M  V30 3276 H 319.543 4.13438 5.58654 0
M  V30 3277 H 322.734 2.54612 3.92798 0
M  V30 3278 H 322.907 3.73398 5.29602 0
M  V30 3279 N 316.313 -1.40141 0.720998 0
M  V30 3280 C 317.59 -1.94677 0.189757 0
M  V30 3281 C 317.97 -1.65879 -1.30566 0
M  V30 3282 O 317.318 -0.979391 -2.06447 0
M  V30 3283 C 317.528 -3.45279 0.508304 0
M  V30 3284 C 318.876 -4.22209 0.449934 0
M  V30 3285 O 319.9 -3.53413 0.444677 0
M  V30 3286 O 318.759 -5.44788 0.432189 0
M  V30 3287 H 315.853 -0.826459 0.0299026 0
M  V30 3288 H 318.399 -1.49719 0.7989 0
M  V30 3289 H 317.171 -3.59619 1.54239 0
M  V30 3290 H 316.794 -3.97386 -0.130525 0
M  V30 3291 N 317.792 -0.46758 -1.50504 0
M  V30 3292 C 318.722 0.318381 -2.31319 0
M  V30 3293 C 319.703 0.993564 -1.38066 0
M  V30 3294 O 320.888 0.991411 -1.66987 0
M  V30 3295 C 318.018 1.40275 -3.17711 0
M  V30 3296 C 316.972 0.849373 -4.19487 0
M  V30 3297 C 316.298 2.03177 -4.94594 0
M  V30 3298 C 317.598 -0.136942 -5.2212 0
M  V30 3299 H 319.292 -0.356106 -2.97275 0
M  V30 3300 H 316.838 -0.172703 -1.42961 0
M  V30 3301 H 318.791 1.96004 -3.73042 0
M  V30 3302 H 317.515 2.10596 -2.49634 0
M  V30 3303 H 316.174 0.314076 -3.65252 0
M  V30 3304 H 315.822 2.72187 -4.22993 0
M  V30 3305 H 315.522 1.66774 -5.63436 0
M  V30 3306 H 317.046 2.59403 -5.52759 0
M  V30 3307 H 318.46 0.331056 -5.72343 0
M  V30 3308 H 316.857 -0.41507 -5.98663 0
M  V30 3309 H 317.927 -1.06398 -4.73083 0
M  V30 3310 N 319.27 1.56325 -0.20005 0
M  V30 3311 C 320.18 2.22931 0.730668 0
M  V30 3312 C 321.196 1.22997 1.23076 0
M  V30 3313 O 322.372 1.55748 1.27689 0
M  V30 3314 C 319.437 2.87948 1.93098 0
M  V30 3315 C 318.498 4.03166 1.47497 0
M  V30 3316 C 317.731 4.65073 2.61807 0
M  V30 3317 O 317.954 4.25913 3.79413 0
M  V30 3318 O 316.888 5.54452 2.34237 0
M  V30 3319 H 320.714 3.03084 0.193391 0
M  V30 3320 H 318.299 1.49371 0.0294621 0
M  V30 3321 H 320.181 3.29063 2.6324 0
M  V30 3322 H 318.856 2.10771 2.45677 0
M  V30 3323 H 317.763 3.66664 0.742201 0
M  V30 3324 H 319.096 4.82022 0.995796 0
M  V30 3325 N 320.748 -0.0735177 1.57428 0
M  V30 3326 C 321.696 -1.10628 2.04607 0
M  V30 3327 C 322.69 -1.40181 0.951088 0
M  V30 3328 O 323.896 -1.39608 1.1362 0
M  V30 3329 H 320.271 -0.374088 0.652351 0
M  V30 3330 H 322.242 -0.682218 2.90497 0
M  V30 3331 C 320.991 -2.41212 2.50423 0
M  V30 3332 H 320.314 -2.19322 3.34272 0
M  V30 3333 H 321.754 -3.11927 2.87189 0
M  V30 3334 C 320.213 -3.0705 1.38644 0
M  V30 3335 O 320.743 -3.95056 0.727582 0
M  V30 3336 N 318.949 -2.67645 1.132 0
M  V30 3337 H 318.496 -1.96169 1.66959 0
M  V30 3338 H 318.454 -3.1202 0.386147 0
M  V30 3339 N 322.226 -1.5378 -0.344866 0
M  V30 3340 C 323.637 -1.62428 -0.920552 0
M  V30 3341 C 323.988 -0.504747 -1.89596 0
M  V30 3342 O 323.113 0.365711 -2.13287 0
M  V30 3343 C 323.708 -2.94419 -1.67639 0
M  V30 3344 C 322.267 -3.05333 -2.20111 0
M  V30 3345 C 321.414 -2.57866 -1.01982 0
M  V30 3346 H 324.365 -1.58222 -0.123042 0
M  V30 3347 H 324.386 -2.83384 -2.53917 0
M  V30 3348 H 323.898 -3.7588 -0.966224 0
M  V30 3349 H 321.999 -2.28502 -2.94308 0
M  V30 3350 H 322.112 -4.10778 -2.46573 0
M  V30 3351 H 320.476 -2.13241 -1.39285 0
M  V30 3352 H 321.259 -3.41765 -0.324308 0
M  V30 3353 N 323.704 0.605807 -1.45491 0
M  V30 3354 C 324.634 1.72709 -1.57143 0
M  V30 3355 C 325.615 1.6476 -0.422884 0
M  V30 3356 O 326.8 1.83132 -0.646247 0
M  V30 3357 C 323.93 3.11316 -1.53948 0
M  V30 3358 C 322.884 3.34077 -2.67537 0
M  V30 3359 C 322.21 4.72975 -2.49397 0
M  V30 3360 C 323.51 3.24158 -4.09535 0
M  V30 3361 H 325.204 1.63214 -2.51001 0
M  V30 3362 H 322.75 0.78379 -1.208 0
M  V30 3363 H 324.703 3.89557 -1.60696 0
M  V30 3364 H 323.427 3.21655 -0.566205 0
M  V30 3365 H 322.086 2.58227 -2.6022 0
M  V30 3366 H 321.734 4.8005 -1.50205 0
M  V30 3367 H 321.434 4.8916 -3.25571 0
M  V30 3368 H 322.958 5.53414 -2.58002 0
M  V30 3369 H 324.372 3.92271 -4.18086 0
M  V30 3370 H 322.769 3.51872 -4.86113 0
M  V30 3371 H 323.839 2.2157 -4.31317 0
M  V30 3372 N 325.182 1.32811 0.848464 0
M  V30 3373 C 326.145 1.22194 1.9391 0
M  V30 3374 C 327.145 0.143404 1.60159 0
M  V30 3375 O 328.335 0.394253 1.6968 0
M  V30 3376 C 325.467 0.88067 3.29328 0
M  V30 3377 H 326.66 2.19127 2.04752 0
M  V30 3378 H 324.213 1.16731 1.0394 0
M  V30 3379 H 324.948 -0.0865776 3.24184 0
M  V30 3380 H 324.733 1.66052 3.55203 0
M  V30 3381 H 326.223 0.830871 4.09251 0
M  V30 3382 N 326.66 -1.06551 1.16123 0
M  V30 3383 C 327.623 -2.12132 0.867906 0
M  V30 3384 C 328.623 -1.60224 -0.135944 0
M  V30 3385 O 329.813 -1.73943 0.0946422 0
M  V30 3386 C 326.945 -3.396 0.297419 0
M  V30 3387 H 328.138 -2.39586 1.80385 0
M  V30 3388 H 325.691 -1.22574 0.969812 0
M  V30 3389 H 326.426 -3.17794 -0.64633 0
M  V30 3390 H 326.211 -3.78581 1.02073 0
M  V30 3391 H 327.701 -4.17455 0.110052 0
M  V30 3392 N 328.138 -0.959301 -1.25041 0
M  V30 3393 C 329.384 -0.617525 -1.9317 0
M  V30 3394 C 329.717 0.843981 -1.74902 0
M  V30 3395 O 328.992 1.60615 -1.09696 0
M  V30 3396 C 329.275 -0.982736 -3.46431 0
M  V30 3397 C 329.128 -2.50032 -3.73904 0
M  V30 3398 C 330.447 -0.511176 -4.37121 0
M  V30 3399 H 327.566 -0.22582 -0.701552 0
M  V30 3400 H 330.208 -1.19679 -1.4757 0
M  V30 3401 H 328.358 -0.489806 -3.854 0
M  V30 3402 H 330.03 -3.06737 -3.44544 0
M  V30 3403 H 328.273 -2.93598 -3.19348 0
M  V30 3404 H 328.944 -2.70635 -4.81103 0
M  V30 3405 H 331.42 -0.934075 -4.0548 0
M  V30 3406 H 330.296 -0.795361 -5.43107 0
M  V30 3407 H 330.557 0.588834 -4.38161 0
M  V30 3408 N 329.616 1.39756 -0.72842 0
M  V30 3409 C 330.548 2.29157 -0.0446202 0
M  V30 3410 C 331.561 1.46484 0.710367 0
M  V30 3411 O 332.75 1.69632 0.55562 0
M  V30 3412 C 329.85 3.24987 0.961071 0
M  V30 3413 C 329.023 4.36572 0.268967 0
M  V30 3414 C 328.082 5.12756 1.18184 0
M  V30 3415 O 327.108 5.6534 0.661794 0
M  V30 3416 N 328.31 5.23331 2.51206 0
M  V30 3417 H 331.075 2.88482 -0.812295 0
M  V30 3418 H 328.636 1.51265 -0.577098 0
M  V30 3419 H 330.628 3.72827 1.57423 0
M  V30 3420 H 329.198 2.66739 1.63 0
M  V30 3421 H 328.418 3.90694 -0.524574 0
M  V30 3422 H 329.706 5.08363 -0.210934 0
M  V30 3423 H 329.104 4.82116 2.9594 0
M  V30 3424 H 327.661 5.74634 3.07634 0
M  V30 3425 N 331.094 0.475555 1.50254 0
M  V30 3426 C 332.027 -0.362381 2.25304 0
M  V30 3427 C 333.005 -0.992393 1.28803 0
M  V30 3428 O 334.189 -1.02746 1.58036 0
M  V30 3429 C 331.316 -1.50813 3.03271 0
M  V30 3430 C 330.362 -0.995044 4.1473 0
M  V30 3431 S 331.195 0.0938436 5.35418 0
M  V30 3432 C 332.351 -1.05567 6.16933 0
M  V30 3433 H 332.584 0.274686 2.96028 0
M  V30 3434 H 330.117 0.260495 1.52187 0
M  V30 3435 H 332.075 -2.16476 3.48781 0
M  V30 3436 H 330.736 -2.11672 2.32064 0
M  V30 3437 H 329.929 -1.85293 4.68703 0
M  V30 3438 H 329.531 -0.416052 3.71679 0
M  V30 3439 H 331.823 -1.96636 6.48337 0
M  V30 3440 H 332.766 -0.555109 7.05921 0
M  V30 3441 H 333.174 -1.31151 5.49053 0
M  V30 3442 N 332.573 -1.56217 0.208337 0
M  V30 3443 C 333.821 -1.97558 -0.426076 0
M  V30 3444 C 334.142 -1.09683 -1.61229 0
M  V30 3445 O 333.412 -0.170956 -1.95153 0
M  V30 3446 H 331.992 -0.729575 -0.160405 0
M  V30 3447 H 334.654 -1.92606 0.298155 0
M  V30 3448 H 333.75 -3.02672 -0.761312 0
M  V30 3449 N 334.051 0.0651679 -1.57465 0
M  V30 3450 C 334.981 1.07693 -2.07182 0
M  V30 3451 C 335.962 1.39962 -0.966673 0
M  V30 3452 O 337.147 1.49475 -1.2398 0
M  V30 3453 C 334.277 2.3885 -2.52127 0
M  V30 3454 C 333.231 2.20917 -3.66579 0
M  V30 3455 C 332.557 3.57515 -3.97601 0
M  V30 3456 C 333.857 1.62493 -4.9638 0
M  V30 3457 H 335.551 0.663199 -2.91962 0
M  V30 3458 H 333.097 0.317569 -1.40455 0
M  V30 3459 H 335.05 3.09928 -2.85522 0
M  V30 3460 H 333.774 2.82215 -1.64384 0
M  V30 3461 H 332.433 1.52279 -3.33477 0
M  V30 3462 H 332.081 3.98463 -3.06979 0
M  V30 3463 H 331.781 3.46353 -4.74672 0
M  V30 3464 H 333.305 4.30013 -4.33499 0
M  V30 3465 H 334.719 2.23445 -5.27963 0
M  V30 3466 H 333.116 1.62009 -5.77818 0
M  V30 3467 H 334.186 0.587041 -4.81333 0
M  V30 3468 N 335.529 1.53961 0.336706 0
M  V30 3469 C 336.778 1.70751 1.07363 0
M  V30 3470 C 337.091 0.481061 1.89592 0
M  V30 3471 O 338.297 0.530046 2.66276 0
M  V30 3472 C 336.753 3.01965 1.95818 0
M  V30 3473 C 336.361 4.31971 1.18764 0
M  V30 3474 C 338.105 3.28121 2.69327 0
M  V30 3475 C 336.012 5.54255 2.06289 0
M  V30 3476 H 334.942 0.636292 0.404535 0
M  V30 3477 H 337.593 1.80459 0.332681 0
M  V30 3478 H 335.975 2.86132 2.7376 0
M  V30 3479 H 337.149 4.5853 0.456849 0
M  V30 3480 H 335.464 4.12481 0.569946 0
M  V30 3481 H 338.061 4.16673 3.35094 0
M  V30 3482 H 338.404 2.45426 3.36261 0
M  V30 3483 H 338.937 3.44762 1.98454 0
M  V30 3484 H 335.676 6.39513 1.43885 0
M  V30 3485 H 335.196 5.31935 2.77138 0
M  V30 3486 H 336.875 5.90159 2.65182 0
M  V30 3487 N 337.007 -0.598083 1.45811 0
M  V30 3488 C 338.237 -1.38121 1.53643 0
M  V30 3489 C 338.645 -1.88425 0.171081 0
M  V30 3490 O 337.988 -1.63409 -0.839237 0
M  V30 3491 C 338.05 -2.61432 2.46766 0
M  V30 3492 C 337.714 -2.32702 3.93318 0
M  V30 3493 C 338.711 -1.92479 4.82957 0
M  V30 3494 C 336.396 -2.45321 4.38318 0
M  V30 3495 C 338.39 -1.65248 6.15607 0
M  V30 3496 C 336.077 -2.17703 5.71007 0
M  V30 3497 C 337.075 -1.7773 6.5947 0
M  V30 3498 O 336.763 -1.50441 7.89698 0
M  V30 3499 H 336.495 -0.428863 0.522544 0
M  V30 3500 H 339.049 -0.73557 1.91777 0
M  V30 3501 H 337.279 -3.28749 2.0362 0
M  V30 3502 H 338.968 -3.23487 2.45175 0
M  V30 3503 H 339.734 -1.82258 4.49452 0
M  V30 3504 H 335.613 -2.75399 3.69697 0
M  V30 3505 H 339.157 -1.33973 6.84614 0
M  V30 3506 H 335.054 -2.27544 6.04065 0
M  V30 3507 H 335.822 -1.64415 8.01817 0
M  V30 3508 N 338.485 -1.33259 -0.841409 0
M  V30 3509 C 339.731 -1.24757 -1.59886 0
M  V30 3510 C 340.064 0.186913 -1.93298 0
M  V30 3511 O 339.339 1.12757 -1.5848 0
M  V30 3512 C 339.622 -2.12036 -2.91055 0
M  V30 3513 C 339.475 -3.63929 -2.6434 0
M  V30 3514 C 340.794 -1.9916 -3.92458 0
M  V30 3515 H 337.913 -0.454542 -0.580138 0
M  V30 3516 H 340.555 -1.63335 -0.970647 0
M  V30 3517 H 338.705 -1.79265 -3.44669 0
M  V30 3518 H 340.377 -4.06978 -2.17178 0
M  V30 3519 H 338.62 -3.85935 -1.98082 0
M  V30 3520 H 339.291 -4.20341 -3.57796 0
M  V30 3521 H 341.767 -2.27895 -3.48143 0
M  V30 3522 H 340.643 -2.62484 -4.82072 0
M  V30 3523 H 340.904 -0.963082 -4.31482 0
M  V30 3524 N 339.963 1.05934 -1.16686 0
M  V30 3525 C 340.911 2.15603 -0.872817 0
M  V30 3526 C 341.905 1.68647 0.159576 0
M  V30 3527 O 343.111 1.79995 0.0132125 0
M  V30 3528 H 339.486 0.703885 -0.264671 0
M  V30 3529 H 341.457 2.37613 -1.80507 0
M  V30 3530 C 340.206 3.45457 -0.394344 0
M  V30 3531 H 339.529 3.81984 -1.18019 0
M  V30 3532 H 340.969 4.2339 -0.227408 0
M  V30 3533 C 339.428 3.25021 0.88673 0
M  V30 3534 O 339.958 3.50906 1.95519 0
M  V30 3535 N 338.164 2.78437 0.831925 0
M  V30 3536 H 337.711 2.57572 -0.0377619 0
M  V30 3537 H 337.669 2.65144 1.68956 0
M  V30 3538 N 341.441 0.965919 1.2453 0
M  V30 3539 C 342.852 0.665929 1.7442 0
M  V30 3540 C 343.203 -0.818407 1.78316 0
M  V30 3541 O 342.328 -1.64037 1.41141 0
M  V30 3542 C 342.923 1.20211 3.16757 0
M  V30 3543 C 341.482 0.952059 3.6416 0
M  V30 3544 C 340.629 1.33848 2.42858 0
M  V30 3545 H 343.58 1.14144 1.10258 0
M  V30 3546 H 343.601 0.567544 3.76244 0
M  V30 3547 H 343.113 2.28244 3.13889 0
M  V30 3548 H 341.214 -0.112821 3.72429 0
M  V30 3549 H 341.327 1.59645 4.51719 0
M  V30 3550 H 339.691 0.756864 2.43195 0
M  V30 3551 H 340.474 2.42827 2.42673 0
M  V30 3552 N 342.919 -1.39368 0.735821 0
M  V30 3553 C 343.829 -2.34395 0.0979693 0
M  V30 3554 C 344.845 -1.58361 -0.720968 0
M  V30 3555 O 346.021 -1.90648 -0.649245 0
M  V30 3556 C 343.086 -3.37393 -0.797916 0
M  V30 3557 C 342.147 -4.29287 0.0333662 0
M  V30 3558 C 341.38 -5.27365 -0.819854 0
M  V30 3559 O 341.603 -5.31959 -2.05855 0
M  V30 3560 O 340.537 -6.01389 -0.248079 0
M  V30 3561 H 344.363 -2.90601 0.882315 0
M  V30 3562 H 341.948 -1.40909 0.4965 0
M  V30 3563 H 343.83 -4.00505 -1.31048 0
M  V30 3564 H 342.505 -2.83571 -1.56106 0
M  V30 3565 H 341.412 -3.69395 0.591475 0
M  V30 3566 H 342.745 -4.86317 0.758752 0
M  V30 3567 N 344.397 -0.483516 -1.5 0
M  V30 3568 C 345.645 0.067027 -2.01989 0
M  V30 3569 C 345.966 1.3909 -1.36671 0
M  V30 3570 O 345.236 1.88978 -0.516152 0
M  V30 3571 H 343.816 0.0277606 -0.746484 0
M  V30 3572 H 346.478 -0.636773 -1.84204 0
M  V30 3573 H 345.574 0.209484 -3.11396 0
M  V30 3574 N 345.875 1.56104 -0.216619 0
M  V30 3575 C 347.286 1.844 0.292128 0
M  V30 3576 C 347.637 1.13788 1.59833 0
M  V30 3577 O 346.762 0.405888 2.12559 0
M  V30 3578 C 347.357 3.3452 0.53681 0
M  V30 3579 C 345.916 3.63151 0.989876 0
M  V30 3580 C 345.063 2.77255 0.0502302 0
M  V30 3581 H 348.014 1.52481 -0.439926 0
M  V30 3582 H 348.035 3.54459 1.38345 0
M  V30 3583 H 347.547 3.85885 -0.414031 0
M  V30 3584 H 345.648 3.17238 1.95425 0
M  V30 3585 H 345.761 4.71177 0.867698 0
M  V30 3586 H 344.125 2.48555 0.556117 0
M  V30 3587 H 344.908 3.31416 -0.89544 0
M  V30 3588 N 347.353 -0.0568162 1.57498 0
M  V30 3589 C 348.301 -1.08452 2.05769 0
M  V30 3590 C 349.295 -1.39164 0.965903 0
M  V30 3591 O 350.501 -1.38395 1.15095 0
M  V30 3592 H 346.876 -0.367148 0.656282 0
M  V30 3593 H 348.847 -0.651368 2.91204 0
M  V30 3594 C 347.596 -2.38543 2.52968 0
M  V30 3595 H 346.919 -2.15765 3.36579 0
M  V30 3596 H 348.359 -3.08863 2.90481 0
M  V30 3597 C 346.818 -3.05562 1.41893 0
M  V30 3598 O 347.348 -3.94262 0.769442 0
M  V30 3599 N 345.554 -2.6643 1.16032 0
M  V30 3600 H 345.101 -1.94387 1.6903 0
M  V30 3601 H 345.059 -3.11593 0.419219 0
M  V30 3602 N 348.832 -1.54138 -0.328536 0
M  V30 3603 C 350.08 -1.71765 -1.06496 0
M  V30 3604 C 350.401 -0.49149 -1.88704 0
M  V30 3605 O 349.671 0.494539 -1.89555 0
M  V30 3606 H 348.251 -0.633295 -0.396164 0
M  V30 3607 H 350.913 -1.91429 -0.366176 0
M  V30 3608 H 350.009 -2.5951 -1.73381 0
M  V30 3609 N 350.31 0.590341 -1.46126 0
M  V30 3610 C 351.258 1.72105 -1.5647 0
M  V30 3611 C 352.252 1.63756 -0.433612 0
M  V30 3612 O 353.458 1.69342 -0.610194 0
M  V30 3613 H 349.833 0.568889 -0.491802 0
M  V30 3614 H 351.804 1.6051 -2.51553 0
M  V30 3615 C 350.553 3.10493 -1.56491 0
M  V30 3616 H 349.876 3.17583 -2.4286 0
M  V30 3617 H 351.316 3.8939 -1.67785 0
M  V30 3618 C 349.775 3.3563 -0.292231 0
M  V30 3619 O 350.305 3.96875 0.620739 0
M  V30 3620 N 348.511 2.90026 -0.182523 0
M  V30 3621 H 348.058 2.40367 -0.926356 0
M  V30 3622 H 348.016 3.07218 0.668152 0
M  V30 3623 N 351.788 1.33704 0.83433 0
M  V30 3624 C 353.199 1.22813 1.4062 0
M  V30 3625 C 353.55 -0.151107 1.95617 0
M  V30 3626 O 352.675 -1.05092 1.89168 0
M  V30 3627 C 353.27 2.22355 2.55624 0
M  V30 3628 C 351.829 2.1529 3.08751 0
M  V30 3629 C 350.976 2.09589 1.8157 0
M  V30 3630 H 353.927 1.45236 0.639702 0
M  V30 3631 H 353.948 1.83391 3.33389 0
M  V30 3632 H 353.46 3.22728 2.15566 0
M  V30 3633 H 351.561 1.18235 3.53343 0
M  V30 3634 H 351.674 3.06038 3.68616 0
M  V30 3635 H 350.038 1.55134 2.02004 0
M  V30 3636 H 350.821 3.11777 1.43701 0
M  V30 3637 N 353.266 -1.05314 1.17247 0
M  V30 3638 C 354.543 -1.75184 0.87005 0
M  V30 3639 C 354.923 -2.01481 -0.629965 0
M  V30 3640 O 354.271 -1.64988 -1.58086 0
M  V30 3641 C 354.481 -3.04594 1.70363 0
M  V30 3642 C 355.829 -3.78567 1.92281 0
M  V30 3643 O 356.853 -3.14461 1.67311 0
M  V30 3644 O 355.712 -4.93755 2.3424 0
M  V30 3645 H 352.806 -0.761729 0.322021 0
M  V30 3646 H 355.352 -1.11493 1.27935 0
M  V30 3647 H 354.124 -2.81201 2.72106 0
M  V30 3648 H 353.747 -3.76022 1.29202 0
M  V30 3649 N 354.744 -0.972509 -1.24016 0
M  V30 3650 C 356.155 -0.67517 -1.74064 0
M  V30 3651 C 356.506 0.808939 -1.78747 0
M  V30 3652 O 355.631 1.63286 -1.42009 0
M  V30 3653 C 356.226 -1.21889 -3.16115 0
M  V30 3654 C 354.785 -0.971358 -3.6365 0
M  V30 3655 C 353.932 -1.35134 -2.42145 0
M  V30 3656 H 356.883 -1.14727 -1.09651 0
M  V30 3657 H 356.904 -0.587489 -3.75937 0
M  V30 3658 H 356.416 -2.29906 -3.12674 0
M  V30 3659 H 354.517 0.0930686 -3.72484 0
M  V30 3660 H 354.63 -1.62039 -4.50866 0
M  V30 3661 H 352.994 -0.769751 -2.4279 0
M  V30 3662 H 353.777 -2.4411 -2.41381 0
M  V30 3663 N 356.222 1.38976 -0.743202 0
M  V30 3664 C 357.155 2.28128 -0.0572165 0
M  V30 3665 C 358.133 1.44827 0.739182 0
M  V30 3666 O 359.317 1.74207 0.720009 0
M  V30 3667 C 356.444 3.25796 0.926001 0
M  V30 3668 C 355.49 4.25947 0.217099 0
M  V30 3669 S 356.323 5.24604 -1.07477 0
M  V30 3670 C 357.479 6.25829 -0.0943545 0
M  V30 3671 H 357.712 2.85961 -0.813246 0
M  V30 3672 H 355.245 1.44822 -0.535341 0
M  V30 3673 H 357.203 3.82583 1.48797 0
M  V30 3674 H 355.864 2.66966 1.65493 0
M  V30 3675 H 355.057 4.94746 0.961372 0
M  V30 3676 H 354.659 3.73002 -0.273059 0
M  V30 3677 H 356.951 6.73411 0.743239 0
M  V30 3678 H 357.894 7.0412 -0.749713 0
M  V30 3679 H 358.302 5.63797 0.281706 0
M  V30 3680 N 357.7 0.491464 1.49741 0
M  V30 3681 C 358.663 -0.280906 2.27472 0
M  V30 3682 C 359.663 -0.902454 1.33088 0
M  V30 3683 O 360.853 -0.768465 1.56334 0
M  V30 3684 C 357.985 -1.40209 3.10732 0
M  V30 3685 H 359.178 0.401056 2.97206 0
M  V30 3686 H 356.731 0.246131 1.5435 0
M  V30 3687 H 357.466 -2.11849 2.45541 0
M  V30 3688 H 357.251 -0.961969 3.80117 0
M  V30 3689 H 358.741 -1.9464 3.69466 0
M  V30 3690 N 359.178 -1.55987 0.224894 0
M  V30 3691 C 360.141 -2.19178 -0.670348 0
M  V30 3692 C 361.141 -1.15461 -1.11917 0
M  V30 3693 O 362.331 -1.40675 -1.02743 0
M  V30 3694 C 359.463 -2.81777 -1.9187 0
M  V30 3695 H 360.656 -2.99662 -0.119364 0
M  V30 3696 H 358.209 -1.5628 -0.0247128 0
M  V30 3697 H 358.944 -2.05172 -2.51147 0
M  V30 3698 H 358.729 -3.57732 -1.60531 0
M  V30 3699 H 360.219 -3.30205 -2.55645 0
M  V30 3700 N 360.656 0.0484629 -1.57525 0
M  V30 3701 C 361.619 1.03956 -2.04269 0
M  V30 3702 C 362.619 1.30211 -0.943496 0
M  V30 3703 O 363.809 1.25539 -1.20771 0
M  V30 3704 C 360.941 2.37742 -2.44319 0
M  V30 3705 H 362.134 0.636182 -2.93075 0
M  V30 3706 H 359.687 0.294811 -1.53494 0
M  V30 3707 H 360.422 2.82866 -1.5861 0
M  V30 3708 H 360.207 2.20021 -3.24551 0
M  V30 3709 H 361.697 3.08936 -2.80978 0
M  V30 3710 N 362.134 1.5431 0.320358 0
M  V30 3711 C 363.38 1.72924 1.05949 0
M  V30 3712 C 363.713 0.503185 1.87568 0
M  V30 3713 O 362.988 -0.499839 1.87968 0
M  V30 3714 C 363.271 3.00676 1.98156 0
M  V30 3715 C 363.124 4.3354 1.19845 0
M  V30 3716 C 364.443 3.24198 2.9763 0
M  V30 3717 H 361.562 0.629195 0.383774 0
M  V30 3718 H 364.204 1.87008 0.335854 0
M  V30 3719 H 362.354 2.888 2.59859 0
M  V30 3720 H 364.026 4.57305 0.605773 0
M  V30 3721 H 362.269 4.309 0.500784 0
M  V30 3722 H 362.94 5.19156 1.87567 0
M  V30 3723 H 365.416 3.35557 2.4605 0
M  V30 3724 H 364.292 4.14938 3.59329 0
M  V30 3725 H 364.553 2.41577 3.7026 0
M  V30 3726 N 363.613 -0.582584 1.46437 0
M  V30 3727 C 364.89 -1.34276 1.4223 0
M  V30 3728 C 365.27 -2.10835 0.10583 0
M  V30 3729 O 364.618 -2.09485 -0.912596 0
M  V30 3730 C 364.828 -2.26865 2.65204 0
M  V30 3731 C 366.176 -2.88691 3.11356 0
M  V30 3732 O 367.2 -2.37178 2.65753 0
M  V30 3733 O 366.059 -3.82255 3.90568 0
M  V30 3734 H 363.153 -0.603326 0.565621 0
M  V30 3735 H 365.699 -0.603591 1.58603 0
M  V30 3736 H 364.471 -1.69724 3.52576 0
M  V30 3737 H 364.094 -3.08122 2.5129 0
M  V30 3738 N 365.091 -1.34144 -0.827227 0
M  V30 3739 C 366.34 -1.25602 -1.5782 0
M  V30 3740 C 366.653 0.173445 -1.94829 0
M  V30 3741 O 367.859 0.380984 -2.68814 0
M  V30 3742 C 366.315 -2.20151 -2.84713 0
M  V30 3743 C 365.923 -3.68331 -2.55021 0
M  V30 3744 C 367.667 -2.20508 -3.62735 0
M  V30 3745 C 365.574 -4.54762 -3.78082 0
M  V30 3746 H 364.504 -0.466573 -0.592306 0
M  V30 3747 H 367.155 -1.59283 -0.911116 0
M  V30 3748 H 365.537 -1.79417 -3.53023 0
M  V30 3749 H 366.711 -4.17577 -1.94849 0
M  V30 3750 H 365.026 -3.7038 -1.90283 0
M  V30 3751 H 367.623 -2.82306 -4.54101 0
M  V30 3752 H 367.966 -1.20322 -3.98533 0
M  V30 3753 H 368.499 -2.59664 -3.01362 0
M  V30 3754 H 365.238 -5.55867 -3.47407 0
M  V30 3755 H 364.758 -4.10254 -4.37552 0
M  V30 3756 H 366.437 -4.69153 -4.45538 0
M  V30 3757 N 366.569 1.04691 -1.17803 0
M  V30 3758 C 367.985 1.29963 -0.926379 0
M  V30 3759 C 368.185 1.97251 0.411635 0
M  V30 3760 O 367.241 2.24922 1.14744 0
M  V30 3761 C 368.554 2.16447 -2.08737 0
M  V30 3762 C 370.102 2.29814 -2.12496 0
M  V30 3763 C 370.577 3.19661 -3.27995 0
M  V30 3764 N 372.068 3.27247 -3.27816 0
M  V30 3765 C 372.803 3.96906 -4.13827 0
M  V30 3766 N 372.299 4.6895 -5.09959 0
M  V30 3767 N 374.092 3.93122 -4.01761 0
M  V30 3768 H 366.243 0.594182 -2.0392 0
M  V30 3769 H 368.506 0.324649 -0.890678 0
M  V30 3770 H 368.212 1.74304 -3.05469 0
M  V30 3771 H 368.086 3.17103 -2.04268 0
M  V30 3772 H 370.473 2.71196 -1.16347 0
M  V30 3773 H 370.554 1.2877 -2.21025 0
M  V30 3774 H 370.198 2.78991 -4.24413 0
M  V30 3775 H 370.128 4.20722 -3.16703 0
M  V30 3776 H 372.619 2.75921 -2.58217 0
M  V30 3777 H 372.932 5.19679 -5.71974 0
M  V30 3778 H 371.277 4.67875 -5.13924 0
M  V30 3779 H 374.468 3.35967 -3.2595 0
M  V30 3780 H 374.641 4.47139 -4.6901 0
M  V30 3781 N 368.047 0.979072 1.23499 0
M  V30 3782 C 368.957 0.526431 2.28617 0
M  V30 3783 C 369.973 -0.418126 1.68901 0
M  V30 3784 O 371.149 -0.288372 1.99325 0
M  V30 3785 C 368.214 -0.165235 3.46306 0
M  V30 3786 C 367.275 0.82056 4.21385 0
M  V30 3787 C 366.508 0.161807 5.33455 0
M  V30 3788 O 366.731 -1.04742 5.60701 0
M  V30 3789 O 365.665 0.859708 5.95729 0
M  V30 3790 H 369.491 1.4006 2.69475 0
M  V30 3791 H 367.076 0.746643 1.29405 0
M  V30 3792 H 368.958 -0.553287 4.17752 0
M  V30 3793 H 367.633 -1.01419 3.07402 0
M  V30 3794 H 366.54 1.25929 3.52268 0
M  V30 3795 H 367.873 1.63828 4.64135 0
M  V30 3796 N 369.525 -1.3858 0.750561 0
M  V30 3797 C 370.753 -2.04471 0.316098 0
M  V30 3798 C 371.168 -1.56606 -1.05452 0
M  V30 3799 O 370.525 -0.737784 -1.66922 0
M  V30 3800 C 370.576 -3.60025 0.326275 0
M  V30 3801 O 370.297 -4.06133 1.6428 0
M  V30 3802 C 371.798 -4.43131 -0.122429 0
M  V30 3803 H 369.018 -0.65717 0.135528 0
M  V30 3804 H 371.562 -1.77329 1.01857 0
M  V30 3805 H 369.717 -3.86014 -0.327431 0
M  V30 3806 H 370.131 -5.00547 1.56693 0
M  V30 3807 H 371.605 -5.51963 -0.0641473 0
M  V30 3808 H 372.082 -4.23333 -1.16988 0
M  V30 3809 H 372.688 -4.22323 0.50229 0
M  V30 3810 N 371.003 -0.499398 -1.49478 0
M  V30 3811 C 372.25 0.0456899 -2.02448 0
M  V30 3812 C 372.578 1.37142 -1.37921 0
M  V30 3813 O 371.833 1.89111 -0.503544 0
M  V30 3814 C 372.132 0.248424 -3.56536 0
M  V30 3815 C 371.798 -0.999107 -4.39692 0
M  V30 3816 C 370.46 -1.34108 -4.62135 0
M  V30 3817 C 372.812 -1.82842 -4.88076 0
M  V30 3818 C 370.14 -2.51191 -5.30208 0
M  V30 3819 C 372.492 -2.99076 -5.57437 0
M  V30 3820 C 371.156 -3.33655 -5.78127 0
M  V30 3821 H 370.426 0.0167191 -0.740811 0
M  V30 3822 H 373.073 -0.65923 -1.79795 0
M  V30 3823 H 371.378 1.03586 -3.77859 0
M  V30 3824 H 373.075 0.684605 -3.95113 0
M  V30 3825 H 369.665 -0.722729 -4.22463 0
M  V30 3826 H 373.849 -1.57737 -4.70566 0
M  V30 3827 H 369.105 -2.78221 -5.44429 0
M  V30 3828 H 373.279 -3.63664 -5.93904 0
M  V30 3829 H 370.906 -4.24483 -6.30649 0
M  V30 3830 N 372.481 1.55866 -0.233164 0
M  V30 3831 C 373.897 1.59133 0.121988 0
M  V30 3832 C 374.097 1.25016 1.58029 0
M  V30 3833 O 373.153 0.990922 2.32243 0
M  V30 3834 C 374.466 2.99932 -0.214792 0
M  V30 3835 C 376.014 3.12601 -0.157971 0
M  V30 3836 C 376.489 4.55597 -0.46859 0
M  V30 3837 N 377.98 4.61305 -0.418585 0
M  V30 3838 C 378.715 5.69903 -0.63227 0
M  V30 3839 N 378.211 6.86819 -0.90835 0
M  V30 3840 N 380.004 5.59264 -0.563913 0
M  V30 3841 H 372.155 1.76315 -1.18434 0
M  V30 3842 H 374.418 0.820093 -0.475553 0
M  V30 3843 H 374.124 3.29588 -1.22739 0
M  V30 3844 H 373.998 3.74327 0.464691 0
M  V30 3845 H 376.385 2.82735 0.845283 0
M  V30 3846 H 376.466 2.40511 -0.871102 0
M  V30 3847 H 376.11 4.86182 -1.46934 0
M  V30 3848 H 376.04 5.25928 0.265865 0
M  V30 3849 H 378.531 3.77297 -0.213368 0
M  V30 3850 H 378.844 7.65507 -1.05919 0
M  V30 3851 H 377.189 6.88536 -0.945673 0
M  V30 3852 H 380.38 4.66802 -0.348372 0
M  V30 3853 H 380.553 6.43831 -0.733847 0
M  V30 3854 N 373.959 -0.0401083 1.57549 0
M  V30 3855 C 375.375 -0.395556 1.54621 0
M  V30 3856 C 375.575 -1.77281 0.957799 0
M  V30 3857 O 374.631 -2.45888 0.574031 0
M  V30 3858 C 375.944 -0.307535 2.99123 0
M  V30 3859 C 377.492 -0.385425 3.10618 0
M  V30 3860 C 377.967 -0.326973 4.56831 0
M  V30 3861 N 379.458 -0.386102 4.61588 0
M  V30 3862 C 380.193 -0.363591 5.72246 0
M  V30 3863 N 379.689 -0.29402 6.92176 0
M  V30 3864 N 381.482 -0.412503 5.60584 0
M  V30 3865 H 373.633 0.861325 1.94152 0
M  V30 3866 H 375.896 0.326445 0.890021 0
M  V30 3867 H 375.602 0.638461 3.45856 0
M  V30 3868 H 375.476 -1.10552 3.60636 0
M  V30 3869 H 377.863 -1.32185 2.63839 0
M  V30 3870 H 377.944 0.44171 2.51957 0
M  V30 3871 H 377.588 0.605738 5.04275 0
M  V30 3872 H 377.518 -1.17207 5.13391 0
M  V30 3873 H 380.009 -0.442832 3.75296 0
M  V30 3874 H 380.322 -0.28164 7.72287 0
M  V30 3875 H 378.667 -0.260232 6.94513 0
M  V30 3876 H 381.858 -0.464769 4.65787 0
M  V30 3877 H 382.031 -0.391492 6.46816 0
M  V30 3878 N 375.437 -1.54477 -0.31217 0
M  V30 3879 C 376.37 -1.79519 -1.40884 0
M  V30 3880 C 377.348 -0.645753 -1.49227 0
M  V30 3881 O 378.532 -0.884468 -1.66461 0
M  V30 3882 C 375.659 -1.92194 -2.78889 0
M  V30 3883 C 374.705 -3.14555 -2.88023 0
M  V30 3884 S 375.538 -4.72893 -2.51262 0
M  V30 3885 C 376.694 -4.8849 -3.91317 0
M  V30 3886 H 376.927 -2.72256 -1.19432 0
M  V30 3887 H 374.46 -1.45746 -0.509654 0
M  V30 3888 H 376.418 -2.00182 -3.58382 0
M  V30 3889 H 375.079 -1.00414 -2.97617 0
M  V30 3890 H 374.272 -3.20193 -3.89221 0
M  V30 3891 H 373.874 -3.04955 -2.16514 0
M  V30 3892 H 376.166 -4.71826 -4.86196 0
M  V30 3893 H 377.109 -5.90588 -3.90656 0
M  V30 3894 H 377.517 -4.16715 -3.80801 0
M  V30 3895 N 376.915 0.57481 -1.46744 0
M  V30 3896 C 377.878 1.66533 -1.57478 0
M  V30 3897 C 378.878 1.54338 -0.451263 0
M  V30 3898 O 380.068 1.58814 -0.715813 0
M  V30 3899 C 377.2 3.05999 -1.50259 0
M  V30 3900 H 378.393 1.58372 -2.54673 0
M  V30 3901 H 375.946 0.793301 -1.34672 0
M  V30 3902 H 376.681 3.19709 -0.543725 0
M  V30 3903 H 376.466 3.16259 -2.31781 0
M  V30 3904 H 377.956 3.8537 -1.60872 0
M  V30 3905 N 378.394 1.34581 0.820102 0
M  V30 3906 C 379.327 1.20735 1.93644 0
M  V30 3907 C 380.305 0.0983343 1.62302 0
M  V30 3908 O 381.489 0.263997 1.86642 0
M  V30 3909 C 378.616 0.856037 3.27704 0
M  V30 3910 C 377.662 1.97521 3.78005 0
M  V30 3911 S 378.495 3.58906 3.97425 0
M  V30 3912 C 379.651 3.25822 5.34407 0
M  V30 3913 H 379.884 2.15231 2.05093 0
M  V30 3914 H 377.417 1.1964 0.97599 0
M  V30 3915 H 379.375 0.660133 4.05157 0
M  V30 3916 H 378.036 -0.0706253 3.14021 0
M  V30 3917 H 377.229 1.68321 4.75062 0
M  V30 3918 H 376.831 2.12875 3.07507 0
M  V30 3919 H 379.123 2.77812 6.17922 0
M  V30 3920 H 380.066 4.22029 5.68592 0
M  V30 3921 H 380.474 2.61932 5.00052 0
M  V30 3922 N 379.872 -1.04064 1.18357 0
M  V30 3923 C 380.82 -2.14187 0.907007 0
M  V30 3924 C 381.814 -1.68879 -0.132725 0
M  V30 3925 O 383.02 -1.79993 0.0154248 0
M  V30 3926 H 379.395 -0.699585 0.275835 0
M  V30 3927 H 381.366 -2.34711 1.84264 0
M  V30 3928 C 380.115 -3.44785 0.449254 0
M  V30 3929 H 379.438 -3.80058 1.24081 0
M  V30 3930 H 380.878 -4.22974 0.294737 0
M  V30 3931 C 379.337 -3.26391 -0.834909 0
M  V30 3932 O 379.867 -3.53973 -1.89911 0
M  V30 3933 N 378.073 -2.79726 -0.787523 0
M  V30 3934 H 377.62 -2.5748 0.0787347 0
M  V30 3935 H 377.578 -2.67798 -1.64716 0
M  V30 3936 N 381.35 -0.985608 -1.22978 0
M  V30 3937 C 382.627 -0.573599 -1.87001 0
M  V30 3938 C 383.007 0.949213 -1.88555 0
M  V30 3939 O 382.355 1.82811 -1.37086 0
M  V30 3940 C 382.565 -1.18564 -3.28243 0
M  V30 3941 C 383.913 -1.28163 -4.04796 0
M  V30 3942 O 384.937 -1.13949 -3.37482 0
M  V30 3943 O 383.796 -1.50832 -5.25273 0
M  V30 3944 H 380.89 -0.193868 -0.803955 0
M  V30 3945 H 383.436 -1.08102 -1.30813 0
M  V30 3946 H 382.208 -2.22758 -3.21706 0
M  V30 3947 H 381.831 -0.663363 -3.92027 0
M  V30 3948 N 382.828 1.3818 -0.7579 0
M  V30 3949 C 384.074 2.00316 -0.316453 0
M  V30 3950 C 384.407 1.60026 1.10025 0
M  V30 3951 O 383.682 0.839835 1.75434 0
M  V30 3952 C 383.965 3.57349 -0.444245 0
M  V30 3953 C 383.818 4.07591 -1.90236 0
M  V30 3954 C 385.137 4.3981 0.1598 0
M  V30 3955 H 382.256 0.727741 -0.116459 0
M  V30 3956 H 384.898 1.6406 -0.958352 0
M  V30 3957 H 383.048 3.88365 0.102233 0
M  V30 3958 H 384.72 3.87199 -2.50748 0
M  V30 3959 H 382.963 3.60297 -2.41595 0
M  V30 3960 H 383.634 5.16677 -1.94291 0
M  V30 3961 H 386.11 4.14971 -0.306314 0
M  V30 3962 H 384.986 5.48885 0.0401675 0
M  V30 3963 H 385.247 4.24102 1.24859 0
M  V30 3964 N 384.306 0.507319 1.49211 0
M  V30 3965 C 385.216 -0.272136 2.33016 0
M  V30 3966 C 386.232 -0.961206 1.45041 0
M  V30 3967 O 387.408 -0.941191 1.78055 0
M  V30 3968 C 384.473 -1.31895 3.20631 0
M  V30 3969 C 383.534 -0.642648 4.24463 0
M  V30 3970 C 382.767 -1.63959 5.07891 0
M  V30 3971 O 382.99 -2.87007 4.92933 0
M  V30 3972 O 381.924 -1.19143 5.8999 0
M  V30 3973 H 385.75 0.413982 3.00865 0
M  V30 3974 H 383.335 0.268556 1.46966 0
M  V30 3975 H 385.217 -1.92446 3.7489 0
M  V30 3976 H 383.892 -1.98788 2.5547 0
M  V30 3977 H 382.799 0.00276252 3.741 0
M  V30 3978 H 384.132 -0.0160534 4.92197 0
M  V30 3979 N 385.784 -1.5574 0.241426 0
M  V30 3980 C 387.012 -2.03208 -0.389134 0
M  V30 3981 C 387.427 -1.12082 -1.51931 0
M  V30 3982 O 386.784 -0.134183 -1.82006 0
M  V30 3983 C 386.835 -3.50064 -0.902087 0
M  V30 3984 O 386.556 -4.37717 0.18305 0
M  V30 3985 C 388.057 -4.13268 -1.60389 0
M  V30 3986 H 385.277 -0.664509 -0.0931053 0
M  V30 3987 H 387.821 -2.0124 0.36369 0
M  V30 3988 H 385.976 -3.52583 -1.60511 0
M  V30 3989 H 386.39 -5.24097 -0.205579 0
M  V30 3990 H 387.864 -5.17733 -1.91458 0
M  V30 3991 H 388.341 -3.59434 -2.52397 0
M  V30 3992 H 388.947 -4.14655 -0.945576 0
M  V30 3993 N 387.262 0.0317525 -1.57568 0
M  V30 3994 C 388.225 1.01783 -2.0536 0
M  V30 3995 C 389.225 1.29203 -0.957253 0
M  V30 3996 O 390.415 1.24251 -1.22095 0
M  V30 3997 C 387.547 2.35137 -2.46827 0
M  V30 3998 H 388.74 0.605062 -2.93733 0
M  V30 3999 H 386.293 0.278514 -1.53799 0
M  V30 4000 H 387.028 2.81168 -1.61602 0
M  V30 4001 H 386.813 2.16566 -3.26866 0
M  V30 4002 H 388.303 3.05938 -2.84239 0
M  V30 4003 N 388.74 1.54641 0.303973 0
M  V30 4004 C 389.703 1.84646 1.35789 0
M  V30 4005 C 390.703 0.7192 1.4382 0
M  V30 4006 O 391.893 0.987491 1.43507 0
M  V30 4007 C 389.025 2.02407 2.74307 0
M  V30 4008 H 390.218 2.78829 1.10429 0
M  V30 4009 H 387.771 1.46658 0.540487 0
M  V30 4010 H 388.506 1.10502 3.04893 0
M  V30 4011 H 388.291 2.84453 2.69868 0
M  V30 4012 H 389.781 2.27002 3.50514 0
M  V30 4013 N 390.218 -0.567019 1.47046 0
M  V30 4014 C 391.148 -1.68482 1.61667 0
M  V30 4015 C 392.129 -1.6358 0.466418 0
M  V30 4016 O 393.314 -1.81354 0.694574 0
M  V30 4017 C 390.444 -3.07124 1.62148 0
M  V30 4018 C 389.398 -3.26867 2.76301 0
M  V30 4019 C 388.724 -4.66196 2.61849 0
M  V30 4020 C 390.024 -3.13186 4.17986 0
M  V30 4021 H 391.718 -1.56502 2.5524 0
M  V30 4022 H 389.264 -0.751486 1.22836 0
M  V30 4023 H 391.217 -3.8516 1.70968 0
M  V30 4024 H 389.941 -3.2004 0.651287 0
M  V30 4025 H 388.6 -2.51237 2.66975 0
M  V30 4026 H 388.248 -4.75898 1.62879 0
M  V30 4027 H 387.948 -4.80356 3.38425 0
M  V30 4028 H 389.472 -5.46379 2.72584 0
M  V30 4029 H 390.886 -3.81049 4.2834 0
M  V30 4030 H 389.283 -3.3886 4.95272 0
M  V30 4031 H 390.353 -2.10057 4.3704 0
M  V30 4032 N 391.696 -1.35014 -0.812953 0
M  V30 4033 C 392.945 -1.27269 -1.56479 0
M  V30 4034 C 393.258 0.152771 -1.95002 0
M  V30 4035 O 394.464 0.352451 -2.69203 0
M  V30 4036 C 392.92 -2.23159 -2.82362 0
M  V30 4037 C 392.528 -3.71016 -2.511 0
M  V30 4038 C 394.272 -2.24342 -3.60376 0
M  V30 4039 C 392.179 -4.58746 -3.73237 0
M  V30 4040 H 391.109 -0.472829 -0.587324 0
M  V30 4041 H 393.76 -1.6024 -0.894171 0
M  V30 4042 H 392.142 -1.83151 -3.51101 0
M  V30 4043 H 393.316 -4.1962 -1.90409 0
M  V30 4044 H 391.631 -3.72378 -1.86343 0
M  V30 4045 H 394.228 -2.87107 -4.51081 0
M  V30 4046 H 394.571 -1.24542 -3.97234 0
M  V30 4047 H 395.104 -2.62846 -2.98591 0
M  V30 4048 H 391.843 -5.59521 -3.41492 0
M  V30 4049 H 391.363 -4.14871 -4.33176 0
M  V30 4050 H 393.042 -4.73852 -4.40537 0
M  V30 4051 N 393.175 1.03435 -1.18907 0
M  V30 4052 C 394.421 1.77005 -0.989798 0
M  V30 4053 C 394.754 1.88205 0.478816 0
M  V30 4054 O 394.029 1.39481 1.35556 0
M  V30 4055 C 394.312 3.19925 -1.65287 0
M  V30 4056 C 394.165 3.1663 -3.19477 0
M  V30 4057 C 395.484 4.18189 -1.37134 0
M  V30 4058 H 392.603 0.642538 -0.360991 0
M  V30 4059 H 395.245 1.20784 -1.46667 0
M  V30 4060 H 393.395 3.67929 -1.24741 0
M  V30 4061 H 395.067 2.76567 -3.692 0
M  V30 4062 H 393.31 2.54491 -3.51307 0
M  V30 4063 H 393.981 4.1758 -3.61013 0
M  V30 4064 H 396.457 3.78761 -1.72276 0
M  V30 4065 H 395.333 5.16394 -1.86087 0
M  V30 4066 H 395.594 4.41112 -0.295424 0
M  V30 4067 N 394.653 0.992116 1.22453 0
M  V30 4068 C 395.901 0.666215 1.90804 0
M  V30 4069 C 396.222 -0.804152 1.77647 0
M  V30 4070 O 395.492 -1.57629 1.16318 0
M  V30 4071 H 394.072 0.243423 0.706225 0
M  V30 4072 H 396.734 1.25845 1.48825 0
M  V30 4073 H 395.83 0.928069 2.97982 0
M  V30 4074 N 396.131 -1.37776 0.765217 0
M  V30 4075 C 397.379 -1.99454 0.325943 0
M  V30 4076 C 397.7 -1.61049 -1.09947 0
M  V30 4077 O 396.97 -0.872821 -1.75381 0
M  V30 4078 H 395.55 -0.737697 0.117525 0
M  V30 4079 H 398.212 -1.68359 0.981895 0
M  V30 4080 H 397.308 -3.09547 0.398353 0
M  V30 4081 N 397.609 -0.515225 -1.4894 0
M  V30 4082 C 398.559 0.275113 -2.26334 0
M  V30 4083 C 399.543 0.923007 -1.31793 0
M  V30 4084 O 400.735 0.828254 -1.56426 0
M  V30 4085 C 397.864 1.33041 -3.16473 0
M  V30 4086 C 396.95 0.688051 -4.18481 0
M  V30 4087 N 397.341 -0.217638 -5.05332 0
M  V30 4088 C 395.639 0.94699 -4.3583 0
M  V30 4089 C 396.34 -0.58676 -5.78733 0
M  V30 4090 N 395.316 0.0486966 -5.43578 0
M  V30 4091 H 399.118 -0.421876 -2.90856 0
M  V30 4092 H 396.632 -0.332249 -1.58965 0
M  V30 4093 H 398.629 1.9102 -3.70563 0
M  V30 4094 H 397.289 2.02894 -2.53504 0
M  V30 4095 H 398.3 -0.589343 -5.14536 0
M  V30 4096 H 394.977 1.63719 -3.8406 0
M  V30 4097 H 396.367 -1.32855 -6.58634 0
M  V30 4098 N 399.087 1.5561 -0.249682 0
M  V30 4099 C 400.315 2.03411 0.378352 0
M  V30 4100 C 400.73 1.12886 1.51335 0
M  V30 4101 O 400.087 0.143833 1.81932 0
M  V30 4102 C 400.138 3.50537 0.88351 0
M  V30 4103 O 399.859 4.37614 -0.20626 0
M  V30 4104 C 401.36 4.14113 1.58195 0
M  V30 4105 H 398.58 0.664994 0.08958 0
M  V30 4106 H 401.124 2.01044 -0.374357 0
M  V30 4107 H 399.279 3.5343 1.58639 0
M  V30 4108 H 399.693 5.24199 0.177782 0
M  V30 4109 H 401.167 5.18741 1.8871 0
M  V30 4110 H 401.644 3.60767 2.50487 0
M  V30 4111 H 402.25 4.15151 0.923573 0
M  V30 4112 N 400.565 -0.0233959 1.57583 0
M  V30 4113 C 401.812 -0.713063 1.8953 0
M  V30 4114 C 402.14 -1.75056 0.847673 0
M  V30 4115 O 401.395 -1.95119 -0.150636 0
M  V30 4116 C 401.694 -1.41428 3.28227 0
M  V30 4117 C 401.36 -0.512222 4.47981 0
M  V30 4118 C 400.022 -0.263785 4.80476 0
M  V30 4119 C 402.374 0.110248 5.21083 0
M  V30 4120 C 399.702 0.615804 5.83459 0
M  V30 4121 C 402.054 0.977573 6.25001 0
M  V30 4122 C 400.718 1.23542 6.55968 0
M  V30 4123 H 399.988 -0.260928 0.69354 0
M  V30 4124 H 402.635 0.0271047 1.91481 0
M  V30 4125 H 400.94 -2.22791 3.22291 0
M  V30 4126 H 402.637 -1.95355 3.50196 0
M  V30 4127 H 399.227 -0.716013 4.22577 0
M  V30 4128 H 403.411 -0.0687137 4.96252 0
M  V30 4129 H 398.667 0.82382 6.05824 0
M  V30 4130 H 402.841 1.46638 6.80786 0
M  V30 4131 H 400.468 1.91871 7.35588 0
M  V30 4132 N 402.043 -1.548 -0.295768 0
M  V30 4133 C 403.291 -1.73985 -1.02828 0
M  V30 4134 C 403.612 -0.531406 -1.87619 0
M  V30 4135 O 402.882 0.454221 -1.90561 0
M  V30 4136 H 401.462 -0.641556 -0.382642 0
M  V30 4137 H 404.124 -1.92163 -0.325489 0
M  V30 4138 H 403.22 -2.63129 -1.67838 0
M  V30 4139 N 403.521 0.559213 -1.47345 0
M  V30 4140 C 404.468 1.66645 -1.59682 0
M  V30 4141 C 405.438 1.60168 -0.43994 0
M  V30 4142 O 406.623 1.79031 -0.659736 0
M  V30 4143 C 403.763 3.04969 -1.61518 0
M  V30 4144 C 402.876 3.21897 -2.88108 0
M  V30 4145 C 402.011 4.50608 -2.81294 0
M  V30 4146 C 401.05 4.60961 -4.02717 0
M  V30 4147 N 400.187 5.81024 -3.94151 0
M  V30 4148 H 405.027 1.55439 -2.54249 0
M  V30 4149 H 402.564 0.757219 -1.26113 0
M  V30 4150 H 404.522 3.85064 -1.60566 0
M  V30 4151 H 403.152 3.15015 -0.704645 0
M  V30 4152 H 402.204 2.35248 -2.98936 0
M  V30 4153 H 403.516 3.25412 -3.78032 0
M  V30 4154 H 402.67 5.3896 -2.7858 0
M  V30 4155 H 401.409 4.49568 -1.89049 0
M  V30 4156 H 400.414 3.71021 -4.05738 0
M  V30 4157 H 401.639 4.63761 -4.96087 0
M  V30 4158 H 399.585 5.80938 -3.04708 0
M  V30 4159 H 399.502 5.85909 -4.77752 0
M  V30 4160 H 400.77 6.71744 -3.9545 0
M  V30 4161 N 404.999 1.35443 0.805782 0
M  V30 4162 C 406.227 1.31878 1.59423 0
M  V30 4163 C 406.642 -0.103562 1.88516 0
M  V30 4164 O 405.999 -1.05575 1.48863 0
M  V30 4165 C 406.05 2.12426 2.92502 0
M  V30 4166 O 405.771 3.49115 2.6467 0
M  V30 4167 C 407.272 2.16455 3.86862 0
M  V30 4168 H 404.492 0.453002 0.495005 0
M  V30 4169 H 407.036 1.78309 1.00131 0
M  V30 4170 H 405.191 1.69593 3.48306 0
M  V30 4171 H 405.605 3.90957 3.49647 0
M  V30 4172 H 407.079 2.77204 4.77349 0
M  V30 4173 H 407.556 1.16352 4.23508 0
M  V30 4174 H 408.162 2.59453 3.36993 0
M  V30 4175 N 406.477 -1.02803 1.19454 0
M  V30 4176 C 407.427 -2.0945 0.900827 0
M  V30 4177 C 408.411 -1.60335 -0.134715 0
M  V30 4178 O 409.603 -1.76857 0.0710924 0
M  V30 4179 C 406.732 -3.4044 0.442229 0
M  V30 4180 C 405.818 -3.96286 1.51056 0
M  V30 4181 N 406.209 -4.25785 2.73021 0
M  V30 4182 C 404.507 -4.24307 1.37404 0
M  V30 4183 C 405.208 -4.70654 3.41848 0
M  V30 4184 N 404.184 -4.72238 2.69243 0
M  V30 4185 H 407.986 -2.3015 1.82779 0
M  V30 4186 H 405.5 -1.20672 1.08683 0
M  V30 4187 H 407.497 -4.16354 0.21326 0
M  V30 4188 H 406.157 -3.21159 -0.478238 0
M  V30 4189 H 407.168 -4.15041 3.09776 0
M  V30 4190 H 403.845 -4.14285 0.517103 0
M  V30 4191 H 405.235 -5.02392 4.46152 0
M  V30 4192 N 407.956 -0.998596 -1.21925 0
M  V30 4193 C 409.204 -0.676325 -1.90448 0
M  V30 4194 C 409.525 0.794719 -1.78071 0
M  V30 4195 O 408.795 1.5701 -1.17152 0
M  V30 4196 H 407.375 -0.247165 -0.704925 0
M  V30 4197 H 410.037 -1.26633 -1.48156 0
M  V30 4198 H 409.133 -0.943858 -2.97486 0
M  V30 4199 N 409.434 1.37368 -0.772513 0
M  V30 4200 C 410.397 2.28601 -0.165541 0
M  V30 4201 C 411.397 1.48062 0.627238 0
M  V30 4202 O 412.587 1.68268 0.450715 0
M  V30 4203 C 409.719 3.32023 0.772897 0
M  V30 4204 H 410.912 2.83787 -0.969787 0
M  V30 4205 H 408.465 1.46647 -0.540775 0
M  V30 4206 H 409.2 2.81962 1.60212 0
M  V30 4207 H 408.985 3.91555 0.206585 0
M  V30 4208 H 410.475 4.00197 1.19298 0
M  V30 4209 N 410.912 0.523116 1.48665 0
M  V30 4210 C 412.16 -0.0134497 2.02096 0
M  V30 4211 C 412.481 -1.35418 1.40311 0
M  V30 4212 O 411.751 -1.87543 0.566074 0
M  V30 4213 H 410.331 -0.00795915 0.746958 0
M  V30 4214 H 412.993 0.685388 1.82451 0
M  V30 4215 H 412.089 -0.126849 3.11842 0
M  V30 4216 N 412.39 -1.55475 0.257931 0
M  V30 4217 C 413.801 -1.8511 -0.243135 0
M  V30 4218 C 414.152 -1.17986 -1.5676 0
M  V30 4219 O 413.277 -0.462102 -2.11409 0
M  V30 4220 C 413.872 -3.35826 -0.447929 0
M  V30 4221 C 412.431 -3.65647 -0.893245 0
M  V30 4222 C 411.578 -2.7729 0.0232965 0
M  V30 4223 H 414.529 -1.51261 0.480199 0
M  V30 4224 H 414.55 -3.58002 -1.28898 0
M  V30 4225 H 414.062 -3.84652 0.516196 0
M  V30 4226 H 412.163 -3.22308 -1.86945 0
M  V30 4227 H 412.276 -4.73312 -0.742469 0
M  V30 4228 H 410.64 -2.49942 -0.490021 0
M  V30 4229 H 411.423 -3.28926 0.982994 0
M  V30 4230 N 413.868 0.0150385 -1.57593 0
M  V30 4231 C 414.831 0.995996 -2.06428 0
M  V30 4232 C 415.831 1.2818 -0.970903 0
M  V30 4233 O 417.021 1.22949 -1.23406 0
M  V30 4234 C 414.153 2.32506 -2.49307 0
M  V30 4235 H 415.346 0.573873 -2.94358 0
M  V30 4236 H 412.899 0.262186 -1.54085 0
M  V30 4237 H 413.634 2.79438 -1.64575 0
M  V30 4238 H 413.419 2.13087 -3.29145 0
M  V30 4239 H 414.909 3.02906 -2.87468 0
M  V30 4240 N 415.346 1.54954 0.287554 0
M  V30 4241 C 416.623 1.65569 1.04146 0
M  V30 4242 C 417.003 0.512672 2.0478 0
M  V30 4243 O 416.351 -0.489038 2.23205 0
M  V30 4244 C 416.561 3.04163 1.71131 0
M  V30 4245 C 417.909 3.61429 2.22832 0
M  V30 4246 O 418.933 3.06702 1.81141 0
M  V30 4247 O 417.792 4.57281 2.9926 0
M  V30 4248 H 414.886 0.671881 0.482188 0
M  V30 4249 H 417.432 1.67297 0.28457 0
M  V30 4250 H 416.204 3.78796 0.981303 0
M  V30 4251 H 415.827 3.06271 2.53543 0
M  V30 4252 N 416.824 -0.551391 1.4764 0
M  V30 4253 C 417.754 -1.66757 1.63445 0
M  V30 4254 C 418.735 -1.63077 0.483742 0
M  V30 4255 O 419.92 -1.80607 0.71377 0
M  V30 4256 C 417.05 -3.05387 1.65396 0
M  V30 4257 C 416.004 -3.23918 2.79752 0
M  V30 4258 C 415.33 -4.63393 2.66779 0
M  V30 4259 C 416.63 -3.08735 4.21284 0
M  V30 4260 H 418.324 -1.53786 2.56886 0
M  V30 4261 H 415.87 -0.738415 1.23626 0
M  V30 4262 H 417.823 -3.83325 1.75043 0
M  V30 4263 H 416.547 -3.19332 0.685195 0
M  V30 4264 H 415.206 -2.48391 2.69625 0
M  V30 4265 H 414.854 -4.74144 1.67918 0
M  V30 4266 H 414.554 -4.7674 3.43501 0
M  V30 4267 H 416.078 -5.43458 2.78364 0
M  V30 4268 H 417.492 -3.76484 4.32357 0
M  V30 4269 H 415.889 -3.33588 4.98838 0
M  V30 4270 H 416.959 -2.0541 4.39243 0
M  V30 4271 N 418.302 -1.35869 -0.798587 0
M  V30 4272 C 419.548 -1.2978 -1.55836 0
M  V30 4273 C 419.881 0.125322 -1.93795 0
M  V30 4274 O 419.156 1.07658 -1.61987 0
M  V30 4275 C 419.439 -2.21188 -2.84162 0
M  V30 4276 C 419.292 -3.72155 -2.52628 0
M  V30 4277 C 420.611 -2.11545 -3.85923 0
M  V30 4278 H 417.73 -0.472769 -0.565383 0
M  V30 4279 H 420.372 -1.66341 -0.918192 0
M  V30 4280 H 418.522 -1.90139 -3.38791 0
M  V30 4281 H 420.194 -4.13682 -2.04121 0
M  V30 4282 H 418.437 -3.92042 -1.85704 0
M  V30 4283 H 419.108 -4.31511 -3.44242 0
M  V30 4284 H 421.584 -2.38855 -3.40716 0
M  V30 4285 H 420.46 -2.77688 -4.73477 0
M  V30 4286 H 420.721 -1.09987 -4.282 0
M  V30 4287 N 419.78 1.02168 -1.19998 0
M  V30 4288 C 421.028 1.75338 -1.00504 0
M  V30 4289 C 421.349 1.89387 0.464506 0
M  V30 4290 O 420.619 1.43268 1.33608 0
M  V30 4291 H 419.199 0.649564 -0.368885 0
M  V30 4292 H 421.861 1.23205 -1.51018 0
M  V30 4293 H 420.957 2.75892 -1.45912 0
M  V30 4294 N 421.258 1.00505 1.21394 0
M  V30 4295 C 422.669 0.721082 1.72213 0
M  V30 4296 C 423.02 -0.761263 1.80829 0
M  V30 4297 O 422.145 -1.59464 1.46288 0
M  V30 4298 C 422.74 1.30228 3.12772 0
M  V30 4299 C 421.299 1.06743 3.60947 0
M  V30 4300 C 420.446 1.41507 2.38477 0
M  V30 4301 H 423.397 1.17594 1.06571 0
M  V30 4302 H 423.418 0.686955 3.74247 0
M  V30 4303 H 422.93 2.38115 3.06468 0
M  V30 4304 H 421.031 0.00572162 3.726 0
M  V30 4305 H 421.144 1.73936 4.46411 0
M  V30 4306 H 419.508 0.833852 2.40664 0
M  V30 4307 H 420.291 2.50424 2.34824 0
M  V30 4308 N 422.737 -1.36956 0.779787 0
M  V30 4309 C 423.647 -2.33965 0.172491 0
M  V30 4310 C 424.663 -1.60574 -0.670222 0
M  V30 4311 O 425.839 -1.92617 -0.588263 0
M  V30 4312 C 422.904 -3.39761 -0.690173 0
M  V30 4313 C 421.965 -4.28964 0.169924 0
M  V30 4314 C 421.198 -5.29707 -0.651662 0
M  V30 4315 O 421.421 -5.38238 -1.88827 0
M  V30 4316 O 420.355 -6.01873 -0.0566264 0
M  V30 4317 H 424.181 -2.87647 0.974321 0
M  V30 4318 H 421.766 -1.39258 0.541078 0
M  V30 4319 H 423.648 -4.04471 -1.1824 0
M  V30 4320 H 422.323 -2.88394 -1.47006 0
M  V30 4321 H 421.23 -3.67326 0.708696 0
M  V30 4322 H 422.563 -4.83656 0.913085 0
M  V30 4323 N 424.215 -0.530993 -1.48385 0
M  V30 4324 C 425.626 -0.0907905 -1.86479 0
M  V30 4325 C 425.977 1.33213 -1.44044 0
M  V30 4326 O 425.102 1.99783 -0.831615 0
M  V30 4327 C 425.697 -0.157987 -3.38431 0
M  V30 4328 C 424.256 0.227026 -3.75715 0
M  V30 4329 C 423.403 -0.5173 -2.72432 0
M  V30 4330 H 426.354 -0.742186 -1.40276 0
M  V30 4331 H 426.375 0.630053 -3.75247 0
M  V30 4332 H 425.887 -1.19372 -3.69286 0
M  V30 4333 H 423.988 1.26486 -3.50474 0
M  V30 4334 H 424.101 -0.113288 -4.78966 0
M  V30 4335 H 422.465 0.0365527 -2.54674 0
M  V30 4336 H 423.248 -1.55368 -3.0613 0
M  V30 4337 N 425.693 1.55336 -0.266172 0
M  V30 4338 C 426.603 2.2583 0.635458 0
M  V30 4339 C 427.619 1.28106 1.17749 0
M  V30 4340 O 428.795 1.61024 1.20968 0
M  V30 4341 C 425.86 2.95879 1.80712 0
M  V30 4342 C 424.921 4.09059 1.30265 0
M  V30 4343 C 424.154 4.75759 2.41846 0
M  V30 4344 O 424.377 4.41622 3.61007 0
M  V30 4345 O 423.311 5.63888 2.1051 0
M  V30 4346 H 427.137 3.03631 0.0646693 0
M  V30 4347 H 424.722 1.49361 -0.0339177 0
M  V30 4348 H 426.604 3.39932 2.49047 0
M  V30 4349 H 425.279 2.21002 2.36516 0
M  V30 4350 H 424.186 3.69482 0.586019 0
M  V30 4351 H 425.519 4.85811 0.790458 0
M  V30 4352 N 427.171 -0.0066808 1.57599 0
M  V30 4353 C 428.134 -0.985035 2.06953 0
M  V30 4354 C 429.134 -1.27663 0.977687 0
M  V30 4355 O 430.324 -1.22293 1.24057 0
M  V30 4356 C 427.456 -2.3118 2.50536 0
M  V30 4357 H 428.649 -0.558255 2.94658 0
M  V30 4358 H 426.202 -0.254011 1.54222 0
M  V30 4359 H 426.937 -2.78561 1.66054 0
M  V30 4360 H 426.722 -2.11338 3.3027 0
M  V30 4361 H 428.212 -3.01377 2.8907 0
M  V30 4362 N 428.649 -1.55105 -0.279332 0
M  V30 4363 C 429.612 -1.86783 -1.32834 0
M  V30 4364 C 430.612 -0.74199 -1.42657 0
M  V30 4365 O 431.802 -1.0102 -1.41918 0
M  V30 4366 C 428.934 -2.06746 -2.71052 0
M  V30 4367 H 430.127 -2.8055 -1.05979 0
M  V30 4368 H 427.68 -1.47499 -0.517087 0
M  V30 4369 H 428.415 -1.15339 -3.03097 0
M  V30 4370 H 428.2 -2.88711 -2.65309 0
M  V30 4371 H 429.69 -2.32549 -3.46858 0
M  V30 4372 N 430.127 0.543554 -1.4793 0
M  V30 4373 C 431.538 1.12561 -1.48953 0
M  V30 4374 C 431.889 1.94578 -0.251754 0
M  V30 4375 O 431.014 2.0665 0.642255 0
M  V30 4376 C 431.609 2.04801 -2.69892 0
M  V30 4377 C 430.168 2.58251 -2.73831 0
M  V30 4378 C 429.315 1.34918 -2.42265 0
M  V30 4379 H 432.266 0.32947 -1.55242 0
M  V30 4380 H 432.287 2.88886 -2.47639 0
M  V30 4381 H 431.799 1.4508 -3.59963 0
M  V30 4382 H 429.9 3.21732 -1.87934 0
M  V30 4383 H 430.013 2.98312 -3.74895 0
M  V30 4384 H 428.377 1.66046 -1.93134 0
M  V30 4385 H 429.16 0.769693 -3.3456 0
M  V30 4386 N 431.605 1.3629 0.791371 0
M  V30 4387 C 432.535 1.33137 1.91825 0
M  V30 4388 C 433.516 0.203168 1.68882 0
M  V30 4389 O 434.701 0.400509 1.90025 0
M  V30 4390 C 431.831 1.11793 3.28816 0
M  V30 4391 C 430.785 2.21417 3.66277 0
M  V30 4392 C 430.111 1.85218 5.01596 0
M  V30 4393 C 431.411 3.63489 3.75064 0
M  V30 4394 H 433.105 2.2743 1.9472 0
M  V30 4395 H 430.651 1.09479 0.935437 0
M  V30 4396 H 432.604 1.08222 4.07266 0
M  V30 4397 H 431.328 0.139501 3.26302 0
M  V30 4398 H 429.987 2.2411 2.90121 0
M  V30 4399 H 429.635 0.859544 4.95602 0
M  V30 4400 H 429.335 2.58611 5.27631 0
M  V30 4401 H 430.859 1.832 5.82469 0
M  V30 4402 H 432.273 3.63034 4.43711 0
M  V30 4403 H 430.67 4.35771 4.12582 0
M  V30 4404 H 431.74 3.98536 2.76219 0
M  V30 4405 N 433.083 -1.0153 1.20538 0
M  V30 4406 C 433.993 -2.13557 0.971113 0
M  V30 4407 C 435.009 -1.73845 -0.0734366 0
M  V30 4408 O 436.185 -2.01075 0.114299 0
M  V30 4409 C 433.25 -3.42661 0.527639 0
M  V30 4410 C 432.311 -3.96608 1.64319 0
M  V30 4411 C 431.544 -5.1955 1.22078 0
M  V30 4412 O 431.767 -5.70329 0.0900198 0
M  V30 4413 O 430.701 -5.66681 2.02871 0
M  V30 4414 H 434.527 -2.3619 1.90913 0
M  V30 4415 H 432.112 -1.11946 0.989362 0
M  V30 4416 H 433.994 -4.20404 0.289621 0
M  V30 4417 H 432.669 -3.21441 -0.381779 0
M  V30 4418 H 431.576 -3.20139 1.93551 0
M  V30 4419 H 432.909 -4.22219 2.52966 0
M  V30 4420 N 434.561 -1.01147 -1.20859 0
M  V30 4421 C 435.493 -0.535546 -2.22855 0
M  V30 4422 C 436.506 0.379323 -1.58319 0
M  V30 4423 O 437.695 0.178489 -1.77605 0
M  V30 4424 C 434.795 0.240962 -3.38042 0
M  V30 4425 C 433.968 -0.674562 -4.32167 0
M  V30 4426 C 433.027 0.053467 -5.26173 0
M  V30 4427 O 432.053 -0.567339 -5.66366 0
M  V30 4428 N 433.255 1.32997 -5.65059 0
M  V30 4429 H 436.02 -1.41268 -2.64317 0
M  V30 4430 H 433.581 -0.888386 -1.35349 0
M  V30 4431 H 435.573 0.737115 -3.97931 0
M  V30 4432 H 434.143 1.01935 -2.95513 0
M  V30 4433 H 433.363 -1.35111 -3.70322 0
M  V30 4434 H 434.651 -1.2974 -4.91981 0
M  V30 4435 H 434.049 1.85536 -5.34409 0
M  V30 4436 H 432.606 1.77095 -6.2728 0
M  V30 4437 N 436.039 1.36541 -0.78704 0
M  V30 4438 C 436.972 2.27831 -0.129765 0
M  V30 4439 C 437.95 1.47105 0.692732 0
M  V30 4440 O 439.134 1.7641 0.664222 0
M  V30 4441 C 436.261 3.28577 0.821883 0
M  V30 4442 C 435.307 4.26422 0.0814771 0
M  V30 4443 S 436.14 5.20919 -1.24112 0
M  V30 4444 C 437.296 6.25212 -0.293409 0
M  V30 4445 H 437.529 2.83229 -0.903811 0
M  V30 4446 H 435.062 1.43046 -0.581144 0
M  V30 4447 H 437.02 3.87123 1.3655 0
M  V30 4448 H 435.681 2.72096 1.56916 0
M  V30 4449 H 434.874 4.97554 0.803485 0
M  V30 4450 H 434.476 3.71944 -0.391589 0
M  V30 4451 H 436.768 6.75435 0.528622 0
M  V30 4452 H 437.711 7.01378 -0.973344 0
M  V30 4453 H 438.119 5.64407 0.102196 0
M  V30 4454 N 437.518 0.538854 1.48102 0
M  V30 4455 C 438.766 0.00798599 2.02098 0
M  V30 4456 C 439.087 -1.33922 1.41739 0
M  V30 4457 O 438.357 -1.86932 0.585934 0
M  V30 4458 H 436.937 -3.62179e-05 0.747 0
M  V30 4459 H 439.599 0.7047 1.81714 0
M  V30 4460 H 438.695 -0.0937672 3.11959 0
M  V30 4461 N 438.996 -1.55193 0.274407 0
M  V30 4462 C 439.926 -2.25471 -0.607032 0
M  V30 4463 C 440.907 -1.24461 -1.15946 0
M  V30 4464 O 442.092 -1.53179 -1.19373 0
M  V30 4465 C 439.222 -2.97526 -1.79153 0
M  V30 4466 C 438.176 -4.05459 -1.37067 0
M  V30 4467 C 437.502 -4.65084 -2.6382 0
M  V30 4468 C 438.802 -5.19691 -0.521389 0
M  V30 4469 H 440.496 -2.99393 -0.0209343 0
M  V30 4470 H 438.042 -1.43997 -0.00862866 0
M  V30 4471 H 439.995 -3.45402 -2.41404 0
M  V30 4472 H 438.719 -2.21138 -2.40344 0
M  V30 4473 H 437.378 -3.58393 -0.771355 0
M  V30 4474 H 437.026 -3.85365 -3.23268 0
M  V30 4475 H 436.726 -5.37961 -2.36372 0
M  V30 4476 H 438.25 -5.15708 -3.26921 0
M  V30 4477 H 439.664 -5.63623 -1.04889 0
M  V30 4478 H 438.061 -5.99126 -0.341825 0
M  V30 4479 H 439.131 -4.82713 0.46 0
M  V30 4480 N 440.474 -0.00167713 -1.576 0
M  V30 4481 C 441.722 0.681471 -1.90264 0
M  V30 4482 C 442.043 1.7422 -0.875924 0
M  V30 4483 O 441.313 1.95709 0.0864412 0
M  V30 4484 H 439.893 0.254696 -0.702239 0
M  V30 4485 H 442.555 -0.0429996 -1.94853 0
M  V30 4486 H 441.651 1.15166 -2.90075 0
M  V30 4487 N 441.952 1.55251 0.271103 0
M  V30 4488 C 443.198 1.7713 0.999832 0
M  V30 4489 C 443.553 0.56659 1.83868 0
M  V30 4490 O 442.846 -0.44069 1.86463 0
M  V30 4491 C 443.04 3.01879 1.91321 0
M  V30 4492 C 442.869 4.34368 1.16426 0
M  V30 4493 C 441.639 4.97593 0.879169 0
M  V30 4494 C 443.837 5.1131 0.553749 0
M  V30 4495 N 441.819 6.13813 0.103618 0
M  V30 4496 C 443.19 6.19938 -0.0875442 0
M  V30 4497 C 445.245 4.95754 0.461782 0
M  V30 4498 C 443.948 7.14703 -0.811942 0
M  V30 4499 C 445.974 5.90875 -0.249027 0
M  V30 4500 C 445.336 6.98893 -0.879051 0
M  V30 4501 H 441.435 0.700407 0.347784 0
M  V30 4502 H 444.019 1.92744 0.275314 0
M  V30 4503 H 442.19 2.87637 2.60997 0
M  V30 4504 H 443.922 3.12154 2.57569 0
M  V30 4505 H 440.677 4.58538 1.18491 0
M  V30 4506 H 441.101 6.76455 -0.271543 0
M  V30 4507 H 445.743 4.12342 0.934552 0
M  V30 4508 H 443.461 7.97634 -1.29639 0
M  V30 4509 H 447.047 5.80916 -0.320529 0
M  V30 4510 H 445.927 7.71231 -1.42031 0
M  V30 4511 N 443.43 -0.535701 1.48216 0
M  V30 4512 C 444.377 -1.64083 1.62312 0
M  V30 4513 C 445.347 -1.59448 0.465365 0
M  V30 4514 O 446.532 -1.77959 0.688135 0
M  V30 4515 C 443.672 -3.0236 1.66349 0
M  V30 4516 C 442.785 -3.17273 2.93193 0
M  V30 4517 C 441.92 -4.46075 2.88427 0
M  V30 4518 C 440.959 -4.54496 4.1 0
M  V30 4519 N 440.096 -5.7468 4.03345 0
M  V30 4520 H 444.936 -1.51374 2.5669 0
M  V30 4521 H 442.473 -0.737059 1.27302 0
M  V30 4522 H 444.431 -3.82461 1.66672 0
M  V30 4523 H 443.061 -3.13854 0.754672 0
M  V30 4524 H 442.113 -2.30462 3.02641 0
M  V30 4525 H 443.425 -3.19357 3.83162 0
M  V30 4526 H 442.579 -5.3446 2.87119 0
M  V30 4527 H 441.318 -4.46504 1.96177 0
M  V30 4528 H 440.323 -3.64519 4.11589 0
M  V30 4529 H 441.548 -4.5581 5.03402 0
M  V30 4530 H 439.494 -5.76017 3.13912 0
M  V30 4531 H 439.411 -5.78234 4.87013 0
M  V30 4532 H 440.679 -6.65367 4.06087 0
M  V30 4533 N 444.908 -1.36708 -0.784132 0
M  V30 4534 C 446.133 -1.34565 -1.5782 0
M  V30 4535 C 446.558 0.0695257 -1.87971 0
M  V30 4536 O 445.916 1.04302 -1.48293 0
M  V30 4537 C 445.964 -2.17952 -2.87279 0
M  V30 4538 O 445.068 -1.57563 -3.81114 0
M  V30 4539 H 444.409 -0.460337 -0.478524 0
M  V30 4540 H 446.939 -1.80064 -0.971495 0
M  V30 4541 H 446.949 -2.30721 -3.365 0
M  V30 4542 H 445.624 -3.20823 -2.64661 0
M  V30 4543 H 444.201 -1.53764 -3.39722 0
M  V30 4544 N 446.386 1.0089 -1.21074 0
M  V30 4545 C 447.611 1.78727 -1.05221 0
M  V30 4546 C 448.036 1.83932 0.393795 0
M  V30 4547 O 447.394 1.28004 1.28393 0
M  V30 4548 C 447.442 3.20665 -1.64944 0
M  V30 4549 O 446.546 4.02632 -0.892273 0
M  V30 4550 H 445.887 0.550973 -0.370574 0
M  V30 4551 H 448.417 1.26847 -1.60534 0
M  V30 4552 H 448.427 3.71352 -1.69002 0
M  V30 4553 H 447.102 3.16191 -2.70177 0
M  V30 4554 H 445.679 3.61207 -0.926492 0
M  V30 4555 N 447.864 1.01787 1.20321 0
M  V30 4556 C 449.094 0.72614 1.93419 0
M  V30 4557 C 449.502 -0.717317 1.75075 0
M  V30 4558 O 448.845 -1.49836 1.06278 0
M  V30 4559 C 448.907 0.983621 3.45782 0
M  V30 4560 C 448.571 2.41645 3.87888 0
M  V30 4561 C 449.568 3.39732 3.93545 0
M  V30 4562 C 447.253 2.75752 4.19841 0
M  V30 4563 C 449.247 4.69988 4.30569 0
M  V30 4564 C 446.934 4.06221 4.56539 0
M  V30 4565 C 447.932 5.0315 4.61876 0
M  V30 4566 O 447.62 6.31284 4.97731 0
M  V30 4567 H 447.352 0.265824 0.621541 0
M  V30 4568 H 449.906 1.3623 1.53722 0
M  V30 4569 H 448.136 0.290301 3.85609 0
M  V30 4570 H 449.825 0.683279 4.00108 0
M  V30 4571 H 450.591 3.14718 3.69022 0
M  V30 4572 H 446.47 2.00993 4.14877 0
M  V30 4573 H 450.014 5.45642 4.3465 0
M  V30 4574 H 445.911 4.31013 4.80518 0
M  V30 4575 H 446.679 6.35591 5.15719 0
M  V30 4576 N 449.342 -1.36122 0.79427 0
M  V30 4577 C 450.59 -1.98718 0.368177 0
M  V30 4578 C 450.911 -1.63345 -1.06506 0
M  V30 4579 O 450.181 -0.909825 -1.73491 0
M  V30 4580 H 448.761 -0.735038 0.133146 0
M  V30 4581 H 451.423 -1.66239 1.01739 0
M  V30 4582 H 450.519 -3.08633 0.463923 0
M  V30 4583 N 450.82 -0.546701 -1.47814 0
M  V30 4584 C 452.048 -0.0232857 -2.06887 0
M  V30 4585 C 452.463 1.26571 -1.4009 0
M  V30 4586 O 451.82 1.7569 -0.493906 0
M  V30 4587 C 451.871 0.186975 -3.61016 0
M  V30 4588 O 451.592 -1.05097 -4.25307 0
M  V30 4589 C 453.093 0.748872 -4.36929 0
M  V30 4590 H 450.313 -0.0410763 -0.669742 0
M  V30 4591 H 452.857 -0.757117 -1.89968 0
M  V30 4592 H 451.012 0.870903 -3.77484 0
M  V30 4593 H 451.426 -0.842121 -5.17695 0
M  V30 4594 H 452.9 0.845334 -5.45489 0
M  V30 4595 H 453.377 1.75772 -4.02493 0
M  V30 4596 H 453.983 0.100979 -4.2518 0
M  V30 4597 N 452.299 1.55045 -0.282633 0
M  V30 4598 C 453.547 1.99365 0.331334 0
M  V30 4599 C 453.868 1.1725 1.55812 0
M  V30 4600 O 453.138 0.263871 1.94115 0
M  V30 4601 H 451.718 0.736397 0.125414 0
M  V30 4602 H 454.38 1.90964 -0.389711 0
M  V30 4603 H 453.476 3.0596 0.616036 0
M  V30 4604 N 453.777 0.010035 1.57597 0
M  V30 4605 C 455.005 -0.683413 1.95287 0
M  V30 4606 C 455.42 -1.66747 0.885481 0
M  V30 4607 O 454.777 -1.82003 -0.134629 0
M  V30 4608 C 454.828 -1.40652 3.33015 0
M  V30 4609 O 454.549 -0.461916 4.35658 0
M  V30 4610 C 456.05 -2.19356 3.85225 0
M  V30 4611 H 453.27 -0.189708 0.643624 0
M  V30 4612 H 455.814 0.0641359 2.04399 0
M  V30 4613 H 453.969 -2.10562 3.2518 0
M  V30 4614 H 454.383 -0.973215 5.15392 0
M  V30 4615 H 455.857 -2.65433 4.83993 0
M  V30 4616 H 456.334 -3.02457 3.18459 0
M  V30 4617 H 456.94 -1.54442 3.96267 0
M  V30 4618 N 455.255 -1.55392 -0.262866 0
M  V30 4619 C 456.503 -1.76127 -0.991147 0
M  V30 4620 C 456.824 -0.571083 -1.8645 0
M  V30 4621 O 456.094 0.413698 -1.91482 0
M  V30 4622 H 454.674 -0.649528 -0.368948 0
M  V30 4623 H 457.336 -1.9281 -0.284655 0
M  V30 4624 H 456.432 -2.6663 -1.62219 0
M  V30 4625 N 456.733 0.527833 -1.48498 0
M  V30 4626 C 457.68 1.6322 -1.6318 0
M  V30 4627 C 458.65 1.59199 -0.473815 0
M  V30 4628 O 459.835 1.77591 -0.697563 0
M  V30 4629 C 456.975 3.01474 -1.67951 0
M  V30 4630 C 456.088 3.15713 -2.94871 0
M  V30 4631 C 455.223 4.44539 -2.90789 0
M  V30 4632 C 454.262 4.52315 -4.12404 0
M  V30 4633 N 453.399 5.72533 -4.06387 0
M  V30 4634 H 458.239 1.50011 -2.57489 0
M  V30 4635 H 455.776 0.730298 -1.27691 0
M  V30 4636 H 457.734 3.81572 -1.68698 0
M  V30 4637 H 456.364 3.1345 -0.771306 0
M  V30 4638 H 455.416 2.28854 -3.03859 0
M  V30 4639 H 456.728 3.1732 -3.8485 0
M  V30 4640 H 455.882 5.3293 -2.89949 0
M  V30 4641 H 454.621 4.45457 -1.98542 0
M  V30 4642 H 453.626 3.62331 -4.13517 0
M  V30 4643 H 454.851 4.53134 -5.05812 0
M  V30 4644 H 452.797 5.74344 -3.16962 0
M  V30 4645 H 452.714 5.75643 -4.90073 0
M  V30 4646 H 453.982 6.63204 -4.0961 0
M  V30 4647 N 458.211 1.37122 0.776871 0
M  V30 4648 C 459.488 1.22586 1.52421 0
M  V30 4649 C 459.868 -0.182726 2.10308 0
M  V30 4650 O 459.216 -1.18979 1.9508 0
M  V30 4651 C 459.426 2.31782 2.60918 0
M  V30 4652 C 460.774 2.69071 3.2846 0
M  V30 4653 O 461.798 2.3092 2.71209 0
M  V30 4654 O 460.657 3.3478 4.31954 0
M  V30 4655 H 457.751 0.478045 0.674835 0
M  V30 4656 H 460.297 1.48888 0.814275 0
M  V30 4657 H 459.069 3.26131 2.16227 0
M  V30 4658 H 458.692 2.06916 3.39517 0
M  V30 4659 N 459.689 -1.00246 1.21608 0
M  V30 4660 C 460.652 -2.07233 0.979133 0
M  V30 4661 C 461.652 -1.6072 -0.0508219 0
M  V30 4662 O 462.842 -1.73196 0.186712 0
M  V30 4663 C 459.974 -3.37546 0.477016 0
M  V30 4664 H 461.167 -2.29687 1.92831 0
M  V30 4665 H 458.72 -1.17261 1.03342 0
M  V30 4666 H 459.455 -3.20773 -0.476966 0
M  V30 4667 H 459.24 -3.72638 1.21997 0
M  V30 4668 H 460.73 -4.16285 0.331181 0
M  V30 4669 N 461.167 -1.02423 -1.1978 0
M  V30 4670 C 462.416 -0.713265 -1.88667 0
M  V30 4671 C 462.729 0.7609 -1.80193 0
M  V30 4672 O 463.935 1.18473 -2.44288 0
M  V30 4673 C 462.391 -1.22545 -3.38394 0
M  V30 4674 C 461.999 -2.72706 -3.55437 0
M  V30 4675 C 463.743 -0.990257 -4.12788 0
M  V30 4676 C 461.65 -3.17367 -4.99031 0
M  V30 4677 H 460.58 -0.263105 -0.706606 0
M  V30 4678 H 463.231 -1.23792 -1.35454 0
M  V30 4679 H 461.613 -0.628732 -3.90977 0
M  V30 4680 H 462.787 -3.37993 -3.13205 0
M  V30 4681 H 461.102 -2.94453 -2.94425 0
M  V30 4682 H 463.699 -1.29926 -5.18675 0
M  V30 4683 H 464.042 0.0730761 -4.16236 0
M  V30 4684 H 464.575 -1.55074 -3.66329 0
M  V30 4685 H 461.314 -4.23009 -5.00743 0
M  V30 4686 H 460.834 -2.56805 -5.42044 0
M  V30 4687 H 462.513 -3.10441 -5.67658 0
M  V30 4688 N 462.645 1.35699 -0.801477 0
M  V30 4689 C 463.873 2.03157 -0.391768 0
M  V30 4690 C 464.288 1.60412 0.995668 0
M  V30 4691 O 463.645 0.799228 1.64069 0
M  V30 4692 C 463.696 3.58566 -0.459671 0
M  V30 4693 O 463.417 3.99756 -1.7924 0
M  V30 4694 C 464.918 4.4328 -0.0421205 0
M  V30 4695 H 462.138 0.651688 -0.159825 0
M  V30 4696 H 464.682 1.73426 -1.08368 0
M  V30 4697 H 462.837 3.86963 0.183939 0
M  V30 4698 H 463.251 4.94387 -1.75162 0
M  V30 4699 H 464.725 5.51821 -0.140754 0
M  V30 4700 H 465.202 4.27383 1.01196 0
M  V30 4701 H 465.808 4.20168 -0.658687 0
M  V30 4702 N 464.123 0.554532 1.47522 0
M  V30 4703 C 465.348 0.0322661 2.07375 0
M  V30 4704 C 465.773 -1.25079 1.40488 0
M  V30 4705 O 465.131 -1.74859 0.47896 0
M  V30 4706 C 465.179 -0.149397 3.6029 0
M  V30 4707 O 464.283 -1.21259 3.9417 0
M  V30 4708 H 463.624 0.0501228 0.662106 0
M  V30 4709 H 466.154 0.769452 1.8958 0
M  V30 4710 H 466.164 -0.364437 4.06369 0
M  V30 4711 H 464.839 0.787743 4.08372 0
M  V30 4712 H 463.416 -0.97825 3.5984 0
M  V30 4713 N 465.601 -1.54893 0.290851 0
M  V30 4714 C 466.849 -1.99538 -0.320756 0
M  V30 4715 C 467.17 -1.18075 -1.55188 0
M  V30 4716 O 466.44 -0.274162 -1.93972 0
M  V30 4717 H 465.02 -0.737052 -0.121507 0
M  V30 4718 H 467.682 -1.90755 0.399832 0
M  V30 4719 H 466.778 -3.06282 -0.599802 0
M  V30 4720 N 467.08 -0.0183926 -1.57589 0
M  V30 4721 C 468.329 0.66185 -1.90532 0
M  V30 4722 C 468.642 1.73904 -0.895366 0
M  V30 4723 O 469.848 2.47518 -1.11566 0
M  V30 4724 C 468.304 1.22844 -3.38286 0
M  V30 4725 C 467.912 0.185103 -4.47617 0
M  V30 4726 C 469.656 1.88581 -3.80312 0
M  V30 4727 C 467.563 0.762723 -5.86461 0
M  V30 4728 H 466.493 0.250972 -0.711006 0
M  V30 4729 H 469.144 -0.0819435 -1.83317 0
M  V30 4730 H 467.526 2.0235 -3.40398 0
M  V30 4731 H 468.7 -0.58671 -4.5705 0
M  V30 4732 H 467.015 -0.372889 -4.14727 0
M  V30 4733 H 469.612 2.32735 -4.81392 0
M  V30 4734 H 469.955 2.72408 -3.14801 0
M  V30 4735 H 470.488 1.15782 -3.80578 0
M  V30 4736 H 467.227 -0.0371713 -6.55489 0
M  V30 4737 H 466.747 1.50327 -5.80656 0
M  V30 4738 H 468.426 1.25576 -6.34697 0
M  V30 4739 N 468.558 1.5553 0.254621 0
M  V30 4740 C 469.468 1.92789 1.33677 0
M  V30 4741 C 470.484 0.827356 1.53071 0
M  V30 4742 O 471.66 1.12807 1.66843 0
M  V30 4743 C 468.725 2.20827 2.67275 0
M  V30 4744 C 467.786 3.4427 2.5647 0
M  V30 4745 C 467.019 3.70961 3.83697 0
M  V30 4746 O 467.242 2.99852 4.85227 0
M  V30 4747 O 466.176 4.64491 3.82794 0
M  V30 4748 H 470.002 2.84945 1.05071 0
M  V30 4749 H 467.587 1.42312 0.454723 0
M  V30 4750 H 469.469 2.40204 3.46237 0
M  V30 4751 H 468.144 1.31851 2.9563 0
M  V30 4752 H 467.051 3.30209 1.75821 0
M  V30 4753 H 468.384 4.33524 2.33062 0
M  V30 4754 N 470.036 -0.519951 1.48776 0
M  V30 4755 C 471.282 -1.27711 1.57536 0
M  V30 4756 C 471.615 -1.92547 0.252866 0
M  V30 4757 O 470.89 -1.7979 -0.742021 0
M  V30 4758 C 471.173 -2.35875 2.72094 0
M  V30 4759 C 471.026 -1.75664 4.1408 0
M  V30 4760 C 472.345 -3.37575 2.82367 0
M  V30 4761 H 469.464 -0.462971 0.573434 0
M  V30 4762 H 472.106 -0.578194 1.80989 0
M  V30 4763 H 470.256 -2.95488 2.52228 0
M  V30 4764 H 471.928 -1.20025 4.45412 0
M  V30 4765 H 470.171 -1.06154 4.20611 0
M  V30 4766 H 470.842 -2.54029 4.90075 0
M  V30 4767 H 473.318 -2.87929 3.00393 0
M  V30 4768 H 472.194 -4.1064 3.64233 0
M  V30 4769 H 472.455 -3.98743 1.90936 0
M  V30 4770 N 471.514 -1.37532 -0.769588 0
M  V30 4771 C 472.76 -1.33057 -1.53048 0
M  V30 4772 C 473.093 0.0841865 -1.94017 0
M  V30 4773 O 472.368 1.04198 -1.64235 0
M  V30 4774 C 472.651 -2.27166 -2.79406 0
M  V30 4775 C 472.504 -3.77429 -2.44677 0
M  V30 4776 C 473.823 -2.19683 -3.81349 0
M  V30 4777 H 470.942 -0.484655 -0.555228 0
M  V30 4778 H 473.584 -1.68251 -0.882702 0
M  V30 4779 H 471.734 -1.97283 -3.34682 0
M  V30 4780 H 473.406 -4.17918 -1.953 0
M  V30 4781 H 471.649 -3.95892 -1.77346 0
M  V30 4782 H 472.32 -4.38716 -3.35011 0
M  V30 4783 H 474.796 -2.46029 -3.35573 0
M  V30 4784 H 473.672 -2.87668 -4.67481 0
M  V30 4785 H 473.933 -1.19045 -4.25771 0
M  V30 4786 N 472.992 0.995999 -1.22138 0
M  V30 4787 C 474.238 1.7386 -1.05567 0
M  V30 4788 C 474.593 1.8808 0.405418 0
M  V30 4789 O 473.886 1.41062 1.29661 0
M  V30 4790 C 474.08 3.14553 -1.6968 0
M  V30 4791 C 473.909 3.14053 -3.21871 0
M  V30 4792 C 472.679 3.20121 -3.90961 0
M  V30 4793 C 474.877 2.98451 -4.18845 0
M  V30 4794 N 472.859 3.09342 -5.30265 0
M  V30 4795 C 474.23 2.95667 -5.4496 0
M  V30 4796 C 476.285 2.8282 -4.09777 0
M  V30 4797 C 474.988 2.78852 -6.63049 0
M  V30 4798 C 477.014 2.67364 -5.27513 0
M  V30 4799 C 476.376 2.65264 -6.52544 0
M  V30 4800 H 472.475 0.645989 -0.440706 0
M  V30 4801 H 475.059 1.1831 -1.54631 0
M  V30 4802 H 473.23 3.68353 -1.2317 0
M  V30 4803 H 474.962 3.77358 -1.4623 0
M  V30 4804 H 471.717 3.27679 -3.4194 0
M  V30 4805 H 472.141 3.0727 -6.03253 0
M  V30 4806 H 476.783 2.83243 -3.139 0
M  V30 4807 H 474.501 2.77175 -7.59078 0
M  V30 4808 H 478.087 2.56256 -5.22326 0
M  V30 4809 H 476.967 2.5345 -7.42114 0
M  V30 4810 N 474.47 1.03057 1.19235 0
M  V30 4811 C 475.698 0.747697 1.92917 0
M  V30 4812 C 476.113 -0.69372 1.75593 0
M  V30 4813 O 475.47 -1.47191 1.07894 0
M  V30 4814 C 475.521 1.09159 3.44625 0
M  V30 4815 O 475.242 2.47641 3.61394 0
M  V30 4816 C 476.743 0.831763 4.35427 0
M  V30 4817 H 473.963 0.273453 0.612751 0
M  V30 4818 H 476.507 1.37552 1.51327 0
M  V30 4819 H 474.662 0.508919 3.84043 0
M  V30 4820 H 475.076 2.60499 4.55237 0
M  V30 4821 H 476.55 1.12233 5.4047 0
M  V30 4822 H 477.027 -0.233769 4.38577 0
M  V30 4823 H 477.633 1.39725 4.01693 0
M  V30 4824 N 475.948 -1.35272 0.808662 0
M  V30 4825 C 476.896 -2.31663 0.208606 0
M  V30 4826 C 477.89 -1.56731 -0.642778 0
M  V30 4827 O 479.096 -1.71843 -0.53571 0
M  V30 4828 H 475.471 -0.750421 0.0486993 0
M  V30 4829 H 477.442 -2.79814 1.03666 0
M  V30 4830 C 476.191 -3.42008 -0.626573 0
M  V30 4831 H 475.514 -3.99795 0.0192103 0
M  V30 4832 H 476.954 -4.11727 -1.01278 0
M  V30 4833 C 475.413 -2.85226 -1.79298 0
M  V30 4834 O 475.943 -2.78945 -2.89055 0
M  V30 4835 N 474.149 -2.42245 -1.60516 0
M  V30 4836 H 473.696 -2.47554 -0.712375 0
M  V30 4837 H 473.654 -2.04603 -2.38715 0
M  V30 4838 N 477.426 -0.562348 -1.47226 0
M  V30 4839 C 478.654 -0.0452275 -2.06851 0
M  V30 4840 C 479.069 1.25078 -1.41424 0
M  V30 4841 O 478.426 1.75156 -0.512513 0
M  V30 4842 C 478.477 0.148674 -3.61194 0
M  V30 4843 O 478.198 -1.09602 -4.24169 0
M  V30 4844 C 479.699 0.702488 -4.37699 0
M  V30 4845 H 476.919 -0.0481775 -0.669268 0
M  V30 4846 H 479.463 -0.777223 -1.89155 0
M  V30 4847 H 477.618 0.830817 -3.78386 0
M  V30 4848 H 478.032 -0.896982 -5.16773 0
M  V30 4849 H 479.506 0.78743 -5.46355 0
M  V30 4850 H 479.983 1.71493 -4.04335 0
M  V30 4851 H 480.589 0.0558772 -4.25263 0
M  V30 4852 N 478.904 1.54736 -0.299062 0
M  V30 4853 C 480.315 1.8569 0.193971 0
M  V30 4854 C 480.666 1.22101 1.53577 0
M  V30 4855 O 479.791 0.51799 2.10109 0
M  V30 4856 C 480.386 3.36895 0.358733 0
M  V30 4857 C 478.945 3.67887 0.795986 0
M  V30 4858 C 478.092 2.77131 -0.096807 0
M  V30 4859 H 481.043 1.49934 -0.520134 0
M  V30 4860 H 481.064 3.61294 1.19361 0
M  V30 4861 H 480.576 3.83148 -0.617998 0
M  V30 4862 H 478.677 3.27151 1.78334 0
M  V30 4863 H 478.79 4.75114 0.616718 0
M  V30 4864 H 477.154 2.51153 0.423581 0
M  V30 4865 H 477.937 3.26204 -1.06986 0
M  V30 4866 N 480.382 0.0267497 1.57577 0
M  V30 4867 C 481.61 -0.662661 1.96001 0
M  V30 4868 C 482.025 -1.65799 0.903117 0
M  V30 4869 O 481.382 -1.82135 -0.115317 0
M  V30 4870 C 481.433 -1.37112 3.34488 0
M  V30 4871 O 481.154 -0.415683 4.36123 0
M  V30 4872 C 482.655 -2.15257 3.8753 0
M  V30 4873 H 479.875 -0.18287 0.6456 0
M  V30 4874 H 482.419 0.0858116 2.0432 0
M  V30 4875 H 480.574 -2.07101 3.27395 0
M  V30 4876 H 480.988 -0.918496 5.16395 0
M  V30 4877 H 482.462 -2.60285 4.86781 0
M  V30 4878 H 482.939 -2.99063 3.21649 0
M  V30 4879 H 483.545 -1.50231 3.97883 0
M  V30 4880 N 481.861 -1.55662 -0.24637 0
M  V30 4881 C 482.808 -1.90361 -1.30504 0
M  V30 4882 C 483.778 -0.757905 -1.47801 0
M  V30 4883 O 484.963 -1.01161 -1.61775 0
M  V30 4884 C 482.103 -2.2042 -2.65535 0
M  V30 4885 C 481.216 -3.47799 -2.56242 0
M  V30 4886 C 480.351 -3.67426 -3.8363 0
M  V30 4887 C 479.39 -4.88403 -3.68956 0
M  V30 4888 N 478.527 -5.04548 -4.88237 0
M  V30 4889 H 483.367 -2.80645 -1.00213 0
M  V30 4890 H 480.904 -1.38924 -0.483577 0
M  V30 4891 H 482.862 -2.35853 -3.44135 0
M  V30 4892 H 481.492 -1.3334 -2.93973 0
M  V30 4893 H 480.544 -3.40694 -1.69208 0
M  V30 4894 H 481.856 -4.36544 -2.4131 0
M  V30 4895 H 481.01 -3.82821 -4.70673 0
M  V30 4896 H 479.749 -2.76914 -4.01459 0
M  V30 4897 H 478.754 -4.72984 -2.80296 0
M  V30 4898 H 479.979 -5.80375 -3.52621 0
M  V30 4899 H 477.925 -4.16974 -5.06427 0
M  V30 4900 H 477.842 -5.87384 -4.75937 0
M  V30 4901 H 479.11 -5.24355 -5.76777 0
M  V30 4902 N 483.339 0.512053 -1.4905 0
M  V30 4903 C 484.585 1.26613 -1.59187 0
M  V30 4904 C 484.94 1.90494 -0.270163 0
M  V30 4905 O 484.233 1.77204 0.728648 0
M  V30 4906 C 484.427 2.36446 -2.68008 0
M  V30 4907 C 484.256 1.83334 -4.10632 0
M  V30 4908 C 483.026 1.65131 -4.77556 0
M  V30 4909 C 485.224 1.35153 -4.96224 0
M  V30 4910 N 483.206 1.06833 -6.04533 0
M  V30 4911 C 484.577 0.889186 -6.13591 0
M  V30 4912 C 486.632 1.23623 -4.82309 0
M  V30 4913 C 485.335 0.322953 -7.18575 0
M  V30 4914 C 487.361 0.683978 -5.87431 0
M  V30 4915 C 486.723 0.2318 -7.04018 0
M  V30 4916 H 482.822 0.453678 -0.636946 0
M  V30 4917 H 485.406 0.575217 -1.86009 0
M  V30 4918 H 483.577 3.03012 -2.42978 0
M  V30 4919 H 485.309 3.03485 -2.67729 0
M  V30 4920 H 482.064 1.89178 -4.34176 0
M  V30 4921 H 482.488 0.796425 -6.72299 0
M  V30 4922 H 487.13 1.57184 -3.92496 0
M  V30 4923 H 484.848 -0.024943 -8.08096 0
M  V30 4924 H 488.434 0.597694 -5.78722 0
M  V30 4925 H 487.314 -0.188869 -7.83973 0
M  V30 4926 N 484.817 1.37938 0.762283 0
M  V30 4927 C 486.094 1.24196 1.51112 0
M  V30 4928 C 486.474 -0.160409 2.1049 0
M  V30 4929 O 485.822 -1.16904 1.96331 0
M  V30 4930 C 486.032 2.34537 2.58445 0
M  V30 4931 C 487.38 2.7254 3.25588 0
M  V30 4932 O 488.404 2.33783 2.68745 0
M  V30 4933 O 487.263 3.39343 4.28379 0
M  V30 4934 H 484.357 0.485175 0.669727 0
M  V30 4935 H 486.903 1.49743 0.798438 0
M  V30 4936 H 485.675 3.28406 2.12756 0
M  V30 4937 H 485.298 2.10505 3.37303 0
M  V30 4938 N 486.295 -0.989507 1.22664 0
M  V30 4939 C 487.243 -2.10148 0.997035 0
M  V30 4940 C 488.237 -1.6929 -0.0609783 0
M  V30 4941 O 489.443 -1.79766 0.0917523 0
M  V30 4942 H 485.818 -0.687256 0.305259 0
M  V30 4943 H 487.789 -2.26685 1.94053 0
M  V30 4944 C 486.538 -3.4257 0.595085 0
M  V30 4945 H 485.861 -3.74453 1.40089 0
M  V30 4946 H 487.301 -4.21344 0.473869 0
M  V30 4947 C 485.76 -3.29638 -0.695725 0
M  V30 4948 O 486.29 -3.61709 -1.74727 0
M  V30 4949 N 484.496 -2.82814 -0.668173 0
M  V30 4950 H 484.043 -2.56914 0.18787 0
M  V30 4951 H 484.001 -2.74544 -1.5321 0
M  V30 4952 N 487.773 -1.03688 -1.18687 0
M  V30 4953 C 488.998 -0.757819 -1.93059 0
M  V30 4954 C 489.423 0.678353 -1.75442 0
M  V30 4955 O 488.781 1.46938 -1.06203 0
M  V30 4956 C 488.829 -1.12423 -3.42627 0
M  V30 4957 O 487.933 -0.247505 -4.11657 0
M  V30 4958 H 487.274 -0.279245 -0.602427 0
M  V30 4959 H 489.804 -1.3857 -1.5053 0
M  V30 4960 H 489.814 -1.08454 -3.93322 0
M  V30 4961 H 488.489 -2.17049 -3.54771 0
M  V30 4962 H 487.066 -0.34649 -3.71287 0
M  V30 4963 N 489.251 1.34841 -0.815825 0
M  V30 4964 C 490.498 1.98499 -0.400535 0
M  V30 4965 C 490.826 1.64699 1.03463 0
M  V30 4966 O 490.081 0.907006 1.73412 0
M  V30 4967 C 490.38 3.53273 -0.541541 0
M  V30 4968 C 490.046 4.06966 -1.94138 0
M  V30 4969 C 488.708 4.21341 -2.32433 0
M  V30 4970 C 491.06 4.35933 -2.85677 0
M  V30 4971 C 488.388 4.62007 -3.61617 0
M  V30 4972 C 490.74 4.78042 -4.14317 0
M  V30 4973 C 489.404 4.90622 -4.52599 0
M  V30 4974 H 488.674 0.72636 -0.146566 0
M  V30 4975 H 491.321 1.60902 -1.0384 0
M  V30 4976 H 489.626 3.91387 0.179741 0
M  V30 4977 H 491.323 4.00497 -0.20085 0
M  V30 4978 H 487.913 3.96235 -1.63388 0
M  V30 4979 H 492.097 4.24372 -2.57337 0
M  V30 4980 H 487.353 4.69937 -3.91113 0
M  V30 4981 H 491.527 4.99415 -4.85342 0
M  V30 4982 H 489.154 5.2189 -5.52752 0
M  V30 4983 N 490.729 0.570148 1.46925 0
M  V30 4984 C 491.659 -0.158274 2.32963 0
M  V30 4985 C 492.64 -0.896093 1.44583 0
M  V30 4986 O 493.825 -0.874022 1.7342 0
M  V30 4987 C 490.955 -1.18055 3.26619 0
M  V30 4988 C 489.909 -0.558379 4.24342 0
M  V30 4989 C 489.235 -1.68623 5.07415 0
M  V30 4990 C 490.535 0.496295 5.19937 0
M  V30 4991 H 492.229 0.560046 2.94115 0
M  V30 4992 H 489.775 0.270775 1.41431 0
M  V30 4993 H 491.728 -1.69841 3.85658 0
M  V30 4994 H 490.452 -1.92899 2.63548 0
M  V30 4995 H 489.111 -0.0617157 3.66548 0
M  V30 4996 H 488.759 -2.42402 4.40738 0
M  V30 4997 H 488.459 -1.27564 5.73586 0
M  V30 4998 H 489.983 -2.20709 5.69315 0
M  V30 4999 H 491.397 0.0640052 5.73264 0
M  V30 5000 H 489.794 0.82649 5.94381 0
M  V30 5001 H 490.864 1.38735 4.6463 0
M  V30 5002 N 492.207 -1.54576 0.307264 0
M  V30 5003 C 493.117 -2.27435 -0.57536 0
M  V30 5004 C 494.133 -1.31183 -1.14311 0
M  V30 5005 O 495.309 -1.64175 -1.16656 0
M  V30 5006 C 492.374 -3.00566 -1.72803 0
M  V30 5007 C 491.435 -4.12369 -1.19373 0
M  V30 5008 C 490.668 -4.82003 -2.29147 0
M  V30 5009 O 490.891 -4.51038 -3.49171 0
M  V30 5010 O 489.825 -5.69271 -1.95485 0
M  V30 5011 H 493.651 -3.03696 0.0158558 0
M  V30 5012 H 491.236 -1.49219 0.0735064 0
M  V30 5013 H 493.118 -3.46416 -2.39946 0
M  V30 5014 H 491.793 -2.27195 -2.30574 0
M  V30 5015 H 490.7 -3.70905 -0.487851 0
M  V30 5016 H 492.033 -4.87736 -0.661376 0
M  V30 5017 N 493.685 -0.035106 -1.57561 0
M  V30 5018 C 494.934 0.641604 -1.91223 0
M  V30 5019 C 495.247 1.72944 -0.913761 0
M  V30 5020 O 496.453 2.46321 -1.14185 0
M  V30 5021 C 494.909 1.19249 -3.3957 0
M  V30 5022 C 494.517 0.137616 -4.47789 0
M  V30 5023 C 496.261 1.84537 -3.82291 0
M  V30 5024 C 494.168 0.700478 -5.87237 0
M  V30 5025 H 493.098 0.243417 -0.713627 0
M  V30 5026 H 495.749 -0.101382 -1.8322 0
M  V30 5027 H 494.131 1.98728 -3.42525 0
M  V30 5028 H 495.305 -0.635153 -4.56402 0
M  V30 5029 H 493.62 -0.416855 -4.14308 0
M  V30 5030 H 496.217 2.27616 -4.83834 0
M  V30 5031 H 496.56 2.69054 -3.17672 0
M  V30 5032 H 497.093 1.11739 -3.81784 0
M  V30 5033 H 493.832 -0.106693 -6.55413 0
M  V30 5034 H 493.352 1.4416 -5.82218 0
M  V30 5035 H 495.031 1.18837 -6.35993 0
M  V30 5036 N 495.163 1.55791 0.238111 0
M  V30 5037 C 496.093 1.94068 1.29846 0
M  V30 5038 C 497.074 0.806726 1.49753 0
M  V30 5039 O 498.259 1.06772 1.62214 0
M  V30 5040 C 495.389 2.24302 2.65153 0
M  V30 5041 C 494.343 3.40032 2.59927 0
M  V30 5042 C 493.669 3.55829 3.99111 0
M  V30 5043 C 494.969 4.75476 2.16148 0
M  V30 5044 H 496.663 2.82887 0.980563 0
M  V30 5045 H 494.209 1.36105 0.470253 0
M  V30 5046 H 496.162 2.4967 3.39475 0
M  V30 5047 H 494.886 1.32318 2.98596 0
M  V30 5048 H 493.545 3.14687 1.88063 0
M  V30 5049 H 493.193 2.6125 4.29834 0
M  V30 5050 H 492.893 4.3366 3.96501 0
M  V30 5051 H 494.417 3.83528 4.7512 0
M  V30 5052 H 495.831 5.00158 2.80205 0
M  V30 5053 H 494.228 5.56472 2.24631 0
M  V30 5054 H 495.298 4.71946 1.11333 0
M  V30 5055 N 496.642 -0.504142 1.49319 0
M  V30 5056 C 497.872 -1.28071 1.62116 0
M  V30 5057 C 498.28 -1.86955 0.290566 0
M  V30 5058 O 497.623 -1.68415 -0.733616 0
M  V30 5059 C 497.685 -2.4521 2.62893 0
M  V30 5060 C 497.349 -2.07218 4.0732 0
M  V30 5061 C 498.346 -1.61375 4.94221 0
M  V30 5062 C 496.031 -2.16949 4.53033 0
M  V30 5063 C 498.025 -1.25763 6.2487 0
M  V30 5064 C 495.712 -1.80949 5.83696 0
M  V30 5065 C 496.71 -1.3543 6.69438 0
M  V30 5066 O 496.398 -0.99915 7.97667 0
M  V30 5067 H 496.13 -0.394763 0.54876 0
M  V30 5068 H 498.684 -0.612118 1.96067 0
M  V30 5069 H 496.914 -3.15134 2.24115 0
M  V30 5070 H 498.603 -3.0724 2.65252 0
M  V30 5071 H 499.369 -1.53306 4.60133 0
M  V30 5072 H 495.248 -2.5133 3.86463 0
M  V30 5073 H 498.792 -0.901631 6.91749 0
M  V30 5074 H 494.689 -1.88667 6.17313 0
M  V30 5075 H 495.457 -1.13089 8.1065 0
M  V30 5076 N 498.12 -1.38341 -0.754957 0
M  V30 5077 C 499.368 -1.34208 -1.51105 0
M  V30 5078 C 499.689 0.0677634 -1.94882 0
M  V30 5079 O 498.959 1.01517 -1.67544 0
M  V30 5080 H 497.539 -0.493819 -0.560493 0
M  V30 5081 H 500.201 -1.73005 -0.897507 0
M  V30 5082 H 499.297 -1.99203 -2.4026 0
M  V30 5083 N 499.598 0.982988 -1.23187 0
M  V30 5084 C 500.828 1.75666 -1.08743 0
M  V30 5085 C 501.236 1.85662 0.364195 0
M  V30 5086 O 500.579 1.33317 1.26382 0
M  V30 5087 C 500.641 3.20144 -1.63549 0
M  V30 5088 C 500.305 3.33665 -3.12277 0
M  V30 5089 C 501.302 3.20194 -4.096 0
M  V30 5090 C 498.987 3.58397 -3.51933 0
M  V30 5091 C 500.981 3.31256 -5.44563 0
M  V30 5092 C 498.668 3.69098 -4.87042 0
M  V30 5093 C 499.666 3.55537 -5.83166 0
M  V30 5094 O 499.354 3.65864 -7.1582 0
M  V30 5095 H 499.086 0.558194 -0.381307 0
M  V30 5096 H 501.64 1.24387 -1.63454 0
M  V30 5097 H 499.87 3.72659 -1.03256 0
M  V30 5098 H 501.559 3.79262 -1.4462 0
M  V30 5099 H 502.325 3.00987 -3.80305 0
M  V30 5100 H 498.204 3.68025 -2.77631 0
M  V30 5101 H 501.748 3.20588 -6.19572 0
M  V30 5102 H 497.645 3.87814 -5.16014 0
M  V30 5103 H 498.413 3.82675 -7.23534 0
M  V30 5104 N 501.076 1.04316 1.18135 0
M  V30 5105 C 501.986 0.646876 2.25505 0
M  V30 5106 C 503.002 -0.328008 1.7088 0
M  V30 5107 O 504.178 -0.182309 2.00573 0
M  V30 5108 C 501.243 0.0185664 3.46695 0
M  V30 5109 C 500.304 1.04277 4.16443 0
M  V30 5110 C 499.537 0.444352 5.31847 0
M  V30 5111 O 499.76 -0.748735 5.65465 0
M  V30 5112 O 498.694 1.17428 5.90334 0
M  V30 5113 H 502.52 1.54147 2.61672 0
M  V30 5114 H 500.105 0.814188 1.25265 0
M  V30 5115 H 501.987 -0.331068 4.20097 0
M  V30 5116 H 500.662 -0.849814 3.12346 0
M  V30 5117 H 499.569 1.44425 3.45098 0
M  V30 5118 H 500.902 1.882 4.54798 0
M  V30 5119 N 502.554 -1.34406 0.822964 0
M  V30 5120 C 503.8 -1.98999 0.420847 0
M  V30 5121 C 504.155 -1.64067 -1.00498 0
M  V30 5122 O 503.448 -0.902071 -1.69036 0
M  V30 5123 C 503.642 -3.52981 0.560268 0
M  V30 5124 C 503.471 -4.02873 1.99809 0
M  V30 5125 C 502.241 -4.31463 2.62998 0
M  V30 5126 C 504.439 -4.20241 2.96483 0
M  V30 5127 N 502.421 -4.6739 3.9802 0
M  V30 5128 C 503.792 -4.59348 4.16413 0
M  V30 5129 C 505.847 -4.02489 2.93098 0
M  V30 5130 C 504.55 -4.82559 5.33413 0
M  V30 5131 C 506.576 -4.26866 4.09315 0
M  V30 5132 C 505.938 -4.6626 5.27997 0
M  V30 5133 H 502.037 -0.755432 0.202104 0
M  V30 5134 H 504.621 -1.62815 1.06767 0
M  V30 5135 H 502.792 -3.88359 -0.0566596 0
M  V30 5136 H 504.524 -4.04487 0.131146 0
M  V30 5137 H 501.279 -4.22373 2.14238 0
M  V30 5138 H 501.703 -4.89588 4.67582 0
M  V30 5139 H 506.345 -3.71161 2.02483 0
M  V30 5140 H 504.063 -5.12754 6.24587 0
M  V30 5141 H 507.649 -4.14667 4.08096 0
M  V30 5142 H 506.529 -4.84752 6.16429 0
M  V30 5143 N 504.032 -0.577932 -1.46621 0
M  V30 5144 C 504.942 0.160651 -2.34049 0
M  V30 5145 C 505.958 0.890911 -1.49462 0
M  V30 5146 O 507.134 0.855166 -1.82343 0
M  V30 5147 C 504.199 1.16447 -3.26559 0
M  V30 5148 C 503.26 0.4394 -4.27045 0
M  V30 5149 C 502.493 1.3954 -5.15135 0
M  V30 5150 O 502.716 2.63162 -5.06065 0
M  V30 5151 O 501.65 0.908585 -5.95003 0
M  V30 5152 H 505.476 -0.557057 -2.98547 0
M  V30 5153 H 503.061 -0.338369 -1.45518 0
M  V30 5154 H 504.943 1.7434 -3.83645 0
M  V30 5155 H 503.618 1.86373 -2.64663 0
M  V30 5156 H 502.525 -0.181247 -3.73661 0
M  V30 5157 H 503.858 -0.218799 -4.91713 0
M  V30 5158 N 505.51 1.54411 -0.315457 0
M  V30 5159 C 506.44 2.27002 0.547039 0
M  V30 5160 C 507.421 1.27492 1.12605 0
M  V30 5161 O 508.606 1.5629 1.15269 0
M  V30 5162 C 505.736 3.02171 1.71201 0
M  V30 5163 C 504.69 4.0895 1.26268 0
M  V30 5164 C 504.016 4.71915 2.51396 0
M  V30 5165 C 505.316 5.20891 0.383419 0
M  V30 5166 H 507.01 2.99343 -0.0584517 0
M  V30 5167 H 504.556 1.4397 -0.0295527 0
M  V30 5168 H 506.509 3.51681 2.32161 0
M  V30 5169 H 505.233 2.27433 2.34397 0
M  V30 5170 H 503.892 3.60312 0.676062 0
M  V30 5171 H 503.54 3.93801 3.12937 0
M  V30 5172 H 503.24 5.44039 2.22026 0
M  V30 5173 H 504.764 5.24195 3.13133 0
M  V30 5174 H 506.178 5.66206 0.899082 0
M  V30 5175 H 504.575 5.99821 0.182857 0
M  V30 5176 H 505.645 4.81324 -0.587821 0
M  V30 5177 N 506.988 0.0434614 1.5754 0
M  V30 5178 C 508.216 -0.641835 1.96693 0
M  V30 5179 C 508.631 -1.64832 0.920652 0
M  V30 5180 O 507.988 -1.82247 -0.095993 0
M  V30 5181 C 508.039 -1.33557 3.35924 0
M  V30 5182 O 507.76 -0.369403 4.3654 0
M  V30 5183 C 509.261 -2.11135 3.89791 0
M  V30 5184 H 506.481 -0.176013 0.647503 0
M  V30 5185 H 509.025 0.107478 2.04217 0
M  V30 5186 H 507.18 -2.03617 3.29574 0
M  V30 5187 H 507.594 -0.863674 5.1734 0
M  V30 5188 H 509.068 -2.55107 4.89514 0
M  V30 5189 H 509.545 -2.95634 3.24803 0
M  V30 5190 H 510.151 -1.46002 3.99454 0
M  V30 5191 N 508.466 -1.55915 -0.229846 0
M  V30 5192 C 509.413 -1.91734 -1.28478 0
M  V30 5193 C 510.383 -0.773539 -1.46988 0
M  V30 5194 O 511.568 -1.02871 -1.60693 0
M  V30 5195 C 508.708 -2.23224 -2.63182 0
M  V30 5196 C 507.821 -3.50497 -2.52539 0
M  V30 5197 C 506.956 -3.71474 -3.79711 0
M  V30 5198 C 505.995 -4.92289 -3.63755 0
M  V30 5199 N 505.132 -5.09698 -4.82858 0
M  V30 5200 H 509.972 -2.81692 -0.972308 0
M  V30 5201 H 507.509 -1.39429 -0.468815 0
M  V30 5202 H 509.467 -2.3949 -3.41614 0
M  V30 5203 H 508.097 -1.36451 -2.92542 0
M  V30 5204 H 507.149 -3.4247 -1.65585 0
M  V30 5205 H 508.461 -4.39079 -2.36666 0
M  V30 5206 H 507.615 -3.87791 -4.66586 0
M  V30 5207 H 506.354 -2.81157 -3.985 0
M  V30 5208 H 505.359 -4.7593 -2.75264 0
M  V30 5209 H 506.584 -5.84083 -3.46445 0
M  V30 5210 H 504.53 -4.22322 -5.01976 0
M  V30 5211 H 504.447 -5.92399 -4.69681 0
M  V30 5212 H 505.715 -5.30443 -5.71183 0
M  V30 5213 N 509.944 0.496216 -1.49584 0
M  V30 5214 C 511.169 1.27865 -1.63295 0
M  V30 5215 C 511.594 1.85592 -0.306156 0
M  V30 5216 O 510.952 1.66092 0.726851 0
M  V30 5217 C 511 2.38128 -2.7079 0
M  V30 5218 O 510.104 3.42108 -2.30296 0
M  V30 5219 H 509.445 0.377279 -0.546403 0
M  V30 5220 H 511.975 0.593497 -1.95803 0
M  V30 5221 H 511.985 2.8382 -2.93104 0
M  V30 5222 H 510.66 1.95479 -3.67098 0
M  V30 5223 H 509.237 3.02301 -2.18331 0
M  V30 5224 N 511.423 1.38739 0.74761 0
M  V30 5225 C 512.834 1.31507 1.32524 0
M  V30 5226 C 513.185 -0.0263963 1.96182 0
M  V30 5227 O 512.31 -0.92849 1.95469 0
M  V30 5228 C 512.905 2.38162 2.40966 0
M  V30 5229 C 511.464 2.34489 2.94434 0
M  V30 5230 C 510.611 2.20712 1.67873 0
M  V30 5231 H 513.562 1.4901 0.546043 0
M  V30 5232 H 513.583 2.04222 3.21051 0
M  V30 5233 H 513.095 3.35783 1.94605 0
M  V30 5234 H 511.196 1.40467 3.45108 0
M  V30 5235 H 511.309 3.28861 3.48407 0
M  V30 5236 H 509.673 1.67667 1.91729 0
M  V30 5237 H 510.456 3.20285 1.23582 0
M  V30 5238 N 512.901 -0.976442 1.23707 0
M  V30 5239 C 513.864 -2.0511 1.02287 0
M  V30 5240 C 514.864 -1.60791 -0.0167195 0
M  V30 5241 O 516.054 -1.72761 0.223408 0
M  V30 5242 C 513.186 -3.36458 0.548507 0
M  V30 5243 H 514.379 -2.25545 1.9766 0
M  V30 5244 H 511.932 -1.15042 1.05806 0
M  V30 5245 H 512.667 -3.21713 -0.408818 0
M  V30 5246 H 512.452 -3.69967 1.29874 0
M  V30 5247 H 513.942 -4.15489 0.419406 0
M  V30 5248 N 514.379 -1.04941 -1.1758 0
M  V30 5249 C 515.627 -0.756492 -1.87408 0
M  V30 5250 C 515.948 0.718478 -1.81281 0
M  V30 5251 O 515.218 1.519 -1.23706 0
M  V30 5252 H 513.798 -0.276841 -0.693807 0
M  V30 5253 H 516.46 -1.32803 -1.42652 0
M  V30 5254 H 515.556 -1.06918 -2.93215 0
M  V30 5255 N 515.857 1.33968 -0.830081 0
M  V30 5256 C 516.82 2.27694 -0.26235 0
M  V30 5257 C 517.82 1.50589 0.563876 0
M  V30 5258 O 519.01 1.70028 0.378941 0
M  V30 5259 C 516.142 3.35002 0.63138 0
M  V30 5260 H 517.335 2.79419 -1.08928 0
M  V30 5261 H 514.888 1.44221 -0.602486 0
M  V30 5262 H 515.623 2.88504 1.48109 0
M  V30 5263 H 515.408 3.92079 0.0403276 0
M  V30 5264 H 516.898 4.04897 1.02217 0
M  V30 5265 N 517.335 0.585699 1.46312 0
M  V30 5266 C 518.581 0.0808731 2.03239 0
M  V30 5267 C 518.936 -1.26609 1.44872 0
M  V30 5268 O 518.229 -1.81779 0.60556 0
M  V30 5269 C 518.423 -0.0401312 3.57377 0
M  V30 5270 C 518.252 1.29356 4.30694 0
M  V30 5271 C 517.022 1.86849 4.69484 0
M  V30 5272 C 519.22 2.21742 4.64042 0
M  V30 5273 N 517.202 3.13926 5.27564 0
M  V30 5274 C 518.573 3.33408 5.22723 0
M  V30 5275 C 520.628 2.21386 4.45974 0
M  V30 5276 C 519.331 4.44852 5.65242 0
M  V30 5277 C 521.357 3.31862 4.89511 0
M  V30 5278 C 520.719 4.42248 5.48266 0
M  V30 5279 H 516.818 0.072443 0.778637 0
M  V30 5280 H 519.402 0.779254 1.78426 0
M  V30 5281 H 517.573 -0.707686 3.81898 0
M  V30 5282 H 519.305 -0.549615 4.00951 0
M  V30 5283 H 516.06 1.40307 4.52339 0
M  V30 5284 H 516.484 3.78775 5.61122 0
M  V30 5285 H 521.126 1.37314 3.99881 0
M  V30 5286 H 518.844 5.29665 6.10312 0
M  V30 5287 H 522.43 3.32708 4.7728 0
M  V30 5288 H 521.31 5.26323 5.81338 0
M  V30 5289 N 518.813 -1.54241 0.323641 0
M  V30 5290 C 519.745 -2.21836 -0.576311 0
M  V30 5291 C 520.758 -1.21837 -1.07979 0
M  V30 5292 O 521.947 -1.48306 -0.99336 0
M  V30 5293 C 519.047 -2.86923 -1.80356 0
M  V30 5294 C 518.22 -4.1306 -1.43875 0
M  V30 5295 C 517.279 -4.6174 -2.52353 0
M  V30 5296 O 516.305 -5.26421 -2.16494 0
M  V30 5297 N 517.507 -4.35974 -3.83284 0
M  V30 5298 H 520.272 -2.997 0.00247987 0
M  V30 5299 H 517.833 -1.61233 0.146848 0
M  V30 5300 H 519.825 -3.16414 -2.52318 0
M  V30 5301 H 518.395 -2.12765 -2.29019 0
M  V30 5302 H 517.615 -3.90334 -0.550752 0
M  V30 5303 H 518.903 -4.95148 -1.17071 0
M  V30 5304 H 518.301 -3.84203 -4.15216 0
M  V30 5305 H 516.858 -4.70119 -4.51477 0
M  V30 5306 N 520.291 -0.0518155 -1.57515 0
M  V30 5307 C 521.521 0.63048 -1.96745 0
M  V30 5308 C 521.929 1.64875 -0.928054 0
M  V30 5309 O 521.272 1.83449 0.0960678 0
M  V30 5310 C 521.334 1.37381 -3.32215 0
M  V30 5311 C 520.998 0.511298 -4.54131 0
M  V30 5312 C 521.995 -0.222884 -5.19422 0
M  V30 5313 C 519.68 0.442035 -5.00351 0
M  V30 5314 C 521.674 -1.01476 -6.2927 0
M  V30 5315 C 519.361 -0.35353 -6.10077 0
M  V30 5316 C 520.359 -1.08062 -6.74397 0
M  V30 5317 O 520.047 -1.8631 -7.82013 0
M  V30 5318 H 519.779 0.177126 -0.652382 0
M  V30 5319 H 522.333 -0.114726 -2.05079 0
M  V30 5320 H 520.563 2.16466 -3.20436 0
M  V30 5321 H 522.252 1.9464 -3.56188 0
M  V30 5322 H 523.018 -0.178846 -4.8467 0
M  V30 5323 H 518.897 0.997562 -4.50077 0
M  V30 5324 H 522.441 -1.58279 -6.79407 0
M  V30 5325 H 518.338 -0.399205 -6.44264 0
M  V30 5326 H 519.106 -1.78528 -7.98793 0
M  V30 5327 N 521.769 1.56035 0.221574 0
M  V30 5328 C 522.997 1.8313 0.962864 0
M  V30 5329 C 523.412 0.630934 1.77946 0
M  V30 5330 O 522.769 -0.400519 1.78051 0
M  V30 5331 C 522.82 3.08742 1.88045 0
M  V30 5332 O 522.541 4.24147 1.09686 0
M  V30 5333 C 524.042 3.48824 2.73563 0
M  V30 5334 H 521.262 0.608775 0.282194 0
M  V30 5335 H 523.806 2.03124 0.23681 0
M  V30 5336 H 521.961 2.90723 2.56045 0
M  V30 5337 H 522.375 4.95505 1.71974 0
M  V30 5338 H 523.849 4.39752 3.3365 0
M  V30 5339 H 524.326 2.70575 3.45956 0
M  V30 5340 H 524.932 3.69282 2.10976 0
M  V30 5341 N 523.247 -0.488276 1.49845 0
M  V30 5342 C 524.21 -1.57069 1.66919 0
M  V30 5343 C 525.21 -1.51445 0.540479 0
M  V30 5344 O 526.4 -1.5437 0.807188 0
M  V30 5345 C 523.532 -2.96718 1.67844 0
M  V30 5346 H 524.725 -1.43254 2.63474 0
M  V30 5347 H 522.278 -0.713435 1.39068 0
M  V30 5348 H 523.013 -3.15996 0.7292 0
M  V30 5349 H 522.798 -3.02208 2.49826 0
M  V30 5350 H 524.288 -3.75335 1.83066 0
M  V30 5351 N 524.725 -1.39134 -0.740242 0
M  V30 5352 C 525.672 -1.37434 -1.8542 0
M  V30 5353 C 526.642 -0.234822 -1.64432 0
M  V30 5354 O 527.827 -0.429125 -1.85912 0
M  V30 5355 C 524.967 -1.21844 -3.22875 0
M  V30 5356 C 524.08 -2.45296 -3.55603 0
M  V30 5357 C 523.215 -2.22334 -4.82432 0
M  V30 5358 C 522.254 -3.41488 -5.07988 0
M  V30 5359 N 521.391 -3.17877 -6.26018 0
M  V30 5360 H 526.231 -2.3266 -1.86207 0
M  V30 5361 H 523.768 -1.15578 -0.909946 0
M  V30 5362 H 525.726 -1.10818 -4.02213 0
M  V30 5363 H 524.356 -0.3025 -3.21379 0
M  V30 5364 H 523.408 -2.66945 -2.71006 0
M  V30 5365 H 524.72 -3.34063 -3.7041 0
M  V30 5366 H 523.874 -2.0852 -5.69741 0
M  V30 5367 H 522.613 -1.30954 -4.6979 0
M  V30 5368 H 521.618 -3.55807 -4.19144 0
M  V30 5369 H 522.843 -4.33763 -5.22519 0
M  V30 5370 H 520.789 -2.29156 -6.14673 0
M  V30 5371 H 520.706 -4.00198 -6.41387 0
M  V30 5372 H 521.974 -3.07746 -7.16179 0
M  V30 5373 N 526.204 0.969867 -1.24223 0
M  V30 5374 C 527.481 1.68774 -0.988664 0
M  V30 5375 C 527.861 2.05342 0.489673 0
M  V30 5376 O 527.209 1.75486 1.46345 0
M  V30 5377 C 527.419 2.92135 -1.90941 0
M  V30 5378 C 528.767 3.64422 -2.17903 0
M  V30 5379 O 529.791 3.02188 -1.88576 0
M  V30 5380 O 528.65 4.76446 -2.67697 0
M  V30 5381 H 525.744 0.737736 -0.37373 0
M  V30 5382 H 528.29 1.02415 -1.35312 0
M  V30 5383 H 527.062 2.61788 -2.90831 0
M  V30 5384 H 526.685 3.66228 -1.54798 0
M  V30 5385 N 527.682 1.05563 1.17022 0
M  V30 5386 C 528.93 0.76642 1.87004 0
M  V30 5387 C 529.251 -0.708854 1.8166 0
M  V30 5388 O 528.521 -1.51242 1.2451 0
M  V30 5389 H 527.101 0.280516 0.692329 0
M  V30 5390 H 529.763 1.33557 1.41945 0
M  V30 5391 H 528.859 1.08472 2.92644 0
M  V30 5392 N 529.16 -1.33526 0.837174 0
M  V30 5393 C 530.123 -2.27551 0.274421 0
M  V30 5394 C 531.123 -1.50886 -0.555881 0
M  V30 5395 O 532.313 -1.70227 -0.369918 0
M  V30 5396 C 529.445 -3.35332 -0.613605 0
M  V30 5397 H 530.638 -2.78837 1.10408 0
M  V30 5398 H 528.191 -1.439 0.610126 0
M  V30 5399 H 528.926 -2.89285 -1.46577 0
M  V30 5400 H 528.711 -3.92095 -0.0195341 0
M  V30 5401 H 530.201 -4.05433 -1.00068 0
M  V30 5402 N 530.638 -0.59345 -1.46 0
M  V30 5403 C 531.886 -0.082988 -2.0193 0
M  V30 5404 C 532.207 1.28569 -1.46612 0
M  V30 5405 O 531.477 1.84629 -0.654909 0
M  V30 5406 H 530.057 -0.0276882 -0.746487 0
M  V30 5407 H 532.719 -0.771657 -1.78973 0
M  V30 5408 H 531.815 -0.022079 -3.12092 0
M  V30 5409 N 532.116 1.54067 -0.331816 0
M  V30 5410 C 533.079 2.23275 0.517768 0
M  V30 5411 C 534.079 1.22897 1.03697 0
M  V30 5412 O 535.269 1.47419 0.928084 0
M  V30 5413 C 532.401 2.94326 1.72004 0
M  V30 5414 H 533.594 2.99773 -0.0873507 0
M  V30 5415 H 531.147 1.56079 -0.0830042 0
M  V30 5416 H 531.882 2.21986 2.36417 0
M  V30 5417 H 531.667 3.67941 1.35507 0
M  V30 5418 H 533.157 3.47031 2.32291 0
M  V30 5419 N 533.594 0.0601682 1.57485 0
M  V30 5420 C 534.842 -0.610386 1.92662 0
M  V30 5421 C 535.163 -1.70849 0.939981 0
M  V30 5422 O 534.433 -1.95895 -0.0137455 0
M  V30 5423 H 533.013 -0.228457 0.711208 0
M  V30 5424 H 535.675 0.115288 1.94559 0
M  V30 5425 H 534.771 -1.0432 2.94149 0
M  V30 5426 N 535.072 -1.5615 -0.213296 0
M  V30 5427 C 536.3 -1.83638 -0.953139 0
M  V30 5428 C 536.715 -0.640362 -1.77609 0
M  V30 5429 O 536.072 0.391071 -1.78261 0
M  V30 5430 C 536.123 -3.09735 -1.86405 0
M  V30 5431 O 535.844 -4.24723 -1.07435 0
M  V30 5432 C 537.345 -3.5027 -2.71709 0
M  V30 5433 H 534.565 -0.610263 -0.278962 0
M  V30 5434 H 537.109 -2.03247 -0.226035 0
M  V30 5435 H 535.264 -2.92077 -2.545 0
M  V30 5436 H 535.678 -4.9641 -1.69343 0
M  V30 5437 H 537.152 -4.41515 -3.31313 0
M  V30 5438 H 537.629 -2.72406 -3.44516 0
M  V30 5439 H 538.235 -3.70396 -2.09015 0
M  V30 5440 N 536.55 0.480323 -1.50102 0
M  V30 5441 C 537.799 1.22979 -1.59872 0
M  V30 5442 C 538.112 1.93282 -0.30022 0
M  V30 5443 O 539.318 2.70086 -0.276709 0
M  V30 5444 C 537.774 2.23408 -2.82164 0
M  V30 5445 C 537.382 1.5895 -4.18854 0
M  V30 5446 C 539.126 2.99055 -3.01275 0
M  V30 5447 C 537.033 2.57611 -5.32344 0
M  V30 5448 H 535.963 0.462707 -0.59533 0
M  V30 5449 H 538.614 0.501291 -1.7652 0
M  V30 5450 H 536.996 2.99511 -2.59055 0
M  V30 5451 H 538.17 0.887 -4.52182 0
M  V30 5452 H 536.485 0.956191 -4.05273 0
M  V30 5453 H 539.082 3.72876 -3.83233 0
M  V30 5454 H 539.425 3.57897 -2.12639 0
M  V30 5455 H 539.958 2.30066 -3.24522 0
M  V30 5456 H 536.697 2.03521 -6.23105 0
M  V30 5457 H 536.217 3.26041 -5.03445 0
M  V30 5458 H 537.896 3.19627 -5.62537 0
M  V30 5459 N 538.028 1.39524 0.732853 0
M  V30 5460 C 539.439 1.32905 1.31122 0
M  V30 5461 C 539.79 -0.00558708 1.96199 0
M  V30 5462 O 538.915 -0.907706 1.96443 0
M  V30 5463 C 539.51 2.40704 2.38426 0
M  V30 5464 C 538.069 2.37599 2.91931 0
M  V30 5465 C 537.216 2.2248 1.65523 0
M  V30 5466 H 540.167 1.49581 0.530207 0
M  V30 5467 H 540.188 2.07616 3.18867 0
M  V30 5468 H 539.7 3.37829 1.91033 0
M  V30 5469 H 537.801 1.44119 3.43599 0
M  V30 5470 H 537.914 3.32538 3.44899 0
M  V30 5471 H 536.278 1.69691 1.8994 0
M  V30 5472 H 537.061 3.21577 1.20178 0
M  V30 5473 N 539.506 -0.963266 1.24736 0
M  V30 5474 C 540.783 -1.68248 0.9976 0
M  V30 5475 C 541.163 -2.05599 -0.478776 0
M  V30 5476 O 540.511 -1.7626 -1.45412 0
M  V30 5477 C 540.721 -2.91118 1.92487 0
M  V30 5478 C 542.069 -3.63261 2.19833 0
M  V30 5479 O 543.093 -3.01184 1.90176 0
M  V30 5480 O 541.952 -4.75019 2.7022 0
M  V30 5481 H 539.046 -0.735744 0.377637 0
M  V30 5482 H 541.592 -1.01696 1.35853 0
M  V30 5483 H 540.364 -2.60242 2.92215 0
M  V30 5484 H 539.987 -3.65402 1.56738 0
M  V30 5485 N 540.985 -1.06182 -1.16461 0
M  V30 5486 C 542.396 -0.802426 -1.68576 0
M  V30 5487 C 542.747 0.67412 -1.84255 0
M  V30 5488 O 541.872 1.52303 -1.5373 0
M  V30 5489 C 542.467 -1.45002 -3.06202 0
M  V30 5490 C 541.026 -1.23843 -3.55443 0
M  V30 5491 C 540.173 -1.52724 -2.31454 0
M  V30 5492 H 543.124 -1.22545 -1.00839 0
M  V30 5493 H 543.145 -0.864731 -3.70544 0
M  V30 5494 H 542.657 -2.52466 -2.94759 0
M  V30 5495 H 540.758 -0.183487 -3.72148 0
M  V30 5496 H 540.871 -1.95036 -4.37604 0
M  V30 5497 H 539.235 -0.947726 -2.36411 0
M  V30 5498 H 540.018 -2.61343 -2.22609 0
M  V30 5499 N 542.463 1.3308 -0.844243 0
M  V30 5500 C 543.71 1.97605 -0.44255 0
M  V30 5501 C 544.038 1.66856 0.999458 0
M  V30 5502 O 543.293 0.943586 1.7145 0
M  V30 5503 C 543.592 3.52045 -0.616354 0
M  V30 5504 C 543.258 4.02757 -2.02726 0
M  V30 5505 C 541.92 4.16316 -2.41317 0
M  V30 5506 C 544.272 4.29776 -2.9486 0
M  V30 5507 C 541.6 4.54232 -3.71335 0
M  V30 5508 C 543.952 4.69146 -4.24364 0
M  V30 5509 C 542.616 4.80911 -4.62904 0
M  V30 5510 H 541.886 0.723088 -0.161941 0
M  V30 5511 H 544.533 1.58663 -1.0723 0
M  V30 5512 H 542.838 3.91681 0.0966812 0
M  V30 5513 H 544.535 3.99981 -0.285756 0
M  V30 5514 H 541.125 3.9268 -1.71756 0
M  V30 5515 H 545.309 4.18818 -2.6628 0
M  V30 5516 H 540.565 4.61535 -4.00993 0
M  V30 5517 H 544.739 4.89008 -4.95827 0
M  V30 5518 H 542.366 5.10048 -5.63698 0
M  V30 5519 N 543.941 0.601185 1.45683 0
M  V30 5520 C 545.189 0.0936957 2.01883 0
M  V30 5521 C 545.51 -1.2779 1.47291 0
M  V30 5522 O 544.78 -1.84279 0.664691 0
M  V30 5523 H 543.36 0.0316466 0.746329 0
M  V30 5524 H 546.022 0.781137 1.78562 0
M  V30 5525 H 545.118 0.0386297 3.12076 0
M  V30 5526 N 545.419 -1.53889 0.339982 0
M  V30 5527 C 546.667 -2.00458 -0.257112 0
M  V30 5528 C 546.988 -1.22953 -1.51353 0
M  V30 5529 O 546.258 -0.335734 -1.93002 0
M  V30 5530 H 544.838 -0.740544 -0.0979965 0
M  V30 5531 H 547.5 -1.89386 0.460317 0
M  V30 5532 H 546.596 -3.08035 -0.502057 0
M  V30 5533 N 546.897 -0.0685191 -1.57451 0
M  V30 5534 C 548.308 0.464634 -1.80826 0
M  V30 5535 C 548.659 1.69847 -0.982169 0
M  V30 5536 O 547.784 2.15439 -0.203734 0
M  V30 5537 C 548.379 0.849721 -3.27971 0
M  V30 5538 C 546.938 1.32776 -3.52204 0
M  V30 5539 C 546.085 0.311332 -2.75547 0
M  V30 5540 H 549.036 -0.294248 -1.55948 0
M  V30 5541 H 549.057 1.71138 -3.39841 0
M  V30 5542 H 548.569 -0.0484736 -3.8807 0
M  V30 5543 H 546.67 2.24456 -2.97406 0
M  V30 5544 H 546.783 1.30794 -4.60901 0
M  V30 5545 H 545.147 0.787915 -2.42206 0
M  V30 5546 H 545.93 -0.579078 -3.38381 0
M  V30 5547 N 548.375 1.56261 0.205012 0
M  V30 5548 C 549.623 1.79684 0.925096 0
M  V30 5549 C 549.944 0.63989 1.84202 0
M  V30 5550 O 549.214 -0.342345 1.92885 0
M  V30 5551 H 547.794 0.662774 0.344587 0
M  V30 5552 H 550.456 1.93734 0.212899 0
M  V30 5553 H 549.552 2.72467 1.52211 0
M  V30 5554 N 549.853 -0.472356 1.50355 0
M  V30 5555 C 551.269 -0.806001 1.37753 0
M  V30 5556 C 551.469 -1.968 0.432649 0
M  V30 5557 O 550.525 -2.52189 -0.12519 0
M  V30 5558 C 551.838 -1.11926 2.79093 0
M  V30 5559 C 553.386 -1.22579 2.87999 0
M  V30 5560 C 553.861 -1.57218 4.3017 0
M  V30 5561 N 555.352 -1.64212 4.33115 0
M  V30 5562 C 556.087 -1.92517 5.40116 0
M  V30 5563 N 555.583 -2.1885 6.57325 0
M  V30 5564 N 557.376 -1.94008 5.27558 0
M  V30 5565 H 549.527 0.293451 2.10363 0
M  V30 5566 H 551.79 0.0687672 0.945503 0
M  V30 5567 H 551.496 -0.338504 3.50067 0
M  V30 5568 H 551.37 -2.05577 3.16256 0
M  V30 5569 H 553.757 -1.99722 2.17245 0
M  V30 5570 H 553.838 -0.269107 2.54381 0
M  V30 5571 H 553.482 -0.806154 5.01461 0
M  V30 5572 H 553.412 -2.54034 4.61275 0
M  V30 5573 H 555.903 -1.45906 3.48597 0
M  V30 5574 H 556.216 -2.39718 7.3468 0
M  V30 5575 H 554.561 -2.16245 6.60502 0
M  V30 5576 H 557.752 -1.72931 4.34986 0
M  V30 5577 H 557.925 -2.15731 6.11035 0
M  V30 5578 N 551.331 -1.39911 -0.725443 0
M  V30 5579 C 552.556 -1.41137 -1.5197 0
M  V30 5580 C 552.981 -0.010262 -1.88097 0
M  V30 5581 O 552.339 0.979184 -1.52583 0
M  V30 5582 C 552.387 -2.2994 -2.77777 0
M  V30 5583 O 551.491 -1.73586 -3.74088 0
M  V30 5584 H 550.832 -0.480219 -0.458569 0
M  V30 5585 H 553.362 -1.84023 -0.894249 0
M  V30 5586 H 553.372 -2.44785 -3.26411 0
M  V30 5587 H 552.047 -3.31759 -2.50816 0
M  V30 5588 H 550.624 -1.68035 -3.32894 0
M  V30 5589 N 552.809 0.956637 -1.25245 0
M  V30 5590 C 554.22 1.51569 -1.09012 0
M  V30 5591 C 554.571 1.93322 0.334813 0
M  V30 5592 O 553.696 1.78421 1.22454 0
M  V30 5593 C 554.291 2.75444 -1.97271 0
M  V30 5594 C 552.85 3.27669 -1.8523 0
M  V30 5595 C 551.997 2.00517 -1.91542 0
M  V30 5596 H 554.948 0.773746 -1.3856 0
M  V30 5597 H 554.969 3.4919 -1.51151 0
M  V30 5598 H 554.481 2.45024 -3.00973 0
M  V30 5599 H 552.582 3.62914 -0.844045 0
M  V30 5600 H 552.695 3.9582 -2.69932 0
M  V30 5601 H 551.059 2.15727 -1.35404 0
M  V30 5602 H 551.842 1.72448 -2.96844 0
M  V30 5603 N 554.287 1.06798 1.15896 0
M  V30 5604 C 555.515 0.808694 1.90441 0
M  V30 5605 C 555.93 -0.637506 1.77711 0
M  V30 5606 O 555.287 -1.43684 1.12522 0
M  V30 5607 C 555.338 1.20068 3.40978 0
M  V30 5608 O 555.059 2.59013 3.53333 0
M  V30 5609 C 556.56 0.96987 4.3256 0
M  V30 5610 H 553.78 0.292809 0.603742 0
M  V30 5611 H 556.324 1.42296 1.46874 0
M  V30 5612 H 554.479 0.630842 3.82229 0
M  V30 5613 H 554.893 2.7485 4.46719 0
M  V30 5614 H 556.367 1.29371 5.36626 0
M  V30 5615 H 556.844 -0.0941209 4.39099 0
M  V30 5616 H 557.45 1.52433 3.97044 0
M  V30 5617 N 555.766 -1.3263 0.851289 0
M  V30 5618 C 556.699 -2.26952 0.238318 0
M  V30 5619 C 557.677 -1.50243 -0.621757 0
M  V30 5620 O 558.861 -1.79378 -0.579298 0
M  V30 5621 C 555.988 -3.32124 -0.664178 0
M  V30 5622 C 555.034 -4.26325 0.122067 0
M  V30 5623 S 555.867 -5.14404 1.48824 0
M  V30 5624 C 557.023 -6.231 0.591372 0
M  V30 5625 H 557.256 -2.78594 1.03791 0
M  V30 5626 H 554.789 -1.4011 0.648731 0
M  V30 5627 H 556.747 -3.93197 -1.17924 0
M  V30 5628 H 555.408 -2.79273 -1.43755 0
M  V30 5629 H 554.601 -5.00821 -0.565181 0
M  V30 5630 H 554.203 -3.69652 0.568602 0
M  V30 5631 H 556.495 -6.77187 -0.205762 0
M  V30 5632 H 557.438 -6.95936 1.30687 0
M  V30 5633 H 557.846 -5.64252 0.167206 0
M  V30 5634 N 557.244 -0.608902 -1.45362 0
M  V30 5635 C 558.174 0.0964526 -2.33301 0
M  V30 5636 C 559.155 0.857444 -1.46908 0
M  V30 5637 O 560.34 0.827735 -1.75676 0
M  V30 5638 C 557.47 1.09354 -3.29635 0
M  V30 5639 C 556.424 0.445676 -4.25673 0
M  V30 5640 C 555.75 1.5511 -5.11708 0
M  V30 5641 C 557.05 -0.633972 -5.18438 0
M  V30 5642 H 558.744 -0.637829 -2.92527 0
M  V30 5643 H 556.29 -0.308178 -1.40664 0
M  V30 5644 H 558.243 1.59556 -3.90025 0
M  V30 5645 H 556.967 1.85843 -2.6857 0
M  V30 5646 H 555.626 -0.0354897 -3.66583 0
M  V30 5647 H 555.274 2.30631 -4.4701 0
M  V30 5648 H 554.974 1.12311 -5.76767 0
M  V30 5649 H 556.498 2.05537 -5.74967 0
M  V30 5650 H 557.912 -0.215974 -5.72893 0
M  V30 5651 H 556.309 -0.983789 -5.91981 0
M  V30 5652 H 557.379 -1.51005 -4.60788 0
M  V30 5653 N 558.722 1.53707 -0.348139 0
M  V30 5654 C 559.685 2.23812 0.494058 0
M  V30 5655 C 560.685 1.23989 1.02388 0
M  V30 5656 O 561.875 1.48395 0.912396 0
M  V30 5657 C 559.007 2.96133 1.68872 0
M  V30 5658 H 560.2 2.99663 -0.119141 0
M  V30 5659 H 557.753 1.55983 -0.0995539 0
M  V30 5660 H 558.488 2.24481 2.34049 0
M  V30 5661 H 558.273 3.69357 1.31596 0
M  V30 5662 H 559.763 3.49475 2.28597 0
M  V30 5663 N 560.2 0.0768682 1.57412 0
M  V30 5664 C 561.428 -0.59997 1.9801 0
M  V30 5665 C 561.843 -1.62842 0.955408 0
M  V30 5666 O 561.2 -1.8241 -0.057314 0
M  V30 5667 C 561.251 -1.26401 3.38681 0
M  V30 5668 O 560.972 -0.276723 4.37225 0
M  V30 5669 C 562.473 -2.0282 3.94182 0
M  V30 5670 H 559.693 -0.162239 0.651091 0
M  V30 5671 H 562.237 0.150771 2.03943 0
M  V30 5672 H 560.392 -1.96581 3.33819 0
M  V30 5673 H 560.806 -0.753744 5.19056 0
M  V30 5674 H 562.28 -2.44667 4.94815 0
M  V30 5675 H 562.757 -2.88678 3.31001 0
M  V30 5676 H 563.363 -1.37496 4.02461 0
M  V30 5677 N 561.678 -1.56367 -0.196722 0
M  V30 5678 C 562.955 -1.71359 -0.943159 0
M  V30 5679 C 563.335 -0.631192 -2.01443 0
M  V30 5680 O 562.683 0.358071 -2.25677 0
M  V30 5681 C 562.893 -3.13623 -1.53106 0
M  V30 5682 C 564.241 -3.73806 -2.01381 0
M  V30 5683 O 565.265 -3.16742 -1.62951 0
M  V30 5684 O 564.124 -4.73951 -2.7209 0
M  V30 5685 H 561.218 -0.698851 -0.442195 0
M  V30 5686 H 563.764 -1.68672 -0.186547 0
M  V30 5687 H 562.536 -3.83873 -0.758785 0
M  V30 5688 H 562.159 -3.20532 -2.35255 0
M  V30 5689 N 563.156 0.464375 -1.50603 0
M  V30 5690 C 564.086 1.56944 -1.72889 0
M  V30 5691 C 565.067 1.59979 -0.577997 0
M  V30 5692 O 566.252 1.76138 -0.817855 0
M  V30 5693 C 563.382 2.95225 -1.8292 0
M  V30 5694 C 562.336 3.07056 -2.98162 0
M  V30 5695 C 561.662 4.47051 -2.93343 0
M  V30 5696 C 562.962 2.83648 -4.38567 0
M  V30 5697 H 564.656 1.38547 -2.65415 0
M  V30 5698 H 562.202 0.665082 -1.27721 0
M  V30 5699 H 564.155 3.72467 -1.97095 0
M  V30 5700 H 562.879 3.14793 -0.870209 0
M  V30 5701 H 561.538 2.32248 -2.83648 0
M  V30 5702 H 561.186 4.63547 -1.95276 0
M  V30 5703 H 560.886 4.55902 -3.70712 0
M  V30 5704 H 562.41 5.26304 -3.09575 0
M  V30 5705 H 563.824 3.50636 -4.53572 0
M  V30 5706 H 562.221 3.03937 -5.17438 0
M  V30 5707 H 563.291 1.79451 -4.50472 0
M  V30 5708 N 564.634 1.40294 0.718013 0
M  V30 5709 C 565.859 1.41941 1.5122 0
M  V30 5710 C 566.284 0.0202371 1.88089 0
M  V30 5711 O 565.642 -0.971078 1.53101 0
M  V30 5712 C 565.69 2.3141 2.76554 0
M  V30 5713 O 564.794 1.75567 3.73162 0
M  V30 5714 H 564.135 0.482644 0.456016 0
M  V30 5715 H 566.665 1.84494 0.884478 0
M  V30 5716 H 566.675 2.46513 3.25108 0
M  V30 5717 H 565.35 3.33085 2.49053 0
M  V30 5718 H 563.927 1.69798 3.31999 0
M  V30 5719 N 566.112 -0.949982 1.2575 0
M  V30 5720 C 567.042 -2.06483 1.09028 0
M  V30 5721 C 568.023 -1.701 -0.00201532 0
M  V30 5722 O 569.208 -1.93469 0.168383 0
M  V30 5723 C 566.338 -3.39899 0.71316 0
M  V30 5724 C 565.292 -3.90309 1.75621 0
M  V30 5725 C 564.618 -5.20274 1.23365 0
M  V30 5726 C 565.918 -4.16169 3.15596 0
M  V30 5727 H 567.612 -2.20731 2.02283 0
M  V30 5728 H 565.158 -1.06066 0.973964 0
M  V30 5729 H 567.111 -4.17346 0.58309 0
M  V30 5730 H 565.835 -3.25602 -0.255091 0
M  V30 5731 H 564.494 -3.15035 1.8748 0
M  V30 5732 H 564.142 -5.02351 0.255491 0
M  V30 5733 H 563.842 -5.54971 1.93082 0
M  V30 5734 H 565.366 -6.00314 1.11607 0
M  V30 5735 H 566.78 -4.84259 3.06864 0
M  V30 5736 H 565.177 -4.62131 3.82825 0
M  V30 5737 H 566.247 -3.22273 3.6231 0
M  V30 5738 N 567.59 -1.07411 -1.15328 0
M  V30 5739 C 569.006 -0.799759 -1.38116 0
M  V30 5740 C 569.206 0.59572 -1.92493 0
M  V30 5741 O 568.262 1.35433 -2.13106 0
M  V30 5742 C 569.575 -1.87407 -2.35158 0
M  V30 5743 C 571.123 -1.89889 -2.48819 0
M  V30 5744 C 571.598 -2.96406 -3.49153 0
M  V30 5745 N 573.089 -2.95512 -3.56689 0
M  V30 5746 C 573.824 -3.74575 -4.34144 0
M  V30 5747 N 573.32 -4.63488 -5.14928 0
M  V30 5748 N 575.113 -3.62919 -4.29239 0
M  V30 5749 H 567.264 -1.97411 -0.78374 0
M  V30 5750 H 569.527 -0.856113 -0.407154 0
M  V30 5751 H 569.233 -2.8768 -2.0232 0
M  V30 5752 H 569.107 -1.73471 -3.34944 0
M  V30 5753 H 571.494 -0.902677 -2.80955 0
M  V30 5754 H 571.575 -2.07904 -1.49029 0
M  V30 5755 H 571.219 -3.96227 -3.17752 0
M  V30 5756 H 571.149 -2.75638 -4.48699 0
M  V30 5757 H 573.64 -2.31061 -2.99031 0
M  V30 5758 H 573.953 -5.20445 -5.71276 0
M  V30 5759 H 572.298 -4.67537 -5.14232 0
M  V30 5760 H 575.489 -2.92833 -3.65194 0
M  V30 5761 H 575.662 -4.24777 -4.89355 0
M  V30 5762 N 569.068 1.32177 -0.85831 0
M  V30 5763 C 570.314 1.97417 -0.46417 0
M  V30 5764 C 570.647 1.67746 0.978514 0
M  V30 5765 O 569.922 0.967654 1.68721 0
M  V30 5766 C 570.205 3.53069 -0.708094 0
M  V30 5767 C 570.058 3.92357 -2.19946 0
M  V30 5768 C 571.377 4.39783 -0.166881 0
M  V30 5769 H 568.496 0.717097 -0.17012 0
M  V30 5770 H 571.138 1.56499 -1.07741 0
M  V30 5771 H 569.288 3.88054 -0.186128 0
M  V30 5772 H 570.96 3.67533 -2.78779 0
M  V30 5773 H 569.203 3.41384 -2.67656 0
M  V30 5774 H 569.874 5.00841 -2.32082 0
M  V30 5775 H 572.35 4.11556 -0.613285 0
M  V30 5776 H 571.226 5.47671 -0.367093 0
M  V30 5777 H 571.487 4.32196 0.930559 0
M  V30 5778 N 570.547 0.616602 1.45037 0
M  V30 5779 C 571.824 0.0469086 1.95544 0
M  V30 5780 C 572.204 -1.42345 1.55888 0
M  V30 5781 O 571.552 -2.13055 0.825824 0
M  V30 5782 C 571.762 0.254489 3.48071 0
M  V30 5783 C 573.11 0.140025 4.24369 0
M  V30 5784 O 574.134 0.185084 3.55719 0
M  V30 5785 O 572.993 0.0327034 5.4649 0
M  V30 5786 H 570.087 -0.0306051 0.826433 0
M  V30 5787 H 572.633 0.687293 1.55159 0
M  V30 5788 H 571.405 1.27532 3.69934 0
M  V30 5789 H 571.028 -0.42073 3.95368 0
M  V30 5790 N 572.025 -1.5352 0.356285 0
M  V30 5791 C 573.436 -1.86282 -0.12492 0
M  V30 5792 C 573.787 -1.27717 -1.48939 0
M  V30 5793 O 572.912 -0.595614 -2.08042 0
M  V30 5794 C 573.507 -3.37995 -0.23345 0
M  V30 5795 C 572.066 -3.70588 -0.658899 0
M  V30 5796 C 571.213 -2.76581 0.199596 0
M  V30 5797 H 574.164 -1.47901 0.575423 0
M  V30 5798 H 574.185 -3.65475 -1.0587 0
M  V30 5799 H 573.697 -3.8059 0.759776 0
M  V30 5800 H 571.798 -3.33544 -1.66069 0
M  V30 5801 H 571.911 -4.77076 -0.439957 0
M  V30 5802 H 570.275 -2.52552 -0.330076 0
M  V30 5803 H 571.058 -3.22008 1.19019 0
M  V30 5804 N 573.503 -0.0852151 -1.57369 0
M  V30 5805 C 574.752 0.580443 -1.93168 0
M  V30 5806 C 575.065 1.6995 -0.968319 0
M  V30 5807 O 576.271 2.42564 -1.21963 0
M  V30 5808 C 574.727 1.08386 -3.43192 0
M  V30 5809 C 574.335 -0.00491388 -4.48 0
M  V30 5810 C 576.079 1.72281 -3.87968 0
M  V30 5811 C 573.986 0.513299 -5.89168 0
M  V30 5812 H 572.916 0.22059 -0.72101 0
M  V30 5813 H 575.567 -0.159621 -1.82804 0
M  V30 5814 H 573.949 1.8773 -3.48674 0
M  V30 5815 H 575.123 -0.780032 -4.5415 0
M  V30 5816 H 573.438 -0.548453 -4.12772 0
M  V30 5817 H 576.035 2.12108 -4.9083 0
M  V30 5818 H 576.378 2.58811 -3.26071 0
M  V30 5819 H 576.911 0.995359 -3.85146 0
M  V30 5820 H 573.65 -0.315153 -6.54742 0
M  V30 5821 H 573.17 1.25564 -5.8651 0
M  V30 5822 H 574.849 0.985433 -6.39451 0
M  V30 5823 N 574.981 1.5647 0.188427 0
M  V30 5824 C 576.211 1.84863 0.922463 0
M  V30 5825 C 576.619 0.666413 1.77075 0
M  V30 5826 O 575.962 -0.374044 1.79852 0
M  V30 5827 C 576.024 3.07447 1.86324 0
M  V30 5828 C 575.688 4.41066 1.19625 0
M  V30 5829 C 576.685 5.16767 0.569946 0
M  V30 5830 C 574.37 4.87802 1.19811 0
M  V30 5831 C 576.364 6.37384 -0.045594 0
M  V30 5832 C 574.051 6.08353 0.57874 0
M  V30 5833 C 575.049 6.82987 -0.0420259 0
M  V30 5834 O 574.737 8.01254 -0.651675 0
M  V30 5835 H 574.469 0.61784 0.274316 0
M  V30 5836 H 577.023 2.04437 0.198613 0
M  V30 5837 H 575.253 2.83774 2.62696 0
M  V30 5838 H 576.942 3.2243 2.46564 0
M  V30 5839 H 577.708 4.81749 0.560601 0
M  V30 5840 H 573.587 4.29662 1.67069 0
M  V30 5841 H 577.131 6.95578 -0.530731 0
M  V30 5842 H 573.028 6.42838 0.58561 0
M  V30 5843 H 573.796 8.16655 -0.549236 0
M  V30 5844 N 576.459 -0.456382 1.50847 0
M  V30 5845 C 577.369 -1.57805 1.73594 0
M  V30 5846 C 578.385 -1.62599 0.619476 0
M  V30 5847 O 579.561 -1.80195 0.899532 0
M  V30 5848 C 576.626 -2.93926 1.8387 0
M  V30 5849 C 575.687 -2.99402 3.07663 0
M  V30 5850 C 574.92 -4.29031 3.1744 0
M  V30 5851 O 575.143 -5.20358 2.33631 0
M  V30 5852 O 574.077 -4.40401 4.10281 0
M  V30 5853 H 577.903 -1.41531 2.68705 0
M  V30 5854 H 575.488 -0.637422 1.3512 0
M  V30 5855 H 577.37 -3.74747 1.92725 0
M  V30 5856 H 576.045 -3.10368 0.91944 0
M  V30 5857 H 574.952 -2.17606 3.043 0
M  V30 5858 H 576.285 -2.87901 3.99216 0
M  V30 5859 N 577.937 -1.40673 -0.710563 0
M  V30 5860 C 579.353 -1.22813 -1.01928 0
M  V30 5861 C 579.553 -0.10687 -2.01216 0
M  V30 5862 O 578.609 0.533614 -2.46797 0
M  V30 5863 C 579.922 -2.57178 -1.5582 0
M  V30 5864 C 581.47 -2.64233 -1.67779 0
M  V30 5865 C 581.945 -3.98879 -2.25076 0
M  V30 5866 N 583.436 -4.00647 -2.32456 0
M  V30 5867 C 584.171 -5.01621 -2.77784 0
M  V30 5868 N 583.667 -6.12989 -3.22826 0
M  V30 5869 N 585.46 -4.88988 -2.77213 0
M  V30 5870 H 577.611 -2.12335 -0.05253 0
M  V30 5871 H 579.874 -0.9441 -0.085898 0
M  V30 5872 H 579.58 -3.39903 -0.903249 0
M  V30 5873 H 579.454 -2.78618 -2.54267 0
M  V30 5874 H 581.841 -1.81876 -2.3239 0
M  V30 5875 H 581.922 -2.46619 -0.679178 0
M  V30 5876 H 581.566 -4.81678 -1.61086 0
M  V30 5877 H 581.496 -4.13826 -3.25661 0
M  V30 5878 H 583.987 -3.20231 -2.0065 0
M  V30 5879 H 584.3 -6.85921 -3.55995 0
M  V30 5880 H 582.645 -6.16547 -3.20773 0
M  V30 5881 H 585.836 -4.01075 -2.41363 0
M  V30 5882 H 586.009 -5.67822 -3.12221 0
M  V30 5883 N 579.415 0.9433 -1.26252 0
M  V30 5884 C 580.664 1.68369 -1.11062 0
M  V30 5885 C 580.977 1.92514 0.346104 0
M  V30 5886 O 582.183 2.64358 0.618646 0
M  V30 5887 C 580.639 3.03171 -1.93946 0
M  V30 5888 C 580.247 2.86782 -3.4418 0
M  V30 5889 C 581.991 3.80916 -1.87359 0
M  V30 5890 C 579.898 4.17044 -4.19319 0
M  V30 5891 H 578.828 0.631469 -0.412023 0
M  V30 5892 H 581.479 1.04922 -1.50544 0
M  V30 5893 H 579.861 3.67587 -1.47296 0
M  V30 5894 H 581.035 2.31229 -3.98585 0
M  V30 5895 H 579.35 2.22482 -3.51981 0
M  V30 5896 H 581.947 4.77417 -2.40784 0
M  V30 5897 H 582.29 4.07658 -0.843857 0
M  V30 5898 H 582.823 3.2327 -2.31821 0
M  V30 5899 H 579.562 3.95487 -5.22753 0
M  V30 5900 H 579.082 4.72319 -3.69696 0
M  V30 5901 H 580.761 4.85513 -4.27651 0
M  V30 5902 N 580.893 1.08022 1.14757 0
M  V30 5903 C 582.121 0.828847 1.89572 0
M  V30 5904 C 582.536 -0.618621 1.78377 0
M  V30 5905 O 581.893 -1.42482 1.1404 0
M  V30 5906 C 581.944 1.23677 3.39685 0
M  V30 5907 O 581.665 2.62746 3.50566 0
M  V30 5908 C 583.166 1.01569 4.31507 0
M  V30 5909 H 580.386 0.299196 0.600602 0
M  V30 5910 H 582.93 1.43846 1.45357 0
M  V30 5911 H 581.085 0.671347 3.81539 0
M  V30 5912 H 581.499 2.79573 4.43778 0
M  V30 5913 H 582.973 1.35055 5.35223 0
M  V30 5914 H 583.45 -0.0475433 4.39174 0
M  V30 5915 H 584.056 1.56636 3.95405 0
M  V30 5916 N 582.371 -1.3172 0.865308 0
M  V30 5917 C 583.787 -1.4958 0.556596 0
M  V30 5918 C 583.987 -1.79763 -0.910353 0
M  V30 5919 O 583.043 -1.87351 -1.6928 0
M  V30 5920 C 584.356 -2.63277 1.45279 0
M  V30 5921 C 585.904 -2.77161 1.45433 0
M  V30 5922 C 586.379 -3.93949 2.33598 0
M  V30 5923 N 587.87 -4.01228 2.31453 0
M  V30 5924 C 588.605 -4.90855 2.96393 0
M  V30 5925 N 588.101 -5.85416 3.70486 0
M  V30 5926 N 589.894 -4.84063 2.85726 0
M  V30 5927 H 582.045 -1.10396 1.81456 0
M  V30 5928 H 584.308 -0.54507 0.775631 0
M  V30 5929 H 584.014 -2.47734 2.49641 0
M  V30 5930 H 583.888 -3.59309 1.14792 0
M  V30 5931 H 586.275 -2.9212 0.41831 0
M  V30 5932 H 586.356 -1.8181 1.79941 0
M  V30 5933 H 586 -3.79748 3.37274 0
M  V30 5934 H 585.93 -4.88598 1.96417 0
M  V30 5935 H 588.421 -3.3357 1.77593 0
M  V30 5936 H 588.734 -6.50525 4.17178 0
M  V30 5937 H 587.079 -5.85409 3.74594 0
M  V30 5938 H 590.27 -4.09163 2.27384 0
M  V30 5939 H 590.443 -5.53708 3.36617 0
M  V30 5940 N 583.85 -0.624285 -1.44708 0
M  V30 5941 C 585.266 -0.289322 -1.56956 0
M  V30 5942 C 585.466 1.20773 -1.61295 0
M  V30 5943 O 584.522 1.9915 -1.55227 0
M  V30 5944 C 585.835 -0.975215 -2.84447 0
M  V30 5945 C 587.383 -0.952709 -2.98148 0
M  V30 5946 C 587.858 -1.61893 -4.28433 0
M  V30 5947 N 589.349 -1.5852 -4.35231 0
M  V30 5948 C 590.084 -2.06969 -5.34744 0
M  V30 5949 N 589.58 -2.63579 -6.40701 0
M  V30 5950 N 591.373 -1.97638 -5.26209 0
M  V30 5951 H 583.524 -1.59612 -1.40135 0
M  V30 5952 H 585.787 -0.669592 -0.671081 0
M  V30 5953 H 585.493 -2.02999 -2.87201 0
M  V30 5954 H 585.367 -0.508749 -3.73753 0
M  V30 5955 H 587.754 0.093568 -2.94952 0
M  V30 5956 H 587.835 -1.4576 -2.10209 0
M  V30 5957 H 587.479 -2.66463 -4.32389 0
M  V30 5958 H 587.409 -1.08893 -5.15218 0
M  V30 5959 H 589.899 -1.17183 -3.59272 0
M  V30 5960 H 590.213 -2.98298 -7.12908 0
M  V30 5961 H 588.558 -2.67626 -6.41406 0
M  V30 5962 H 591.749 -1.5314 -4.42341 0
M  V30 5963 H 591.922 -2.35708 -6.03611 0
M  V30 5964 N 585.328 1.53329 -0.364422 0
M  V30 5965 C 586.574 2.02222 0.21855 0
M  V30 5966 C 586.929 1.24702 1.46517 0
M  V30 5967 O 586.222 0.331969 1.88702 0
M  V30 5968 C 586.416 3.52911 0.564661 0
M  V30 5969 C 586.245 4.45023 -0.646862 0
M  V30 5970 C 585.015 4.91838 -1.15858 0
M  V30 5971 C 587.213 4.91581 -1.51172 0
M  V30 5972 N 585.195 5.67955 -2.33025 0
M  V30 5973 C 586.566 5.66028 -2.53006 0
M  V30 5974 C 588.621 4.73656 -1.53473 0
M  V30 5975 C 587.324 6.24457 -3.56996 0
M  V30 5976 C 589.35 5.3295 -2.56356 0
M  V30 5977 C 588.712 6.07282 -3.56914 0
M  V30 5978 H 584.811 0.780832 0.0427199 0
M  V30 5979 H 587.395 1.87937 -0.508704 0
M  V30 5980 H 585.566 3.6736 1.26099 0
M  V30 5981 H 587.298 3.88528 1.13262 0
M  V30 5982 H 584.053 4.68043 -0.723393 0
M  V30 5983 H 584.477 6.10675 -2.92241 0
M  V30 5984 H 589.119 4.15714 -0.770842 0
M  V30 5985 H 586.837 6.81496 -4.34268 0
M  V30 5986 H 590.423 5.20976 -2.58989 0
M  V30 5987 H 589.303 6.52345 -4.35218 0
M  V30 5988 N 586.806 0.0935595 1.57322 0
M  V30 5989 C 587.736 -0.863062 2.16964 0
M  V30 5990 C 588.717 -1.29528 1.10256 0
M  V30 5991 O 589.902 -1.36245 1.38387 0
M  V30 5992 C 587.032 -2.12276 2.74875 0
M  V30 5993 C 585.986 -1.82921 3.86942 0
M  V30 5994 C 585.312 -3.15707 4.31548 0
M  V30 5995 C 586.612 -1.11737 5.10208 0
M  V30 5996 H 588.306 -0.366145 2.97153 0
M  V30 5997 H 585.852 -0.174673 1.42937 0
M  V30 5998 H 587.805 -2.79634 3.1525 0
M  V30 5999 H 586.529 -2.64248 1.91938 0
M  V30 6000 H 585.188 -1.17961 3.47103 0
M  V30 6001 H 584.836 -3.65563 3.45504 0
M  V30 6002 H 584.536 -2.96849 5.07104 0
M  V30 6003 H 586.06 -3.84226 4.74555 0
M  V30 6004 H 587.474 -1.69203 5.47762 0
M  V30 6005 H 585.871 -1.03064 5.91183 0
M  V30 6006 H 586.941 -0.0998818 4.84797 0
M  V30 6007 N 588.284 -1.56567 -0.180126 0
M  V30 6008 C 589.194 -1.98947 -1.24327 0
M  V30 6009 C 590.21 -0.899446 -1.4895 0
M  V30 6010 O 591.386 -1.20639 -1.61271 0
M  V30 6011 C 588.451 -2.33328 -2.56435 0
M  V30 6012 C 587.512 -3.56114 -2.39752 0
M  V30 6013 C 586.745 -3.88845 -3.65561 0
M  V30 6014 O 586.968 -3.22662 -4.70368 0
M  V30 6015 O 585.902 -4.82226 -3.60197 0
M  V30 6016 H 589.728 -2.89634 -0.913565 0
M  V30 6017 H 587.313 -1.44319 -0.386306 0
M  V30 6018 H 589.195 -2.5645 -3.34382 0
M  V30 6019 H 587.87 -1.45806 -2.89002 0
M  V30 6020 H 586.777 -3.38221 -1.59866 0
M  V30 6021 H 588.11 -4.4415 -2.12113 0
M  V30 6022 N 589.762 0.448376 -1.51087 0
M  V30 6023 C 590.712 1.54156 -1.67988 0
M  V30 6024 C 591.696 1.5178 -0.534015 0
M  V30 6025 O 592.888 1.58419 -0.789448 0
M  V30 6026 C 590.017 2.92437 -1.79822 0
M  V30 6027 C 589.103 2.99611 -3.00157 0
M  V30 6028 N 589.494 2.7655 -4.23502 0
M  V30 6029 C 587.792 3.30764 -2.99184 0
M  V30 6030 C 588.493 2.89281 -5.0467 0
M  V30 6031 N 587.469 3.20473 -4.39088 0
M  V30 6032 H 591.271 1.35061 -2.61028 0
M  V30 6033 H 588.785 0.655504 -1.48583 0
M  V30 6034 H 590.782 3.71068 -1.90037 0
M  V30 6035 H 589.442 3.1256 -0.879554 0
M  V30 6036 H 590.453 2.5169 -4.52628 0
M  V30 6037 H 587.13 3.56732 -2.16907 0
M  V30 6038 H 588.52 2.75499 -6.12821 0
M  V30 6039 N 591.24 1.41047 0.703093 0
M  V30 6040 C 592.651 1.35657 1.28274 0
M  V30 6041 C 593.002 0.0360309 1.96167 0
M  V30 6042 O 592.127 -0.865833 1.98324 0
M  V30 6043 C 592.722 2.45707 2.33267 0
M  V30 6044 C 591.281 2.43738 2.86825 0
M  V30 6045 C 590.428 2.25941 1.60767 0
M  V30 6046 H 593.379 1.50672 0.49836 0
M  V30 6047 H 593.4 2.14333 3.14391 0
M  V30 6048 H 592.912 3.41805 1.83824 0
M  V30 6049 H 591.013 1.51375 3.40465 0
M  V30 6050 H 591.126 3.39779 3.37768 0
M  V30 6051 H 589.49 1.73681 1.86298 0
M  V30 6052 H 590.273 3.24054 1.1333 0
M  V30 6053 N 592.718 -0.936591 1.26751 0
M  V30 6054 C 593.628 -2.06949 1.10496 0
M  V30 6055 C 594.644 -1.7396 0.037271 0
M  V30 6056 O 595.82 -1.99941 0.241944 0
M  V30 6057 C 592.885 -3.38612 0.744491 0
M  V30 6058 C 591.946 -3.85355 1.89209 0
M  V30 6059 C 591.179 -5.10735 1.54873 0
M  V30 6060 O 591.402 -5.68602 0.452546 0
M  V30 6061 O 590.336 -5.52632 2.38499 0
M  V30 6062 H 594.162 -2.23571 2.05547 0
M  V30 6063 H 591.747 -1.05428 1.05855 0
M  V30 6064 H 593.629 -4.17711 0.556396 0
M  V30 6065 H 592.304 -3.23218 -0.176582 0
M  V30 6066 H 591.211 -3.07182 2.13518 0
M  V30 6067 H 592.544 -4.05277 2.79305 0
M  V30 6068 N 594.196 -1.08629 -1.14182 0
M  V30 6069 C 595.106 -0.730126 -2.22949 0
M  V30 6070 C 596.122 0.26436 -1.7198 0
M  V30 6071 O 597.298 0.107742 -2.01112 0
M  V30 6072 C 594.363 -0.147227 -3.46387 0
M  V30 6073 C 593.424 -1.19662 -4.12286 0
M  V30 6074 C 592.657 -0.641437 -5.29831 0
M  V30 6075 O 592.88 0.538351 -5.67854 0
M  V30 6076 O 591.814 -1.39257 -5.85569 0
M  V30 6077 H 595.64 -1.63753 -2.55771 0
M  V30 6078 H 593.225 -0.860118 -1.22157 0
M  V30 6079 H 595.107 0.174923 -4.21037 0
M  V30 6080 H 593.782 0.733304 -3.15285 0
M  V30 6081 H 592.689 -1.57133 -3.395 0
M  V30 6082 H 594.022 -2.0495 -4.475 0
M  V30 6083 N 595.674 1.31259 -0.872281 0
M  V30 6084 C 596.604 2.30929 -0.345554 0
M  V30 6085 C 597.585 1.60449 0.5648 0
M  V30 6086 O 598.77 1.8814 0.481335 0
M  V30 6087 C 595.9 3.44348 0.451823 0
M  V30 6088 C 594.854 4.26435 -0.365641 0
M  V30 6089 C 594.18 5.31785 0.557562 0
M  V30 6090 C 595.48 4.97159 -1.60095 0
M  V30 6091 H 597.174 2.75234 -1.17841 0
M  V30 6092 H 594.72 1.3232 -0.568094 0
M  V30 6093 H 596.673 4.13128 0.830854 0
M  V30 6094 H 595.397 2.98816 1.31821 0
M  V30 6095 H 594.056 3.59326 -0.726649 0
M  V30 6096 H 593.704 4.82502 1.4213 0
M  V30 6097 H 593.404 5.87598 0.0144878 0
M  V30 6098 H 594.928 6.03424 0.933387 0
M  V30 6099 H 596.342 5.58523 -1.29323 0
M  V30 6100 H 594.739 5.62779 -2.08327 0
M  V30 6101 H 595.809 4.24012 -2.35249 0
M  V30 6102 N 597.152 0.631951 1.44375 0
M  V30 6103 C 598.115 -0.0628142 2.29114 0
M  V30 6104 C 599.115 -0.771494 1.41084 0
M  V30 6105 O 600.305 -0.615959 1.62947 0
M  V30 6106 C 597.437 -1.09953 3.22681 0
M  V30 6107 H 598.63 0.682509 2.92031 0
M  V30 6108 H 596.183 0.392128 1.51301 0
M  V30 6109 H 596.918 -1.87481 2.64616 0
M  V30 6110 H 596.703 -0.595286 3.87555 0
M  V30 6111 H 598.193 -1.58538 3.86336 0
M  V30 6112 N 598.631 -1.53133 0.372548 0
M  V30 6113 C 599.908 -1.93704 -0.271693 0
M  V30 6114 C 600.288 -1.30667 -1.65799 0
M  V30 6115 O 599.636 -0.46838 -2.23648 0
M  V30 6116 C 599.846 -3.47576 -0.314903 0
M  V30 6117 C 601.194 -4.20998 -0.551912 0
M  V30 6118 O 602.218 -3.53994 -0.39582 0
M  V30 6119 O 601.077 -5.39748 -0.85639 0
M  V30 6120 H 598.171 -0.810457 -0.164586 0
M  V30 6121 H 600.717 -1.6427 0.425838 0
M  V30 6122 H 599.489 -3.85749 0.656792 0
M  V30 6123 H 599.112 -3.83264 -1.05804 0
M  V30 6124 N 600.109 -0.101901 -1.5727 0
M  V30 6125 C 601.019 0.868647 -2.17926 0
M  V30 6126 C 602.035 1.30527 -1.1506 0
M  V30 6127 O 603.211 1.37178 -1.47459 0
M  V30 6128 C 600.276 2.10727 -2.75309 0
M  V30 6129 C 599.337 1.7242 -3.93154 0
M  V30 6130 C 598.57 2.90377 -4.47791 0
M  V30 6131 O 598.793 4.05305 -4.01353 0
M  V30 6132 O 597.727 2.6845 -5.38719 0
M  V30 6133 H 601.553 0.382544 -3.01281 0
M  V30 6134 H 599.138 0.122812 -1.48894 0
M  V30 6135 H 601.02 2.83303 -3.11958 0
M  V30 6136 H 599.695 2.58376 -1.94996 0
M  V30 6137 H 598.602 0.970039 -3.61305 0
M  V30 6138 H 599.935 1.29528 -4.74851 0
M  V30 6139 N 601.587 1.56661 0.17182 0
M  V30 6140 C 602.834 1.81965 0.888529 0
M  V30 6141 C 603.162 0.6789 1.82267 0
M  V30 6142 O 602.417 -0.333875 1.92831 0
M  V30 6143 C 602.716 3.13435 1.71736 0
M  V30 6144 C 602.382 4.41159 0.932184 0
M  V30 6145 C 601.044 4.75851 0.715481 0
M  V30 6146 C 603.396 5.19803 0.381387 0
M  V30 6147 C 600.724 5.86666 -0.063126 0
M  V30 6148 C 603.076 6.31433 -0.384129 0
M  V30 6149 C 601.74 6.64692 -0.611637 0
M  V30 6150 H 601.01 0.665859 0.325136 0
M  V30 6151 H 603.657 1.90884 0.153495 0
M  V30 6152 H 601.962 2.99857 2.52177 0
M  V30 6153 H 603.659 3.30224 2.27493 0
M  V30 6154 H 600.249 4.13947 1.11112 0
M  V30 6155 H 604.433 4.93396 0.536148 0
M  V30 6156 H 599.689 6.10892 -0.249136 0
M  V30 6157 H 603.863 6.91577 -0.818185 0
M  V30 6158 H 601.49 7.50398 -1.21684 0
M  V30 6159 N 603.065 -0.440357 1.51323 0
M  V30 6160 C 604.028 -1.51679 1.71832 0
M  V30 6161 C 605.028 -1.49648 0.588386 0
M  V30 6162 O 606.218 -1.51724 0.855891 0
M  V30 6163 C 603.35 -2.91228 1.77199 0
M  V30 6164 H 604.543 -1.34799 2.67898 0
M  V30 6165 H 602.096 -0.66883 1.41267 0
M  V30 6166 H 602.831 -3.13516 0.829363 0
M  V30 6167 H 602.616 -2.94107 2.59314 0
M  V30 6168 H 604.106 -3.69321 1.94915 0
M  V30 6169 N 604.543 -1.41418 -0.695603 0
M  V30 6170 C 605.49 -1.43264 -1.80954 0
M  V30 6171 C 606.46 -0.287016 -1.63601 0
M  V30 6172 O 607.645 -0.488054 -1.84452 0
M  V30 6173 C 604.785 -1.32054 -3.18835 0
M  V30 6174 C 603.898 -2.56485 -3.4762 0
M  V30 6175 C 603.033 -2.3757 -4.75115 0
M  V30 6176 C 602.072 -3.57477 -4.96867 0
M  V30 6177 N 601.209 -3.37632 -6.15588 0
M  V30 6178 H 606.049 -2.38467 -1.78711 0
M  V30 6179 H 603.586 -1.18415 -0.872715 0
M  V30 6180 H 605.544 -1.23558 -3.98484 0
M  V30 6181 H 604.174 -0.404592 -3.20254 0
M  V30 6182 H 603.226 -2.75432 -2.62376 0
M  V30 6183 H 604.538 -3.45678 -3.59594 0
M  V30 6184 H 603.692 -2.2654 -5.62818 0
M  V30 6185 H 602.431 -1.45834 -4.65386 0
M  V30 6186 H 601.436 -3.68961 -4.07612 0
M  V30 6187 H 602.661 -4.50167 -5.08455 0
M  V30 6188 H 600.607 -2.48596 -6.07072 0
M  V30 6189 H 600.524 -4.20401 -6.2833 0
M  V30 6190 H 601.792 -3.30375 -7.06026 0
M  V30 6191 N 606.021 0.929856 -1.27246 0
M  V30 6192 C 606.984 2.01172 -1.09829 0
M  V30 6193 C 607.984 1.60743 -0.0429687 0
M  V30 6194 O 609.174 1.71813 -0.287373 0
M  V30 6195 C 606.306 3.34191 -0.673003 0
M  V30 6196 H 607.499 2.18054 -2.05895 0
M  V30 6197 H 605.052 1.11036 -1.10003 0
M  V30 6198 H 605.787 3.23009 0.289134 0
M  V30 6199 H 605.572 3.64892 -1.43515 0
M  V30 6200 H 607.062 4.13646 -0.573323 0
M  V30 6201 N 607.499 1.09233 1.13605 0
M  V30 6202 C 608.745 0.838255 1.85324 0
M  V30 6203 C 609.1 -0.629314 1.81817 0
M  V30 6204 O 608.393 -1.45729 1.24393 0
M  V30 6205 C 608.587 1.305 3.32723 0
M  V30 6206 C 608.416 2.81641 3.50583 0
M  V30 6207 C 607.186 3.49494 3.64941 0
M  V30 6208 C 609.384 3.79789 3.46792 0
M  V30 6209 N 607.366 4.89082 3.71042 0
M  V30 6210 C 608.737 5.05319 3.59239 0
M  V30 6211 C 610.792 3.72673 3.30181 0
M  V30 6212 C 609.495 6.24574 3.56791 0
M  V30 6213 C 611.521 4.91413 3.29039 0
M  V30 6214 C 610.883 6.15785 3.42035 0
M  V30 6215 H 606.982 0.359572 0.69443 0
M  V30 6216 H 609.566 1.39232 1.36098 0
M  V30 6217 H 607.737 0.778411 3.8052 0
M  V30 6218 H 609.469 0.996465 3.92241 0
M  V30 6219 H 606.224 2.9992 3.66531 0
M  V30 6220 H 606.648 5.61787 3.77789 0
M  V30 6221 H 611.29 2.77444 3.19037 0
M  V30 6222 H 609.008 7.20105 3.66708 0
M  V30 6223 H 612.594 4.87604 3.17386 0
M  V30 6224 H 611.474 7.06126 3.41111 0
M  V30 6225 N 608.977 -1.30795 0.87923 0
M  V30 6226 C 610.207 -2.00237 0.50881 0
M  V30 6227 C 610.615 -1.66115 -0.905682 0
M  V30 6228 O 609.958 -0.89138 -1.60624 0
M  V30 6229 C 610.02 -3.54508 0.597003 0
M  V30 6230 C 609.684 -4.12131 1.97477 0
M  V30 6231 C 610.681 -4.28552 2.94346 0
M  V30 6232 C 608.366 -4.47644 2.2786 0
M  V30 6233 C 610.36 -4.79689 4.19735 0
M  V30 6234 C 608.047 -4.98481 3.53496 0
M  V30 6235 C 609.045 -5.14456 4.49248 0
M  V30 6236 O 608.733 -5.64199 5.72656 0
M  V30 6237 H 608.465 -0.647026 0.195788 0
M  V30 6238 H 611.019 -1.67785 1.1848 0
M  V30 6239 H 609.249 -3.86461 -0.135945 0
M  V30 6240 H 610.938 -4.05198 0.238684 0
M  V30 6241 H 611.704 -4.01424 2.72183 0
M  V30 6242 H 607.583 -4.34481 1.54102 0
M  V30 6243 H 611.127 -4.92073 4.9448 0
M  V30 6244 H 607.024 -5.25044 3.75498 0
M  V30 6245 H 607.792 -5.82551 5.74957 0
M  V30 6246 N 610.455 -0.639598 -1.44038 0
M  V30 6247 C 611.402 0.0602458 -2.30721 0
M  V30 6248 C 612.372 0.828352 -1.43971 0
M  V30 6249 O 613.557 0.807693 -1.72861 0
M  V30 6250 C 610.697 1.03008 -3.29368 0
M  V30 6251 C 609.81 0.259502 -4.3122 0
M  V30 6252 C 608.945 1.22191 -5.16955 0
M  V30 6253 C 607.984 0.440978 -6.10509 0
M  V30 6254 N 607.121 1.35428 -6.88915 0
M  V30 6255 H 611.961 -0.684867 -2.90023 0
M  V30 6256 H 609.498 -0.349509 -1.42888 0
M  V30 6257 H 611.456 1.60583 -3.85057 0
M  V30 6258 H 610.086 1.74222 -2.71747 0
M  V30 6259 H 609.138 -0.432317 -3.77935 0
M  V30 6260 H 610.45 -0.348347 -4.97582 0
M  V30 6261 H 609.604 1.86873 -5.77203 0
M  V30 6262 H 608.343 1.86367 -4.50687 0
M  V30 6263 H 607.348 -0.219279 -5.49363 0
M  V30 6264 H 608.573 -0.196192 -6.78817 0
M  V30 6265 H 606.519 1.9831 -6.25307 0
M  V30 6266 H 606.436 0.800657 -7.51748 0
M  V30 6267 H 607.704 1.98967 -7.53679 0
M  V30 6268 N 611.933 1.52934 -0.380664 0
M  V30 6269 C 612.863 2.29118 0.450268 0
M  V30 6270 C 613.844 1.32153 1.07096 0
M  V30 6271 O 615.029 1.61038 1.08537 0
M  V30 6272 C 612.159 3.09161 1.58231 0
M  V30 6273 C 611.113 4.13938 1.0881 0
M  V30 6274 C 610.439 4.82153 2.31155 0
M  V30 6275 C 611.739 5.22048 0.162146 0
M  V30 6276 H 613.433 2.98826 -0.185361 0
M  V30 6277 H 610.979 1.43715 -0.0905886 0
M  V30 6278 H 612.932 3.61211 2.17036 0
M  V30 6279 H 611.656 2.3717 2.2454 0
M  V30 6280 H 610.315 3.62855 0.522633 0
M  V30 6281 H 609.963 4.06719 2.95953 0
M  V30 6282 H 609.663 5.52966 1.98752 0
M  V30 6283 H 611.187 5.37004 2.90618 0
M  V30 6284 H 612.601 5.6951 0.658126 0
M  V30 6285 H 610.998 6.00057 -0.0717122 0
M  V30 6286 H 612.068 4.78398 -0.791438 0
M  V30 6287 N 613.412 0.11024 1.57214 0
M  V30 6288 C 614.661 -0.549638 1.94067 0
M  V30 6289 C 614.974 -1.68388 0.995234 0
M  V30 6290 O 616.18 -2.40593 1.25807 0
M  V30 6291 C 614.636 -1.02912 3.44873 0
M  V30 6292 C 614.244 0.0761861 4.47935 0
M  V30 6293 C 615.988 -1.66087 3.9066 0
M  V30 6294 C 613.895 -0.419502 5.8991 0
M  V30 6295 H 612.825 -0.209092 0.724428 0
M  V30 6296 H 615.476 0.188683 1.82527 0
M  V30 6297 H 613.858 -1.82159 3.51616 0
M  V30 6298 H 615.032 0.852185 4.52851 0
M  V30 6299 H 613.347 0.614052 4.11847 0
M  V30 6300 H 615.944 -2.04272 4.94143 0
M  V30 6301 H 616.287 -2.53591 3.30148 0
M  V30 6302 H 616.82 -0.933959 3.86681 0
M  V30 6303 H 613.559 0.419277 6.54158 0
M  V30 6304 H 613.079 -1.16217 5.88433 0
M  V30 6305 H 614.758 -0.883577 6.40938 0
M  V30 6306 N 614.89 -1.56749 -0.16351 0
M  V30 6307 C 615.84 -1.93424 -1.20712 0
M  V30 6308 C 616.824 -0.803469 -1.39403 0
M  V30 6309 O 618.016 -1.06675 -1.41243 0
M  V30 6310 C 615.145 -2.30431 -2.54473 0
M  V30 6311 C 614.231 -3.5004 -2.39443 0
M  V30 6312 N 614.622 -4.67058 -1.9414 0
M  V30 6313 C 612.92 -3.548 -2.70246 0
M  V30 6314 C 613.621 -5.49184 -1.9176 0
M  V30 6315 N 612.597 -4.9044 -2.34457 0
M  V30 6316 H 616.399 -2.8138 -0.848681 0
M  V30 6317 H 613.913 -1.58089 -0.371717 0
M  V30 6318 H 615.91 -2.54903 -3.29894 0
M  V30 6319 H 614.57 -1.43818 -2.91112 0
M  V30 6320 H 615.581 -4.91128 -1.64357 0
M  V30 6321 H 612.258 -2.78685 -3.10871 0
M  V30 6322 H 613.648 -6.5297 -1.58366 0
M  V30 6323 N 616.368 0.432326 -1.51554 0
M  V30 6324 C 617.784 0.769195 -1.39841 0
M  V30 6325 C 617.984 1.95584 -0.484675 0
M  V30 6326 O 617.04 2.52433 0.0582829 0
M  V30 6327 C 618.353 1.04487 -2.81963 0
M  V30 6328 C 619.901 1.149 -2.91148 0
M  V30 6329 C 620.376 1.45758 -4.34187 0
M  V30 6330 N 621.867 1.52671 -4.37317 0
M  V30 6331 C 622.602 1.78129 -5.4503 0
M  V30 6332 N 622.098 2.01345 -6.62897 0
M  V30 6333 N 623.891 1.79953 -5.32516 0
M  V30 6334 H 616.042 -0.349122 -2.09511 0
M  V30 6335 H 618.305 -0.0938113 -0.943347 0
M  V30 6336 H 618.011 0.24557 -3.50842 0
M  V30 6337 H 617.885 1.97119 -3.21596 0
M  V30 6338 H 620.272 1.93891 -2.22464 0
M  V30 6339 H 620.353 0.201568 -2.55005 0
M  V30 6340 H 619.997 0.672917 -5.03423 0
M  V30 6341 H 619.927 2.41715 -4.67848 0
M  V30 6342 H 622.418 1.36612 -3.52343 0
M  V30 6343 H 622.731 2.20155 -7.40778 0
M  V30 6344 H 621.076 1.98657 -6.66003 0
M  V30 6345 H 624.267 1.61337 -4.39418 0
M  V30 6346 H 624.44 1.99455 -6.1654 0
M  V30 6347 N 617.846 1.41785 0.688094 0
M  V30 6348 C 619.123 1.32031 1.44316 0
M  V30 6349 C 619.503 -0.0486079 2.11044 0
M  V30 6350 O 618.851 -1.06332 2.02252 0
M  V30 6351 C 619.061 2.47906 2.45649 0
M  V30 6352 C 620.409 2.89415 3.10683 0
M  V30 6353 O 621.433 2.477 2.55975 0
M  V30 6354 O 620.292 3.61573 4.09789 0
M  V30 6355 H 617.386 0.519994 0.643067 0
M  V30 6356 H 619.932 1.53765 0.71794 0
M  V30 6357 H 618.704 3.39222 1.95048 0
M  V30 6358 H 618.327 2.28089 3.25671 0
M  V30 6359 N 619.324 -0.923095 1.27737 0
M  V30 6360 C 620.257 -2.02515 1.05181 0
M  V30 6361 C 621.235 -1.62574 -0.0292204 0
M  V30 6362 O 622.419 -1.88137 0.116848 0
M  V30 6363 C 619.546 -3.33407 0.596468 0
M  V30 6364 C 618.592 -3.92328 1.67276 0
M  V30 6365 S 619.425 -4.24342 3.26641 0
M  V30 6366 C 620.581 -5.58308 2.82919 0
M  V30 6367 H 620.814 -2.21336 1.98488 0
M  V30 6368 H 618.347 -1.06679 1.1162 0
M  V30 6369 H 620.305 -4.09086 0.34044 0
M  V30 6370 H 618.966 -3.125 -0.316614 0
M  V30 6371 H 618.159 -4.86797 1.30556 0
M  V30 6372 H 617.761 -3.2325 1.8811 0
M  V30 6373 H 620.053 -6.37801 2.28509 0
M  V30 6374 H 620.996 -5.99931 3.7615 0
M  V30 6375 H 621.404 -5.19049 2.21919 0
M  V30 6376 N 620.802 -1.09834 -1.13024 0
M  V30 6377 C 622.05 -0.835297 -1.8403 0
M  V30 6378 C 622.371 0.640944 -1.84165 0
M  V30 6379 O 621.641 1.46517 -1.30037 0
M  V30 6380 H 620.221 -0.306018 -0.681441 0
M  V30 6381 H 622.883 -1.38734 -1.36891 0
M  V30 6382 H 621.979 -1.19258 -2.88416 0
M  V30 6383 N 622.28 1.30327 -0.886154 0
M  V30 6384 C 623.691 1.78243 -0.555554 0
M  V30 6385 C 624.042 1.72849 0.928314 0
M  V30 6386 O 623.167 1.30607 1.72542 0
M  V30 6387 C 623.762 3.23654 -1.00168 0
M  V30 6388 C 622.321 3.69401 -0.722471 0
M  V30 6389 C 621.468 2.50753 -1.18399 0
M  V30 6390 H 624.419 1.1718 -1.07026 0
M  V30 6391 H 624.44 3.79056 -0.331152 0
M  V30 6392 H 623.952 3.27548 -2.08169 0
M  V30 6393 H 622.053 3.70995 0.345496 0
M  V30 6394 H 622.166 4.60818 -1.31085 0
M  V30 6395 H 620.53 2.47452 -0.603303 0
M  V30 6396 H 621.313 2.57383 -2.27176 0
M  V30 6397 N 623.758 0.647228 1.43697 0
M  V30 6398 C 625.004 0.158422 2.0218 0
M  V30 6399 C 625.337 -1.22233 1.50907 0
M  V30 6400 O 624.612 -1.81478 0.699702 0
M  V30 6401 C 624.895 0.1627 3.59732 0
M  V30 6402 C 624.748 1.57694 4.21251 0
M  V30 6403 C 626.067 -0.504138 4.37203 0
M  V30 6404 H 623.186 0.059042 0.734631 0
M  V30 6405 H 625.828 0.826772 1.71069 0
M  V30 6406 H 623.978 -0.406414 3.86368 0
M  V30 6407 H 625.65 2.19618 4.05667 0
M  V30 6408 H 623.893 2.12603 3.7813 0
M  V30 6409 H 624.564 1.53183 5.3032 0
M  V30 6410 H 627.04 -0.0199841 4.16095 0
M  V30 6411 H 625.916 -0.470394 5.46881 0
M  V30 6412 H 626.177 -1.57726 4.13007 0
M  V30 6413 N 625.236 -1.5273 0.388769 0
M  V30 6414 C 626.199 -2.25043 -0.434544 0
M  V30 6415 C 627.199 -1.26661 -0.990644 0
M  V30 6416 O 628.389 -1.50762 -0.872731 0
M  V30 6417 C 625.521 -3.00507 -1.60961 0
M  V30 6418 H 626.714 -2.99242 0.198549 0
M  V30 6419 H 624.267 -1.55664 0.140875 0
M  V30 6420 H 625.002 -2.30607 -2.28015 0
M  V30 6421 H 624.787 -3.72716 -1.21757 0
M  V30 6422 H 626.277 -3.55413 -2.19251 0
M  V30 6423 N 626.714 -0.118576 -1.57153 0
M  V30 6424 C 628.13 0.238014 -1.57815 0
M  V30 6425 C 628.33 1.66747 -1.13127 0
M  V30 6426 O 627.386 2.38867 -0.818462 0
M  V30 6427 C 628.699 0.00508207 -3.007 0
M  V30 6428 C 630.247 0.0710139 -3.12919 0
M  V30 6429 C 630.722 -0.13422 -4.57803 0
M  V30 6430 N 632.213 -0.0801755 -4.63131 0
M  V30 6431 C 632.948 -0.213885 -5.73001 0
M  V30 6432 N 632.444 -0.403742 -6.91623 0
M  V30 6433 N 634.237 -0.15349 -5.6189 0
M  V30 6434 H 626.388 -1.05226 -1.84503 0
M  V30 6435 H 628.651 -0.414318 -0.852669 0
M  V30 6436 H 628.357 -0.983125 -3.3768 0
M  V30 6437 H 628.231 0.73714 -3.69927 0
M  V30 6438 H 630.618 1.04975 -2.75798 0
M  V30 6439 H 630.699 -0.692918 -2.46236 0
M  V30 6440 H 630.343 -1.10992 -4.95624 0
M  V30 6441 H 630.273 0.649692 -5.22577 0
M  V30 6442 H 632.764 0.0630689 -3.77847 0
M  V30 6443 H 633.077 -0.496645 -7.71202 0
M  V30 6444 H 631.422 -0.43971 -6.93608 0
M  V30 6445 H 634.613 -0.00613174 -4.681 0
M  V30 6446 H 634.786 -0.261138 -6.47474 0
M  V30 6447 N 628.193 1.56834 0.155195 0
M  V30 6448 C 629.423 1.86778 0.883044 0
M  V30 6449 C 629.831 0.703824 1.75622 0
M  V30 6450 O 629.174 -0.33581 1.80605 0
M  V30 6451 C 629.236 3.1133 1.79761 0
M  V30 6452 C 628.9 4.43504 1.10242 0
M  V30 6453 C 629.897 5.17859 0.460204 0
M  V30 6454 C 627.582 4.90233 1.09437 0
M  V30 6455 C 629.576 6.37144 -0.180782 0
M  V30 6456 C 627.263 6.09444 0.449569 0
M  V30 6457 C 628.261 6.82744 -0.186888 0
M  V30 6458 O 627.949 7.99692 -0.821486 0
M  V30 6459 H 627.681 0.62352 0.261149 0
M  V30 6460 H 630.235 2.04813 0.155204 0
M  V30 6461 H 628.465 2.89282 2.56618 0
M  V30 6462 H 630.154 3.27587 2.39669 0
M  V30 6463 H 630.92 4.8283 0.458289 0
M  V30 6464 H 626.799 4.33109 1.57917 0
M  V30 6465 H 630.343 6.94296 -0.678154 0
M  V30 6466 H 626.24 6.43936 0.449123 0
M  V30 6467 H 627.008 8.15306 -0.722337 0
M  V30 6468 N 629.671 -0.424282 1.51781 0
M  V30 6469 C 630.601 -1.52305 1.7699 0
M  V30 6470 C 631.582 -1.5839 0.620209 0
M  V30 6471 O 632.767 -1.73908 0.864268 0
M  V30 6472 C 629.897 -2.90271 1.90683 0
M  V30 6473 C 628.851 -2.99043 3.06198 0
M  V30 6474 C 628.177 -4.39116 3.05092 0
M  V30 6475 C 629.477 -2.7192 4.45934 0
M  V30 6476 H 631.171 -1.31461 2.68995 0
M  V30 6477 H 628.717 -0.630985 1.29439 0
M  V30 6478 H 630.67 -3.6711 2.06901 0
M  V30 6479 H 629.394 -3.12376 0.953365 0
M  V30 6480 H 628.053 -2.24646 2.89706 0
M  V30 6481 H 627.701 -4.58207 2.07498 0
M  V30 6482 H 627.401 -4.45912 3.82669 0
M  V30 6483 H 628.925 -5.17911 3.2342 0
M  V30 6484 H 630.339 -3.38487 4.62709 0
M  V30 6485 H 628.736 -2.90111 5.25315 0
M  V30 6486 H 629.806 -1.67445 4.55072 0
M  V30 6487 N 631.149 -1.42148 -0.680565 0
M  V30 6488 C 632.397 -1.42029 -1.43779 0
M  V30 6489 C 632.718 -0.0356347 -1.94967 0
M  V30 6490 O 631.988 0.924936 -1.7269 0
M  V30 6491 H 630.568 -0.522835 -0.533529 0
M  V30 6492 H 633.23 -1.7752 -0.804538 0
M  V30 6493 H 632.326 -2.11658 -2.29363 0
M  V30 6494 N 632.627 0.916307 -1.28225 0
M  V30 6495 C 634.038 1.48024 -1.13779 0
M  V30 6496 C 634.389 1.94289 0.273139 0
M  V30 6497 O 633.514 1.82226 1.16716 0
M  V30 6498 C 634.109 2.69029 -2.05935 0
M  V30 6499 C 632.668 3.2161 -1.95561 0
M  V30 6500 C 631.815 1.94321 -1.97825 0
M  V30 6501 H 634.766 0.729272 -1.40951 0
M  V30 6502 H 634.787 3.44204 -1.62184 0
M  V30 6503 H 634.299 2.35325 -3.08616 0
M  V30 6504 H 632.4 3.60045 -0.959076 0
M  V30 6505 H 632.513 3.87032 -2.82388 0
M  V30 6506 H 630.877 2.1131 -1.42198 0
M  V30 6507 H 631.66 1.62917 -3.0218 0
M  V30 6508 N 634.105 1.10431 1.1244 0
M  V30 6509 C 635.035 0.775143 2.20258 0
M  V30 6510 C 636.016 -0.25186 1.68225 0
M  V30 6511 O 637.201 -0.117637 1.93843 0
M  V30 6512 C 634.331 0.206133 3.46688 0
M  V30 6513 C 633.285 1.16382 4.11873 0
M  V30 6514 C 632.611 0.456014 5.32752 0
M  V30 6515 C 633.911 2.5104 4.58013 0
M  V30 6516 H 635.605 1.67665 2.4805 0
M  V30 6517 H 633.151 0.807595 1.19222 0
M  V30 6518 H 635.104 -0.036291 4.21384 0
M  V30 6519 H 633.828 -0.730614 3.18323 0
M  V30 6520 H 632.487 1.39169 3.39157 0
M  V30 6521 H 632.135 -0.485203 5.00654 0
M  V30 6522 H 631.835 1.09466 5.77314 0
M  V30 6523 H 633.359 0.222135 6.10196 0
M  V30 6524 H 634.773 2.32401 5.24083 0
M  V30 6525 H 633.17 3.10789 5.13352 0
M  V30 6526 H 634.24 3.11039 3.71998 0
M  V30 6527 N 635.583 -1.29855 0.893053 0
M  V30 6528 C 636.829 -1.96116 0.516349 0
M  V30 6529 C 637.162 -1.70281 -0.933695 0
M  V30 6530 O 636.437 -1.01205 -1.66096 0
M  V30 6531 C 636.72 -3.51068 0.801455 0
M  V30 6532 C 636.573 -3.86387 2.30272 0
M  V30 6533 C 637.892 -4.39186 0.283423 0
M  V30 6534 H 635.011 -0.712335 0.189072 0
M  V30 6535 H 637.653 -1.53587 1.11852 0
M  V30 6536 H 635.803 -3.87424 0.288949 0
M  V30 6537 H 637.475 -3.60012 2.88425 0
M  V30 6538 H 635.718 -3.34167 2.76613 0
M  V30 6539 H 636.389 -4.94512 2.45279 0
M  V30 6540 H 638.865 -4.09785 0.722187 0
M  V30 6541 H 637.741 -5.46505 0.512169 0
M  V30 6542 H 638.002 -4.34511 -0.815643 0
M  V30 6543 N 637.061 -0.65484 -1.43351 0
M  V30 6544 C 638.472 -0.248506 -1.85039 0
M  V30 6545 C 638.823 1.20526 -1.54816 0
M  V30 6546 O 637.948 1.92016 -0.99794 0
M  V30 6547 C 638.543 -0.444241 -3.35875 0
M  V30 6548 C 637.102 -0.0922108 -3.76287 0
M  V30 6549 C 636.249 -0.746327 -2.67068 0
M  V30 6550 H 639.2 -0.8584 -1.33481 0
M  V30 6551 H 639.221 0.309762 -3.79237 0
M  V30 6552 H 638.733 -1.50239 -3.5784 0
M  V30 6553 H 636.834 0.96328 -3.59933 0
M  V30 6554 H 636.947 -0.518807 -4.76283 0
M  V30 6555 H 635.311 -0.179416 -2.54067 0
M  V30 6556 H 636.094 -1.80754 -2.91861 0
M  V30 6557 N 638.539 1.52521 -0.396863 0
M  V30 6558 C 639.486 2.26671 0.434624 0
M  V30 6559 C 640.456 1.28584 1.05144 0
M  V30 6560 O 641.641 1.57426 1.07804 0
M  V30 6561 C 638.781 3.08234 1.55196 0
M  V30 6562 C 637.894 4.21261 0.957262 0
M  V30 6563 C 637.029 4.90205 2.04627 0
M  V30 6564 C 636.068 5.95213 1.42787 0
M  V30 6565 N 635.205 6.57723 2.45651 0
M  V30 6566 H 640.045 2.973 -0.204139 0
M  V30 6567 H 637.582 1.46669 -0.112505 0
M  V30 6568 H 639.54 3.53819 2.2106 0
M  V30 6569 H 638.17 2.398 2.16092 0
M  V30 6570 H 637.222 3.79935 0.188005 0
M  V30 6571 H 638.534 4.96624 0.465416 0
M  V30 6572 H 637.688 5.39133 2.78246 0
M  V30 6573 H 636.427 4.14383 2.57174 0
M  V30 6574 H 635.432 5.45616 0.676968 0
M  V30 6575 H 636.657 6.72972 0.910255 0
M  V30 6576 H 634.603 5.84737 2.97353 0
M  V30 6577 H 634.52 7.28723 2.01243 0
M  V30 6578 H 635.788 7.11293 3.18876 0
M  V30 6579 N 640.017 0.126909 1.57088 0
M  V30 6580 C 640.949 -0.850973 2.12817 0
M  V30 6581 C 641.962 -1.22457 1.07276 0
M  V30 6582 O 643.151 -1.17215 1.34622 0
M  V30 6583 C 640.251 -2.15039 2.61938 0
M  V30 6584 C 639.424 -1.94726 3.91664 0
M  V30 6585 C 638.483 -3.0847 4.26301 0
M  V30 6586 O 637.509 -2.81038 4.94981 0
M  V30 6587 N 638.711 -4.35116 3.84259 0
M  V30 6588 H 641.476 -0.3748 2.97347 0
M  V30 6589 H 639.037 -0.0572793 1.61799 0
M  V30 6590 H 641.029 -2.90141 2.82135 0
M  V30 6591 H 639.599 -2.5398 1.82244 0
M  V30 6592 H 638.819 -1.03772 3.80296 0
M  V30 6593 H 640.107 -1.78469 4.76473 0
M  V30 6594 H 639.505 -4.60276 3.2888 0
M  V30 6595 H 638.062 -5.07064 4.09548 0
M  V30 6596 N 641.495 -1.56914 -0.146875 0
M  V30 6597 C 642.723 -1.87515 -0.874394 0
M  V30 6598 C 643.138 -0.715116 -1.74733 0
M  V30 6599 O 642.495 0.315113 -1.79759 0
M  V30 6600 C 642.546 -3.17362 -1.731 0
M  V30 6601 O 642.267 -4.28897 -0.893245 0
M  V30 6602 C 643.768 -3.61479 -2.56609 0
M  V30 6603 H 640.988 -0.621546 -0.252827 0
M  V30 6604 H 643.532 -2.04023 -0.139627 0
M  V30 6605 H 641.687 -3.02608 -2.41883 0
M  V30 6606 H 642.101 -5.03146 -1.48137 0
M  V30 6607 H 643.575 -4.5517 -3.12289 0
M  V30 6608 H 644.052 -2.86773 -3.32653 0
M  V30 6609 H 644.658 -3.78927 -1.93117 0
M  V30 6610 N 642.974 0.416227 -1.52004 0
M  V30 6611 C 643.904 1.51365 -1.77795 0
M  V30 6612 C 644.885 1.58059 -0.628601 0
M  V30 6613 O 646.07 1.73447 -0.873478 0
M  V30 6614 C 643.2 2.89256 -1.92219 0
M  V30 6615 C 642.154 2.97415 -3.0778 0
M  V30 6616 C 641.48 4.37492 -3.07417 0
M  V30 6617 C 642.78 2.69551 -4.47369 0
M  V30 6618 H 644.474 1.30033 -2.69688 0
M  V30 6619 H 642.02 0.624112 -1.29772 0
M  V30 6620 H 643.973 3.66008 -2.08845 0
M  V30 6621 H 642.697 3.11866 -0.969917 0
M  V30 6622 H 641.356 2.23107 -2.90893 0
M  V30 6623 H 641.004 4.571 -2.09925 0
M  V30 6624 H 640.704 4.43877 -3.85029 0
M  V30 6625 H 642.228 5.16188 -3.26162 0
M  V30 6626 H 643.642 3.36028 -4.64497 0
M  V30 6627 H 642.039 2.87321 -5.26846 0
M  V30 6628 H 643.109 1.65029 -4.55953 0
M  V30 6629 N 644.452 1.42507 0.673017 0
M  V30 6630 C 645.382 1.48916 1.79851 0
M  V30 6631 C 646.363 0.345566 1.66553 0
M  V30 6632 O 647.548 0.560116 1.85947 0
M  V30 6633 C 644.678 1.39258 3.18158 0
M  V30 6634 C 643.632 2.51662 3.46194 0
M  V30 6635 C 642.958 2.27062 4.84094 0
M  V30 6636 C 644.258 3.93968 3.42909 0
M  V30 6637 H 645.952 2.43114 1.74745 0
M  V30 6638 H 643.498 1.17013 0.839288 0
M  V30 6639 H 645.451 1.42349 3.96629 0
M  V30 6640 H 644.175 0.415542 3.23946 0
M  V30 6641 H 642.834 2.47891 2.70084 0
M  V30 6642 H 642.482 1.27648 4.86534 0
M  V30 6643 H 642.182 3.02398 5.03815 0
M  V30 6644 H 643.706 2.31905 5.64847 0
M  V30 6645 H 645.12 3.99332 4.11347 0
M  V30 6646 H 643.517 4.6917 3.74165 0
M  V30 6647 H 644.587 4.20512 2.41449 0
M  V30 6648 N 645.93 -0.909495 1.28709 0
M  V30 6649 C 647.176 -1.66175 1.17293 0
M  V30 6650 C 647.531 -1.90426 -0.274891 0
M  V30 6651 O 646.824 -1.49659 -1.19635 0
M  V30 6652 C 647.018 -3.02117 1.90945 0
M  V30 6653 C 646.847 -2.91134 3.42741 0
M  V30 6654 C 645.617 -2.92429 4.12085 0
M  V30 6655 C 647.815 -2.68889 4.3841 0
M  V30 6656 N 645.797 -2.72078 5.50315 0
M  V30 6657 C 647.168 -2.57423 5.64033 0
M  V30 6658 C 649.223 -2.53919 4.28287 0
M  V30 6659 C 647.926 -2.32513 6.80683 0
M  V30 6660 C 649.952 -2.3039 5.44678 0
M  V30 6661 C 649.314 -2.19682 6.69268 0
M  V30 6662 H 645.413 -0.614095 0.48416 0
M  V30 6663 H 647.997 -1.07377 1.62414 0
M  V30 6664 H 646.168 -3.58993 1.48252 0
M  V30 6665 H 647.9 -3.66388 1.71878 0
M  V30 6666 H 644.655 -3.03345 3.63701 0
M  V30 6667 H 645.079 -2.64983 6.22987 0
M  V30 6668 H 649.721 -2.60946 3.32666 0
M  V30 6669 H 647.439 -2.24225 7.76369 0
M  V30 6670 H 651.025 -2.19665 5.38738 0
M  V30 6671 H 649.905 -2.01725 7.5781 0
M  V30 6672 N 647.408 -1.11026 -1.11852 0
M  V30 6673 C 648.34 -0.72249 -2.17515 0
M  V30 6674 C 649.353 0.243782 -1.60964 0
M  V30 6675 O 650.542 0.0273252 -1.78479 0
M  V30 6676 C 647.642 -0.0463979 -3.38868 0
M  V30 6677 C 646.815 -1.0384 -4.24895 0
M  V30 6678 C 645.874 -0.392659 -5.24733 0
M  V30 6679 O 644.9 -1.0453 -5.5952 0
M  V30 6680 N 646.102 0.846296 -5.74298 0
M  V30 6681 H 648.867 -1.63161 -2.51393 0
M  V30 6682 H 646.428 -0.999899 -1.27333 0
M  V30 6683 H 648.42 0.397215 -4.02746 0
M  V30 6684 H 646.99 0.765231 -3.03089 0
M  V30 6685 H 646.21 -1.6601 -3.57539 0
M  V30 6686 H 647.498 -1.70968 -4.79215 0
M  V30 6687 H 646.896 1.39578 -5.4821 0
M  V30 6688 H 645.453 1.23296 -6.40032 0
M  V30 6689 N 648.886 1.2938 -0.899927 0
M  V30 6690 C 650.163 1.9046 -0.445443 0
M  V30 6691 C 650.543 1.81683 1.07492 0
M  V30 6692 O 649.891 1.24371 1.91688 0
M  V30 6693 C 650.101 3.35529 -0.960279 0
M  V30 6694 C 651.449 4.12556 -1.00412 0
M  V30 6695 O 652.473 3.44434 -0.907965 0
M  V30 6696 O 651.332 5.34294 -1.14857 0
M  V30 6697 H 648.426 0.815253 -0.138893 0
M  V30 6698 H 650.972 1.37844 -0.989808 0
M  V30 6699 H 649.744 3.36074 -2.00425 0
M  V30 6700 H 649.367 3.95624 -0.395939 0
M  V30 6701 N 650.364 0.662433 1.43002 0
M  V30 6702 C 651.775 0.258315 1.84904 0
M  V30 6703 C 652.126 -1.19703 1.55453 0
M  V30 6704 O 651.251 -1.91484 1.00811 0
M  V30 6705 C 651.846 0.462047 3.35635 0
M  V30 6706 C 650.405 0.112165 3.76233 0
M  V30 6707 C 649.552 0.760479 2.66668 0
M  V30 6708 H 652.503 0.865467 1.33024 0
M  V30 6709 H 652.524 -0.289646 3.79396 0
M  V30 6710 H 652.036 1.52135 3.57039 0
M  V30 6711 H 650.137 -0.944179 3.60439 0
M  V30 6712 H 650.25 0.544058 4.76001 0
M  V30 6713 H 648.614 0.192887 2.53969 0
M  V30 6714 H 649.397 1.82299 2.90898 0
M  V30 6715 N 651.842 -1.52309 0.404946 0
M  V30 6716 C 653.088 -2.02065 -0.172455 0
M  V30 6717 C 653.421 -1.29022 -1.45145 0
M  V30 6718 O 652.696 -0.395284 -1.90441 0
M  V30 6719 C 652.979 -3.5759 -0.424433 0
M  V30 6720 C 652.832 -4.41287 0.870945 0
M  V30 6721 C 654.151 -4.23186 -1.20837 0
M  V30 6722 H 651.27 -0.734454 -0.0612035 0
M  V30 6723 H 653.912 -1.82236 0.53759 0
M  V30 6724 H 652.062 -3.74617 -1.02929 0
M  V30 6725 H 653.734 -4.3598 1.50729 0
M  V30 6726 H 651.977 -4.07669 1.48284 0
M  V30 6727 H 652.648 -5.48171 0.649083 0
M  V30 6728 H 655.124 -4.10232 -0.696338 0
M  V30 6729 H 654 -5.31953 -1.35343 0
M  V30 6730 H 654.261 -3.81862 -2.22786 0
M  V30 6731 N 653.32 -0.135238 -1.57019 0
M  V30 6732 C 654.731 0.387521 -1.82634 0
M  V30 6733 C 655.082 1.65528 -1.05332 0
M  V30 6734 O 654.207 2.14381 -0.294926 0
M  V30 6735 C 654.802 0.709852 -3.3128 0
M  V30 6736 C 653.361 1.17718 -3.57518 0
M  V30 6737 C 652.508 0.194183 -2.76619 0
M  V30 6738 H 655.459 -0.360126 -1.5456 0
M  V30 6739 H 655.48 1.5657 -3.46794 0
M  V30 6740 H 654.992 -0.213024 -3.87515 0
M  V30 6741 H 653.093 2.1164 -3.06658 0
M  V30 6742 H 653.206 1.11128 -4.66034 0
M  V30 6743 H 651.57 0.684478 -2.4533 0
M  V30 6744 H 652.353 -0.722076 -3.3562 0
M  V30 6745 N 654.798 1.5699 0.138552 0
M  V30 6746 C 655.761 1.97984 1.15478 0
M  V30 6747 C 656.761 0.867416 1.35398 0
M  V30 6748 O 657.951 1.13387 1.32246 0
M  V30 6749 C 655.083 2.3031 2.51337 0
M  V30 6750 H 656.276 2.88953 0.802896 0
M  V30 6751 H 653.829 1.51555 0.382189 0
M  V30 6752 H 654.564 1.42159 2.91481 0
M  V30 6753 H 654.349 3.11425 2.38237 0
M  V30 6754 H 655.839 2.62834 3.24512 0
M  V30 6755 N 656.276 -0.40816 1.52223 0
M  V30 6756 C 657.522 -1.15673 1.66576 0
M  V30 6757 C 657.855 -1.90141 0.394996 0
M  V30 6758 O 657.13 -1.84798 -0.606613 0
M  V30 6759 C 657.413 -2.15042 2.88841 0
M  V30 6760 C 657.266 -1.44465 4.25969 0
M  V30 6761 C 658.585 -3.15699 3.0663 0
M  V30 6762 H 655.704 -0.41916 0.606196 0
M  V30 6763 H 658.346 -0.442348 1.84779 0
M  V30 6764 H 656.496 -2.75964 2.73452 0
M  V30 6765 H 658.168 -0.866544 4.53088 0
M  V30 6766 H 656.411 -0.746612 4.27327 0
M  V30 6767 H 657.082 -2.16976 5.07568 0
M  V30 6768 H 659.558 -2.64854 3.20923 0
M  V30 6769 H 658.434 -3.82491 3.9369 0
M  V30 6770 H 658.695 -3.83481 2.19987 0
M  V30 6771 N 657.755 -1.42862 -0.66545 0
M  V30 6772 C 658.98 -1.47456 -1.45848 0
M  V30 6773 C 659.405 -0.0900312 -1.87884 0
M  V30 6774 O 658.763 0.913587 -1.56599 0
M  V30 6775 C 658.811 -2.41514 -2.67774 0
M  V30 6776 O 657.915 -1.89296 -3.66389 0
M  V30 6777 H 657.256 -0.499236 -0.437789 0
M  V30 6778 H 659.786 -1.8765 -0.815394 0
M  V30 6779 H 659.796 -2.58409 -3.15735 0
M  V30 6780 H 658.471 -3.42099 -2.36519 0
M  V30 6781 H 657.048 -1.82003 -3.25468 0
M  V30 6782 N 659.233 0.902656 -1.29189 0
M  V30 6783 C 660.183 1.99326 -1.10695 0
M  V30 6784 C 661.167 1.60877 -0.0272521 0
M  V30 6785 O 662.359 1.75245 -0.248635 0
M  V30 6786 C 659.488 3.34265 -0.78244 0
M  V30 6787 C 658.574 3.79081 -1.90153 0
M  V30 6788 N 658.965 3.96162 -3.14466 0
M  V30 6789 C 657.263 4.08333 -1.79389 0
M  V30 6790 C 657.964 4.3388 -3.87458 0
M  V30 6791 N 656.94 4.42759 -3.15381 0
M  V30 6792 H 660.742 2.10597 -2.05003 0
M  V30 6793 H 658.256 1.09127 -1.20271 0
M  V30 6794 H 660.253 4.12097 -0.630996 0
M  V30 6795 H 658.913 3.2434 0.152754 0
M  V30 6796 H 659.924 3.81775 -3.49954 0
M  V30 6797 H 656.601 4.06982 -0.931217 0
M  V30 6798 H 657.991 4.54965 -4.94425 0
M  V30 6799 N 660.711 1.11618 1.11262 0
M  V30 6800 C 661.988 0.777876 1.79467 0
M  V30 6801 C 662.368 -0.733774 1.97937 0
M  V30 6802 O 661.716 -1.66443 1.56554 0
M  V30 6803 C 661.926 1.5431 3.13032 0
M  V30 6804 C 663.274 1.72357 3.88044 0
M  V30 6805 O 664.298 1.5075 3.22727 0
M  V30 6806 O 663.157 2.08276 5.05256 0
M  V30 6807 H 660.251 0.282018 0.777428 0
M  V30 6808 H 662.797 1.21971 1.17988 0
M  V30 6809 H 661.569 2.57132 2.94956 0
M  V30 6810 H 661.192 1.09495 3.82226 0
M  V30 6811 N 662.189 -1.289 0.906776 0
M  V30 6812 C 663.119 -2.29932 0.406659 0
M  V30 6813 C 664.1 -1.6189 -0.522061 0
M  V30 6814 O 665.285 -1.8935 -0.431283 0
M  V30 6815 C 662.415 -3.45425 -0.360366 0
M  V30 6816 C 661.369 -4.25316 0.478574 0
M  V30 6817 C 660.695 -5.33076 -0.416373 0
M  V30 6818 C 661.995 -4.92739 1.7322 0
M  V30 6819 H 663.689 -2.72013 1.25097 0
M  V30 6820 H 661.235 -1.30768 0.602977 0
M  V30 6821 H 663.188 -4.15186 -0.721029 0
M  V30 6822 H 661.912 -3.02206 -1.23852 0
M  V30 6823 H 660.571 -3.57273 0.821662 0
M  V30 6824 H 660.219 -4.86101 -1.29287 0
M  V30 6825 H 659.919 -5.8743 0.141309 0
M  V30 6826 H 661.443 -6.05686 -0.773072 0
M  V30 6827 H 662.857 -5.54898 1.44086 0
M  V30 6828 H 661.254 -5.57057 2.23175 0
M  V30 6829 H 662.324 -4.17625 2.46408 0
M  V30 6830 N 663.667 -0.670007 -1.42649 0
M  V30 6831 C 664.913 -0.190568 -2.01903 0
M  V30 6832 C 665.246 1.19817 -1.52832 0
M  V30 6833 O 664.521 1.80342 -0.728485 0
M  V30 6834 C 664.804 -0.21991 -3.59428 0
M  V30 6835 C 664.657 -1.64376 -4.18689 0
M  V30 6836 C 665.976 0.434519 -4.3795 0
M  V30 6837 H 663.095 -0.0707219 -0.733599 0
M  V30 6838 H 665.737 -0.853883 -1.69732 0
M  V30 6839 H 663.887 0.344894 -3.86966 0
M  V30 6840 H 665.559 -2.26044 -4.02122 0
M  V30 6841 H 663.802 -2.18591 -3.747 0
M  V30 6842 H 664.473 -1.61601 -5.27815 0
M  V30 6843 H 666.949 -0.0462156 -4.16074 0
M  V30 6844 H 665.825 0.38333 -5.4756 0
M  V30 6845 H 666.086 1.51135 -4.15464 0
M  V30 6846 N 665.145 1.52092 -0.413018 0
M  V30 6847 C 666.393 2.01456 0.161178 0
M  V30 6848 C 666.714 1.30034 1.45314 0
M  V30 6849 O 665.984 0.427435 1.9118 0
M  V30 6850 H 664.564 0.744376 0.0625526 0
M  V30 6851 H 667.226 1.86974 -0.550151 0
M  V30 6852 H 666.322 3.1008 0.354517 0
M  V30 6853 N 666.623 0.143563 1.56945 0
M  V30 6854 C 667.533 -0.810562 2.20152 0
M  V30 6855 C 668.549 -1.27431 1.1848 0
M  V30 6856 O 669.725 -1.33221 1.51044 0
M  V30 6857 C 666.79 -2.03353 2.80799 0
M  V30 6858 C 665.851 -1.61936 3.97587 0
M  V30 6859 C 665.084 -2.78403 4.55332 0
M  V30 6860 O 665.307 -3.94521 4.11958 0
M  V30 6861 O 664.241 -2.54073 5.45647 0
M  V30 6862 H 668.067 -0.30253 3.02189 0
M  V30 6863 H 665.652 -0.0832925 1.49168 0
M  V30 6864 H 667.534 -2.74932 3.19359 0
M  V30 6865 H 666.209 -2.53116 2.01777 0
M  V30 6866 H 665.116 -0.873904 3.6375 0
M  V30 6867 H 666.449 -1.16892 4.78118 0
M  V30 6868 N 668.101 -1.57061 -0.130224 0
M  V30 6869 C 669.064 -1.98593 -1.14426 0
M  V30 6870 C 670.064 -0.874584 -1.34936 0
M  V30 6871 O 671.254 -1.14086 -1.31643 0
M  V30 6872 C 668.386 -2.31639 -2.50112 0
M  V30 6873 H 669.579 -2.89374 -0.787561 0
M  V30 6874 H 667.132 -1.51756 -0.374146 0
M  V30 6875 H 667.867 -1.43703 -2.90723 0
M  V30 6876 H 667.652 -3.12684 -2.36583 0
M  V30 6877 H 669.142 -2.64551 -3.23114 0
M  V30 6878 N 669.579 0.400081 -1.52437 0
M  V30 6879 C 670.489 1.51253 -1.79331 0
M  V30 6880 C 671.505 1.60188 -0.679396 0
M  V30 6881 O 672.681 1.76733 -0.965791 0
M  V30 6882 C 669.746 2.869 -1.94652 0
M  V30 6883 C 668.807 2.87777 -3.18564 0
M  V30 6884 C 668.04 4.16954 -3.33145 0
M  V30 6885 O 668.263 5.11329 -2.52783 0
M  V30 6886 O 667.197 4.2487 -4.26343 0
M  V30 6887 H 671.023 1.31461 -2.73773 0
M  V30 6888 H 668.608 0.586834 -1.37392 0
M  V30 6889 H 670.49 3.67336 -2.065 0
M  V30 6890 H 669.165 3.06741 -1.034 0
M  V30 6891 H 668.072 2.06162 -3.12167 0
M  V30 6892 H 669.405 2.72886 -4.09627 0
M  V30 6893 N 671.057 1.43213 0.657864 0
M  V30 6894 C 672.306 1.43871 1.41365 0
M  V30 6895 C 672.619 0.064898 1.95492 0
M  V30 6896 O 673.825 -0.0510796 2.71452 0
M  V30 6897 C 672.281 2.53158 2.55811 0
M  V30 6898 C 671.889 3.96624 2.08311 0
M  V30 6899 C 673.633 2.63004 3.3321 0
M  V30 6900 C 671.54 4.97385 3.1994 0
M  V30 6901 H 670.47 0.535174 0.531136 0
M  V30 6902 H 673.121 1.69185 0.710543 0
M  V30 6903 H 671.503 2.21037 3.2857 0
M  V30 6904 H 672.677 4.38182 1.42593 0
M  V30 6905 H 670.992 3.90781 1.43804 0
M  V30 6906 H 673.589 3.3546 4.16378 0
M  V30 6907 H 673.932 1.67918 3.80932 0
M  V30 6908 H 674.465 2.94403 2.67529 0
M  V30 6909 H 671.204 5.94007 2.77192 0
M  V30 6910 H 670.724 4.60444 3.84385 0
M  V30 6911 H 672.403 5.19877 3.85145 0
M  V30 6912 N 672.536 -0.895792 1.29666 0
M  V30 6913 C 673.499 -1.98189 1.15124 0
M  V30 6914 C 674.499 -1.60572 0.0855717 0
M  V30 6915 O 675.689 -1.70991 0.332826 0
M  V30 6916 C 672.821 -3.32289 0.761372 0
M  V30 6917 H 674.014 -2.12518 2.11603 0
M  V30 6918 H 671.567 -1.0808 1.12908 0
M  V30 6919 H 672.302 -3.23662 -0.203393 0
M  V30 6920 H 672.087 -3.60958 1.53139 0
M  V30 6921 H 673.577 -4.1198 0.682792 0
M  V30 6922 N 674.014 -1.12206 -1.10668 0
M  V30 6923 C 675.239 -0.898938 -1.86906 0
M  V30 6924 C 675.664 0.546346 -1.79991 0
M  V30 6925 O 675.022 1.38655 -1.1681 0
M  V30 6926 C 675.07 -1.37529 -3.33344 0
M  V30 6927 O 674.174 -0.55218 -4.08687 0
M  V30 6928 H 673.515 -0.323163 -0.580053 0
M  V30 6929 H 676.045 -1.49355 -1.39837 0
M  V30 6930 H 676.055 -1.3733 -3.84193 0
M  V30 6931 H 674.73 -2.42767 -3.37693 0
M  V30 6932 H 673.307 -0.620947 -3.67694 0
M  V30 6933 N 675.492 1.28418 -0.913599 0
M  V30 6934 C 676.422 2.29713 -0.418847 0
M  V30 6935 C 677.403 1.62165 0.513469 0
M  V30 6936 O 678.588 1.89576 0.421235 0
M  V30 6937 C 675.718 3.45612 0.342042 0
M  V30 6938 C 674.672 4.25056 -0.501123 0
M  V30 6939 C 673.998 5.3329 0.388097 0
M  V30 6940 C 675.298 4.91814 -1.75831 0
M  V30 6941 H 676.992 2.71346 -1.26538 0
M  V30 6942 H 674.538 1.30446 -0.609903 0
M  V30 6943 H 676.491 4.15562 0.699 0
M  V30 6944 H 675.215 3.02858 1.22248 0
M  V30 6945 H 673.874 3.56833 -0.840598 0
M  V30 6946 H 673.522 4.8678 1.26707 0
M  V30 6947 H 673.222 5.87347 -0.172459 0
M  V30 6948 H 674.746 6.06088 0.74094 0
M  V30 6949 H 676.16 5.54126 -1.47026 0
M  V30 6950 H 674.557 5.55866 -2.26126 0
M  V30 6951 H 675.627 4.16313 -2.4862 0
M  V30 6952 N 676.97 0.677563 1.42291 0
M  V30 6953 C 677.917 0.000947061 2.308 0
M  V30 6954 C 678.887 -0.789889 1.46116 0
M  V30 6955 O 680.072 -0.761578 1.74942 0
M  V30 6956 C 677.212 -0.942387 3.31984 0
M  V30 6957 C 676.325 -0.14508 4.31756 0
M  V30 6958 C 675.46 -1.08442 5.20013 0
M  V30 6959 C 674.499 -0.278958 6.11464 0
M  V30 6960 N 673.636 -1.17115 6.92263 0
M  V30 6961 H 678.476 0.761521 2.88106 0
M  V30 6962 H 676.013 0.38727 1.41911 0
M  V30 6963 H 677.971 -1.50317 3.89179 0
M  V30 6964 H 676.601 -1.66956 2.76271 0
M  V30 6965 H 675.653 0.532368 3.76656 0
M  V30 6966 H 676.965 0.48015 4.96484 0
M  V30 6967 H 676.119 -1.71504 5.81955 0
M  V30 6968 H 674.858 -1.74353 4.55469 0
M  V30 6969 H 673.863 0.364856 5.48588 0
M  V30 6970 H 675.088 0.376099 6.78058 0
M  V30 6971 H 673.034 -1.81661 6.30345 0
M  V30 6972 H 672.951 -0.601063 7.53607 0
M  V30 6973 H 674.219 -1.78915 7.58689 0
M  V30 6974 N 678.448 -1.51871 0.421078 0
M  V30 6975 C 679.673 -2.0684 -0.152371 0
M  V30 6976 C 680.098 -1.28802 -1.37083 0
M  V30 6977 O 679.456 -0.321482 -1.78427 0
M  V30 6978 C 679.504 -3.57532 -0.469368 0
M  V30 6979 O 678.608 -3.81818 -1.55848 0
M  V30 6980 H 677.949 -0.663939 -0.00898586 0
M  V30 6981 H 680.479 -1.95674 0.597724 0
M  V30 6982 H 680.489 -4.01515 -0.724553 0
M  V30 6983 H 679.164 -4.13761 0.421276 0
M  V30 6984 H 677.741 -3.49709 -1.29453 0
M  V30 6985 N 679.926 -0.151884 -1.56866 0
M  V30 6986 C 680.858 0.817008 -2.14144 0
M  V30 6987 C 681.871 1.20735 -1.0921 0
M  V30 6988 O 683.06 1.15058 -1.36469 0
M  V30 6989 C 680.16 2.10844 -2.65326 0
M  V30 6990 C 679.333 1.88471 -3.94712 0
M  V30 6991 C 678.392 3.01649 -4.31155 0
M  V30 6992 O 677.418 2.73127 -4.9939 0
M  V30 6993 N 678.62 4.28947 -3.91132 0
M  V30 6994 H 681.385 0.327448 -2.97906 0
M  V30 6995 H 678.946 0.0315313 -1.61869 0
M  V30 6996 H 680.938 2.85616 -2.86715 0
M  V30 6997 H 679.508 2.51049 -1.86262 0
M  V30 6998 H 678.728 0.977088 -3.81899 0
M  V30 6999 H 680.016 1.70866 -4.79252 0
M  V30 7000 H 679.414 4.54986 -3.36161 0
M  V30 7001 H 677.971 5.00484 -4.17563 0
M  V30 7002 N 681.404 1.57128 0.121893 0
M  V30 7003 C 682.653 1.83888 0.828748 0
M  V30 7004 C 682.966 0.737087 1.81181 0
M  V30 7005 O 684.172 0.891007 2.56463 0
M  V30 7006 C 682.628 3.26014 1.52455 0
M  V30 7007 C 682.236 4.44195 0.58263 0
M  V30 7008 C 683.98 3.62025 2.21671 0
M  V30 7009 C 681.887 5.77349 1.28149 0
M  V30 7010 H 680.817 0.685856 0.313238 0
M  V30 7011 H 683.468 1.83319 0.0814851 0
M  V30 7012 H 681.85 3.21044 2.31834 0
M  V30 7013 H 683.024 4.60457 -0.177729 0
M  V30 7014 H 681.339 4.164 -0.00241228 0
M  V30 7015 H 683.936 4.58776 2.74643 0
M  V30 7016 H 684.279 2.89315 2.99337 0
M  V30 7017 H 684.812 3.68767 1.49184 0
M  V30 7018 H 681.551 6.53221 0.546189 0
M  V30 7019 H 681.071 5.64978 2.01394 0
M  V30 7020 H 682.75 6.21006 1.81549 0
M  V30 7021 N 682.882 -0.391992 1.52647 0
M  V30 7022 C 684.298 -0.731848 1.41831 0
M  V30 7023 C 684.498 -1.9423 0.536361 0
M  V30 7024 O 683.554 -2.52499 0.00866571 0
M  V30 7025 C 684.867 -0.969743 2.84634 0
M  V30 7026 C 686.415 -1.0714 2.94092 0
M  V30 7027 C 686.89 -1.34195 4.37899 0
M  V30 7028 N 688.381 -1.41023 4.41211 0
M  V30 7029 C 689.116 -1.63616 5.49561 0
M  V30 7030 N 688.612 -1.83699 6.68002 0
M  V30 7031 N 690.405 -1.65771 5.371 0
M  V30 7032 H 682.556 0.404547 2.08512 0
M  V30 7033 H 684.819 0.11879 0.940528 0
M  V30 7034 H 684.525 -0.152465 3.51369 0
M  V30 7035 H 684.399 -1.88523 3.26709 0
M  V30 7036 H 686.786 -1.87925 2.27526 0
M  V30 7037 H 686.867 -0.133887 2.55449 0
M  V30 7038 H 686.511 -0.539207 5.0503 0
M  V30 7039 H 686.441 -2.29226 4.74092 0
M  V30 7040 H 688.932 -1.27223 3.55841 0
M  V30 7041 H 689.245 -2.00437 7.46354 0
M  V30 7042 H 687.59 -1.8093 6.71036 0
M  V30 7043 H 690.781 -1.4963 4.43541 0
M  V30 7044 H 690.954 -1.83038 6.21612 0
M  V30 7045 N 684.36 -1.4356 -0.65026 0
M  V30 7046 C 685.323 -1.48615 -1.74489 0
M  V30 7047 C 686.323 -0.370483 -1.56474 0
M  V30 7048 O 687.513 -0.632351 -1.62317 0
M  V30 7049 C 684.645 -1.34161 -3.13391 0
M  V30 7050 H 685.838 -2.46103 -1.71387 0
M  V30 7051 H 683.391 -1.30369 -0.862186 0
M  V30 7052 H 684.126 -0.376918 -3.22102 0
M  V30 7053 H 683.911 -2.1504 -3.27872 0
M  V30 7054 H 685.401 -1.40637 -3.93206 0
M  V30 7055 N 685.838 0.888903 -1.30139 0
M  V30 7056 C 687.063 1.67884 -1.21777 0
M  V30 7057 C 687.488 1.86848 0.216689 0
M  V30 7058 O 686.846 1.39659 1.15608 0
M  V30 7059 C 686.894 3.03483 -1.94757 0
M  V30 7060 O 685.998 3.92294 -1.27198 0
M  V30 7061 H 685.339 0.513144 -0.421402 0
M  V30 7062 H 687.869 1.10968 -1.71893 0
M  V30 7063 H 687.879 3.53553 -2.03627 0
M  V30 7064 H 686.554 2.89 -2.99085 0
M  V30 7065 H 685.131 3.50732 -1.26655 0
M  V30 7066 N 687.317 1.12792 1.10072 0
M  V30 7067 C 688.565 0.883796 1.81751 0
M  V30 7068 C 688.886 -0.591891 1.858 0
M  V30 7069 O 688.156 -1.43017 1.33876 0
M  V30 7070 H 686.736 0.323978 0.673088 0
M  V30 7071 H 689.398 1.42314 1.33164 0
M  V30 7072 H 688.494 1.26863 2.85153 0
M  V30 7073 N 688.795 -1.27931 0.920396 0
M  V30 7074 C 689.725 -2.29487 0.431024 0
M  V30 7075 C 690.706 -1.62435 -0.504861 0
M  V30 7076 O 691.891 -1.89797 -0.411176 0
M  V30 7077 C 689.021 -3.45788 -0.323709 0
M  V30 7078 C 687.975 -4.24784 0.523658 0
M  V30 7079 C 687.301 -5.33488 -0.359809 0
M  V30 7080 C 688.601 -4.90874 1.78437 0
M  V30 7081 H 690.295 -2.70671 1.27975 0
M  V30 7082 H 687.841 -1.30121 0.616813 0
M  V30 7083 H 689.794 -4.15927 -0.676952 0
M  V30 7084 H 688.518 -3.03502 -1.2064 0
M  V30 7085 H 687.177 -3.56382 0.85951 0
M  V30 7086 H 686.825 -4.87445 -1.24124 0
M  V30 7087 H 686.525 -5.87247 0.203605 0
M  V30 7088 H 688.049 -6.06472 -0.708787 0
M  V30 7089 H 689.463 -5.53339 1.49963 0
M  V30 7090 H 687.86 -5.54659 2.29071 0
M  V30 7091 H 688.93 -4.14988 2.50824 0
M  V30 7092 N 690.273 -0.685099 -1.4193 0
M  V30 7093 C 691.501 -0.220372 -2.05723 0
M  V30 7094 C 691.916 1.12642 -1.51516 0
M  V30 7095 O 691.273 1.70182 -0.659114 0
M  V30 7096 C 691.324 -0.157974 -3.61155 0
M  V30 7097 O 691.045 -1.45156 -4.13354 0
M  V30 7098 C 692.546 0.329009 -4.42077 0
M  V30 7099 H 689.766 -0.104725 -0.662777 0
M  V30 7100 H 692.31 -0.934736 -1.81887 0
M  V30 7101 H 690.465 0.507144 -3.84066 0
M  V30 7102 H 690.879 -1.33172 -5.07312 0
M  V30 7103 H 692.353 0.321559 -5.51063 0
M  V30 7104 H 692.83 1.36608 -4.17414 0
M  V30 7105 H 693.436 -0.304737 -4.24207 0
M  V30 7106 N 691.751 1.51645 -0.429126 0
M  V30 7107 C 692.997 2.02314 0.140286 0
M  V30 7108 C 693.33 1.31314 1.43074 0
M  V30 7109 O 692.605 0.425531 1.89788 0
M  V30 7110 C 692.888 3.5822 0.36749 0
M  V30 7111 C 692.741 4.39846 -0.941039 0
M  V30 7112 C 694.06 4.25055 1.14089 0
M  V30 7113 H 691.179 0.735335 0.0495112 0
M  V30 7114 H 693.821 1.81358 -0.566514 0
M  V30 7115 H 691.971 3.76207 0.969556 0
M  V30 7116 H 693.643 4.33527 -1.57646 0
M  V30 7117 H 691.886 4.05259 -1.54751 0
M  V30 7118 H 692.557 5.47069 -0.73621 0
M  V30 7119 H 695.033 4.11288 0.630986 0
M  V30 7120 H 693.909 5.34038 1.26863 0
M  V30 7121 H 694.17 3.85358 2.16683 0
M  V30 7122 N 693.229 0.160201 1.56784 0
M  V30 7123 C 694.454 -0.497373 2.01348 0
M  V30 7124 C 694.879 -1.56757 1.03966 0
M  V30 7125 O 694.237 -1.81292 0.0174455 0
M  V30 7126 C 694.285 -1.0628 3.44582 0
M  V30 7127 O 693.389 -2.17723 3.50244 0
M  V30 7128 H 692.73 -0.120295 0.653012 0
M  V30 7129 H 695.26 0.260821 2.02931 0
M  V30 7130 H 695.27 -1.38819 3.83658 0
M  V30 7131 H 693.945 -0.279166 4.14962 0
M  V30 7132 H 692.522 -1.86313 3.2302 0
M  V30 7133 N 694.707 -1.5719 -0.113559 0
M  V30 7134 C 695.639 -1.97393 -1.16484 0
M  V30 7135 C 696.652 -0.873964 -1.37352 0
M  V30 7136 O 697.841 -1.15222 -1.36331 0
M  V30 7137 C 694.941 -2.26174 -2.52386 0
M  V30 7138 C 694.114 -3.57479 -2.52046 0
M  V30 7139 C 693.173 -3.74409 -3.69735 0
M  V30 7140 O 692.199 -4.46463 -3.53071 0
M  V30 7141 N 693.401 -3.13588 -4.88511 0
M  V30 7142 H 696.166 -2.88184 -0.822814 0
M  V30 7143 H 693.727 -1.59044 -0.302769 0
M  V30 7144 H 695.719 -2.3471 -3.29687 0
M  V30 7145 H 694.289 -1.41483 -2.7875 0
M  V30 7146 H 693.509 -3.60081 -1.60421 0
M  V30 7147 H 694.797 -4.43775 -2.48881 0
M  V30 7148 H 694.195 -2.55026 -5.04953 0
M  V30 7149 H 692.752 -3.27637 -5.63469 0
M  V30 7150 N 696.185 0.383891 -1.52853 0
M  V30 7151 C 697.115 1.47559 -1.80965 0
M  V30 7152 C 698.096 1.5669 -0.661986 0
M  V30 7153 O 699.281 1.71556 -0.910072 0
M  V30 7154 C 696.411 2.85114 -1.98312 0
M  V30 7155 C 695.365 2.9082 -3.14019 0
M  V30 7156 C 694.691 4.30873 -3.16627 0
M  V30 7157 C 695.991 2.60001 -4.52986 0
M  V30 7158 H 697.685 1.24283 -2.72386 0
M  V30 7159 H 695.231 0.596445 -1.31067 0
M  V30 7160 H 697.184 3.61496 -2.16561 0
M  V30 7161 H 695.908 3.09738 -1.03585 0
M  V30 7162 H 694.567 2.16886 -2.9556 0
M  V30 7163 H 694.215 4.52545 -2.19573 0
M  V30 7164 H 693.915 4.3561 -3.94357 0
M  V30 7165 H 695.439 5.09154 -3.37038 0
M  V30 7166 H 696.853 3.261 -4.71521 0
M  V30 7167 H 695.25 2.76081 -5.32822 0
M  V30 7168 H 696.32 1.5532 -4.59351 0
M  V30 7169 N 697.663 1.43903 0.642637 0
M  V30 7170 C 698.909 1.46296 1.40447 0
M  V30 7171 C 699.242 0.0908361 1.93987 0
M  V30 7172 O 698.517 -0.889884 1.72949 0
M  V30 7173 C 698.8 2.51399 2.57819 0
M  V30 7174 C 698.653 3.97926 2.09702 0
M  V30 7175 C 699.972 2.53125 3.60022 0
M  V30 7176 H 697.091 0.532676 0.509338 0
M  V30 7177 H 699.733 1.75515 0.727635 0
M  V30 7178 H 697.883 2.26614 3.1556 0
M  V30 7179 H 699.555 4.33804 1.5688 0
M  V30 7180 H 697.798 4.10252 1.40982 0
M  V30 7181 H 698.469 4.67096 2.94152 0
M  V30 7182 H 700.945 2.75242 3.12059 0
M  V30 7183 H 699.821 3.28589 4.39682 0
M  V30 7184 H 700.082 1.56895 4.13324 0
M  V30 7185 N 699.141 -0.881989 1.30609 0
M  V30 7186 C 700.366 -1.67236 1.22665 0
M  V30 7187 C 700.791 -1.8696 -0.206777 0
M  V30 7188 O 700.149 -1.4027 -1.14865 0
M  V30 7189 C 700.197 -3.02446 1.96363 0
M  V30 7190 O 699.301 -3.91614 1.29276 0
M  V30 7191 H 698.642 -0.510902 0.424117 0
M  V30 7192 H 701.172 -1.10055 1.72479 0
M  V30 7193 H 701.182 -3.52468 2.055 0
M  V30 7194 H 699.857 -2.8741 3.00613 0
M  V30 7195 H 698.434 -3.50055 1.28514 0
M  V30 7196 N 700.619 -1.13374 -1.09472 0
M  V30 7197 C 701.847 -0.918351 -1.85402 0
M  V30 7198 C 702.262 0.53281 -1.81126 0
M  V30 7199 O 701.619 1.36879 -1.20708 0
M  V30 7200 C 701.67 -1.39743 -3.33398 0
M  V30 7201 O 701.391 -2.79172 -3.37631 0
M  V30 7202 C 702.892 -1.22042 -4.2617 0
M  V30 7203 H 700.112 -0.327511 -0.585643 0
M  V30 7204 H 702.656 -1.50617 -1.38328 0
M  V30 7205 H 700.811 -0.852619 -3.77901 0
M  V30 7206 H 701.225 -3.00428 -4.29934 0
M  V30 7207 H 702.699 -1.60438 -5.2817 0
M  V30 7208 H 703.176 -0.162047 -4.38901 0
M  V30 7209 H 703.782 -1.75323 -3.87482 0
M  V30 7210 N 702.098 1.27442 -0.927168 0
M  V30 7211 C 703.061 2.2512 -0.430525 0
M  V30 7212 C 704.061 1.54357 0.450619 0
M  V30 7213 O 705.251 1.72371 0.251774 0
M  V30 7214 C 702.383 3.38763 0.381144 0
M  V30 7215 H 703.576 2.70569 -1.29354 0
M  V30 7216 H 701.129 1.39355 -0.707806 0
M  V30 7217 H 701.864 2.98695 1.263 0
M  V30 7218 H 701.649 3.91298 -0.250618 0
M  V30 7219 H 703.139 4.11364 0.719012 0
M  V30 7220 N 703.576 0.692616 1.41565 0
M  V30 7221 C 704.822 0.231408 2.02079 0
M  V30 7222 C 705.177 -1.15514 1.53864 0
M  V30 7223 O 704.47 -1.76786 0.73873 0
M  V30 7224 C 704.664 0.225073 3.56691 0
M  V30 7225 C 704.493 1.60947 4.19912 0
M  V30 7226 C 703.263 2.2116 4.54331 0
M  V30 7227 C 705.461 2.55553 4.46315 0
M  V30 7228 N 703.443 3.52195 5.02824 0
M  V30 7229 C 704.814 3.71263 4.96552 0
M  V30 7230 C 706.869 2.53857 4.28323 0
M  V30 7231 C 705.572 4.85555 5.30687 0
M  V30 7232 C 707.598 3.67259 4.63546 0
M  V30 7233 C 706.96 4.81699 5.13951 0
M  V30 7234 H 703.059 0.130001 0.771119 0
M  V30 7235 H 705.643 0.909459 1.72154 0
M  V30 7236 H 703.814 -0.422453 3.86096 0
M  V30 7237 H 705.546 -0.250685 4.03923 0
M  V30 7238 H 702.301 1.73474 4.40685 0
M  V30 7239 H 702.725 4.19354 5.3148 0
M  V30 7240 H 707.367 1.66598 3.88594 0
M  V30 7241 H 705.085 5.73477 5.69341 0
M  V30 7242 H 708.671 3.67195 4.51286 0
M  V30 7243 H 707.551 5.67995 5.40695 0
M  V30 7244 N 705.054 -1.51416 0.437162 0
M  V30 7245 C 706.017 -2.26312 -0.362729 0
M  V30 7246 C 707.017 -1.29748 -0.949847 0
M  V30 7247 O 708.207 -1.53462 -0.824325 0
M  V30 7248 C 705.339 -3.05475 -1.5132 0
M  V30 7249 H 706.532 -2.98459 0.29365 0
M  V30 7250 H 704.085 -1.55137 0.190327 0
M  V30 7251 H 704.82 -2.37744 -2.20563 0
M  V30 7252 H 704.605 -3.76401 -1.09838 0
M  V30 7253 H 706.095 -3.62209 -2.07833 0
M  V30 7254 N 706.532 -0.168513 -1.56696 0
M  V30 7255 C 707.495 0.748928 -2.16619 0
M  V30 7256 C 708.495 1.16007 -1.11351 0
M  V30 7257 O 709.685 1.07748 -1.3688 0
M  V30 7258 C 706.817 2.01904 -2.74677 0
M  V30 7259 H 708.01 0.227317 -2.99037 0
M  V30 7260 H 705.563 0.0810372 -1.5609 0
M  V30 7261 H 706.298 2.58381 -1.95985 0
M  V30 7262 H 706.083 1.73323 -3.51712 0
M  V30 7263 H 707.573 2.67383 -3.20774 0
M  V30 7264 N 708.01 1.57248 0.105221 0
M  V30 7265 C 708.973 2.00388 1.11252 0
M  V30 7266 C 709.973 0.89594 1.33527 0
M  V30 7267 O 711.163 1.16166 1.29811 0
M  V30 7268 C 708.295 2.35589 2.46395 0
M  V30 7269 H 709.488 2.90591 0.741424 0
M  V30 7270 H 707.041 1.52332 0.349956 0
M  V30 7271 H 707.776 1.4831 2.884 0
M  V30 7272 H 707.561 3.16408 2.31578 0
M  V30 7273 H 709.051 2.69658 3.18864 0
M  V30 7274 N 709.488 -0.375779 1.53054 0
M  V30 7275 C 710.713 -1.14484 1.7294 0
M  V30 7276 C 711.138 -1.82572 0.452668 0
M  V30 7277 O 710.496 -1.71343 -0.592567 0
M  V30 7278 C 710.544 -2.15857 2.88857 0
M  V30 7279 O 709.648 -3.22725 2.56753 0
M  V30 7280 H 708.989 -0.332666 0.574656 0
M  V30 7281 H 711.519 -0.436025 1.999 0
M  V30 7282 H 711.529 -2.59631 3.14731 0
M  V30 7283 H 710.204 -1.65689 3.81471 0
M  V30 7284 H 708.781 -2.83996 2.41663 0
M  V30 7285 N 710.966 -1.44241 -0.634997 0
M  V30 7286 C 712.191 -1.50516 -1.42687 0
M  V30 7287 C 712.616 -0.129864 -1.87651 0
M  V30 7288 O 711.974 0.880164 -1.58502 0
M  V30 7289 C 712.022 -2.4714 -2.62591 0
M  V30 7290 O 711.126 -1.97025 -3.62291 0
M  V30 7291 H 710.467 -0.50841 -0.427101 0
M  V30 7292 H 712.997 -1.89337 -0.775408 0
M  V30 7293 H 713.007 -2.65048 -3.10183 0
M  V30 7294 H 711.682 -3.47039 -2.29209 0
M  V30 7295 H 710.259 -1.88866 -3.21534 0
M  V30 7296 N 712.444 0.87505 -1.31075 0
M  V30 7297 C 713.691 1.62768 -1.20469 0
M  V30 7298 C 714.019 1.93034 0.23834 0
M  V30 7299 O 713.274 1.55693 1.18567 0
M  V30 7300 C 713.573 2.96948 -1.98888 0
M  V30 7301 C 713.239 2.86195 -3.4843 0
M  V30 7302 C 711.901 2.82969 -3.89207 0
M  V30 7303 C 714.253 2.73599 -4.43614 0
M  V30 7304 C 711.581 2.64999 -5.23443 0
M  V30 7305 C 713.933 2.57166 -5.77969 0
M  V30 7306 C 712.597 2.52321 -6.17973 0
M  V30 7307 H 711.867 0.595611 -0.440827 0
M  V30 7308 H 714.514 1.01665 -1.62285 0
M  V30 7309 H 712.819 3.62058 -1.49737 0
M  V30 7310 H 714.516 3.54164 -1.88067 0
M  V30 7311 H 711.106 2.8952 -3.16032 0
M  V30 7312 H 715.29 2.7515 -4.13045 0
M  V30 7313 H 710.546 2.5967 -5.53517 0
M  V30 7314 H 714.72 2.46396 -6.51354 0
M  V30 7315 H 712.347 2.38156 -7.21932 0
M  V30 7316 N 713.922 1.13953 1.08869 0
M  V30 7317 C 715.338 0.878924 1.33218 0
M  V30 7318 C 715.538 -0.482478 1.95638 0
M  V30 7319 O 714.594 -1.22778 2.2064 0
M  V30 7320 C 715.907 2.00798 2.23832 0
M  V30 7321 C 717.455 2.04073 2.37325 0
M  V30 7322 C 717.93 3.16258 3.31278 0
M  V30 7323 N 719.421 3.15805 3.38853 0
M  V30 7324 C 720.156 3.99249 4.11567 0
M  V30 7325 N 719.652 4.92721 4.87029 0
M  V30 7326 N 721.445 3.87327 4.0735 0
M  V30 7327 H 713.596 2.01645 0.66731 0
M  V30 7328 H 715.859 0.878395 0.356547 0
M  V30 7329 H 715.565 2.98986 1.85203 0
M  V30 7330 H 715.439 1.92704 3.24261 0
M  V30 7331 H 717.826 1.06495 2.75214 0
M  V30 7332 H 717.907 2.16239 1.36654 0
M  V30 7333 H 717.551 4.14079 2.9411 0
M  V30 7334 H 717.481 3.0133 4.31866 0
M  V30 7335 H 719.972 2.48102 2.8505 0
M  V30 7336 H 720.285 5.52867 5.39961 0
M  V30 7337 H 718.63 4.96723 4.86098 0
M  V30 7338 H 721.821 3.13627 3.475 0
M  V30 7339 H 721.994 4.52585 4.63757 0
M  V30 7340 N 715.4 -1.26948 0.933913 0
M  V30 7341 C 716.648 -1.93704 0.576484 0
M  V30 7342 C 716.969 -1.73702 -0.886145 0
M  V30 7343 O 716.239 -1.08838 -1.62884 0
M  V30 7344 H 714.819 -0.716812 0.210214 0
M  V30 7345 H 717.481 -1.54534 1.18766 0
M  V30 7346 H 716.577 -3.01987 0.788055 0
M  V30 7347 N 716.879 -0.700114 -1.41195 0
M  V30 7348 C 718.104 -0.240704 -2.05998 0
M  V30 7349 C 718.529 1.10313 -1.52357 0
M  V30 7350 O 717.887 1.69154 -0.652424 0
M  V30 7351 C 717.935 -0.213783 -3.59966 0
M  V30 7352 O 717.039 0.809933 -4.04368 0
M  V30 7353 H 716.38 -0.116471 -0.653705 0
M  V30 7354 H 718.91 -0.956251 -1.80878 0
M  V30 7355 H 718.92 -0.0461852 -4.07974 0
M  V30 7356 H 717.595 -1.19454 -3.98376 0
M  V30 7357 H 716.172 0.611319 -3.67855 0
M  V30 7358 N 718.357 1.51182 -0.445186 0
M  V30 7359 C 719.634 1.9478 0.178965 0
M  V30 7360 C 720.014 1.38428 1.59376 0
M  V30 7361 O 719.362 0.574552 2.21159 0
M  V30 7362 C 719.572 3.48683 0.148711 0
M  V30 7363 C 720.92 4.23152 0.35042 0
M  V30 7364 O 721.944 3.55479 0.226474 0
M  V30 7365 O 720.803 5.4322 0.597893 0
M  V30 7366 H 717.897 0.817387 0.12573 0
M  V30 7367 H 720.443 1.62051 -0.503729 0
M  V30 7368 H 719.215 3.82176 -0.84009 0
M  V30 7369 H 718.838 3.87875 0.873979 0
M  V30 7370 N 719.835 0.176821 1.56605 0
M  V30 7371 C 720.782 -0.751312 2.18229 0
M  V30 7372 C 721.752 -1.22297 1.12395 0
M  V30 7373 O 722.937 -1.29015 1.40569 0
M  V30 7374 C 720.077 -1.97291 2.83143 0
M  V30 7375 C 719.19 -1.54431 4.03454 0
M  V30 7376 C 718.325 -2.72 4.56278 0
M  V30 7377 C 717.364 -2.25657 5.68986 0
M  V30 7378 N 716.501 -3.36338 6.16296 0
M  V30 7379 H 721.341 -0.219033 2.97194 0
M  V30 7380 H 718.878 -0.0963803 1.46784 0
M  V30 7381 H 720.836 -2.68949 3.1894 0
M  V30 7382 H 719.466 -2.4788 2.06773 0
M  V30 7383 H 718.518 -0.724273 3.73441 0
M  V30 7384 H 719.83 -1.16417 4.85024 0
M  V30 7385 H 718.984 -3.51806 4.94285 0
M  V30 7386 H 717.723 -3.13277 3.73777 0
M  V30 7387 H 716.728 -1.44299 5.30526 0
M  V30 7388 H 717.953 -1.85432 6.53293 0
M  V30 7389 H 715.899 -3.7718 5.36723 0
M  V30 7390 H 715.816 -3.02435 6.9287 0
M  V30 7391 H 717.084 -4.16413 6.58954 0
M  V30 7392 N 721.313 -1.57302 -0.09688 0
M  V30 7393 C 722.729 -1.53094 -0.451041 0
M  V30 7394 C 722.929 -0.893265 -1.80618 0
M  V30 7395 O 721.985 -0.485013 -2.47798 0
M  V30 7396 C 723.298 -2.9782 -0.415172 0
M  V30 7397 C 724.846 -3.09026 -0.497155 0
M  V30 7398 C 725.321 -4.55356 -0.491452 0
M  V30 7399 N 726.812 -4.59896 -0.552258 0
M  V30 7400 C 727.547 -5.70563 -0.569654 0
M  V30 7401 N 727.043 -6.90666 -0.543365 0
M  V30 7402 N 728.836 -5.58733 -0.614331 0
M  V30 7403 H 720.987 -1.97131 0.790771 0
M  V30 7404 H 723.25 -0.901211 0.294147 0
M  V30 7405 H 722.956 -3.47933 0.513362 0
M  V30 7406 H 722.83 -3.56416 -1.23481 0
M  V30 7407 H 725.217 -2.58902 -1.41611 0
M  V30 7408 H 725.298 -2.53386 0.35059 0
M  V30 7409 H 724.942 -5.06131 0.423549 0
M  V30 7410 H 724.872 -5.08832 -1.35639 0
M  V30 7411 H 727.363 -3.73456 -0.577842 0
M  V30 7412 H 727.676 -7.70769 -0.559873 0
M  V30 7413 H 726.021 -6.93123 -0.510441 0
M  V30 7414 H 729.212 -4.63809 -0.632387 0
M  V30 7415 H 729.385 -6.44984 -0.62442 0
M  V30 7416 N 722.791 0.367657 -1.53252 0
M  V30 7417 C 724.039 1.10832 -1.68999 0
M  V30 7418 C 724.36 1.89894 -0.443306 0
M  V30 7419 O 723.63 1.88235 0.54262 0
M  V30 7420 H 722.21 0.412153 -0.623008 0
M  V30 7421 H 724.872 0.414775 -1.90435 0
M  V30 7422 H 723.968 1.7993 -2.55013 0
M  V30 7423 N 724.269 1.44576 0.627338 0
M  V30 7424 C 725.517 1.47267 1.38408 0
M  V30 7425 C 725.838 0.107971 1.94701 0
M  V30 7426 O 725.108 -0.860206 1.76004 0
M  V30 7427 H 723.688 0.542276 0.513756 0
M  V30 7428 H 726.35 1.80383 0.738099 0
M  V30 7429 H 725.446 2.20025 2.21349 0
M  V30 7430 N 725.747 -0.868086 1.31537 0
M  V30 7431 C 726.71 -1.95703 1.19302 0
M  V30 7432 C 727.71 -1.60355 0.119612 0
M  V30 7433 O 728.9 -1.70247 0.36902 0
M  V30 7434 C 726.032 -3.30599 0.831684 0
M  V30 7435 H 727.225 -2.07982 2.16064 0
M  V30 7436 H 724.778 -1.05661 1.15176 0
M  V30 7437 H 725.513 -3.2402 -0.134694 0
M  V30 7438 H 725.298 -3.57629 1.60761 0
M  V30 7439 H 726.788 -4.10439 0.770026 0
M  V30 7440 N 727.225 -1.14528 -1.08264 0
M  V30 7441 C 728.173 -0.829201 -2.17318 0
M  V30 7442 C 729.167 0.193521 -1.68291 0
M  V30 7443 O 730.373 0.0494744 -1.79932 0
M  V30 7444 H 726.748 -0.250435 -0.709074 0
M  V30 7445 H 728.719 -1.75683 -2.41201 0
M  V30 7446 C 727.468 -0.324663 -3.46181 0
M  V30 7447 H 726.791 -1.10299 -3.84284 0
M  V30 7448 H 728.231 -0.142059 -4.23762 0
M  V30 7449 C 726.69 0.952033 -3.23169 0
M  V30 7450 O 727.22 2.02549 -3.46896 0
M  V30 7451 N 725.426 0.887854 -2.76705 0
M  V30 7452 H 724.973 0.0141402 -2.57596 0
M  V30 7453 H 724.931 1.74263 -2.61686 0
M  V30 7454 N 728.703 1.26451 -0.940633 0
M  V30 7455 C 729.951 1.93395 -0.586748 0
M  V30 7456 C 730.272 1.7417 0.876921 0
M  V30 7457 O 729.542 1.097 1.62304 0
M  V30 7458 H 728.122 0.715687 -0.214012 0
M  V30 7459 H 730.784 1.53902 -1.19584 0
M  V30 7460 H 729.88 3.01565 -0.804059 0
M  V30 7461 N 730.181 0.707592 1.40822 0
M  V30 7462 C 731.429 0.243189 2.00632 0
M  V30 7463 C 731.75 -1.16512 1.56365 0
M  V30 7464 O 731.02 -1.78841 0.799553 0
M  V30 7465 H 729.6 0.0869203 0.741926 0
M  V30 7466 H 732.262 0.911438 1.72275 0
M  V30 7467 H 731.358 0.270014 3.1093 0
M  V30 7468 N 731.66 -1.50943 0.453197 0
M  V30 7469 C 733.076 -1.59245 0.106342 0
M  V30 7470 C 733.276 -1.46287 -1.38572 0
M  V30 7471 O 732.332 -1.31219 -2.15726 0
M  V30 7472 C 733.645 -2.93797 0.640595 0
M  V30 7473 C 735.193 -3.07148 0.602435 0
M  V30 7474 C 735.668 -4.44247 1.11393 0
M  V30 7475 N 737.159 -4.50611 1.07258 0
M  V30 7476 C 737.894 -5.55049 1.43905 0
M  V30 7477 N 737.39 -6.66828 1.87914 0
M  V30 7478 N 739.183 -5.45494 1.35621 0
M  V30 7479 H 731.334 -1.5761 1.42382 0
M  V30 7480 H 733.597 -0.74384 0.587713 0
M  V30 7481 H 733.303 -3.087 1.68515 0
M  V30 7482 H 733.177 -3.77127 0.0742272 0
M  V30 7483 H 735.564 -2.91903 -0.433171 0
M  V30 7484 H 735.645 -2.25619 1.20539 0
M  V30 7485 H 735.289 -4.60239 2.14808 0
M  V30 7486 H 735.219 -5.2434 0.487353 0
M  V30 7487 H 737.71 -3.70391 0.749585 0
M  V30 7488 H 738.023 -7.42558 2.14072 0
M  V30 7489 H 736.368 -6.67995 1.91853 0
M  V30 7490 H 739.559 -4.57053 1.01093 0
M  V30 7491 H 739.732 -6.2677 1.64508 0
M  V30 7492 N 733.138 -0.185124 -1.56509 0
M  V30 7493 C 734.387 0.456421 -1.96468 0
M  V30 7494 C 734.7 1.63448 -1.07444 0
M  V30 7495 O 735.906 2.34316 -1.37143 0
M  V30 7496 C 734.362 0.863404 -3.4939 0
M  V30 7497 C 733.97 -0.289815 -4.47062 0
M  V30 7498 C 735.714 1.47259 -3.98139 0
M  V30 7499 C 733.621 0.137571 -5.9124 0
M  V30 7500 H 732.551 0.17429 -0.733579 0
M  V30 7501 H 735.202 -0.275554 -1.81419 0
M  V30 7502 H 733.584 1.65176 -3.59907 0
M  V30 7503 H 734.758 -1.06728 -4.4827 0
M  V30 7504 H 733.073 -0.809851 -4.08449 0
M  V30 7505 H 735.67 1.80463 -5.03326 0
M  V30 7506 H 736.013 2.3755 -3.41871 0
M  V30 7507 H 736.546 0.748405 -3.90696 0
M  V30 7508 H 733.285 -0.730907 -6.51412 0
M  V30 7509 H 732.805 0.8801 -5.93308 0
M  V30 7510 H 734.484 0.576771 -6.44424 0
M  V30 7511 N 734.616 1.57351 0.0885366 0
M  V30 7512 C 736.032 1.53331 0.442916 0
M  V30 7513 C 736.232 0.902831 1.80142 0
M  V30 7514 O 735.288 0.498147 2.47537 0
M  V30 7515 C 736.601 2.98036 0.399372 0
M  V30 7516 C 738.149 3.09286 0.480759 0
M  V30 7517 C 738.624 4.5561 0.467296 0
M  V30 7518 N 740.115 4.60182 0.52786 0
M  V30 7519 C 740.85 5.70857 0.539388 0
M  V30 7520 N 740.346 6.90944 0.506729 0
M  V30 7521 N 742.139 5.59051 0.584691 0
M  V30 7522 H 734.29 1.96709 -0.801215 0
M  V30 7523 H 736.553 0.899639 -0.298922 0
M  V30 7524 H 736.259 3.47656 -0.531806 0
M  V30 7525 H 736.133 3.57066 1.21589 0
M  V30 7526 H 738.52 2.5965 1.40236 0
M  V30 7527 H 738.601 2.53197 -0.364023 0
M  V30 7528 H 738.245 5.05899 -0.450384 0
M  V30 7529 H 738.175 5.09544 1.32938 0
M  V30 7530 H 740.666 3.73757 0.558028 0
M  V30 7531 H 740.979 7.71055 0.518989 0
M  V30 7532 H 739.324 6.93384 0.473675 0
M  V30 7533 H 742.515 4.64138 0.607781 0
M  V30 7534 H 742.688 6.45307 0.590206 0
M  V30 7535 N 736.094 -0.359525 1.53444 0
M  V30 7536 C 737.024 -1.44662 1.8329 0
M  V30 7537 C 738.005 -1.55617 0.68683 0
M  V30 7538 O 739.19 -1.70086 0.93725 0
M  V30 7539 C 736.32 -2.81923 2.02822 0
M  V30 7540 C 735.274 -2.85787 3.18606 0
M  V30 7541 C 734.6 -4.25781 3.23442 0
M  V30 7542 C 735.9 -2.52762 4.57065 0
M  V30 7543 H 737.594 -1.19934 2.74329 0
M  V30 7544 H 735.14 -0.575517 1.31999 0
M  V30 7545 H 737.093 -3.58005 2.22285 0
M  V30 7546 H 735.817 -3.08051 1.085 0
M  V30 7547 H 734.476 -2.12157 2.98973 0
M  V30 7548 H 734.124 -4.48994 2.26745 0
M  V30 7549 H 733.824 -4.29281 4.01238 0
M  V30 7550 H 735.348 -5.03727 3.45096 0
M  V30 7551 H 736.762 -3.18557 4.76649 0
M  V30 7552 H 735.159 -2.67569 5.37147 0
M  V30 7553 H 736.229 -1.47993 4.61764 0
M  V30 7554 N 737.572 -1.44907 -0.619662 0
M  V30 7555 C 738.504 -1.48652 -1.74457 0
M  V30 7556 C 739.517 -0.378596 -1.58337 0
M  V30 7557 O 740.706 -0.644987 -1.6644 0
M  V30 7558 C 737.806 -1.31568 -3.12319 0
M  V30 7559 C 736.979 -2.55816 -3.54792 0
M  V30 7560 C 736.038 -2.33465 -4.71573 0
M  V30 7561 O 735.064 -3.07015 -4.79302 0
M  V30 7562 N 736.266 -1.37254 -5.6404 0
M  V30 7563 H 739.031 -2.45632 -1.71712 0
M  V30 7564 H 736.592 -1.40492 -0.804582 0
M  V30 7565 H 738.584 -1.14445 -3.88181 0
M  V30 7566 H 737.154 -0.429095 -3.09641 0
M  V30 7567 H 736.374 -2.88137 -2.69018 0
M  V30 7568 H 737.662 -3.38431 -3.79924 0
M  V30 7569 H 737.06 -0.765309 -5.60499 0
M  V30 7570 H 735.617 -1.26106 -6.39485 0
M  V30 7571 N 739.05 0.861098 -1.31996 0
M  V30 7572 C 740.461 1.43065 -1.19955 0
M  V30 7573 C 740.812 1.95273 0.190489 0
M  V30 7574 O 739.937 1.87012 1.08882 0
M  V30 7575 C 740.532 2.60052 -2.1716 0
M  V30 7576 C 739.091 3.13026 -2.09026 0
M  V30 7577 C 738.238 1.85756 -2.05888 0
M  V30 7578 H 741.189 0.668834 -1.43918 0
M  V30 7579 H 741.21 3.37016 -1.76637 0
M  V30 7580 H 740.722 2.22024 -3.18319 0
M  V30 7581 H 738.823 3.55653 -1.11092 0
M  V30 7582 H 738.936 3.74707 -2.98549 0
M  V30 7583 H 737.3 2.05088 -1.51033 0
M  V30 7584 H 738.083 1.49954 -3.08818 0
M  V30 7585 N 740.528 1.15101 1.07655 0
M  V30 7586 C 741.46 0.802722 2.14684 0
M  V30 7587 C 742.473 -0.183874 1.61758 0
M  V30 7588 O 743.662 0.0389349 1.78458 0
M  V30 7589 C 740.762 0.172135 3.38463 0
M  V30 7590 C 739.935 1.19538 4.20749 0
M  V30 7591 C 738.994 0.58714 5.22914 0
M  V30 7592 O 738.02 1.25224 5.55255 0
M  V30 7593 N 739.222 -0.632566 5.77043 0
M  V30 7594 H 741.987 1.72379 2.45164 0
M  V30 7595 H 739.548 1.04647 1.23534 0
M  V30 7596 H 741.54 -0.247465 4.03943 0
M  V30 7597 H 740.11 -0.652214 3.0572 0
M  V30 7598 H 739.33 1.79165 3.51132 0
M  V30 7599 H 740.618 1.88636 4.7254 0
M  V30 7600 H 740.016 -1.19135 5.53013 0
M  V30 7601 H 738.573 -0.994566 6.44167 0
M  V30 7602 N 742.006 -1.2595 0.947325 0
M  V30 7603 C 743.252 -1.9375 0.599064 0
M  V30 7604 C 743.585 -1.74088 -0.860632 0
M  V30 7605 O 742.86 -1.08158 -1.61654 0
M  V30 7606 C 743.143 -3.47353 0.949634 0
M  V30 7607 C 742.996 -3.76273 2.46452 0
M  V30 7608 C 744.315 -4.37589 0.469442 0
M  V30 7609 H 741.434 -0.703674 0.219115 0
M  V30 7610 H 744.076 -1.48705 1.18266 0
M  V30 7611 H 742.226 -3.8585 0.453008 0
M  V30 7612 H 743.898 -3.47455 3.03435 0
M  V30 7613 H 742.141 -3.22135 2.90537 0
M  V30 7614 H 742.812 -4.83664 2.66032 0
M  V30 7615 H 745.288 -4.06353 0.89534 0
M  V30 7616 H 744.164 -5.43841 0.7435 0
M  V30 7617 H 744.425 -4.37579 -0.630618 0
M  V30 7618 N 743.484 -0.715051 -1.40445 0
M  V30 7619 C 744.732 -0.253826 -2.005 0
M  V30 7620 C 745.053 1.15681 -1.5698 0
M  V30 7621 O 744.323 1.78414 -0.809027 0
M  V30 7622 H 742.903 -0.0908537 -0.741454 0
M  V30 7623 H 745.565 -0.920561 -1.7179 0
M  V30 7624 H 744.661 -0.286499 -3.10782 0
M  V30 7625 N 744.962 1.50701 -0.461195 0
M  V30 7626 C 746.208 2.03203 0.0895017 0
M  V30 7627 C 746.563 1.33768 1.38289 0
M  V30 7628 O 745.856 0.451304 1.86209 0
M  V30 7629 C 746.05 3.55788 0.33908 0
M  V30 7630 C 745.879 4.40009 -0.928571 0
M  V30 7631 C 744.649 4.83475 -1.46903 0
M  V30 7632 C 746.847 4.80972 -1.82129 0
M  V30 7633 N 744.829 5.51985 -2.68673 0
M  V30 7634 C 746.2 5.48792 -2.88491 0
M  V30 7635 C 748.255 4.62937 -1.83285 0
M  V30 7636 C 746.958 6.00489 -3.95987 0
M  V30 7637 C 748.984 5.15568 -2.89731 0
M  V30 7638 C 748.346 5.83355 -3.94812 0
M  V30 7639 H 744.445 0.781968 -0.00702462 0
M  V30 7640 H 747.029 1.84321 -0.627195 0
M  V30 7641 H 745.2 3.74636 1.02481 0
M  V30 7642 H 746.932 3.94944 0.883242 0
M  V30 7643 H 743.687 4.62495 -1.01959 0
M  V30 7644 H 744.111 5.90854 -3.30486 0
M  V30 7645 H 748.753 4.0997 -1.03366 0
M  V30 7646 H 746.471 6.52499 -4.7673 0
M  V30 7647 H 750.057 5.0345 -2.91597 0
M  V30 7648 H 748.937 6.23347 -4.75824 0
M  V30 7649 N 746.441 0.193421 1.56409 0
M  V30 7650 C 747.351 -0.740112 2.2262 0
M  V30 7651 C 748.367 -1.23597 1.22474 0
M  V30 7652 O 749.543 -1.28348 1.55206 0
M  V30 7653 C 746.608 -1.94317 2.87127 0
M  V30 7654 C 745.669 -1.49205 4.02538 0
M  V30 7655 C 744.902 -2.63776 4.63959 0
M  V30 7656 O 745.125 -3.81215 4.24301 0
M  V30 7657 O 744.059 -2.36585 5.53454 0
M  V30 7658 H 747.885 -0.206238 3.02999 0
M  V30 7659 H 745.47 -0.0357938 1.49357 0
M  V30 7660 H 747.352 -2.64633 3.27944 0
M  V30 7661 H 746.027 -2.46568 2.09728 0
M  V30 7662 H 744.934 -0.757738 3.66346 0
M  V30 7663 H 746.267 -1.01622 4.81595 0
M  V30 7664 N 747.919 -1.57396 -0.0801906 0
M  V30 7665 C 749.165 -1.87113 -0.782083 0
M  V30 7666 C 749.498 -0.78458 -1.77646 0
M  V30 7667 O 748.773 0.205993 -1.93406 0
M  V30 7668 C 749.056 -3.27483 -1.49756 0
M  V30 7669 C 748.909 -4.46782 -0.520171 0
M  V30 7670 C 750.228 -3.65965 -2.44454 0
M  V30 7671 H 747.347 -0.680559 -0.282858 0
M  V30 7672 H 749.989 -1.89946 -0.0454139 0
M  V30 7673 H 748.139 -3.25199 -2.12551 0
M  V30 7674 H 749.811 -4.61187 0.101919 0
M  V30 7675 H 748.054 -4.33485 0.165219 0
M  V30 7676 H 748.725 -5.41761 -1.05824 0
M  V30 7677 H 751.201 -3.69289 -1.91742 0
M  V30 7678 H 750.077 -4.65086 -2.91524 0
M  V30 7679 H 750.338 -2.95446 -3.28883 0
M  V30 7680 N 749.397 0.351382 -1.53633 0
M  V30 7681 C 750.345 1.45142 -1.8176 0
M  V30 7682 C 751.339 1.54819 -0.687571 0
M  V30 7683 O 752.545 1.57536 -0.870772 0
M  V30 7684 H 748.92 0.483789 -0.575719 0
M  V30 7685 H 750.891 1.1863 -2.73806 0
M  V30 7686 C 749.64 2.81779 -2.03706 0
M  V30 7687 H 748.963 2.75097 -2.90107 0
M  V30 7688 H 750.403 3.5789 -2.27356 0
M  V30 7689 C 748.862 3.26762 -0.820271 0
M  V30 7690 O 749.392 4.01697 -0.0158603 0
M  V30 7691 N 747.598 2.83472 -0.639699 0
M  V30 7692 H 747.145 2.22655 -1.29547 0
M  V30 7693 H 747.103 3.13924 0.172995 0
M  V30 7694 N 750.875 1.45233 0.611969 0
M  V30 7695 C 752.152 1.39495 1.37115 0
M  V30 7696 C 752.532 0.0633303 2.11005 0
M  V30 7697 O 751.88 -0.954617 2.07604 0
M  V30 7698 C 752.09 2.60579 2.32163 0
M  V30 7699 C 753.438 3.05477 2.94905 0
M  V30 7700 O 754.462 2.60921 2.42485 0
M  V30 7701 O 753.321 3.82787 3.90047 0
M  V30 7702 H 750.415 0.55335 0.614599 0
M  V30 7703 H 752.961 1.57355 0.635423 0
M  V30 7704 H 751.733 3.49085 1.76793 0
M  V30 7705 H 751.356 2.45031 3.13122 0
M  V30 7706 N 752.353 -0.854086 1.3245 0
M  V30 7707 C 753.764 -1.42427 1.20712 0
M  V30 7708 C 754.115 -1.95371 -0.18013 0
M  V30 7709 O 753.24 -1.87587 -1.07889 0
M  V30 7710 C 753.835 -2.58897 2.18536 0
M  V30 7711 C 752.394 -3.11913 2.10683 0
M  V30 7712 C 751.541 -1.84661 2.06871 0
M  V30 7713 H 754.492 -0.661192 1.4427 0
M  V30 7714 H 754.513 -3.36074 1.78422 0
M  V30 7715 H 754.025 -2.20333 3.19492 0
M  V30 7716 H 752.126 -3.55059 1.12977 0
M  V30 7717 H 752.239 -3.73119 3.00532 0
M  V30 7718 H 750.603 -2.04285 1.52118 0
M  V30 7719 H 751.386 -1.48314 3.09609 0
M  V30 7720 N 753.831 -1.1567 -1.07043 0
M  V30 7721 C 755.108 -0.843948 -1.76456 0
M  V30 7722 C 755.488 0.659806 -2.00524 0
M  V30 7723 O 754.836 1.60518 -1.62623 0
M  V30 7724 C 755.046 -1.65822 -3.0709 0
M  V30 7725 C 756.394 -1.8664 -3.8138 0
M  V30 7726 O 757.418 -1.62624 -3.1691 0
M  V30 7727 O 756.277 -2.26884 -4.97178 0
M  V30 7728 H 753.371 -0.310677 -0.766426 0
M  V30 7729 H 755.917 -1.26266 -1.1338 0
M  V30 7730 H 754.689 -2.67902 -2.85209 0
M  V30 7731 H 754.312 -1.23605 -3.77899 0
M  V30 7732 N 755.309 1.25446 -0.953992 0
M  V30 7733 C 756.557 1.92762 -0.607227 0
M  V30 7734 C 756.878 1.7509 0.858399 0
M  V30 7735 O 756.148 1.11416 1.61132 0
M  V30 7736 H 754.728 0.713377 -0.221591 0
M  V30 7737 H 757.39 1.52625 -1.21209 0
M  V30 7738 H 756.486 3.00695 -0.835998 0
M  V30 7739 N 756.787 0.722489 1.40064 0
M  V30 7740 C 758.064 0.191829 1.94657 0
M  V30 7741 C 758.444 -1.30389 1.66018 0
M  V30 7742 O 757.792 -2.06342 0.981588 0
M  V30 7743 C 758.002 0.511978 3.45224 0
M  V30 7744 C 759.35 0.454426 4.22161 0
M  V30 7745 O 760.374 0.448438 3.53366 0
M  V30 7746 O 759.233 0.437986 5.44742 0
M  V30 7747 H 756.327 0.0307821 0.826427 0
M  V30 7748 H 758.873 0.800493 1.49634 0
M  V30 7749 H 757.645 1.54622 3.59455 0
M  V30 7750 H 757.268 -0.126296 3.97399 0
M  V30 7751 N 758.265 -1.50454 0.469181 0
M  V30 7752 C 759.195 -2.31353 -0.31592 0
M  V30 7753 C 760.176 -1.38172 -0.992094 0
M  V30 7754 O 761.361 -1.67093 -0.989633 0
M  V30 7755 C 758.491 -3.1786 -1.39937 0
M  V30 7756 C 757.445 -4.19578 -0.844909 0
M  V30 7757 C 756.771 -4.9481 -2.0265 0
M  V30 7758 C 758.071 -5.22106 0.142499 0
M  V30 7759 H 759.765 -2.97237 0.359269 0
M  V30 7760 H 757.311 -1.42942 0.174224 0
M  V30 7761 H 759.264 -3.7325 -1.95607 0
M  V30 7762 H 757.988 -2.49858 -2.1033 0
M  V30 7763 H 756.647 -3.65285 -0.310189 0
M  V30 7764 H 756.295 -4.23282 -2.71737 0
M  V30 7765 H 755.995 -5.63613 -1.66174 0
M  V30 7766 H 757.519 -5.53035 -2.58815 0
M  V30 7767 H 758.933 -5.72378 -0.324966 0
M  V30 7768 H 757.33 -5.98618 0.421441 0
M  V30 7769 H 758.4 -4.7297 1.06901 0
M  V30 7770 N 759.743 -0.201713 -1.56304 0
M  V30 7771 C 761.159 0.154025 -1.58855 0
M  V30 7772 C 761.359 1.60516 -1.21807 0
M  V30 7773 O 760.415 2.34193 -0.94393 0
M  V30 7774 C 761.728 -0.154319 -3.00304 0
M  V30 7775 C 763.276 -0.0949578 -3.12856 0
M  V30 7776 C 763.751 -0.376703 -4.56448 0
M  V30 7777 N 765.242 -0.325558 -4.62054 0
M  V30 7778 C 765.977 -0.51732 -5.71062 0
M  V30 7779 N 765.473 -0.769789 -6.8851 0
M  V30 7780 N 767.266 -0.45112 -5.60287 0
M  V30 7781 H 759.417 -1.14858 -1.78666 0
M  V30 7782 H 761.68 -0.458934 -0.829508 0
M  V30 7783 H 761.386 -1.16074 -3.31994 0
M  V30 7784 H 761.26 0.540014 -3.73314 0
M  V30 7785 H 763.647 0.902075 -2.80974 0
M  V30 7786 H 763.728 -0.822468 -2.42217 0
M  V30 7787 H 763.372 -1.37108 -4.89044 0
M  V30 7788 H 763.302 0.371772 -5.25286 0
M  V30 7789 H 765.793 -0.137308 -3.7765 0
M  V30 7790 H 766.106 -0.904744 -7.67486 0
M  V30 7791 H 764.451 -0.806758 -6.90302 0
M  V30 7792 H 767.642 -0.254253 -4.67409 0
M  V30 7793 H 767.815 -0.603982 -6.45179 0
M  V30 7794 N 761.222 1.57436 0.0718424 0
M  V30 7795 C 762.169 2.03686 1.08539 0
M  V30 7796 C 763.139 0.917474 1.38462 0
M  V30 7797 O 764.324 1.18513 1.4953 0
M  V30 7798 C 761.464 2.48566 2.39393 0
M  V30 7799 C 760.577 3.74122 2.16001 0
M  V30 7800 C 759.712 4.07786 3.40418 0
M  V30 7801 C 758.751 5.26383 3.1239 0
M  V30 7802 N 757.888 5.55685 4.29138 0
M  V30 7803 H 762.728 2.90043 0.684018 0
M  V30 7804 H 760.265 1.43438 0.326183 0
M  V30 7805 H 762.223 2.72639 3.15791 0
M  V30 7806 H 760.853 1.65186 2.77333 0
M  V30 7807 H 759.905 3.57389 1.30296 0
M  V30 7808 H 761.217 4.60659 1.91298 0
M  V30 7809 H 760.371 4.32759 4.25211 0
M  V30 7810 H 759.11 3.19817 3.68197 0
M  V30 7811 H 758.115 5.01206 2.25993 0
M  V30 7812 H 759.34 6.1597 2.85934 0
M  V30 7813 H 757.286 4.70675 4.56948 0
M  V30 7814 H 757.203 6.3664 4.07708 0
M  V30 7815 H 758.471 5.85209 5.14928 0
M  V30 7816 N 762.7 -0.34323 1.53817 0
M  V30 7817 C 763.946 -1.08504 1.71332 0
M  V30 7818 C 764.279 -1.88294 0.475285 0
M  V30 7819 O 763.554 -1.87205 -0.527688 0
M  V30 7820 C 763.837 -2.02597 2.97702 0
M  V30 7821 C 763.69 -1.26268 4.31713 0
M  V30 7822 C 765.009 -3.0241 3.19744 0
M  V30 7823 H 762.128 -0.393072 0.623429 0
M  V30 7824 H 764.77 -0.363579 1.86489 0
M  V30 7825 H 762.92 -2.64118 2.8491 0
M  V30 7826 H 764.592 -0.673594 4.56356 0
M  V30 7827 H 762.835 -0.564696 4.30109 0
M  V30 7828 H 763.506 -1.95253 5.16314 0
M  V30 7829 H 765.982 -2.51004 3.31868 0
M  V30 7830 H 764.858 -3.65449 4.09558 0
M  V30 7831 H 765.119 -3.73806 2.36054 0
M  V30 7832 N 764.178 -1.45556 -0.604258 0
M  V30 7833 C 765.427 -1.49019 -1.35928 0
M  V30 7834 C 765.74 -0.137409 -1.95117 0
M  V30 7835 O 766.946 -0.0497032 -2.71455 0
M  V30 7836 C 765.402 -2.62477 -2.46239 0
M  V30 7837 C 765.01 -4.04082 -1.93447 0
M  V30 7838 C 766.754 -2.7519 -3.23219 0
M  V30 7839 C 764.661 -5.08917 -3.0126 0
M  V30 7840 H 763.591 -0.554518 -0.510907 0
M  V30 7841 H 766.242 -1.71705 -0.647262 0
M  V30 7842 H 764.624 -2.3308 -3.2014 0
M  V30 7843 H 765.798 -4.43173 -1.26232 0
M  V30 7844 H 764.113 -3.95849 -1.29201 0
M  V30 7845 H 766.71 -3.50683 -4.0364 0
M  V30 7846 H 767.053 -1.81941 -3.74437 0
M  V30 7847 H 767.586 -3.04129 -2.56418 0
M  V30 7848 H 764.325 -6.03886 -2.54955 0
M  V30 7849 H 763.845 -4.74393 -3.67031 0
M  V30 7850 H 765.524 -5.33814 -3.65584 0
M  V30 7851 N 765.656 0.84705 -1.32902 0
M  V30 7852 C 767.072 1.13645 -1.12058 0
M  V30 7853 C 767.272 2.01281 0.093937 0
M  V30 7854 O 766.328 2.4026 0.776608 0
M  V30 7855 C 767.641 1.80644 -2.40392 0
M  V30 7856 C 769.189 1.93246 -2.46221 0
M  V30 7857 C 769.664 2.6366 -3.74496 0
M  V30 7858 N 771.155 2.71179 -3.75521 0
M  V30 7859 C 771.89 3.26332 -4.71482 0
M  V30 7860 N 771.386 3.82236 -5.77813 0
M  V30 7861 N 773.179 3.24507 -4.58968 0
M  V30 7862 H 765.33 0.263612 -2.10758 0
M  V30 7863 H 767.593 0.17944 -0.930863 0
M  V30 7864 H 767.299 1.23708 -3.29225 0
M  V30 7865 H 767.173 2.80736 -2.51926 0
M  V30 7866 H 769.56 2.49338 -1.57843 0
M  V30 7867 H 769.641 0.921272 -2.38634 0
M  V30 7868 H 769.285 2.08229 -4.63253 0
M  V30 7869 H 769.215 3.65234 -3.79357 0
M  V30 7870 H 771.706 2.31527 -2.9867 0
M  V30 7871 H 772.019 4.22499 -6.47082 0
M  V30 7872 H 770.364 3.80546 -5.81558 0
M  V30 7873 H 773.555 2.80085 -3.7506 0
M  V30 7874 H 773.728 3.67188 -5.33926 0
M  V30 7875 N 767.134 1.16236 1.06428 0
M  V30 7876 C 768.362 0.967184 1.82902 0
M  V30 7877 C 768.777 -0.484601 1.82475 0
M  V30 7878 O 768.134 -1.33631 1.24294 0
M  V30 7879 C 768.185 1.48534 3.29576 0
M  V30 7880 O 767.906 2.88026 3.3011 0
M  V30 7881 C 769.407 1.33298 4.22784 0
M  V30 7882 H 766.627 0.342923 0.576754 0
M  V30 7883 H 769.171 1.54232 1.34286 0
M  V30 7884 H 767.326 0.952513 3.75508 0
M  V30 7885 H 767.74 3.11721 4.21818 0
M  V30 7886 H 769.214 1.74385 5.23731 0
M  V30 7887 H 769.691 0.278356 4.38317 0
M  V30 7888 H 770.297 1.85535 3.82697 0
M  V30 7889 N 768.612 -1.24939 0.960631 0
M  V30 7890 C 769.542 -2.28 0.503815 0
M  V30 7891 C 770.523 -1.63959 -0.452928 0
M  V30 7892 O 771.708 -1.91009 -0.350585 0
M  V30 7893 C 768.838 -3.46643 -0.213535 0
M  V30 7894 C 767.792 -4.22903 0.658535 0
M  V30 7895 C 767.118 -5.34363 -0.189902 0
M  V30 7896 C 768.418 -4.84949 1.93963 0
M  V30 7897 H 770.112 -2.66462 1.36521 0
M  V30 7898 H 767.658 -1.28093 0.657897 0
M  V30 7899 H 769.611 -4.1787 -0.544286 0
M  V30 7900 H 768.335 -3.07187 -1.10923 0
M  V30 7901 H 766.994 -3.53467 0.972455 0
M  V30 7902 H 766.642 -4.91147 -1.08553 0
M  V30 7903 H 766.342 -5.86302 0.390331 0
M  V30 7904 H 767.866 -6.0842 -0.515484 0
M  V30 7905 H 769.28 -5.48288 1.67491 0
M  V30 7906 H 767.677 -5.47091 2.46601 0
M  V30 7907 H 768.747 -4.06799 2.639 0
M  V30 7908 N 770.09 -0.729906 -1.39679 0
M  V30 7909 C 771 -0.0880322 -2.34435 0
M  V30 7910 C 772.016 0.727674 -1.58053 0
M  V30 7911 O 773.192 0.657321 -1.90371 0
M  V30 7912 C 770.257 0.812211 -3.37052 0
M  V30 7913 C 769.318 -0.0151681 -4.29297 0
M  V30 7914 C 768.551 0.842202 -5.27013 0
M  V30 7915 O 768.774 2.08108 -5.31081 0
M  V30 7916 O 767.708 0.27357 -6.01278 0
M  V30 7917 H 771.534 -0.869989 -2.90972 0
M  V30 7918 H 769.119 -0.490522 -1.41118 0
M  V30 7919 H 771.001 1.32745 -3.99946 0
M  V30 7920 H 769.676 1.57307 -2.82907 0
M  V30 7921 H 768.583 -0.575811 -3.69642 0
M  V30 7922 H 769.916 -0.738129 -4.86634 0
M  V30 7923 N 771.568 1.50203 -0.477153 0
M  V30 7924 C 772.478 2.32421 0.319027 0
M  V30 7925 C 773.494 1.43075 0.990233 0
M  V30 7926 O 774.67 1.76123 0.976873 0
M  V30 7927 C 771.735 3.17909 1.38328 0
M  V30 7928 C 770.796 4.23082 0.728036 0
M  V30 7929 C 770.029 5.04484 1.74158 0
M  V30 7930 O 770.252 4.8705 2.96881 0
M  V30 7931 O 769.186 5.8747 1.31006 0
M  V30 7932 H 773.012 3.01638 -0.353281 0
M  V30 7933 H 770.597 1.47478 -0.238891 0
M  V30 7934 H 772.479 3.70937 1.9996 0
M  V30 7935 H 771.154 2.51413 2.03895 0
M  V30 7936 H 770.061 3.7403 0.07261 0
M  V30 7937 H 771.394 4.92065 0.115216 0
M  V30 7938 N 773.046 0.209999 1.56195 0
M  V30 7939 C 774.295 -0.425106 1.97169 0
M  V30 7940 C 774.608 -1.61718 1.10031 0
M  V30 7941 O 775.814 -2.32105 1.40853 0
M  V30 7942 C 774.27 -0.80771 3.50719 0
M  V30 7943 C 773.878 0.360902 4.46544 0
M  V30 7944 C 775.622 -1.40906 4.00432 0
M  V30 7945 C 773.529 -0.0434919 5.91384 0
M  V30 7946 H 772.459 -0.162598 0.736259 0
M  V30 7947 H 775.11 0.304382 1.80958 0
M  V30 7948 H 773.492 -1.59429 3.62489 0
M  V30 7949 H 774.666 1.13846 4.46515 0
M  V30 7950 H 772.981 0.874729 4.07109 0
M  V30 7951 H 775.578 -1.72433 5.06133 0
M  V30 7952 H 775.921 -2.32081 3.45607 0
M  V30 7953 H 776.454 -0.686154 3.91838 0
M  V30 7954 H 773.193 0.834448 6.50167 0
M  V30 7955 H 772.713 -0.785598 5.94633 0
M  V30 7956 H 774.392 -0.474176 6.4526 0
M  V30 7957 N 774.524 -1.57472 -0.0634922 0
M  V30 7958 C 775.456 -2.00999 -1.10145 0
M  V30 7959 C 776.469 -0.917219 -1.34503 0
M  V30 7960 O 777.658 -1.19501 -1.32596 0
M  V30 7961 C 774.758 -2.34089 -2.45063 0
M  V30 7962 C 773.931 -3.65317 -2.40546 0
M  V30 7963 C 772.99 -3.85982 -3.57637 0
M  V30 7964 O 772.016 -4.5747 -3.38689 0
M  V30 7965 N 773.218 -3.28971 -4.78287 0
M  V30 7966 H 775.983 -2.90656 -0.730714 0
M  V30 7967 H 773.544 -1.59926 -0.252017 0
M  V30 7968 H 775.536 -2.4508 -3.22053 0
M  V30 7969 H 774.106 -1.50279 -2.74107 0
M  V30 7970 H 773.326 -3.65003 -1.48885 0
M  V30 7971 H 774.614 -4.51468 -2.34636 0
M  V30 7972 H 774.012 -2.70962 -4.96584 0
M  V30 7973 H 772.569 -3.45398 -5.5276 0
M  V30 7974 N 776.003 0.335068 -1.53997 0
M  V30 7975 C 776.913 1.43511 -1.85585 0
M  V30 7976 C 777.929 1.57162 -0.746726 0
M  V30 7977 O 779.105 1.72477 -1.03988 0
M  V30 7978 C 776.17 2.78386 -2.06646 0
M  V30 7979 C 775.231 2.74007 -3.30483 0
M  V30 7980 C 774.464 4.02449 -3.50529 0
M  V30 7981 O 774.687 5.00147 -2.74242 0
M  V30 7982 O 773.621 4.06405 -4.4398 0
M  V30 7983 H 777.447 1.19731 -2.79102 0
M  V30 7984 H 775.032 0.528033 -1.39758 0
M  V30 7985 H 776.914 3.58247 -2.21894 0
M  V30 7986 H 775.589 3.0208 -1.16317 0
M  V30 7987 H 774.496 1.92736 -3.2063 0
M  V30 7988 H 775.829 2.55267 -4.20832 0
M  V30 7989 N 777.481 1.45874 0.596531 0
M  V30 7990 C 778.706 1.54247 1.38646 0
M  V30 7991 C 779.131 0.179571 1.87241 0
M  V30 7992 O 778.489 -0.837831 1.6078 0
M  V30 7993 C 778.537 2.54015 2.55946 0
M  V30 7994 O 777.641 2.06561 3.5694 0
M  V30 7995 H 776.982 0.519555 0.413471 0
M  V30 7996 H 779.512 1.91327 0.724936 0
M  V30 7997 H 779.522 2.73179 3.03047 0
M  V30 7998 H 778.197 3.52994 2.19928 0
M  V30 7999 H 776.774 1.97324 3.16414 0
M  V30 8000 N 778.959 -0.83999 1.33349 0
M  V30 8001 C 780.206 -1.59517 1.24742 0
M  V30 8002 C 780.534 -1.93598 -0.187077 0
M  V30 8003 O 779.789 -1.58782 -1.14398 0
M  V30 8004 C 780.088 -2.91571 2.06691 0
M  V30 8005 C 779.754 -2.76856 3.55895 0
M  V30 8006 C 778.416 -2.72551 3.96572 0
M  V30 8007 C 780.768 -2.61741 4.50712 0
M  V30 8008 C 778.096 -2.51028 5.30285 0
M  V30 8009 C 780.448 -2.41752 5.84584 0
M  V30 8010 C 779.112 -2.35848 6.24445 0
M  V30 8011 H 778.382 -0.583714 0.456463 0
M  V30 8012 H 781.029 -0.973261 1.64924 0
M  V30 8013 H 779.334 -3.57961 1.59284 0
M  V30 8014 H 781.031 -3.49053 1.9739 0
M  V30 8015 H 777.621 -2.81039 3.23597 0
M  V30 8016 H 781.805 -2.64102 4.20195 0
M  V30 8017 H 777.061 -2.44903 5.60208 0
M  V30 8018 H 781.235 -2.2904 6.57658 0
M  V30 8019 H 778.862 -2.18931 7.27993 0
M  V30 8020 N 780.437 -1.16799 -1.0581 0
M  V30 8021 C 781.385 -0.875111 -2.1551 0
M  V30 8022 C 782.379 0.157781 -1.68664 0
M  V30 8023 O 783.585 0.011297 -1.79996 0
M  V30 8024 H 779.96 -0.26542 -0.703602 0
M  V30 8025 H 781.931 -1.8076 -2.37421 0
M  V30 8026 C 780.68 -0.39802 -3.45414 0
M  V30 8027 H 780.003 -1.18425 -3.81858 0
M  V30 8028 H 781.443 -0.231913 -4.23365 0
M  V30 8029 C 779.902 0.88327 -3.25115 0
M  V30 8030 O 780.432 1.95145 -3.51114 0
M  V30 8031 N 778.638 0.828961 -2.78526 0
M  V30 8032 H 778.185 -0.0405029 -2.57568 0
M  V30 8033 H 778.143 1.68673 -2.65324 0
M  V30 8034 N 781.915 1.24427 -0.967243 0
M  V30 8035 C 783.14 1.9708 -0.646069 0
M  V30 8036 C 783.565 1.71272 0.777665 0
M  V30 8037 O 782.923 0.976179 1.52776 0
M  V30 8038 C 782.971 3.48501 -0.926266 0
M  V30 8039 O 782.075 4.12398 -0.0114653 0
M  V30 8040 H 781.416 0.617423 -0.244304 0
M  V30 8041 H 783.946 1.58215 -1.29727 0
M  V30 8042 H 783.956 3.98885 -0.857619 0
M  V30 8043 H 782.631 3.66613 -1.96386 0
M  V30 8044 H 781.208 3.72661 -0.133396 0
M  V30 8045 N 783.393 0.737304 1.3929 0
M  V30 8046 C 784.356 0.10731 2.28949 0
M  V30 8047 C 785.356 -0.664716 1.46418 0
M  V30 8048 O 786.546 -0.493392 1.67067 0
M  V30 8049 C 783.678 -0.857145 3.29948 0
M  V30 8050 H 784.871 0.89725 2.86163 0
M  V30 8051 H 782.424 0.503279 1.47976 0
M  V30 8052 H 783.159 -1.67336 2.77794 0
M  V30 8053 H 782.944 -0.306167 3.90903 0
M  V30 8054 H 784.434 -1.29444 3.97031 0
M  V30 8055 N 784.871 -1.49948 0.485112 0
M  V30 8056 C 785.834 -2.27351 -0.290546 0
M  V30 8057 C 786.834 -1.32704 -0.908087 0
M  V30 8058 O 788.024 -1.56007 -0.775085 0
M  V30 8059 C 785.156 -3.10135 -1.41524 0
M  V30 8060 H 786.349 -2.97374 0.388454 0
M  V30 8061 H 783.902 -1.54453 0.239586 0
M  V30 8062 H 784.637 -2.44641 -2.12888 0
M  V30 8063 H 784.422 -3.79705 -0.978074 0
M  V30 8064 H 785.912 -3.68638 -1.96204 0
M  V30 8065 N 786.349 -0.21828 -1.56081 0
M  V30 8066 C 787.76 0.290166 -1.84431 0
M  V30 8067 C 788.111 1.59712 -1.13958 0
M  V30 8068 O 787.236 2.12516 -0.40815 0
M  V30 8069 C 787.831 0.53325 -3.34577 0
M  V30 8070 C 786.39 0.986011 -3.63256 0
M  V30 8071 C 785.537 0.0472798 -2.7726 0
M  V30 8072 H 788.488 -0.441548 -1.52434 0
M  V30 8073 H 788.509 1.37967 -3.54606 0
M  V30 8074 H 788.021 -0.418137 -3.85841 0
M  V30 8075 H 786.122 1.95087 -3.17446 0
M  V30 8076 H 786.235 0.862684 -4.71269 0
M  V30 8077 H 784.599 0.553471 -2.48614 0
M  V30 8078 H 785.382 -0.898966 -3.31321 0
M  V30 8079 N 787.827 1.57504 0.0551401 0
M  V30 8080 C 789.075 1.87684 0.74962 0
M  V30 8081 C 789.396 0.812547 1.77264 0
M  V30 8082 O 788.666 -0.15694 1.9527 0
M  V30 8083 H 787.246 0.6926 0.279846 0
M  V30 8084 H 789.908 1.94881 0.0272745 0
M  V30 8085 H 789.004 2.85734 1.25548 0
M  V30 8086 N 789.305 -0.326896 1.54172 0
M  V30 8087 C 790.253 -1.42232 1.84046 0
M  V30 8088 C 791.247 -1.53705 0.712115 0
M  V30 8089 O 792.453 -1.56131 0.895724 0
M  V30 8090 H 788.828 -0.474568 0.583343 0
M  V30 8091 H 790.799 -1.14259 2.75658 0
M  V30 8092 C 789.548 -2.78502 2.08163 0
M  V30 8093 H 788.871 -2.70447 2.94446 0
M  V30 8094 H 790.311 -3.54228 2.33021 0
M  V30 8095 C 788.77 -3.25415 0.872152 0
M  V30 8096 O 789.3 -4.01621 0.0797648 0
M  V30 8097 N 787.506 -2.82418 0.684716 0
M  V30 8098 H 787.053 -2.20566 1.33072 0
M  V30 8099 H 787.011 -3.14159 -0.123031 0
M  V30 8100 N 790.784 -1.46188 -0.588786 0
M  V30 8101 C 792.033 -1.50452 -1.34339 0
M  V30 8102 C 792.346 -0.158096 -1.9496 0
M  V30 8103 O 793.552 -0.0784918 -2.71387 0
M  V30 8104 C 792.008 -2.65074 -2.43441 0
M  V30 8105 C 791.616 -4.06111 -1.8915 0
M  V30 8106 C 793.36 -2.78603 -3.20282 0
M  V30 8107 C 791.267 -5.12084 -2.95845 0
M  V30 8108 H 790.197 -0.559905 -0.504997 0
M  V30 8109 H 792.848 -1.72382 -0.629014 0
M  V30 8110 H 791.23 -2.36462 -3.1765 0
M  V30 8111 H 792.404 -4.44487 -1.21524 0
M  V30 8112 H 790.719 -3.97197 -1.24995 0
M  V30 8113 H 793.316 -3.54944 -3.99898 0
M  V30 8114 H 793.659 -1.85902 -3.72486 0
M  V30 8115 H 794.192 -3.06832 -2.53178 0
M  V30 8116 H 790.931 -6.06556 -2.48535 0
M  V30 8117 H 790.451 -4.78259 -3.61979 0
M  V30 8118 H 792.13 -5.37661 -3.59902 0
M  V30 8119 N 792.262 0.832906 -1.33792 0
M  V30 8120 C 793.209 1.94314 -1.24541 0
M  V30 8121 C 794.179 1.65646 -0.122753 0
M  V30 8122 O 795.364 1.88394 -0.30204 0
M  V30 8123 C 792.504 3.30395 -0.996641 0
M  V30 8124 C 791.617 3.71422 -2.20612 0
M  V30 8125 C 790.752 4.96401 -1.89101 0
M  V30 8126 C 789.791 5.2998 -3.06247 0
M  V30 8127 N 788.928 6.46137 -2.74685 0
M  V30 8128 H 793.768 2.01559 -2.19495 0
M  V30 8129 H 791.305 0.986243 -1.09141 0
M  V30 8130 H 793.263 4.08803 -0.832817 0
M  V30 8131 H 791.893 3.22691 -0.0838242 0
M  V30 8132 H 790.945 2.88488 -2.47949 0
M  V30 8133 H 792.257 3.92215 -3.0817 0
M  V30 8134 H 791.411 5.82572 -1.69396 0
M  V30 8135 H 790.15 4.7759 -0.987882 0
M  V30 8136 H 789.155 4.42312 -3.26559 0
M  V30 8137 H 790.38 5.50737 -3.97323 0
M  V30 8138 H 788.326 6.28801 -1.86938 0
M  V30 8139 H 788.243 6.67054 -3.55774 0
M  V30 8140 H 789.511 7.35403 -2.58461 0
M  V30 8141 N 793.74 1.17359 1.05189 0
M  V30 8142 C 794.986 0.963413 1.78455 0
M  V30 8143 C 795.319 -0.506703 1.87473 0
M  V30 8144 O 794.594 -1.37611 1.37453 0
M  V30 8145 C 794.877 1.60519 3.22344 0
M  V30 8146 C 794.73 3.14741 3.21338 0
M  V30 8147 C 796.049 1.3091 4.20179 0
M  V30 8148 H 793.168 0.351412 0.647826 0
M  V30 8149 H 795.81 1.44858 1.22948 0
M  V30 8150 H 793.96 1.19265 3.69741 0
M  V30 8151 H 795.632 3.65053 2.82017 0
M  V30 8152 H 793.875 3.4749 2.59679 0
M  V30 8153 H 794.546 3.54775 4.22894 0
M  V30 8154 H 797.022 1.66635 3.81277 0
M  V30 8155 H 795.898 1.784 5.191 0
M  V30 8156 H 796.159 0.229908 4.41502 0
M  V30 8157 N 795.218 -1.23913 0.973828 0
M  V30 8158 C 796.443 -1.96735 0.656511 0
M  V30 8159 C 796.868 -1.71682 -0.768571 0
M  V30 8160 O 796.226 -0.984267 -1.52256 0
M  V30 8161 C 796.274 -3.48004 0.944735 0
M  V30 8162 O 795.378 -4.12387 0.0333357 0
M  V30 8163 H 794.719 -0.616119 0.247575 0
M  V30 8164 H 797.249 -1.57525 1.30564 0
M  V30 8165 H 797.259 -3.98424 0.87876 0
M  V30 8166 H 795.934 -3.65567 1.98328 0
M  V30 8167 H 794.511 -3.72585 0.153157 0
M  V30 8168 N 796.696 -0.74468 -1.38897 0
M  V30 8169 C 797.943 -0.296884 -2.00312 0
M  V30 8170 C 798.271 1.11878 -1.59102 0
M  V30 8171 O 797.526 1.7789 -0.815702 0
M  V30 8172 C 797.825 -0.357302 -3.55609 0
M  V30 8173 C 797.491 -1.72736 -4.16501 0
M  V30 8174 C 796.153 -2.10232 -4.32846 0
M  V30 8175 C 798.505 -2.62647 -4.50184 0
M  V30 8176 C 795.833 -3.3713 -4.80167 0
M  V30 8177 C 798.185 -3.88926 -4.98918 0
M  V30 8178 C 796.849 -4.26503 -5.1347 0
M  V30 8179 H 796.119 -0.108638 -0.732993 0
M  V30 8180 H 798.766 -0.953419 -1.66079 0
M  V30 8181 H 797.071 0.382805 -3.89925 0
M  V30 8182 H 798.768 0.0074596 -4.00999 0
M  V30 8183 H 795.358 -1.42585 -4.04187 0
M  V30 8184 H 799.542 -2.34945 -4.37166 0
M  V30 8185 H 794.798 -3.66174 -4.89619 0
M  V30 8186 H 798.972 -4.58745 -5.23952 0
M  V30 8187 H 796.599 -5.24896 -5.49898 0
M  V30 8188 N 798.174 1.49689 -0.493057 0
M  V30 8189 C 799.137 2.27502 0.278485 0
M  V30 8190 C 800.137 1.33184 0.901037 0
M  V30 8191 O 801.327 1.56415 0.766801 0
M  V30 8192 C 798.459 3.10881 1.39878 0
M  V30 8193 H 799.652 2.97163 -0.404219 0
M  V30 8194 H 797.205 1.54324 -0.247774 0
M  V30 8195 H 797.94 2.45767 2.11587 0
M  V30 8196 H 797.725 3.80219 0.957924 0
M  V30 8197 H 799.215 3.69673 1.94247 0
M  V30 8198 N 799.652 0.226554 1.55963 0
M  V30 8199 C 800.929 -0.453058 1.90281 0
M  V30 8200 C 801.309 -1.77377 1.14458 0
M  V30 8201 O 800.657 -2.27067 0.255496 0
M  V30 8202 C 800.867 -0.641108 3.43061 0
M  V30 8203 C 802.215 -0.946265 4.13921 0
M  V30 8204 O 803.239 -0.727713 3.48687 0
M  V30 8205 O 802.098 -1.36131 5.29274 0
M  V30 8206 H 799.192 -0.240242 0.791336 0
M  V30 8207 H 801.738 0.26911 1.67553 0
M  V30 8208 H 800.51 0.290283 3.90222 0
M  V30 8209 H 800.133 -1.41458 3.71585 0
M  V30 8210 N 801.13 -1.57531 -0.0467866 0
M  V30 8211 C 802.06 -2.08425 -1.05268 0
M  V30 8212 C 803.041 -0.982941 -1.38825 0
M  V30 8213 O 804.226 -1.25716 -1.48018 0
M  V30 8214 C 801.356 -2.54897 -2.35891 0
M  V30 8215 C 800.31 -3.69132 -2.16623 0
M  V30 8216 C 799.636 -4.01747 -3.52851 0
M  V30 8217 C 800.936 -4.98243 -1.56689 0
M  V30 8218 H 802.63 -2.92716 -0.62908 0
M  V30 8219 H 800.176 -1.40816 -0.301156 0
M  V30 8220 H 802.129 -2.8912 -3.06574 0
M  V30 8221 H 800.853 -1.67666 -2.80278 0
M  V30 8222 H 799.512 -3.35231 -1.48377 0
M  V30 8223 H 799.16 -3.11608 -3.94853 0
M  V30 8224 H 798.86 -4.78681 -3.4079 0
M  V30 8225 H 800.384 -4.38487 -4.24925 0
M  V30 8226 H 801.798 -5.30535 -2.17268 0
M  V30 8227 H 800.195 -5.79669 -1.55255 0
M  V30 8228 H 801.265 -4.81986 -0.530827 0
M  V30 8229 N 802.608 0.318715 -1.54344 0
M  V30 8230 C 803.854 1.05765 -1.73037 0
M  V30 8231 C 804.187 1.87514 -0.505181 0
M  V30 8232 O 803.462 1.88021 0.497838 0
M  V30 8233 C 803.745 1.97836 -3.00887 0
M  V30 8234 C 803.598 1.19384 -4.33668 0
M  V30 8235 C 804.917 2.97285 -3.24514 0
M  V30 8236 H 802.036 0.383104 -0.629603 0
M  V30 8237 H 804.678 0.333864 -1.87044 0
M  V30 8238 H 802.828 2.59552 -2.89076 0
M  V30 8239 H 804.5 0.600906 -4.57369 0
M  V30 8240 H 802.743 0.496198 -4.30953 0
M  V30 8241 H 803.414 1.87014 -5.19355 0
M  V30 8242 H 805.89 2.45693 -3.35819 0
M  V30 8243 H 804.766 3.58887 -4.15321 0
M  V30 8244 H 805.027 3.70003 -2.41971 0
M  V30 8245 N 804.086 1.46499 0.581025 0
M  V30 8246 C 805.332 1.52121 1.34116 0
M  V30 8247 C 805.665 0.173031 1.93428 0
M  V30 8248 O 804.94 -0.815729 1.76568 0
M  V30 8249 C 805.223 2.62108 2.46924 0
M  V30 8250 C 805.076 4.06462 1.92636 0
M  V30 8251 C 806.395 2.68167 3.48962 0
M  V30 8252 H 803.514 0.5538 0.486287 0
M  V30 8253 H 806.156 1.78443 0.652538 0
M  V30 8254 H 804.306 2.39794 3.05665 0
M  V30 8255 H 805.978 4.40068 1.3834 0
M  V30 8256 H 804.221 4.15862 1.23455 0
M  V30 8257 H 804.892 4.79152 2.74076 0
M  V30 8258 H 807.368 2.8823 3.00104 0
M  V30 8259 H 806.244 3.46942 4.2535 0
M  V30 8260 H 806.505 1.74284 4.06297 0
M  V30 8261 N 805.565 -0.825799 1.34232 0
M  V30 8262 C 806.495 -1.95151 1.28212 0
M  V30 8263 C 807.476 -1.69345 0.160123 0
M  V30 8264 O 808.661 -1.90983 0.352019 0
M  V30 8265 C 805.791 -3.31554 1.03388 0
M  V30 8266 C 804.745 -3.71793 2.12023 0
M  V30 8267 C 804.071 -5.06147 1.72392 0
M  V30 8268 C 805.371 -3.84193 3.53826 0
M  V30 8269 H 807.065 -2.00445 2.22401 0
M  V30 8270 H 804.611 -0.962996 1.07063 0
M  V30 8271 H 806.564 -4.09889 0.978225 0
M  V30 8272 H 805.288 -3.26551 0.0564142 0
M  V30 8273 H 803.947 -2.95731 2.16654 0
M  V30 8274 H 803.595 -4.97628 0.733137 0
M  V30 8275 H 803.295 -5.34041 2.451 0
M  V30 8276 H 804.819 -5.86943 1.68317 0
M  V30 8277 H 806.233 -4.52806 3.51624 0
M  V30 8278 H 804.63 -4.23538 4.2513 0
M  V30 8279 H 805.7 -2.86272 3.91377 0
M  V30 8280 N 807.043 -1.17915 -1.04565 0
M  V30 8281 C 808.291 -0.969505 -1.77327 0
M  V30 8282 C 808.612 0.502569 -1.88412 0
M  V30 8283 O 807.882 1.36467 -1.40547 0
M  V30 8284 H 806.462 -0.355723 -0.656864 0
M  V30 8285 H 809.124 -1.48506 -1.26223 0
M  V30 8286 H 808.22 -1.40324 -2.78775 0
M  V30 8287 N 808.521 1.23394 -0.980386 0
M  V30 8288 C 809.769 1.91431 -0.647978 0
M  V30 8289 C 810.09 1.76871 0.821066 0
M  V30 8290 O 809.36 1.14808 1.58732 0
M  V30 8291 H 807.94 0.708516 -0.236673 0
M  V30 8292 H 810.602 1.50019 -1.2442 0
M  V30 8293 H 809.698 2.98854 -0.899592 0
M  V30 8294 N 809.999 0.752036 1.385 0
M  V30 8295 C 811.239 0.312408 2.01998 0
M  V30 8296 C 811.603 -1.085 1.58404 0
M  V30 8297 O 812.804 -1.62365 2.14222 0
M  V30 8298 C 811.075 0.429423 3.54811 0
M  V30 8299 S 812.634 0.0721487 4.38741 0
M  V30 8300 H 809.452 0.1213 0.700576 0
M  V30 8301 H 812.054 0.982312 1.69029 0
M  V30 8302 H 810.758 1.44743 3.84028 0
M  V30 8303 H 810.289 -0.257716 3.92555 0
M  V30 8304 H 812.304 -1.13875 4.82957 0
M  V30 8305 N 811.477 -1.49425 0.500989 0
M  V30 8306 C 812.44 -2.27646 -0.266416 0
M  V30 8307 C 813.44 -1.3366 -0.893961 0
M  V30 8308 O 814.63 -1.5682 -0.758495 0
M  V30 8309 C 811.762 -3.11618 -1.38227 0
M  V30 8310 H 812.955 -2.96945 0.419973 0
M  V30 8311 H 810.508 -1.5419 0.255954 0
M  V30 8312 H 811.243 -2.46885 -2.10281 0
M  V30 8313 H 811.028 -3.80721 -0.937746 0
M  V30 8314 H 812.518 -3.70698 -1.92283 0
M  V30 8315 N 812.955 -0.234822 -1.55841 0
M  V30 8316 C 813.918 0.656378 -2.196 0
M  V30 8317 C 814.918 1.11179 -1.16171 0
M  V30 8318 O 816.108 1.01845 -1.41326 0
M  V30 8319 C 813.24 1.90072 -2.82993 0
M  V30 8320 H 814.433 0.100281 -2.99732 0
M  V30 8321 H 811.986 0.0147613 -1.56293 0
M  V30 8322 H 812.721 2.49836 -2.06767 0
M  V30 8323 H 812.506 1.5825 -3.58747 0
M  V30 8324 H 813.996 2.53538 -3.31826 0
M  V30 8325 N 814.433 1.57553 0.0384317 0
M  V30 8326 C 815.682 1.88022 0.730108 0
M  V30 8327 C 815.995 0.83209 1.77019 0
M  V30 8328 O 817.201 1.0257 2.51379 0
M  V30 8329 C 815.657 3.33637 1.3496 0
M  V30 8330 C 815.265 4.46659 0.346352 0
M  V30 8331 C 817.009 3.73266 2.02169 0
M  V30 8332 C 814.916 5.8333 0.973652 0
M  V30 8333 H 813.846 0.701496 0.276442 0
M  V30 8334 H 816.497 1.83493 -0.0158028 0
M  V30 8335 H 814.879 3.32882 2.1449 0
M  V30 8336 H 816.053 4.58868 -0.421558 0
M  V30 8337 H 814.368 4.15802 -0.223133 0
M  V30 8338 H 816.965 4.72689 2.49938 0
M  V30 8339 H 817.308 3.04776 2.8358 0
M  V30 8340 H 817.841 3.76156 1.29427 0
M  V30 8341 H 814.58 6.55197 0.199163 0
M  V30 8342 H 814.1 5.7486 1.71162 0
M  V30 8343 H 815.779 6.29757 1.48376 0
M  V30 8344 N 815.911 -0.310526 1.54511 0
M  V30 8345 C 816.821 -1.4054 1.87844 0
M  V30 8346 C 817.837 -1.55954 0.771635 0
M  V30 8347 O 819.013 -1.70801 1.06719 0
M  V30 8348 C 816.078 -2.75063 2.11048 0
M  V30 8349 C 815.139 -2.68715 3.348 0
M  V30 8350 C 814.372 -3.96821 3.56887 0
M  V30 8351 O 814.595 -4.95721 2.82165 0
M  V30 8352 O 813.529 -3.99291 4.50389 0
M  V30 8353 H 817.355 -1.15275 2.80972 0
M  V30 8354 H 814.94 -0.505732 1.4058 0
M  V30 8355 H 816.822 -3.54671 2.27566 0
M  V30 8356 H 815.497 -3.00191 1.21108 0
M  V30 8357 H 814.404 -1.87611 3.23655 0
M  V30 8358 H 815.737 -2.4854 4.2484 0
M  V30 8359 N 817.389 -1.46805 -0.573248 0
M  V30 8360 C 818.336 -1.58084 -1.68161 0
M  V30 8361 C 819.306 -0.424636 -1.6058 0
M  V30 8362 O 820.491 -0.642623 -1.79652 0
M  V30 8363 C 817.631 -1.58601 -3.06496 0
M  V30 8364 C 816.744 -2.85023 -3.24632 0
M  V30 8365 C 815.879 -2.76981 -4.53271 0
M  V30 8366 C 814.918 -3.983 -4.64783 0
M  V30 8367 N 814.055 -3.88589 -5.84759 0
M  V30 8368 H 818.895 -2.52755 -1.57858 0
M  V30 8369 H 816.432 -1.25385 -0.769218 0
M  V30 8370 H 818.39 -1.56885 -3.86579 0
M  V30 8371 H 817.02 -0.674553 -3.15673 0
M  V30 8372 H 816.072 -2.96678 -2.38089 0
M  V30 8373 H 817.384 -3.7491 -3.29004 0
M  V30 8374 H 816.538 -2.73424 -5.41594 0
M  V30 8375 H 815.277 -1.84751 -4.51352 0
M  V30 8376 H 814.282 -4.02179 -3.74876 0
M  V30 8377 H 815.507 -4.91639 -4.68474 0
M  V30 8378 H 813.453 -2.99151 -5.83819 0
M  V30 8379 H 813.37 -4.7214 -5.90441 0
M  V30 8380 H 814.638 -3.89022 -6.75486 0
M  V30 8381 N 818.867 0.818669 -1.34668 0
M  V30 8382 C 819.83 1.9114 -1.26483 0
M  V30 8383 C 820.83 1.598 -0.179044 0
M  V30 8384 O 822.02 1.6876 -0.431952 0
M  V30 8385 C 819.152 3.27285 -0.95381 0
M  V30 8386 H 820.345 1.9982 -2.23634 0
M  V30 8387 H 817.898 1.01314 -1.19018 0
M  V30 8388 H 818.633 3.24297 0.0143428 0
M  V30 8389 H 818.418 3.51416 -1.73924 0
M  V30 8390 H 819.908 4.07299 -0.921827 0
M  V30 8391 N 820.346 1.18468 1.03938 0
M  V30 8392 C 821.309 0.914944 2.10146 0
M  V30 8393 C 822.309 -0.10022 1.60487 0
M  V30 8394 O 823.499 0.133365 1.73689 0
M  V30 8395 C 820.631 0.372993 3.38853 0
M  V30 8396 H 821.824 1.85677 2.35508 0
M  V30 8397 H 819.377 0.996876 1.20383 0
M  V30 8398 H 820.112 -0.57538 3.19155 0
M  V30 8399 H 819.897 1.1048 3.76213 0
M  V30 8400 H 821.387 0.203014 4.17106 0
M  V30 8401 N 821.824 -1.22873 0.986916 0
M  V30 8402 C 822.771 -2.2458 0.532215 0
M  V30 8403 C 823.741 -1.60375 -0.432322 0
M  V30 8404 O 824.926 -1.87775 -0.338416 0
M  V30 8405 C 822.066 -3.44761 -0.152864 0
M  V30 8406 C 821.179 -4.23501 0.852704 0
M  V30 8407 C 820.314 -5.31011 0.14176 0
M  V30 8408 C 819.353 -6.01464 1.1361 0
M  V30 8409 N 818.49 -7.00631 0.453871 0
M  V30 8410 H 823.33 -2.62838 1.40428 0
M  V30 8411 H 820.867 -1.29185 0.703543 0
M  V30 8412 H 822.825 -4.1333 -0.566926 0
M  V30 8413 H 821.455 -3.07284 -0.988756 0
M  V30 8414 H 820.507 -3.54286 1.38512 0
M  V30 8415 H 821.819 -4.72097 1.61014 0
M  V30 8416 H 820.973 -6.05805 -0.329337 0
M  V30 8417 H 819.712 -4.83373 -0.648229 0
M  V30 8418 H 818.717 -5.25456 1.61789 0
M  V30 8419 H 819.942 -6.5119 1.92686 0
M  V30 8420 H 817.888 -6.55235 -0.316791 0
M  V30 8421 H 817.805 -7.47204 1.14986 0
M  V30 8422 H 819.073 -7.795 0.00537823 0
M  V30 8423 N 823.302 -0.75937 -1.38099 0
M  V30 8424 C 824.265 -0.14372 -2.28749 0
M  V30 8425 C 825.265 0.641338 -1.47457 0
M  V30 8426 O 826.455 0.466751 -1.67831 0
M  V30 8427 C 823.587 0.804545 -3.3127 0
M  V30 8428 H 824.78 -0.942663 -2.847 0
M  V30 8429 H 822.333 -0.526757 -1.47156 0
M  V30 8430 H 823.068 1.62895 -2.80421 0
M  V30 8431 H 822.853 0.243939 -3.9134 0
M  V30 8432 H 824.343 1.23111 -3.99041 0
M  V30 8433 N 824.78 1.49157 -0.508906 0
M  V30 8434 C 825.743 2.27784 0.25434 0
M  V30 8435 C 826.743 1.34132 0.88686 0
M  V30 8436 O 827.933 1.5722 0.750168 0
M  V30 8437 C 825.065 3.12347 1.36573 0
M  V30 8438 H 826.258 2.96718 -0.435714 0
M  V30 8439 H 823.811 1.54052 -0.264128 0
M  V30 8440 H 824.546 2.47997 2.08969 0
M  V30 8441 H 824.331 3.81213 0.917543 0
M  V30 8442 H 825.821 3.71712 1.90315 0
M  V30 8443 N 826.258 0.243083 1.55714 0
M  V30 8444 C 827.506 -0.381964 1.98458 0
M  V30 8445 C 827.827 -1.58745 1.13247 0
M  V30 8446 O 827.097 -1.94723 0.214384 0
M  V30 8447 H 825.677 -0.144114 0.732967 0
M  V30 8448 H 828.339 0.340985 1.91894 0
M  V30 8449 H 827.435 -0.693702 3.04293 0
M  V30 8450 N 827.736 -1.57571 -0.0300757 0
M  V30 8451 C 828.686 -2.02958 -1.03885 0
M  V30 8452 C 829.67 -0.918723 -1.32092 0
M  V30 8453 O 830.862 -1.18262 -1.31694 0
M  V30 8454 C 827.991 -2.51169 -2.34028 0
M  V30 8455 C 827.077 -3.69073 -2.08915 0
M  V30 8456 N 827.468 -4.81831 -1.53858 0
M  V30 8457 C 825.766 -3.76427 -2.39204 0
M  V30 8458 C 826.467 -5.6346 -1.44526 0
M  V30 8459 N 825.443 -5.08545 -1.92048 0
M  V30 8460 H 829.245 -2.8756 -0.607157 0
M  V30 8461 H 826.759 -1.6067 -0.236399 0
M  V30 8462 H 828.756 -2.81944 -3.07104 0
M  V30 8463 H 827.416 -1.67972 -2.77876 0
M  V30 8464 H 828.427 -5.03291 -1.22142 0
M  V30 8465 H 825.104 -3.04029 -2.86134 0
M  V30 8466 H 826.494 -6.64042 -1.02456 0
M  V30 8467 N 829.214 0.302327 -1.54673 0
M  V30 8468 C 830.162 1.39286 -1.86285 0
M  V30 8469 C 831.156 1.52553 -0.736478 0
M  V30 8470 O 832.362 1.54686 -0.92045 0
M  V30 8471 H 828.737 0.465228 -0.590819 0
M  V30 8472 H 830.708 1.09859 -2.77441 0
M  V30 8473 C 829.457 2.75155 -2.12567 0
M  V30 8474 H 828.78 2.65728 -2.98712 0
M  V30 8475 H 830.22 3.50476 -2.38627 0
M  V30 8476 C 828.679 3.23987 -0.923813 0
M  V30 8477 O 829.209 4.01443 -0.143649 0
M  V30 8478 N 827.415 2.81293 -0.72956 0
M  V30 8479 H 826.962 2.18421 -1.36565 0
M  V30 8480 H 826.92 3.14315 0.0730351 0
M  V30 8481 N 830.692 1.47107 0.565454 0
M  V30 8482 C 831.941 1.5257 1.31929 0
M  V30 8483 C 832.254 0.189092 1.94684 0
M  V30 8484 O 833.46 0.121657 2.71227 0
M  V30 8485 C 831.916 2.68914 2.39193 0
M  V30 8486 C 831.524 4.09069 1.82665 0
M  V30 8487 C 833.268 2.83663 3.1581 0
M  V30 8488 C 831.175 5.16726 2.87661 0
M  V30 8489 H 830.105 0.567869 0.496025 0
M  V30 8490 H 832.756 1.73361 0.60151 0
M  V30 8491 H 831.138 2.41486 3.13848 0
M  V30 8492 H 832.312 4.46364 1.14438 0
M  V30 8493 H 830.627 3.99135 1.1866 0
M  V30 8494 H 833.224 3.61261 3.94201 0
M  V30 8495 H 833.567 1.91804 3.69482 0
M  V30 8496 H 834.1 3.10821 2.48265 0
M  V30 8497 H 830.839 6.10433 2.38854 0
M  V30 8498 H 830.359 4.83957 3.54324 0
M  V30 8499 H 832.038 5.43319 3.51303 0
M  V30 8500 N 832.17 -0.811516 1.35101 0
M  V30 8501 C 833.398 -1.59981 1.31201 0
M  V30 8502 C 833.813 -1.8847 -0.111552 0
M  V30 8503 O 833.17 -1.48414 -1.06205 0
M  V30 8504 C 833.221 -2.934 2.11184 0
M  V30 8505 O 832.942 -2.66148 3.4799 0
M  V30 8506 C 834.443 -3.87776 2.14813 0
M  V30 8507 H 831.663 -0.496921 0.450899 0
M  V30 8508 H 834.207 -1.00886 1.77883 0
M  V30 8509 H 832.362 -3.49022 1.68115 0
M  V30 8510 H 832.776 -3.51301 3.89471 0
M  V30 8511 H 834.25 -4.7852 2.75178 0
M  V30 8512 H 834.727 -4.23997 1.14556 0
M  V30 8513 H 835.333 -3.3809 2.58022 0
M  V30 8514 N 833.648 -1.19017 -1.03309 0
M  V30 8515 C 834.894 -0.991681 -1.769 0
M  V30 8516 C 835.227 0.476813 -1.88255 0
M  V30 8517 O 834.502 1.35407 -1.39625 0
M  V30 8518 C 834.785 -1.65627 -3.19749 0
M  V30 8519 C 834.638 -3.19813 -3.1629 0
M  V30 8520 C 835.957 -1.37579 -4.18043 0
M  V30 8521 H 833.076 -0.361674 -0.642153 0
M  V30 8522 H 835.718 -1.46795 -1.20628 0
M  V30 8523 H 833.868 -1.25132 -3.67796 0
M  V30 8524 H 835.54 -3.69494 -2.76174 0
M  V30 8525 H 833.783 -3.51578 -2.54117 0
M  V30 8526 H 834.454 -3.61457 -4.17196 0
M  V30 8527 H 836.93 -1.72679 -3.78578 0
M  V30 8528 H 835.806 -1.86636 -5.16196 0
M  V30 8529 H 836.067 -0.300118 -4.4108 0
M  V30 8530 N 835.127 1.22348 -0.993418 0
M  V30 8531 C 836.538 1.72893 -0.704616 0
M  V30 8532 C 836.889 1.80095 0.778483 0
M  V30 8533 O 836.014 1.4476 1.60853 0
M  V30 8534 C 836.609 3.14 -1.27237 0
M  V30 8535 C 835.168 3.61949 -1.03294 0
M  V30 8536 C 834.315 2.39816 -1.39225 0
M  V30 8537 H 837.266 1.07688 -1.16572 0
M  V30 8538 H 837.287 3.74886 -0.651212 0
M  V30 8539 H 836.799 3.08727 -2.3518 0
M  V30 8540 H 834.9 3.72588 0.0298329 0
M  V30 8541 H 835.013 4.48051 -1.69668 0
M  V30 8542 H 833.377 2.41448 -0.810849 0
M  V30 8543 H 834.16 2.37203 -2.48172 0
M  V30 8544 N 836.605 0.766683 1.37694 0
M  V30 8545 C 837.852 0.328714 1.99814 0
M  V30 8546 C 838.18 -1.09333 1.60862 0
M  V30 8547 O 837.435 -1.7657 0.8439 0
M  V30 8548 C 837.734 0.413831 3.54996 0
M  V30 8549 C 837.4 1.7934 4.137 0
M  V30 8550 C 836.062 2.17092 4.29447 0
M  V30 8551 C 838.414 2.69776 4.45949 0
M  V30 8552 C 835.742 3.44726 4.74743 0
M  V30 8553 C 838.094 3.96814 4.92667 0
M  V30 8554 C 836.758 4.34618 5.0662 0
M  V30 8555 H 836.028 0.120285 0.731172 0
M  V30 8556 H 838.675 0.97972 1.64541 0
M  V30 8557 H 836.98 -0.320723 3.90485 0
M  V30 8558 H 838.677 0.0563369 4.0096 0
M  V30 8559 H 835.267 1.48997 4.01868 0
M  V30 8560 H 839.451 2.41871 4.33373 0
M  V30 8561 H 834.707 3.73917 4.83731 0
M  V30 8562 H 838.881 4.67022 5.16588 0
M  V30 8563 H 836.508 5.33578 5.41478 0
M  V30 8564 N 838.083 -1.48885 0.516809 0
M  V30 8565 C 839.311 -2.06892 -0.0184017 0
M  V30 8566 C 839.726 -1.37511 -1.29368 0
M  V30 8567 O 839.083 -0.458409 -1.76649 0
M  V30 8568 C 839.134 -3.60566 -0.259673 0
M  V30 8569 O 838.855 -4.27338 0.965065 0
M  V30 8570 C 840.356 -4.35331 -0.836751 0
M  V30 8571 H 837.576 -0.670433 0.0275743 0
M  V30 8572 H 840.12 -1.91455 0.718689 0
M  V30 8573 H 838.275 -3.75653 -0.94678 0
M  V30 8574 H 838.689 -5.19287 0.737647 0
M  V30 8575 H 840.163 -5.43675 -0.955065 0
M  V30 8576 H 840.64 -3.9887 -1.83845 0
M  V30 8577 H 841.246 -4.2489 -0.186622 0
M  V30 8578 N 839.561 -0.251338 -1.55583 0
M  V30 8579 C 840.972 0.25098 -1.85005 0
M  V30 8580 C 841.323 1.57259 -1.17321 0
M  V30 8581 O 840.448 2.11603 -0.453136 0
M  V30 8582 C 841.043 0.462161 -3.35633 0
M  V30 8583 C 839.602 0.908737 -3.65266 0
M  V30 8584 C 838.749 -0.0115418 -2.77298 0
M  V30 8585 H 841.7 -0.473782 -1.51463 0
M  V30 8586 H 841.721 1.30415 -3.57452 0
M  V30 8587 H 841.233 -0.499886 -3.84867 0
M  V30 8588 H 839.334 1.8831 -3.21512 0
M  V30 8589 H 839.447 0.762526 -4.72993 0
M  V30 8590 H 837.811 0.500612 -2.49732 0
M  V30 8591 H 838.594 -0.969042 -3.29339 0
M  V30 8592 N 841.039 1.57585 0.0217189 0
M  V30 8593 C 842.287 1.89231 0.709641 0
M  V30 8594 C 842.608 0.849964 1.75501 0
M  V30 8595 O 841.878 -0.115485 1.95559 0
M  V30 8596 H 840.458 0.69838 0.265092 0
M  V30 8597 H 843.12 1.94895 -0.0140688 0
M  V30 8598 H 842.216 2.88333 1.19459 0
M  V30 8599 N 842.517 -0.29412 1.54831 0
M  V30 8600 C 843.933 -0.640167 1.46199 0
M  V30 8601 C 844.133 -1.90426 0.658798 0
M  V30 8602 O 843.189 -2.51932 0.169228 0
M  V30 8603 C 844.502 -0.786763 2.90225 0
M  V30 8604 C 846.05 -0.882201 3.0031 0
M  V30 8605 C 846.525 -1.06074 4.45547 0
M  V30 8606 N 848.016 -1.12678 4.49286 0
M  V30 8607 C 848.751 -1.28334 5.58854 0
M  V30 8608 N 848.247 -1.40845 6.78332 0
M  V30 8609 N 850.04 -1.31277 5.46555 0
M  V30 8610 H 842.191 0.536334 2.05517 0
M  V30 8611 H 844.454 0.178363 0.93107 0
M  V30 8612 H 844.16 0.0713018 3.51628 0
M  V30 8613 H 844.034 -1.67364 3.38037 0
M  V30 8614 H 846.421 -1.73075 2.39017 0
M  V30 8615 H 846.502 0.0288405 2.55784 0
M  V30 8616 H 846.146 -0.216935 5.07437 0
M  V30 8617 H 846.076 -1.98611 4.8771 0
M  V30 8618 H 848.567 -1.04335 3.63212 0
M  V30 8619 H 848.88 -1.52566 7.57591 0
M  V30 8620 H 847.225 -1.37888 6.81184 0
M  V30 8621 H 850.416 -1.2112 4.52159 0
M  V30 8622 H 850.589 -1.43136 6.31994 0
M  V30 8623 N 843.995 -1.47404 -0.557645 0
M  V30 8624 C 845.223 -1.57622 -1.34026 0
M  V30 8625 C 845.638 -0.226256 -1.87439 0
M  V30 8626 O 844.995 0.78043 -1.64971 0
M  V30 8627 C 845.046 -2.60111 -2.51047 0
M  V30 8628 O 844.767 -3.89866 -1.99841 0
M  V30 8629 C 846.268 -2.80508 -3.43264 0
M  V30 8630 H 843.488 -0.532271 -0.40857 0
M  V30 8631 H 846.032 -1.93019 -0.675555 0
M  V30 8632 H 844.187 -2.27648 -3.13457 0
M  V30 8633 H 844.601 -4.45864 -2.76234 0
M  V30 8634 H 846.075 -3.56084 -4.21792 0
M  V30 8635 H 846.552 -1.88314 -3.9678 0
M  V30 8636 H 847.158 -3.14166 -2.86671 0
M  V30 8637 N 845.473 0.80434 -1.35529 0
M  V30 8638 C 846.75 1.5486 -1.1949 0
M  V30 8639 C 847.13 2.09897 0.22506 0
M  V30 8640 O 846.478 1.92643 1.22886 0
M  V30 8641 C 846.688 2.65535 -2.26478 0
M  V30 8642 C 848.036 3.33814 -2.62399 0
M  V30 8643 O 849.06 2.75807 -2.25409 0
M  V30 8644 O 847.919 4.38612 -3.26009 0
M  V30 8645 H 845.013 0.68433 -0.464351 0
M  V30 8646 H 847.559 0.844107 -1.47217 0
M  V30 8647 H 846.331 2.22754 -3.21709 0
M  V30 8648 H 845.954 3.43617 -2.00033 0
M  V30 8649 N 846.951 1.19563 1.02676 0
M  V30 8650 C 847.914 0.937182 2.09164 0
M  V30 8651 C 848.914 -0.0831927 1.60585 0
M  V30 8652 O 850.104 0.15178 1.73538 0
M  V30 8653 C 847.236 0.408912 3.38439 0
M  V30 8654 H 848.429 1.88164 2.33526 0
M  V30 8655 H 845.982 1.00959 1.19319 0
M  V30 8656 H 846.717 -0.541497 3.19747 0
M  V30 8657 H 846.502 1.14464 3.7502 0
M  V30 8658 H 847.992 0.247242 4.16867 0
M  V30 8659 N 848.429 -1.21819 0.999893 0
M  V30 8660 C 849.654 -1.95298 0.698094 0
M  V30 8661 C 850.079 -1.73273 -0.731982 0
M  V30 8662 O 849.437 -1.01634 -1.50134 0
M  V30 8663 C 849.485 -3.45922 1.01834 0
M  V30 8664 O 848.589 -4.12223 0.120801 0
M  V30 8665 H 847.93 -0.610729 0.260588 0
M  V30 8666 H 850.46 -1.5472 1.33876 0
M  V30 8667 H 850.47 -3.96471 0.963074 0
M  V30 8668 H 849.145 -3.61278 2.06037 0
M  V30 8669 H 847.722 -3.72177 0.232153 0
M  V30 8670 N 849.908 -0.773975 -1.37286 0
M  V30 8671 C 850.84 -0.119938 -2.28886 0
M  V30 8672 C 851.853 0.661822 -1.48741 0
M  V30 8673 O 853.042 0.499548 -1.71367 0
M  V30 8674 C 850.142 0.853703 -3.27971 0
M  V30 8675 C 849.315 0.125286 -4.37221 0
M  V30 8676 C 848.374 1.01261 -5.16365 0
M  V30 8677 O 847.4 0.475565 -5.6721 0
M  V30 8678 N 848.602 2.33864 -5.31308 0
M  V30 8679 H 851.367 -0.906702 -2.85655 0
M  V30 8680 H 848.928 -0.626519 -1.49286 0
M  V30 8681 H 850.92 1.4508 -3.77801 0
M  V30 8682 H 849.49 1.54142 -2.71954 0
M  V30 8683 H 848.71 -0.652742 -3.88758 0
M  V30 8684 H 849.998 -0.377959 -5.07394 0
M  V30 8685 H 849.396 2.79929 -4.91585 0
M  V30 8686 H 847.953 2.88575 -5.84438 0
M  V30 8687 N 851.386 1.48609 -0.524698 0
M  V30 8688 C 852.296 2.33318 0.244923 0
M  V30 8689 C 853.312 1.46153 0.944214 0
M  V30 8690 O 854.488 1.79141 0.920347 0
M  V30 8691 C 851.553 3.22149 1.28144 0
M  V30 8692 C 850.614 4.25184 0.593068 0
M  V30 8693 C 849.847 5.0977 1.5802 0
M  V30 8694 O 850.07 4.96249 2.81235 0
M  V30 8695 O 849.004 5.9134 1.1225 0
M  V30 8696 H 852.83 3.00362 -0.449066 0
M  V30 8697 H 850.415 1.46643 -0.285689 0
M  V30 8698 H 852.297 3.77111 1.88057 0
M  V30 8699 H 850.972 2.57772 1.95793 0
M  V30 8700 H 849.879 3.74071 -0.0464214 0
M  V30 8701 H 851.212 4.92183 -0.0413893 0
M  V30 8702 N 852.864 0.259585 1.55447 0
M  V30 8703 C 853.796 -0.667548 2.19263 0
M  V30 8704 C 854.809 -1.12925 1.17268 0
M  V30 8705 O 855.998 -1.05384 1.44071 0
M  V30 8706 C 853.098 -1.92066 2.7922 0
M  V30 8707 C 852.271 -1.60832 4.06758 0
M  V30 8708 C 851.33 -2.71231 4.50911 0
M  V30 8709 O 850.356 -2.38077 5.17019 0
M  V30 8710 N 851.558 -4.00984 4.19752 0
M  V30 8711 H 854.323 -0.121449 2.99454 0
M  V30 8712 H 851.884 0.0800519 1.61702 0
M  V30 8713 H 853.876 -2.65186 3.0571 0
M  V30 8714 H 852.446 -2.37621 2.03113 0
M  V30 8715 H 851.666 -0.711685 3.87722 0
M  V30 8716 H 852.954 -1.37445 4.89884 0
M  V30 8717 H 852.352 -4.30748 3.66706 0
M  V30 8718 H 850.909 -4.7053 4.51048 0
M  V30 8719 N 854.342 -1.57594 -0.0133615 0
M  V30 8720 C 855.57 -1.94251 -0.712328 0
M  V30 8721 C 855.985 -0.86063 -1.68043 0
M  V30 8722 O 855.342 0.161632 -1.81783 0
M  V30 8723 C 855.393 -3.30891 -1.45581 0
M  V30 8724 O 855.114 -4.34924 -0.526539 0
M  V30 8725 C 856.615 -3.81926 -2.2505 0
M  V30 8726 H 853.835 -0.640737 -0.199241 0
M  V30 8727 H 856.379 -2.04472 0.0337855 0
M  V30 8728 H 854.534 -3.22019 -2.15366 0
M  V30 8729 H 854.948 -5.1389 -1.04962 0
M  V30 8730 H 856.422 -4.79999 -2.72589 0
M  V30 8731 H 856.899 -3.13934 -3.07152 0
M  V30 8732 H 857.505 -3.93931 -1.60308 0
M  V30 8733 N 855.82 0.285905 -1.54985 0
M  V30 8734 C 857.097 1.0397 -1.65679 0
M  V30 8735 C 857.477 2.04725 -0.514851 0
M  V30 8736 O 856.825 2.23257 0.486663 0
M  V30 8737 C 857.035 1.70807 -3.04345 0
M  V30 8738 C 858.383 2.22447 -3.61666 0
M  V30 8739 O 859.407 1.80815 -3.06895 0
M  V30 8740 O 858.266 2.98773 -4.57599 0
M  V30 8741 H 855.36 0.481473 -0.672394 0
M  V30 8742 H 857.906 0.282789 -1.67327 0
M  V30 8743 H 856.678 0.977271 -3.789 0
M  V30 8744 H 856.301 2.53217 -3.06541 0
M  V30 8745 N 857.298 1.47698 0.54982 0
M  V30 8746 C 858.544 1.54931 1.30859 0
M  V30 8747 C 858.877 0.214021 1.93017 0
M  V30 8748 O 858.152 -0.778093 1.78258 0
M  V30 8749 C 858.435 2.67286 2.41309 0
M  V30 8750 C 858.288 4.10457 1.83971 0
M  V30 8751 C 859.607 2.75509 3.43195 0
M  V30 8752 H 856.726 0.56399 0.474431 0
M  V30 8753 H 859.368 1.79787 0.614541 0
M  V30 8754 H 857.518 2.46224 3.0051 0
M  V30 8755 H 859.19 4.42903 1.28974 0
M  V30 8756 H 857.433 4.18387 1.14606 0
M  V30 8757 H 858.104 4.84857 2.63851 0
M  V30 8758 H 860.58 2.94531 2.93923 0
M  V30 8759 H 859.456 3.55886 4.17895 0
M  V30 8760 H 859.717 1.82863 4.02509 0
M  V30 8761 N 858.776 -0.797141 1.35954 0
M  V30 8762 C 859.686 -1.94088 1.31784 0
M  V30 8763 C 860.702 -1.72588 0.221227 0
M  V30 8764 O 861.878 -1.96256 0.452255 0
M  V30 8765 C 858.943 -3.28828 1.09878 0
M  V30 8766 C 858.004 -3.63158 2.28942 0
M  V30 8767 C 857.237 -4.91469 2.08072 0
M  V30 8768 O 857.46 -5.60616 1.05196 0
M  V30 8769 O 856.394 -5.24277 2.95664 0
M  V30 8770 H 860.22 -2.00554 2.28061 0
M  V30 8771 H 857.805 -0.936288 1.16422 0
M  V30 8772 H 859.687 -4.09473 0.995485 0
M  V30 8773 H 858.362 -3.23271 0.16659 0
M  V30 8774 H 857.269 -2.82851 2.44839 0
M  V30 8775 H 858.602 -3.7343 3.20641 0
M  V30 8776 N 860.254 -1.20106 -1.0204 0
M  V30 8777 C 861.479 -1.0351 -1.79723 0
M  V30 8778 C 861.904 0.411328 -1.83548 0
M  V30 8779 O 861.262 1.29608 -1.26773 0
M  V30 8780 C 861.31 -1.61876 -3.22224 0
M  V30 8781 O 860.414 -0.853813 -4.03465 0
M  V30 8782 H 859.755 -0.365299 -0.554484 0
M  V30 8783 H 862.285 -1.59316 -1.28373 0
M  V30 8784 H 862.295 -1.65451 -3.72948 0
M  V30 8785 H 860.97 -2.67148 -3.18755 0
M  V30 8786 H 859.547 -0.891983 -3.62075 0
M  V30 8787 N 861.732 1.21287 -1.00634 0
M  V30 8788 C 862.979 1.90389 -0.6898 0
M  V30 8789 C 863.307 1.78193 0.779574 0
M  V30 8790 O 862.562 1.15358 1.58085 0
M  V30 8791 C 862.861 3.41374 -1.05824 0
M  V30 8792 C 862.527 3.73766 -2.5221 0
M  V30 8793 C 861.189 3.82317 -2.92211 0
M  V30 8794 C 863.541 3.88871 -3.47028 0
M  V30 8795 C 860.869 4.03423 -4.2599 0
M  V30 8796 C 863.221 4.11484 -4.80483 0
M  V30 8797 C 861.885 4.18263 -5.20204 0
M  V30 8798 H 861.155 0.696683 -0.252416 0
M  V30 8799 H 863.802 1.43769 -1.26502 0
M  V30 8800 H 862.107 3.8974 -0.401281 0
M  V30 8801 H 863.804 3.93118 -0.79116 0
M  V30 8802 H 860.394 3.67702 -2.20212 0
M  V30 8803 H 864.578 3.8163 -3.17289 0
M  V30 8804 H 859.834 4.06902 -4.56334 0
M  V30 8805 H 864.008 4.22115 -5.53888 0
M  V30 8806 H 861.635 4.34369 -6.23881 0
M  V30 8807 N 863.21 0.781244 1.36873 0
M  V30 8808 C 864.173 0.180094 2.28491 0
M  V30 8809 C 865.173 -0.617798 1.48458 0
M  V30 8810 O 866.363 -0.439991 1.68552 0
M  V30 8811 C 863.495 -0.751741 3.32508 0
M  V30 8812 H 864.688 0.987837 2.83164 0
M  V30 8813 H 862.241 0.550102 1.463 0
M  V30 8814 H 862.976 -1.58413 2.82977 0
M  V30 8815 H 862.761 -0.181649 3.91679 0
M  V30 8816 H 864.251 -1.16748 4.00949 0
M  V30 8817 N 864.689 -1.48329 0.532571 0
M  V30 8818 C 865.935 -2.028 -0.000583219 0
M  V30 8819 C 866.268 -1.40858 -1.33688 0
M  V30 8820 O 865.543 -0.555261 -1.86406 0
M  V30 8821 C 865.826 -3.59901 -0.119846 0
M  V30 8822 C 865.679 -4.32318 1.2418 0
M  V30 8823 C 866.998 -4.31904 -0.845372 0
M  V30 8824 H 864.117 -0.736999 0.00126205 0
M  V30 8825 H 866.759 -1.77024 0.690102 0
M  V30 8826 H 864.909 -3.81993 -0.708092 0
M  V30 8827 H 866.581 -4.21637 1.87136 0
M  V30 8828 H 864.824 -3.93635 1.82301 0
M  V30 8829 H 865.495 -5.40697 1.11132 0
M  V30 8830 H 867.971 -4.14658 -0.346159 0
M  V30 8831 H 866.847 -5.41509 -0.897723 0
M  V30 8832 H 867.108 -3.99369 -1.89622 0
M  V30 8833 N 866.167 -0.267825 -1.55308 0
M  V30 8834 C 867.097 0.616585 -2.25212 0
M  V30 8835 C 868.078 1.16472 -1.23969 0
M  V30 8836 O 869.263 1.20021 -1.52672 0
M  V30 8837 C 866.393 1.80412 -2.96764 0
M  V30 8838 C 865.347 1.38784 -4.04874 0
M  V30 8839 C 864.673 2.65789 -4.63961 0
M  V30 8840 C 865.973 0.543415 -5.19465 0
M  V30 8841 H 867.667 0.0336257 -2.99381 0
M  V30 8842 H 865.213 0.0147328 -1.43992 0
M  V30 8843 H 867.166 2.42866 -3.44375 0
M  V30 8844 H 865.89 2.4128 -2.20118 0
M  V30 8845 H 864.549 0.786541 -3.58063 0
M  V30 8846 H 864.197 3.24899 -3.83992 0
M  V30 8847 H 863.897 2.38651 -5.36954 0
M  V30 8848 H 865.421 3.29104 -5.14318 0
M  V30 8849 H 866.835 1.07277 -5.63174 0
M  V30 8850 H 865.232 0.367219 -5.98975 0
M  V30 8851 H 866.302 -0.439534 -4.82904 0
M  V30 8852 N 867.645 1.57599 0.00500368 0
M  V30 8853 C 868.555 2.11532 1.01446 0
M  V30 8854 C 869.571 1.05941 1.3803 0
M  V30 8855 O 870.747 1.37815 1.46864 0
M  V30 8856 C 867.812 2.60382 2.28915 0
M  V30 8857 C 866.873 3.80554 1.98689 0
M  V30 8858 C 866.106 4.27064 3.20081 0
M  V30 8859 O 866.329 3.72939 4.31593 0
M  V30 8860 O 865.263 5.1927 3.04371 0
M  V30 8861 H 869.089 2.97993 0.586011 0
M  V30 8862 H 866.674 1.47718 0.223519 0
M  V30 8863 H 868.556 2.92024 3.03809 0
M  V30 8864 H 867.231 1.77022 2.71007 0
M  V30 8865 H 866.138 3.53893 1.21286 0
M  V30 8866 H 867.471 4.64972 1.61437 0
M  V30 8867 N 869.123 -0.277682 1.55134 0
M  V30 8868 C 870.534 -0.849063 1.66276 0
M  V30 8869 C 870.885 -1.87223 0.5867 0
M  V30 8870 O 870.01 -2.14676 -0.272635 0
M  V30 8871 C 870.605 -1.54681 3.01429 0
M  V30 8872 C 869.164 -2.06628 3.14614 0
M  V30 8873 C 868.311 -0.906748 2.62056 0
M  V30 8874 H 871.262 -0.0541357 1.58608 0
M  V30 8875 H 871.283 -2.41356 2.94156 0
M  V30 8876 H 870.795 -0.80189 3.79725 0
M  V30 8877 H 868.896 -2.84095 2.41082 0
M  V30 8878 H 869.009 -2.2848 4.2111 0
M  V30 8879 H 867.373 -1.29882 2.19095 0
M  V30 8880 H 868.156 -0.175414 3.42852 0
M  V30 8881 N 870.601 -1.47988 -0.541979 0
M  V30 8882 C 871.548 -1.61615 -1.6477 0
M  V30 8883 C 872.518 -0.458602 -1.59644 0
M  V30 8884 O 873.703 -0.680585 -1.78249 0
M  V30 8885 C 870.843 -1.65066 -3.03063 0
M  V30 8886 C 869.956 -2.91845 -3.18513 0
M  V30 8887 C 869.091 -2.86534 -4.47294 0
M  V30 8888 C 868.13 -4.0807 -4.5623 0
M  V30 8889 N 867.267 -4.00905 -5.76385 0
M  V30 8890 H 872.107 -2.56046 -1.52461 0
M  V30 8891 H 869.644 -1.26989 -0.742449 0
M  V30 8892 H 871.602 -1.65049 -3.83164 0
M  V30 8893 H 870.232 -0.74136 -3.14171 0
M  V30 8894 H 869.284 -3.01661 -2.31743 0
M  V30 8895 H 870.596 -3.81804 -3.20978 0
M  V30 8896 H 869.75 -2.84851 -5.35672 0
M  V30 8897 H 868.489 -1.94283 -4.47332 0
M  V30 8898 H 867.494 -4.10041 -3.66261 0
M  V30 8899 H 868.719 -5.01465 -4.5794 0
M  V30 8900 H 866.665 -3.11467 -5.77342 0
M  V30 8901 H 866.582 -4.84557 -5.80293 0
M  V30 8902 H 867.85 -4.03263 -6.67083 0
M  V30 8903 N 872.079 0.78992 -1.36375 0
M  V30 8904 C 873.042 1.88414 -1.30509 0
M  V30 8905 C 874.042 1.59384 -0.2129 0
M  V30 8906 O 875.232 1.67805 -0.467651 0
M  V30 8907 C 872.364 3.25188 -1.02302 0
M  V30 8908 H 873.557 1.95031 -2.27822 0
M  V30 8909 H 871.11 0.987664 -1.2114 0
M  V30 8910 H 871.845 3.24254 -0.0544486 0
M  V30 8911 H 871.63 3.47647 -1.81338 0
M  V30 8912 H 873.12 4.05252 -1.00801 0
M  V30 8913 N 873.557 1.20646 1.01402 0
M  V30 8914 C 874.834 0.927176 1.72229 0
M  V30 8915 C 875.214 -0.563382 2.03443 0
M  V30 8916 O 874.562 -1.52576 1.70096 0
M  V30 8917 C 874.772 1.80285 2.98828 0
M  V30 8918 C 876.12 2.04624 3.72041 0
M  V30 8919 O 877.144 1.77559 3.0879 0
M  V30 8920 O 876.003 2.50347 4.85787 0
M  V30 8921 H 873.097 0.346891 0.75073 0
M  V30 8922 H 875.643 1.31532 1.07227 0
M  V30 8923 H 874.415 2.81204 2.72102 0
M  V30 8924 H 874.038 1.41495 3.71571 0
M  V30 8925 N 875.035 -1.20752 1.01276 0
M  V30 8926 C 876.283 -1.89645 0.698505 0
M  V30 8927 C 876.604 -1.78986 -0.773883 0
M  V30 8928 O 875.874 -1.18977 -1.55632 0
M  V30 8929 H 874.454 -0.701992 0.255375 0
M  V30 8930 H 877.116 -1.46668 1.28353 0
M  V30 8931 H 876.212 -2.96364 0.978512 0
M  V30 8932 N 876.513 -0.788492 -1.36457 0
M  V30 8933 C 877.76 -0.360461 -1.99266 0
M  V30 8934 C 878.088 1.0676 -1.62581 0
M  V30 8935 O 877.343 1.75205 -0.871884 0
M  V30 8936 C 877.642 -0.470255 -3.54293 0
M  V30 8937 C 877.308 -1.85899 -4.10795 0
M  V30 8938 C 875.97 -2.23896 -4.25939 0
M  V30 8939 C 878.322 -2.76836 -4.41601 0
M  V30 8940 C 875.65 -3.52235 -4.69199 0
M  V30 8941 C 878.002 -4.04602 -4.86292 0
M  V30 8942 C 876.666 -4.42623 -4.99641 0
M  V30 8943 H 875.936 -0.131902 -0.729166 0
M  V30 8944 H 878.583 -1.00577 -1.62962 0
M  V30 8945 H 876.888 0.258559 -3.90946 0
M  V30 8946 H 878.585 -0.120119 -4.0082 0
M  V30 8947 H 875.175 -1.55372 -3.99447 0
M  V30 8948 H 879.359 -2.48735 -4.2947 0
M  V30 8949 H 874.615 -3.81565 -4.77722 0
M  V30 8950 H 878.789 -4.75182 -5.09092 0
M  V30 8951 H 876.416 -5.42125 -5.32921 0
M  V30 8952 N 877.991 1.48044 -0.54043 0
M  V30 8953 C 879.407 1.58354 -0.199006 0
M  V30 8954 C 879.607 1.54118 1.29807 0
M  V30 8955 O 878.663 1.43573 2.07709 0
M  V30 8956 C 879.976 2.89563 -0.810797 0
M  V30 8957 C 881.524 3.03113 -0.780486 0
M  V30 8958 C 881.999 4.36997 -1.37104 0
M  V30 8959 N 883.49 4.43591 -1.33347 0
M  V30 8960 C 884.225 5.45714 -1.76021 0
M  V30 8961 N 883.721 6.54738 -2.26473 0
M  V30 8962 N 885.514 5.36659 -1.67194 0
M  V30 8963 H 877.665 1.49041 -1.51329 0
M  V30 8964 H 879.928 0.708309 -0.630081 0
M  V30 8965 H 879.634 2.9835 -1.86227 0
M  V30 8966 H 879.508 3.76053 -0.293977 0
M  V30 8967 H 881.895 2.93932 0.262246 0
M  V30 8968 H 881.976 2.18207 -1.33489 0
M  V30 8969 H 881.62 4.46932 -2.41276 0
M  V30 8970 H 881.55 5.20607 -0.792229 0
M  V30 8971 H 884.041 3.65391 -0.964259 0
M  V30 8972 H 884.354 7.28814 -2.57002 0
M  V30 8973 H 882.699 6.55673 -2.30473 0
M  V30 8974 H 885.89 4.50382 -1.27569 0
M  V30 8975 H 886.063 6.16113 -2.00771 0
M  V30 8976 N 879.47 0.276058 1.55163 0
M  V30 8977 C 880.418 -0.626978 2.2399 0
M  V30 8978 C 881.412 -1.15708 1.23725 0
M  V30 8979 O 882.618 -1.1106 1.41653 0
M  V30 8980 H 878.993 -0.220742 0.718872 0
M  V30 8981 H 880.964 -0.0236569 2.98391 0
M  V30 8982 C 879.713 -1.79935 2.97521 0
M  V30 8983 H 879.036 -1.40064 3.74463 0
M  V30 8984 H 880.476 -2.40781 3.48999 0
M  V30 8985 C 878.935 -2.68838 2.03046 0
M  V30 8986 O 879.465 -3.69224 1.58229 0
M  V30 8987 N 877.671 -2.36028 1.69527 0
M  V30 8988 H 877.218 -1.54442 2.06169 0
M  V30 8989 H 877.176 -2.95782 1.06586 0
M  V30 8990 N 880.948 -1.576 0.00335426 0
M  V30 8991 C 882.178 -1.94713 -0.690682 0
M  V30 8992 C 882.586 -0.876915 -1.67651 0
M  V30 8993 O 881.929 0.152434 -1.83066 0
M  V30 8994 C 881.991 -3.27833 -1.47532 0
M  V30 8995 C 881.655 -4.52344 -0.650704 0
M  V30 8996 C 882.652 -5.19862 0.0630537 0
M  V30 8997 C 880.337 -4.98755 -0.595687 0
M  V30 8998 C 882.331 -6.32093 0.820779 0
M  V30 8999 C 880.018 -6.10875 0.165761 0
M  V30 9000 C 881.016 -6.77401 0.872724 0
M  V30 9001 O 880.704 -7.87372 1.62174 0
M  V30 9002 H 880.436 -0.646627 -0.197104 0
M  V30 9003 H 882.99 -2.05335 0.0516082 0
M  V30 9004 H 881.22 -3.13628 -2.26217 0
M  V30 9005 H 882.909 -3.50034 -2.05501 0
M  V30 9006 H 883.675 -4.84991 0.0297223 0
M  V30 9007 H 879.554 -4.46797 -1.13549 0
M  V30 9008 H 883.098 -6.83953 1.37312 0
M  V30 9009 H 878.995 -6.45187 0.200901 0
M  V30 9010 H 879.763 -8.03905 1.5388 0
M  V30 9011 N 882.426 0.269451 -1.5528 0
M  V30 9012 C 883.356 1.33729 -1.91413 0
M  V30 9013 C 884.337 1.51348 -0.776391 0
M  V30 9014 O 885.522 1.64332 -1.03482 0
M  V30 9015 C 882.652 2.69618 -2.18914 0
M  V30 9016 C 881.606 2.66725 -3.34726 0
M  V30 9017 C 880.932 4.06199 -3.47716 0
M  V30 9018 C 882.232 2.25684 -4.71025 0
M  V30 9019 H 883.926 1.03736 -2.80854 0
M  V30 9020 H 881.472 0.497579 -1.3513 0
M  V30 9021 H 883.425 3.44436 -2.42779 0
M  V30 9022 H 882.149 3.01201 -1.26275 0
M  V30 9023 H 880.808 1.94365 -3.10834 0
M  V30 9024 H 880.456 4.3501 -2.52537 0
M  V30 9025 H 880.156 4.05157 -4.25583 0
M  V30 9026 H 881.68 4.8275 -3.73877 0
M  V30 9027 H 883.094 2.90225 -4.94411 0
M  V30 9028 H 881.491 2.35797 -5.51833 0
M  V30 9029 H 882.561 1.20819 -4.69607 0
M  V30 9030 N 883.904 1.48273 0.534124 0
M  V30 9031 C 885.152 1.55771 1.28762 0
M  V30 9032 C 885.473 0.231575 1.9362 0
M  V30 9033 O 884.743 -0.746533 1.81118 0
M  V30 9034 H 883.323 0.573851 0.47823 0
M  V30 9035 H 885.985 1.84712 0.621888 0
M  V30 9036 H 885.081 2.33657 2.06908 0
M  V30 9037 N 885.382 -0.782676 1.36792 0
M  V30 9038 C 886.329 -1.89558 1.31667 0
M  V30 9039 C 887.299 -1.65076 0.184147 0
M  V30 9040 O 888.484 -1.87143 0.371753 0
M  V30 9041 C 885.624 -3.26469 1.11858 0
M  V30 9042 C 884.737 -3.62978 2.34245 0
M  V30 9043 C 883.872 -4.89041 2.07394 0
M  V30 9044 C 882.911 -5.18249 3.25706 0
M  V30 9045 N 882.048 -6.35497 2.98476 0
M  V30 9046 H 886.888 -1.93274 2.26824 0
M  V30 9047 H 884.425 -0.945057 1.12726 0
M  V30 9048 H 886.383 -4.05431 0.983968 0
M  V30 9049 H 885.013 -3.22158 0.203531 0
M  V30 9050 H 884.065 -2.79087 2.58485 0
M  V30 9051 H 885.377 -3.80507 3.22514 0
M  V30 9052 H 884.531 -5.75883 1.90901 0
M  V30 9053 H 883.27 -4.73594 1.16446 0
M  V30 9054 H 882.275 -4.29887 3.4275 0
M  V30 9055 H 883.5 -5.35611 4.1749 0
M  V30 9056 H 881.446 -6.21429 2.10146 0
M  V30 9057 H 881.363 -6.5339 3.80286 0
M  V30 9058 H 882.631 -7.25304 2.85577 0
M  V30 9059 N 886.86 -1.21182 -1.00761 0
M  V30 9060 C 888.108 -1.02543 -1.74153 0
M  V30 9061 C 888.429 0.442372 -1.89916 0
M  V30 9062 O 887.699 1.31927 -1.44818 0
M  V30 9063 H 886.279 -0.37644 -0.645214 0
M  V30 9064 H 888.941 -1.52446 -1.21434 0
M  V30 9065 H 888.037 -1.49122 -2.7417 0
M  V30 9066 N 888.338 1.20213 -1.01915 0
M  V30 9067 C 889.286 2.25125 -0.584936 0
M  V30 9068 C 890.28 1.65138 0.377602 0
M  V30 9069 O 891.486 1.78294 0.247245 0
M  V30 9070 H 887.861 0.732333 -0.170858 0
M  V30 9071 H 889.832 2.59075 -1.48063 0
M  V30 9072 C 888.581 3.47651 0.058389 0
M  V30 9073 H 887.904 3.9409 -0.673263 0
M  V30 9074 H 889.344 4.2275 0.325285 0
M  V30 9075 C 887.803 3.10725 1.30199 0
M  V30 9076 O 888.333 3.22491 2.39505 0
M  V30 9077 N 886.539 2.6525 1.18706 0
M  V30 9078 H 886.086 2.55875 0.297618 0
M  V30 9079 H 886.044 2.40913 2.02011 0
M  V30 9080 N 889.816 0.795718 1.36037 0
M  V30 9081 C 891.227 0.433379 1.816 0
M  V30 9082 C 891.578 -1.04341 1.66155 0
M  V30 9083 O 890.703 -1.81004 1.18603 0
M  V30 9084 C 891.298 0.77985 3.29703 0
M  V30 9085 C 889.857 0.470256 3.73451 0
M  V30 9086 C 889.004 1.01119 2.58206 0
M  V30 9087 H 891.955 0.988317 1.24169 0
M  V30 9088 H 891.976 0.0732898 3.80429 0
M  V30 9089 H 891.488 1.85473 3.40913 0
M  V30 9090 H 889.589 -0.596332 3.67797 0
M  V30 9091 H 889.702 0.995276 4.68648 0
M  V30 9092 H 888.066 0.434077 2.50974 0
M  V30 9093 H 888.849 2.09196 2.72198 0
M  V30 9094 N 891.294 -1.47756 0.548274 0
M  V30 9095 C 892.224 -2.32702 -0.19284 0
M  V30 9096 C 893.205 -1.43237 -0.917457 0
M  V30 9097 O 894.39 -1.72103 -0.89967 0
M  V30 9098 C 891.52 -3.24831 -1.22891 0
M  V30 9099 C 890.474 -4.23466 -0.621312 0
M  V30 9100 C 889.8 -5.04856 -1.76137 0
M  V30 9101 C 891.1 -5.20616 0.419055 0
M  V30 9102 H 892.794 -2.94914 0.516323 0
M  V30 9103 H 890.34 -1.41818 0.24975 0
M  V30 9104 H 892.293 -3.83094 -1.75547 0
M  V30 9105 H 891.017 -2.60656 -1.9679 0
M  V30 9106 H 889.676 -3.66416 -0.116123 0
M  V30 9107 H 889.324 -4.37091 -2.48918 0
M  V30 9108 H 889.024 -5.71629 -1.36065 0
M  V30 9109 H 890.548 -5.65976 -2.29136 0
M  V30 9110 H 891.962 -5.73296 -0.0211034 0
M  V30 9111 H 890.359 -5.95543 0.738163 0
M  V30 9112 H 891.429 -4.66638 1.31822 0
M  V30 9113 N 892.772 -0.284283 -1.55015 0
M  V30 9114 C 894.183 0.211681 -1.85496 0
M  V30 9115 C 894.534 1.54735 -1.2063 0
M  V30 9116 O 893.659 2.10594 -0.497918 0
M  V30 9117 C 894.254 0.390864 -3.36538 0
M  V30 9118 C 892.813 0.831055 -3.67111 0
M  V30 9119 C 891.96 -0.0703581 -2.77211 0
M  V30 9120 H 894.911 -0.505803 -1.50424 0
M  V30 9121 H 894.932 1.22803 -3.60138 0
M  V30 9122 H 894.444 -0.581409 -3.8372 0
M  V30 9123 H 892.545 1.81447 -3.25434 0
M  V30 9124 H 892.658 0.662026 -4.74504 0
M  V30 9125 H 891.022 0.447528 -2.50737 0
M  V30 9126 H 891.805 -1.03868 -3.2721 0
M  V30 9127 N 894.251 1.57596 -0.0117121 0
M  V30 9128 C 895.214 2.08089 0.960816 0
M  V30 9129 C 896.214 0.992519 1.26514 0
M  V30 9130 O 897.404 1.25475 1.20837 0
M  V30 9131 C 894.536 2.53217 2.28241 0
M  V30 9132 H 895.729 2.9529 0.523829 0
M  V30 9133 H 893.282 1.54508 0.235995 0
M  V30 9134 H 894.017 1.69294 2.76604 0
M  V30 9135 H 893.802 3.32714 2.0747 0
M  V30 9136 H 895.292 2.92568 2.97983 0
M  V30 9137 N 895.729 -0.261212 1.5542 0
M  V30 9138 C 896.639 -1.34493 1.92221 0
M  V30 9139 C 897.655 -1.53421 0.82086 0
M  V30 9140 O 898.831 -1.6732 1.12099 0
M  V30 9141 C 895.896 -2.68209 2.19692 0
M  V30 9142 C 894.957 -2.57927 3.43179 0
M  V30 9143 C 894.19 -3.85266 3.69331 0
M  V30 9144 O 894.413 -4.86493 2.97793 0
M  V30 9145 O 893.347 -3.8476 4.62865 0
M  V30 9146 H 897.173 -1.06278 2.84497 0
M  V30 9147 H 894.758 -0.460752 1.42118 0
M  V30 9148 H 896.64 -3.47252 2.38734 0
M  V30 9149 H 895.315 -2.96186 1.30597 0
M  V30 9150 H 894.222 -1.77219 3.2946 0
M  V30 9151 H 895.555 -2.34898 4.32532 0
M  V30 9152 N 897.207 -1.48554 -0.526253 0
M  V30 9153 C 898.437 -1.60197 -1.30463 0
M  V30 9154 C 898.845 -0.26278 -1.87366 0
M  V30 9155 O 898.188 0.758537 -1.67308 0
M  V30 9156 C 898.25 -2.59223 -2.49085 0
M  V30 9157 C 897.914 -4.04199 -2.13241 0
M  V30 9158 C 898.911 -4.91771 -1.68694 0
M  V30 9159 C 896.596 -4.49762 -2.2365 0
M  V30 9160 C 898.59 -6.22934 -1.35026 0
M  V30 9161 C 896.277 -5.80945 -1.89594 0
M  V30 9162 C 897.275 -6.67354 -1.45353 0
M  V30 9163 O 896.963 -7.96096 -1.11745 0
M  V30 9164 H 896.695 -0.54284 -0.402866 0
M  V30 9165 H 899.249 -1.95137 -0.641157 0
M  V30 9166 H 897.479 -2.19412 -3.18426 0
M  V30 9167 H 899.168 -2.60661 -3.11144 0
M  V30 9168 H 899.934 -4.57806 -1.6012 0
M  V30 9169 H 895.813 -3.8269 -2.5704 0
M  V30 9170 H 899.357 -6.90334 -1.00422 0
M  V30 9171 H 895.254 -6.14444 -1.9781 0
M  V30 9172 H 896.022 -8.08882 -1.25111 0
M  V30 9173 N 898.685 0.775411 -1.37205 0
M  V30 9174 C 899.618 1.8957 -1.27037 0
M  V30 9175 C 900.596 1.61891 -0.151643 0
M  V30 9176 O 901.78 1.85673 -0.325218 0
M  V30 9177 C 898.907 3.24712 -0.963316 0
M  V30 9178 C 897.953 3.71306 -2.09842 0
M  V30 9179 S 898.786 3.8541 -3.71778 0
M  V30 9180 C 899.942 5.23406 -3.43216 0
M  V30 9181 H 900.175 1.97905 -2.21857 0
M  V30 9182 H 897.708 0.936127 -1.22784 0
M  V30 9183 H 899.666 4.02768 -0.792983 0
M  V30 9184 H 898.327 3.14083 -0.0326561 0
M  V30 9185 H 897.52 4.69271 -1.83849 0
M  V30 9186 H 897.122 3.00341 -2.2287 0
M  V30 9187 H 899.414 6.08454 -2.97977 0
M  V30 9188 H 900.357 5.54409 -4.40495 0
M  V30 9189 H 900.765 4.9117 -2.78231 0
M  V30 9190 N 900.163 1.21714 1.00117 0
M  V30 9191 C 901.093 1.00397 2.10815 0
M  V30 9192 C 902.074 -0.0723502 1.69946 0
M  V30 9193 O 903.259 0.0882398 1.93999 0
M  V30 9194 C 900.389 0.572001 3.42557 0
M  V30 9195 C 899.343 1.59331 3.97237 0
M  V30 9196 C 898.669 1.01746 5.2493 0
M  V30 9197 C 899.969 2.98117 4.28863 0
M  V30 9198 H 901.663 1.92983 2.28906 0
M  V30 9199 H 899.209 0.929273 1.10002 0
M  V30 9200 H 901.162 0.410018 4.19401 0
M  V30 9201 H 899.886 -0.38951 3.24269 0
M  V30 9202 H 898.545 1.74293 3.22518 0
M  V30 9203 H 898.193 0.0475491 5.02978 0
M  V30 9204 H 897.893 1.69969 5.62481 0
M  V30 9205 H 899.417 0.866881 6.04415 0
M  V30 9206 H 900.831 2.86578 4.96534 0
M  V30 9207 H 899.228 3.63389 4.77565 0
M  V30 9208 H 900.298 3.48674 3.36979 0
M  V30 9209 N 901.641 -1.19671 1.02551 0
M  V30 9210 C 902.571 -2.25009 0.623965 0
M  V30 9211 C 903.552 -1.66129 -0.36538 0
M  V30 9212 O 904.737 -1.92599 -0.248842 0
M  V30 9213 C 901.867 -3.47287 -0.0294869 0
M  V30 9214 C 900.821 -4.18818 0.881781 0
M  V30 9215 C 900.147 -5.34618 0.0936189 0
M  V30 9216 C 901.447 -4.73986 2.19396 0
M  V30 9217 H 903.141 -2.58851 1.50454 0
M  V30 9218 H 900.687 -1.24425 0.724872 0
M  V30 9219 H 902.64 -4.20168 -0.322016 0
M  V30 9220 H 901.364 -3.12635 -0.944838 0
M  V30 9221 H 900.023 -3.47815 1.15845 0
M  V30 9222 H 899.671 -4.9621 -0.823661 0
M  V30 9223 H 899.371 -5.83409 0.700568 0
M  V30 9224 H 900.895 -6.10297 -0.192249 0
M  V30 9225 H 902.309 -5.38639 1.96319 0
M  V30 9226 H 900.706 -5.3325 2.75254 0
M  V30 9227 H 901.776 -3.92238 2.85092 0
M  V30 9228 N 903.119 -0.802921 -1.35613 0
M  V30 9229 C 904.396 -0.304993 -1.93208 0
M  V30 9230 C 904.776 1.20488 -1.73337 0
M  V30 9231 O 904.124 2.00268 -1.10022 0
M  V30 9232 C 904.334 -0.712383 -3.41652 0
M  V30 9233 C 905.682 -0.699785 -4.18794 0
M  V30 9234 O 906.706 -0.653698 -3.5015 0
M  V30 9235 O 905.565 -0.754842 -5.41262 0
M  V30 9236 H 902.659 -0.0789127 -0.823226 0
M  V30 9237 H 905.205 -0.886372 -1.44712 0
M  V30 9238 H 903.977 -1.75316 -3.49829 0
M  V30 9239 H 903.6 -0.105614 -3.9746 0
M  V30 9240 N 904.597 1.47463 -0.556102 0
M  V30 9241 C 905.544 2.29998 0.192213 0
M  V30 9242 C 906.514 1.38993 0.909403 0
M  V30 9243 O 907.699 1.67954 0.905316 0
M  V30 9244 C 904.839 3.22932 1.21692 0
M  V30 9245 C 903.952 4.29027 0.505908 0
M  V30 9246 C 903.087 5.09114 1.51581 0
M  V30 9247 C 902.126 6.06984 0.789714 0
M  V30 9248 N 901.263 6.80033 1.74639 0
M  V30 9249 H 906.103 2.93468 -0.517734 0
M  V30 9250 H 903.64 1.44654 -0.267147 0
M  V30 9251 H 905.598 3.75234 1.8236 0
M  V30 9252 H 904.228 2.61329 1.89491 0
M  V30 9253 H 903.28 3.7979 -0.215276 0
M  V30 9254 H 904.592 4.9876 -0.062958 0
M  V30 9255 H 903.746 5.6556 2.19606 0
M  V30 9256 H 902.485 4.3928 2.11859 0
M  V30 9257 H 901.49 5.49717 0.0955382 0
M  V30 9258 H 902.715 6.78827 0.192688 0
M  V30 9259 H 900.661 6.12931 2.33777 0
M  V30 9260 H 900.578 7.45933 1.22965 0
M  V30 9261 H 901.846 7.41054 2.41782 0
M  V30 9262 N 906.075 0.2925 1.54862 0
M  V30 9263 C 907.038 -0.574423 2.21885 0
M  V30 9264 C 908.038 -1.06791 1.20218 0
M  V30 9265 O 909.228 -0.9653 1.45009 0
M  V30 9266 C 906.36 -1.79438 2.89853 0
M  V30 9267 H 907.553 0.0110319 2.99898 0
M  V30 9268 H 905.106 0.043256 1.5624 0
M  V30 9269 H 905.841 -2.4199 2.15897 0
M  V30 9270 H 905.626 -1.44827 3.64373 0
M  V30 9271 H 907.116 -2.41048 3.41007 0
M  V30 9272 N 907.553 -1.57587 0.0200696 0
M  V30 9273 C 908.501 -2.10814 -0.982868 0
M  V30 9274 C 909.495 -1.03263 -1.34287 0
M  V30 9275 O 910.701 -1.21708 -1.32617 0
M  V30 9276 H 907.076 -0.673409 -0.334701 0
M  V30 9277 H 909.047 -2.94034 -0.50856 0
M  V30 9278 C 907.796 -2.64301 -2.25921 0
M  V30 9279 H 907.119 -3.46703 -1.99091 0
M  V30 9280 H 908.559 -3.052 -2.94328 0
M  V30 9281 C 907.018 -1.56628 -2.98277 0
M  V30 9282 O 907.548 -0.960825 -3.9004 0
M  V30 9283 N 905.754 -1.28889 -2.60453 0
M  V30 9284 H 905.301 -1.7831 -1.85912 0
M  V30 9285 H 905.259 -0.570697 -3.09177 0
M  V30 9286 N 909.032 0.252966 -1.55557 0
M  V30 9287 C 909.962 1.31691 -1.9282 0
M  V30 9288 C 910.943 1.50516 -0.7924 0
M  V30 9289 O 912.128 1.63225 -1.05219 0
M  V30 9290 C 909.258 2.67281 -2.21762 0
M  V30 9291 C 908.212 2.6316 -3.37536 0
M  V30 9292 C 907.538 4.02488 -3.52005 0
M  V30 9293 C 908.838 2.20675 -4.73392 0
M  V30 9294 H 910.532 1.00751 -2.81939 0
M  V30 9295 H 908.078 0.483219 -1.3565 0
M  V30 9296 H 910.031 3.41842 -2.46419 0
M  V30 9297 H 908.755 2.99845 -1.29463 0
M  V30 9298 H 907.414 1.91057 -3.12878 0
M  V30 9299 H 907.062 4.32307 -2.57137 0
M  V30 9300 H 906.762 4.00621 -4.29857 0
M  V30 9301 H 908.286 4.78758 -3.78977 0
M  V30 9302 H 909.7 2.84965 -4.97461 0
M  V30 9303 H 908.097 2.29931 -5.54303 0
M  V30 9304 H 909.167 1.15831 -4.70862 0
M  V30 9305 N 910.51 1.48831 0.518367 0
M  V30 9306 C 911.44 1.67119 1.63075 0
M  V30 9307 C 912.421 0.519948 1.61958 0
M  V30 9308 O 913.606 0.753824 1.78972 0
M  V30 9309 C 910.736 1.72158 3.01627 0
M  V30 9310 C 909.69 2.86898 3.17606 0
M  V30 9311 C 909.016 2.77035 4.57335 0
M  V30 9312 C 910.316 4.28057 2.99274 0
M  V30 9313 H 912.01 2.60248 1.48025 0
M  V30 9314 H 909.556 1.2524 0.710694 0
M  V30 9315 H 911.509 1.83539 3.7933 0
M  V30 9316 H 910.233 0.756157 3.17726 0
M  V30 9317 H 908.892 2.75091 2.42323 0
M  V30 9318 H 908.54 1.78438 4.70286 0
M  V30 9319 H 908.24 3.54036 4.6897 0
M  V30 9320 H 909.764 2.904 5.37122 0
M  V30 9321 H 911.178 4.40636 3.6676 0
M  V30 9322 H 909.575 5.06145 3.22393 0
M  V30 9323 H 910.645 4.4371 1.95574 0
M  V30 9324 N 911.988 -0.768124 1.37614 0
M  V30 9325 C 913.216 -1.55726 1.36224 0
M  V30 9326 C 913.631 -1.8873 -0.0515357 0
M  V30 9327 O 912.988 -1.51718 -1.0143 0
M  V30 9328 C 913.039 -2.86533 2.20412 0
M  V30 9329 O 912.76 -2.54942 3.56281 0
M  V30 9330 C 914.261 -3.80745 2.27041 0
M  V30 9331 H 911.481 -0.482325 0.46648 0
M  V30 9332 H 914.025 -0.95176 1.81002 0
M  V30 9333 H 912.18 -3.43496 1.79134 0
M  V30 9334 H 912.594 -3.38732 4.00451 0
M  V30 9335 H 914.068 -4.69523 2.90263 0
M  V30 9336 H 914.545 -4.20138 1.27987 0
M  V30 9337 H 915.151 -3.2971 2.68647 0
M  V30 9338 N 913.466 -1.22244 -0.994698 0
M  V30 9339 C 914.396 -1.01513 -2.10279 0
M  V30 9340 C 915.377 0.0633365 -1.69982 0
M  V30 9341 O 916.562 -0.0985268 -1.9395 0
M  V30 9342 C 913.692 -0.59016 -3.42249 0
M  V30 9343 C 912.646 -1.61436 -3.96387 0
M  V30 9344 C 911.972 -1.04528 -5.24383 0
M  V30 9345 C 913.272 -3.00388 -4.27276 0
M  V30 9346 H 914.966 -1.94194 -2.2788 0
M  V30 9347 H 912.512 -0.935094 -1.09508 0
M  V30 9348 H 914.465 -0.432254 -4.19177 0
M  V30 9349 H 913.189 0.372308 -3.24471 0
M  V30 9350 H 911.848 -1.76001 -3.21589 0
M  V30 9351 H 911.496 -0.0742225 -5.02945 0
M  V30 9352 H 911.196 -1.72949 -5.61571 0
M  V30 9353 H 912.72 -0.898922 -6.03947 0
M  V30 9354 H 914.134 -2.89207 -4.95007 0
M  V30 9355 H 912.531 -3.65916 -4.75631 0
M  V30 9356 H 913.601 -3.50456 -3.35125 0
M  V30 9357 N 914.944 1.19125 -1.03184 0
M  V30 9358 C 916.169 1.93379 -0.749628 0
M  V30 9359 C 916.594 1.75153 0.685785 0
M  V30 9360 O 915.952 1.05579 1.47386 0
M  V30 9361 C 916 3.43101 -1.1097 0
M  V30 9362 O 915.104 4.11758 -0.230053 0
M  V30 9363 H 914.445 0.603605 -0.276689 0
M  V30 9364 H 916.975 1.51116 -1.37931 0
M  V30 9365 H 916.985 3.93778 -1.06785 0
M  V30 9366 H 915.66 3.55688 -2.15544 0
M  V30 9367 H 914.237 3.7143 -0.330748 0
M  V30 9368 N 916.422 0.810101 1.35185 0
M  V30 9369 C 917.385 0.22852 2.28058 0
M  V30 9370 C 918.385 -0.586168 1.49735 0
M  V30 9371 O 919.575 -0.40414 1.69447 0
M  V30 9372 C 916.707 -0.681041 3.34028 0
M  V30 9373 H 917.9 1.04768 2.81005 0
M  V30 9374 H 915.453 0.58101 1.451 0
M  V30 9375 H 916.188 -1.52375 2.86273 0
M  V30 9376 H 915.973 -0.0985276 3.91976 0
M  V30 9377 H 917.463 -1.08217 4.03335 0
M  V30 9378 N 917.9 -1.47166 0.563914 0
M  V30 9379 C 919.311 -1.86231 0.132307 0
M  V30 9380 C 919.662 -1.46976 -1.29971 0
M  V30 9381 O 918.787 -0.875911 -1.97881 0
M  V30 9382 C 919.382 -3.37996 0.233335 0
M  V30 9383 C 917.941 -3.76127 -0.143278 0
M  V30 9384 C 917.088 -2.71212 0.577857 0
M  V30 9385 H 920.039 -1.38588 0.773249 0
M  V30 9386 H 920.06 -3.76558 -0.546309 0
M  V30 9387 H 919.572 -3.66535 1.27568 0
M  V30 9388 H 917.673 -3.53205 -1.18648 0
M  V30 9389 H 917.786 -4.78595 0.219952 0
M  V30 9390 H 916.15 -2.54692 0.020186 0
M  V30 9391 H 916.933 -3.02593 1.62149 0
M  V30 9392 N 919.378 -0.300708 -1.54705 0
M  V30 9393 C 920.288 0.584996 -2.27189 0
M  V30 9394 C 921.304 1.14866 -1.30697 0
M  V30 9395 O 922.48 1.17351 -1.63679 0
M  V30 9396 C 919.545 1.74076 -2.99831 0
M  V30 9397 C 918.606 1.2112 -4.1186 0
M  V30 9398 C 917.839 2.31188 -4.81028 0
M  V30 9399 O 918.062 3.5108 -4.49554 0
M  V30 9400 O 916.996 1.97897 -5.68437 0
M  V30 9401 H 920.822 -0.00298177 -3.037 0
M  V30 9402 H 918.407 -0.0671802 -1.49249 0
M  V30 9403 H 920.289 2.41413 -3.45395 0
M  V30 9404 H 918.964 2.31535 -2.26215 0
M  V30 9405 H 917.871 0.50357 -3.70695 0
M  V30 9406 H 919.204 0.682046 -4.87452 0
M  V30 9407 N 920.856 1.57574 -0.0284266 0
M  V30 9408 C 921.789 2.05684 0.988401 0
M  V30 9409 C 922.767 0.952468 1.31783 0
M  V30 9410 O 923.951 1.22274 1.43462 0
M  V30 9411 C 921.078 2.47832 2.30862 0
M  V30 9412 C 920.124 3.69282 2.13384 0
M  V30 9413 S 920.957 5.15962 1.43331 0
M  V30 9414 C 922.113 5.61404 2.76723 0
M  V30 9415 H 922.346 2.9161 0.578873 0
M  V30 9416 H 919.879 1.53309 0.183244 0
M  V30 9417 H 921.837 2.7278 3.06759 0
M  V30 9418 H 920.498 1.62253 2.68947 0
M  V30 9419 H 919.691 3.96618 3.10983 0
M  V30 9420 H 919.293 3.44482 1.45629 0
M  V30 9421 H 921.585 5.65601 3.72963 0
M  V30 9422 H 922.528 6.60956 2.54053 0
M  V30 9423 H 922.936 4.89051 2.81939 0
M  V30 9424 N 922.334 -0.244713 1.55689 0
M  V30 9425 C 923.562 -0.989944 1.8168 0
M  V30 9426 C 923.977 -1.78863 0.604449 0
M  V30 9427 O 923.334 -1.77437 -0.426907 0
M  V30 9428 C 923.385 -1.92607 3.05916 0
M  V30 9429 O 923.106 -1.1597 4.22472 0
M  V30 9430 C 924.607 -2.78711 3.44724 0
M  V30 9431 H 921.827 -0.2912 0.604519 0
M  V30 9432 H 924.371 -0.266938 2.0275 0
M  V30 9433 H 922.526 -2.60333 2.8689 0
M  V30 9434 H 922.94 -1.79311 4.92898 0
M  V30 9435 H 924.414 -3.40141 4.34751 0
M  V30 9436 H 924.891 -3.49935 2.6541 0
M  V30 9437 H 925.497 -2.16435 3.66109 0
M  V30 9438 N 923.813 -1.49104 -0.510467 0
M  V30 9439 C 925.059 -1.58346 -1.26705 0
M  V30 9440 C 925.392 -0.265121 -1.92382 0
M  V30 9441 O 924.667 0.730558 -1.80258 0
M  V30 9442 C 924.95 -2.7359 -2.34137 0
M  V30 9443 C 924.803 -4.1519 -1.73024 0
M  V30 9444 C 926.122 -2.84511 -3.3577 0
M  V30 9445 H 923.241 -0.57637 -0.459311 0
M  V30 9446 H 925.883 -1.81353 -0.566658 0
M  V30 9447 H 924.033 -2.54105 -2.93876 0
M  V30 9448 H 925.705 -4.46167 -1.17186 0
M  V30 9449 H 923.948 -4.21279 -1.03473 0
M  V30 9450 H 924.619 -4.91683 -2.50903 0
M  V30 9451 H 927.095 -3.0222 -2.86011 0
M  V30 9452 H 925.971 -3.6684 -4.08313 0
M  V30 9453 H 926.232 -1.93471 -3.97519 0
M  V30 9454 N 925.291 0.760815 -1.38019 0
M  V30 9455 C 926.221 1.88811 -1.37377 0
M  V30 9456 C 927.202 1.68388 -0.240737 0
M  V30 9457 O 928.387 1.89086 -0.442739 0
M  V30 9458 C 925.517 3.26244 -1.1909 0
M  V30 9459 C 924.471 3.61254 -2.29521 0
M  V30 9460 C 923.797 4.97346 -1.96345 0
M  V30 9461 C 925.097 3.66874 -3.71753 0
M  V30 9462 H 926.791 1.89606 -2.31711 0
M  V30 9463 H 924.337 0.910818 -1.11535 0
M  V30 9464 H 926.29 4.04755 -1.17267 0
M  V30 9465 H 925.014 3.2591 -0.212152 0
M  V30 9466 H 923.673 2.85057 -2.30517 0
M  V30 9467 H 923.321 4.93564 -0.969728 0
M  V30 9468 H 923.021 5.21739 -2.703 0
M  V30 9469 H 924.545 5.78244 -1.96129 0
M  V30 9470 H 925.959 4.35514 -3.72828 0
M  V30 9471 H 924.356 4.02772 -4.44853 0
M  V30 9472 H 925.426 2.67273 -4.0459 0
M  V30 9473 N 926.769 1.22769 0.988202 0
M  V30 9474 C 928.015 1.05665 1.73097 0
M  V30 9475 C 928.348 -0.406615 1.89895 0
M  V30 9476 O 927.623 -1.30132 1.44554 0
M  V30 9477 C 927.906 1.77381 3.13382 0
M  V30 9478 C 927.759 3.31332 3.04203 0
M  V30 9479 C 929.078 1.52999 4.12649 0
M  V30 9480 H 926.197 0.385258 0.628288 0
M  V30 9481 H 928.839 1.51171 1.15097 0
M  V30 9482 H 926.989 1.38696 3.62899 0
M  V30 9483 H 928.661 3.79489 2.6227 0
M  V30 9484 H 926.904 3.60767 2.40894 0
M  V30 9485 H 927.575 3.76692 4.03493 0
M  V30 9486 H 930.051 1.86611 3.71908 0
M  V30 9487 H 928.927 2.05666 5.08913 0
M  V30 9488 H 929.188 0.463615 4.39662 0
M  V30 9489 N 928.247 -1.18576 1.03814 0
M  V30 9490 C 929.495 -1.88121 0.738574 0
M  V30 9491 C 929.816 -1.80587 -0.735744 0
M  V30 9492 O 929.086 -1.22251 -1.53074 0
M  V30 9493 H 927.666 -0.696417 0.270208 0
M  V30 9494 H 930.328 -1.43912 1.31435 0
M  V30 9495 H 929.424 -2.94222 1.04115 0
M  V30 9496 N 929.725 -0.817259 -1.34754 0
M  V30 9497 C 930.973 -0.401852 -1.98065 0
M  V30 9498 C 931.294 1.03718 -1.65129 0
M  V30 9499 O 930.564 1.71921 -0.939141 0
M  V30 9500 H 929.144 -0.145603 -0.732672 0
M  V30 9501 H 931.806 -1.04545 -1.64488 0
M  V30 9502 H 930.902 -0.516241 -3.07801 0
M  V30 9503 N 931.203 1.46865 -0.571711 0
M  V30 9504 C 932.133 2.3298 0.155795 0
M  V30 9505 C 933.114 1.44678 0.894553 0
M  V30 9506 O 934.299 1.73513 0.872176 0
M  V30 9507 C 931.429 3.26745 1.17708 0
M  V30 9508 C 930.383 4.24401 0.553863 0
M  V30 9509 C 929.709 5.07595 1.68083 0
M  V30 9510 C 931.009 5.19884 -0.501827 0
M  V30 9511 H 932.703 2.94056 -0.563176 0
M  V30 9512 H 930.249 1.41402 -0.27228 0
M  V30 9513 H 932.202 3.85838 1.6943 0
M  V30 9514 H 930.926 2.63753 1.92618 0
M  V30 9515 H 929.585 3.66554 0.057815 0
M  V30 9516 H 929.233 4.40996 2.41933 0
M  V30 9517 H 928.933 5.73722 1.26953 0
M  V30 9518 H 930.457 5.6955 2.20103 0
M  V30 9519 H 931.871 5.73257 -0.0701057 0
M  V30 9520 H 930.268 5.94293 -0.832815 0
M  V30 9521 H 931.338 4.64482 -1.39229 0
M  V30 9522 N 932.681 0.308908 1.54543 0
M  V30 9523 C 934.097 -0.0442273 1.59539 0
M  V30 9524 C 934.297 -1.51743 1.32575 0
M  V30 9525 O 933.353 -2.27134 1.10302 0
M  V30 9526 C 934.666 0.360826 2.98527 0
M  V30 9527 C 936.214 0.310252 3.11459 0
M  V30 9528 C 936.689 0.690246 4.52769 0
M  V30 9529 N 938.18 0.643084 4.58714 0
M  V30 9530 C 938.915 0.909483 5.66141 0
M  V30 9531 N 938.411 1.24226 6.81572 0
M  V30 9532 N 940.204 0.836018 5.55848 0
M  V30 9533 H 932.355 1.26893 1.70329 0
M  V30 9534 H 934.618 0.514986 0.795923 0
M  V30 9535 H 934.324 1.38669 3.23209 0
M  V30 9536 H 934.198 -0.281563 3.76148 0
M  V30 9537 H 936.585 -0.706375 2.86521 0
M  V30 9538 H 936.666 0.987373 2.35976 0
M  V30 9539 H 936.31 1.70472 4.78437 0
M  V30 9540 H 936.24 -0.00903075 5.26599 0
M  V30 9541 H 938.731 0.397138 3.75807 0
M  V30 9542 H 939.044 1.4313 7.5943 0
M  V30 9543 H 937.389 1.28038 6.83104 0
M  V30 9544 H 940.58 0.575637 4.64547 0
M  V30 9545 H 940.753 1.047 6.39486 0
M  V30 9546 N 934.159 -1.57557 0.0367827 0
M  V30 9547 C 935.405 -1.92399 -0.641133 0
M  V30 9548 C 935.738 -0.914191 -1.71336 0
M  V30 9549 O 935.013 0.0619616 -1.94401 0
M  V30 9550 C 935.296 -3.37689 -1.25052 0
M  V30 9551 C 935.149 -4.4941 -0.187326 0
M  V30 9552 C 936.468 -3.8309 -2.16634 0
M  V30 9553 H 933.587 -0.699666 -0.231597 0
M  V30 9554 H 936.229 -1.89759 0.0956083 0
M  V30 9555 H 934.379 -3.40069 -1.87843 0
M  V30 9556 H 936.051 -4.59161 0.443736 0
M  V30 9557 H 934.294 -4.31065 0.486313 0
M  V30 9558 H 934.965 -5.48119 -0.653459 0
M  V30 9559 H 937.441 -3.82494 -1.63821 0
M  V30 9560 H 936.317 -4.85429 -2.56222 0
M  V30 9561 H 936.578 -3.19028 -3.06062 0
M  V30 9562 N 935.637 0.236453 -1.55816 0
M  V30 9563 C 936.567 1.29639 -1.94206 0
M  V30 9564 C 937.548 1.49667 -0.808319 0
M  V30 9565 O 938.733 1.621 -1.06945 0
M  V30 9566 C 935.863 2.64914 -2.24584 0
M  V30 9567 C 934.817 2.59565 -3.40308 0
M  V30 9568 C 934.143 3.98732 -3.56254 0
M  V30 9569 C 935.443 2.15642 -4.75706 0
M  V30 9570 H 937.137 0.977552 -2.82992 0
M  V30 9571 H 934.683 0.468804 -1.36155 0
M  V30 9572 H 936.636 3.39209 -2.50031 0
M  V30 9573 H 935.36 2.98455 -1.32636 0
M  V30 9574 H 934.019 1.87728 -3.14887 0
M  V30 9575 H 933.667 4.29556 -2.61707 0
M  V30 9576 H 933.367 3.96039 -4.34082 0
M  V30 9577 H 934.891 4.74711 -3.84033 0
M  V30 9578 H 936.305 2.79673 -5.00456 0
M  V30 9579 H 934.702 2.24039 -5.56711 0
M  V30 9580 H 935.772 1.10831 -4.72064 0
M  V30 9581 N 937.115 1.49373 0.502552 0
M  V30 9582 C 938.363 1.58467 1.25429 0
M  V30 9583 C 938.684 0.272593 1.93085 0
M  V30 9584 O 937.954 -0.707947 1.82661 0
M  V30 9585 H 936.534 0.583866 0.46595 0
M  V30 9586 H 939.196 1.8599 0.582568 0
M  V30 9587 H 938.292 2.37993 2.01906 0
M  V30 9588 N 938.594 -0.753485 1.38421 0
M  V30 9589 C 939.557 -1.84888 1.35459 0
M  V30 9590 C 940.557 -1.58764 0.255083 0
M  V30 9591 O 941.747 -1.66507 0.511978 0
M  V30 9592 C 938.879 -3.22361 1.10888 0
M  V30 9593 H 940.072 -1.88922 2.32913 0
M  V30 9594 H 937.625 -0.955199 1.23716 0
M  V30 9595 H 938.36 -3.23996 0.1404 0
M  V30 9596 H 938.145 -3.42717 1.90492 0
M  V30 9597 H 939.635 -4.02437 1.1151 0
M  V30 9598 N 940.072 -1.23292 -0.981677 0
M  V30 9599 C 941.02 -1.0104 -2.09508 0
M  V30 9600 C 942.014 0.0501977 -1.69326 0
M  V30 9601 O 943.22 -0.103197 -1.79704 0
M  V30 9602 H 939.595 -0.309629 -0.685298 0
M  V30 9603 H 941.566 -1.95493 -2.25444 0
M  V30 9604 C 940.315 -0.616885 -3.42184 0
M  V30 9605 H 939.638 -1.4247 -3.73554 0
M  V30 9606 H 941.078 -0.500688 -4.21033 0
M  V30 9607 C 939.537 0.674721 -3.30074 0
M  V30 9608 O 940.067 1.72421 -3.62814 0
M  V30 9609 N 938.273 0.650151 -2.83234 0
M  V30 9610 H 937.82 -0.204225 -2.56789 0
M  V30 9611 H 937.778 1.51458 -2.75514 0
M  V30 9612 N 941.55 1.18024 -1.04442 0
M  V30 9613 C 942.78 1.91753 -0.769044 0
M  V30 9614 C 943.188 1.76629 0.678141 0
M  V30 9615 O 942.531 1.09589 1.47431 0
M  V30 9616 C 942.593 3.43505 -1.0604 0
M  V30 9617 C 942.257 3.82409 -2.50225 0
M  V30 9618 C 943.254 3.8588 -3.48414 0
M  V30 9619 C 940.939 4.13594 -2.85036 0
M  V30 9620 C 942.933 4.19993 -4.79463 0
M  V30 9621 C 940.62 4.47377 -4.1629 0
M  V30 9622 C 941.618 4.50553 -5.13314 0
M  V30 9623 O 941.306 4.83546 -6.42214 0
M  V30 9624 H 941.038 0.615466 -0.279603 0
M  V30 9625 H 943.592 1.5065 -1.3962 0
M  V30 9626 H 941.822 3.84866 -0.376125 0
M  V30 9627 H 943.511 3.98486 -0.772235 0
M  V30 9628 H 944.277 3.6192 -3.2286 0
M  V30 9629 H 940.156 4.10297 -2.10185 0
M  V30 9630 H 943.7 4.22387 -5.55189 0
M  V30 9631 H 939.597 4.70798 -4.4161 0
M  V30 9632 H 940.365 5.01433 -6.46921 0
M  V30 9633 N 943.028 0.824394 1.34319 0
M  V30 9634 C 943.975 0.245282 2.29493 0
M  V30 9635 C 944.945 -0.630762 1.53657 0
M  V30 9636 O 946.13 -0.572094 1.82021 0
M  V30 9637 C 943.27 -0.585631 3.40095 0
M  V30 9638 C 942.383 0.312821 4.30866 0
M  V30 9639 C 941.518 -0.527801 5.28571 0
M  V30 9640 C 940.557 0.369946 6.10981 0
M  V30 9641 N 939.694 -0.43169 7.00772 0
M  V30 9642 H 944.534 1.06225 2.78425 0
M  V30 9643 H 942.071 0.53533 1.37013 0
M  V30 9644 H 944.029 -1.08271 4.02906 0
M  V30 9645 H 942.659 -1.3677 2.92393 0
M  V30 9646 H 941.711 0.928129 3.68904 0
M  V30 9647 H 943.023 1.00306 4.8861 0
M  V30 9648 H 942.177 -1.0893 5.96841 0
M  V30 9649 H 940.916 -1.25154 4.71368 0
M  V30 9650 H 939.921 0.943577 5.41643 0
M  V30 9651 H 941.146 1.09182 6.70266 0
M  V30 9652 H 939.092 -1.13908 6.46035 0
M  V30 9653 H 939.009 0.200133 7.55735 0
M  V30 9654 H 940.277 -0.975894 7.73367 0
M  V30 9655 N 944.506 -1.46559 0.579492 0
M  V30 9656 C 945.922 -1.57771 0.240921 0
M  V30 9657 C 946.122 -1.57505 -1.25676 0
M  V30 9658 O 945.178 -1.4903 -2.03829 0
M  V30 9659 C 946.491 -2.87311 0.887285 0
M  V30 9660 C 948.039 -3.00937 0.860576 0
M  V30 9661 C 948.514 -4.33208 1.48642 0
M  V30 9662 N 950.005 -4.39899 1.45062 0
M  V30 9663 C 950.74 -5.40856 1.90428 0
M  V30 9664 N 950.236 -6.48503 2.43752 0
M  V30 9665 N 952.029 -5.32037 1.81364 0
M  V30 9666 H 944.18 -1.44976 1.55228 0
M  V30 9667 H 946.443 -0.691354 0.648639 0
M  V30 9668 H 946.149 -2.93307 1.94071 0
M  V30 9669 H 946.023 -3.75141 0.393577 0
M  V30 9670 H 948.41 -2.94524 -0.184223 0
M  V30 9671 H 948.491 -2.14591 1.39227 0
M  V30 9672 H 948.135 -4.40378 2.5304 0
M  V30 9673 H 948.065 -5.18323 0.92998 0
M  V30 9674 H 950.556 -3.62706 1.0608 0
M  V30 9675 H 950.869 -7.21744 2.76234 0
M  V30 9676 H 949.214 -6.49332 2.47776 0
M  V30 9677 H 952.405 -4.46841 1.39465 0
M  V30 9678 H 952.578 -6.10573 2.17035 0
M  V30 9679 N 945.984 -0.3171 -1.54377 0
M  V30 9680 C 946.914 0.544623 -2.2706 0
M  V30 9681 C 947.895 1.12469 -1.27611 0
M  V30 9682 O 949.08 1.15103 -1.56413 0
M  V30 9683 C 946.21 1.70879 -3.02353 0
M  V30 9684 C 945.164 1.25833 -4.09084 0
M  V30 9685 C 944.49 2.50894 -4.72182 0
M  V30 9686 C 945.79 0.377876 -5.20931 0
M  V30 9687 H 947.484 -0.0616372 -2.99337 0
M  V30 9688 H 945.03 -0.0310848 -1.43966 0
M  V30 9689 H 946.983 2.31787 -3.51927 0
M  V30 9690 H 945.707 2.34155 -2.27682 0
M  V30 9691 H 944.366 0.672228 -3.60384 0
M  V30 9692 H 944.014 3.12518 -3.94134 0
M  V30 9693 H 943.714 2.21447 -5.44275 0
M  V30 9694 H 945.238 3.12575 -5.24528 0
M  V30 9695 H 946.652 0.893056 -5.66302 0
M  V30 9696 H 945.049 0.176474 -5.9984 0
M  V30 9697 H 946.119 -0.592943 -4.81261 0
M  V30 9698 N 947.462 1.57535 -0.0451378 0
M  V30 9699 C 948.873 1.80116 0.491426 0
M  V30 9700 C 949.224 0.956846 1.71286 0
M  V30 9701 O 948.349 0.17173 2.15718 0
M  V30 9702 C 948.944 3.26674 0.898315 0
M  V30 9703 C 947.503 3.50194 1.37989 0
M  V30 9704 C 946.65 2.75054 0.352202 0
M  V30 9705 H 949.601 1.56368 -0.271065 0
M  V30 9706 H 949.622 3.37263 1.76164 0
M  V30 9707 H 949.134 3.88099 0.009141 0
M  V30 9708 H 947.235 2.94041 2.28846 0
M  V30 9709 H 947.348 4.58909 1.37622 0
M  V30 9710 H 945.712 2.4101 0.823784 0
M  V30 9711 H 946.495 3.39203 -0.528782 0
M  V30 9712 N 948.94 -0.228186 1.55939 0
M  V30 9713 C 949.87 -1.28607 1.94891 0
M  V30 9714 C 950.851 -1.49236 0.816245 0
M  V30 9715 O 952.036 -1.61531 1.07803 0
M  V30 9716 C 949.166 -2.63719 2.25986 0
M  V30 9717 C 948.12 -2.57757 3.4168 0
M  V30 9718 C 947.446 -3.96837 3.58364 0
M  V30 9719 C 948.746 -2.13116 4.76843 0
M  V30 9720 H 950.44 -0.962531 2.83506 0
M  V30 9721 H 947.986 -0.461577 1.36402 0
M  V30 9722 H 949.939 -3.37878 2.51826 0
M  V30 9723 H 948.663 -2.97747 1.34217 0
M  V30 9724 H 947.322 -1.86055 3.15878 0
M  V30 9725 H 946.97 -4.28162 2.63982 0
M  V30 9726 H 946.67 -3.93731 4.36176 0
M  V30 9727 H 948.194 -4.72668 3.86545 0
M  V30 9728 H 949.608 -2.77015 5.01932 0
M  V30 9729 H 948.005 -2.21083 5.57891 0
M  V30 9730 H 949.075 -1.08326 4.72645 0
M  V30 9731 N 950.418 -1.49637 -0.494624 0
M  V30 9732 C 951.666 -1.5913 -1.24587 0
M  V30 9733 C 951.987 -0.282828 -1.92938 0
M  V30 9734 O 951.257 0.69825 -1.83034 0
M  V30 9735 H 949.837 -0.586329 -0.462847 0
M  V30 9736 H 952.499 -1.86296 -0.572696 0
M  V30 9737 H 951.595 -2.3906 -2.00641 0
M  V30 9738 N 951.896 0.746133 -1.38819 0
M  V30 9739 C 953.142 1.50768 -1.35635 0
M  V30 9740 C 953.475 1.94132 0.0512435 0
M  V30 9741 O 952.75 1.65979 1.01396 0
M  V30 9742 C 953.033 2.7551 -2.31875 0
M  V30 9743 C 952.886 2.38236 -3.81528 0
M  V30 9744 C 954.205 3.77566 -2.26124 0
M  V30 9745 H 951.324 0.546922 -0.494009 0
M  V30 9746 H 953.966 0.854017 -1.69725 0
M  V30 9747 H 952.116 3.31285 -2.02935 0
M  V30 9748 H 953.788 1.88178 -4.21173 0
M  V30 9749 H 952.031 1.70601 -3.98846 0
M  V30 9750 H 952.702 3.27517 -4.44339 0
M  V30 9751 H 955.178 3.31349 -2.51689 0
M  V30 9752 H 954.054 4.62531 -2.95561 0
M  V30 9753 H 954.315 4.23689 -1.26254 0
M  V30 9754 N 953.375 1.23811 0.975125 0
M  V30 9755 C 954.622 1.07336 1.71712 0
M  V30 9756 C 954.95 -0.388954 1.90571 0
M  V30 9757 O 954.205 -1.30409 1.45918 0
M  V30 9758 C 954.504 1.74994 3.11628 0
M  V30 9759 C 954.17 3.24918 3.12632 0
M  V30 9760 C 952.832 3.65822 3.12614 0
M  V30 9761 C 955.184 4.20797 3.07538 0
M  V30 9762 C 952.512 5.01054 3.05224 0
M  V30 9763 C 954.864 5.56027 3.0169 0
M  V30 9764 C 953.528 5.96287 2.99996 0
M  V30 9765 H 952.798 0.392771 0.62834 0
M  V30 9766 H 955.445 1.53815 1.14075 0
M  V30 9767 H 953.75 1.20889 3.72684 0
M  V30 9768 H 955.447 1.5972 3.67819 0
M  V30 9769 H 952.037 2.92359 3.13407 0
M  V30 9770 H 956.221 3.902 3.06688 0
M  V30 9771 H 951.477 5.31454 3.02268 0
M  V30 9772 H 955.651 6.3003 2.96706 0
M  V30 9773 H 953.278 7.01037 2.94025 0
M  V30 9774 N 954.853 -1.17469 1.05066 0
M  V30 9775 C 956.081 -1.9162 0.780334 0
M  V30 9776 C 956.496 -1.76745 -0.663817 0
M  V30 9777 O 955.853 -1.10377 -1.45338 0
M  V30 9778 C 955.904 -3.42723 1.14992 0
M  V30 9779 O 955.625 -3.57139 2.53739 0
M  V30 9780 C 957.126 -4.33952 0.905549 0
M  V30 9781 H 954.346 -0.608022 0.283814 0
M  V30 9782 H 956.89 -1.4897 1.401 0
M  V30 9783 H 955.045 -3.83124 0.57403 0
M  V30 9784 H 955.459 -4.5075 2.68189 0
M  V30 9785 H 956.933 -5.38487 1.21391 0
M  V30 9786 H 957.41 -4.38911 -0.159295 0
M  V30 9787 H 958.016 -3.99263 1.46522 0
M  V30 9788 N 956.331 -0.831506 -1.3388 0
M  V30 9789 C 957.241 -0.261688 -2.33136 0
M  V30 9790 C 958.257 0.608429 -1.63016 0
M  V30 9791 O 959.433 0.514297 -1.94723 0
M  V30 9792 C 956.498 0.559957 -3.42148 0
M  V30 9793 C 955.559 -0.333569 -4.28002 0
M  V30 9794 C 954.792 0.448956 -5.31808 0
M  V30 9795 O 955.015 1.6814 -5.45055 0
M  V30 9796 O 953.949 -0.173197 -6.01651 0
M  V30 9797 H 957.775 -1.08343 -2.83717 0
M  V30 9798 H 955.36 -0.593849 -1.3709 0
M  V30 9799 H 957.242 1.02712 -4.08691 0
M  V30 9800 H 955.917 1.35888 -2.93796 0
M  V30 9801 H 954.824 -0.848416 -3.64352 0
M  V30 9802 H 956.157 -1.09707 -4.79818 0
M  V30 9803 N 957.809 1.4625 -0.587256 0
M  V30 9804 C 958.772 2.28812 0.133238 0
M  V30 9805 C 959.772 1.38645 0.814513 0
M  V30 9806 O 960.962 1.60975 0.665774 0
M  V30 9807 C 958.094 3.19147 1.19824 0
M  V30 9808 H 959.287 2.93991 -0.592386 0
M  V30 9809 H 956.84 1.52435 -0.345416 0
M  V30 9810 H 957.575 2.58725 1.95529 0
M  V30 9811 H 957.36 3.85541 0.71418 0
M  V30 9812 H 958.85 3.81278 1.70344 0
M  V30 9813 N 959.287 0.325282 1.54207 0
M  V30 9814 C 960.512 -0.281418 2.05482 0
M  V30 9815 C 960.937 -1.44869 1.19977 0
M  V30 9816 O 960.295 -1.80088 0.209275 0
M  V30 9817 C 960.343 -0.692029 3.53897 0
M  V30 9818 O 959.447 -1.7942 3.71325 0
M  V30 9819 H 958.788 -0.0504872 0.662078 0
M  V30 9820 H 961.318 0.474191 1.99029 0
M  V30 9821 H 961.328 -0.974219 3.96198 0
M  V30 9822 H 960.003 0.161709 4.15586 0
M  V30 9823 H 958.58 -1.51069 3.40929 0
M  V30 9824 N 960.765 -1.57509 0.0534917 0
M  V30 9825 C 961.675 -2.15152 -0.935249 0
M  V30 9826 C 962.691 -1.10991 -1.34003 0
M  V30 9827 O 963.867 -1.43171 -1.41648 0
M  V30 9828 C 960.932 -2.68699 -2.19093 0
M  V30 9829 C 959.993 -3.87666 -1.84428 0
M  V30 9830 C 959.226 -4.3865 -3.0401 0
M  V30 9831 O 959.449 -3.887 -4.17455 0
M  V30 9832 O 958.383 -5.30209 -2.84889 0
M  V30 9833 H 962.209 -2.99962 -0.475009 0
M  V30 9834 H 959.794 -1.48446 -0.16854 0
M  V30 9835 H 961.676 -3.03098 -2.92762 0
M  V30 9836 H 960.351 -1.86958 -2.6425 0
M  V30 9837 H 959.258 -3.58151 -1.08068 0
M  V30 9838 H 960.591 -4.70643 -1.44068 0
M  V30 9839 N 962.243 0.219913 -1.56058 0
M  V30 9840 C 963.468 0.965073 -1.83579 0
M  V30 9841 C 963.893 1.77092 -0.634024 0
M  V30 9842 O 963.251 1.76434 0.417205 0
M  V30 9843 C 963.299 1.85705 -3.09105 0
M  V30 9844 O 962.403 2.95261 -2.87914 0
M  V30 9845 H 961.744 0.273173 -0.605204 0
M  V30 9846 H 964.274 0.23273 -2.03272 0
M  V30 9847 H 964.284 2.26655 -3.39252 0
M  V30 9848 H 962.959 1.26476 -3.96203 0
M  V30 9849 H 961.536 2.58246 -2.69005 0
M  V30 9850 N 963.721 1.49897 0.486681 0
M  V30 9851 C 964.651 1.7054 1.59494 0
M  V30 9852 C 965.632 0.554184 1.60819 0
M  V30 9853 O 966.817 0.791617 1.77333 0
M  V30 9854 C 963.947 1.78517 2.97908 0
M  V30 9855 C 962.901 2.93571 3.11449 0
M  V30 9856 C 962.227 2.86674 4.51356 0
M  V30 9857 C 963.527 4.34308 2.90127 0
M  V30 9858 H 965.221 2.63329 1.42472 0
M  V30 9859 H 962.767 1.2672 0.683969 0
M  V30 9860 H 964.72 1.91544 3.75352 0
M  V30 9861 H 963.444 0.823381 3.16051 0
M  V30 9862 H 962.103 2.80169 2.36433 0
M  V30 9863 H 961.751 1.88373 4.66395 0
M  V30 9864 H 961.451 3.63903 4.61355 0
M  V30 9865 H 962.975 3.01728 5.30841 0
M  V30 9866 H 964.389 4.48317 3.57331 0
M  V30 9867 H 962.786 5.12869 3.11585 0
M  V30 9868 H 963.856 4.47759 1.86119 0
M  V30 9869 N 965.199 -0.738761 1.39212 0
M  V30 9870 C 966.427 -1.52801 1.39497 0
M  V30 9871 C 966.842 -1.88797 -0.0114917 0
M  V30 9872 O 966.199 -1.53835 -0.981887 0
M  V30 9873 C 966.25 -2.81793 2.2644 0
M  V30 9874 O 965.971 -2.47328 3.61608 0
M  V30 9875 C 967.472 -3.75844 2.35067 0
M  V30 9876 H 964.692 -0.472322 0.476606 0
M  V30 9877 H 967.236 -0.913153 1.8298 0
M  V30 9878 H 965.391 -3.3962 1.8638 0
M  V30 9879 H 965.805 -3.30162 4.07545 0
M  V30 9880 H 967.279 -4.6326 3.00157 0
M  V30 9881 H 967.756 -4.17329 1.3687 0
M  V30 9882 H 968.362 -3.23937 2.75581 0
M  V30 9883 N 966.677 -1.24326 -0.968545 0
M  V30 9884 C 967.625 -1.03256 -2.08425 0
M  V30 9885 C 968.619 0.0322356 -1.69369 0
M  V30 9886 O 969.825 -0.122251 -1.79584 0
M  V30 9887 H 966.2 -0.31688 -0.681976 0
M  V30 9888 H 968.171 -1.97873 -2.23358 0
M  V30 9889 C 966.92 -0.653144 -3.4151 0
M  V30 9890 H 966.243 -1.46424 -3.72021 0
M  V30 9891 H 967.683 -0.545316 -4.20479 0
M  V30 9892 C 966.142 0.639674 -3.30771 0
M  V30 9893 O 966.672 1.68563 -3.64622 0
M  V30 9894 N 964.878 0.620074 -2.83907 0
M  V30 9895 H 964.425 -0.231449 -2.56558 0
M  V30 9896 H 964.383 1.48528 -2.77104 0
M  V30 9897 N 968.156 1.1691 -1.05688 0
M  V30 9898 C 969.433 1.83266 -0.683601 0
M  V30 9899 C 969.813 1.93858 0.835602 0
M  V30 9900 O 969.161 1.47696 1.7435 0
M  V30 9901 C 969.371 3.20625 -1.37842 0
M  V30 9902 C 970.719 3.96473 -1.51967 0
M  V30 9903 O 971.743 3.30122 -1.33783 0
M  V30 9904 O 970.602 5.15393 -1.81749 0
M  V30 9905 H 967.696 0.791028 -0.241254 0
M  V30 9906 H 970.242 1.24165 -1.15677 0
M  V30 9907 H 969.014 3.07914 -2.41463 0
M  V30 9908 H 968.637 3.87398 -0.894921 0
M  V30 9909 N 969.634 0.838594 1.33437 0
M  V30 9910 C 970.881 0.434169 1.97791 0
M  V30 9911 C 971.209 -1.00652 1.66431 0
M  V30 9912 O 970.464 -1.71848 0.936309 0
M  V30 9913 C 970.763 0.601425 3.52303 0
M  V30 9914 C 970.429 2.01017 4.03612 0
M  V30 9915 C 969.091 2.39551 4.17336 0
M  V30 9916 C 971.443 2.93035 4.31022 0
M  V30 9917 C 968.771 3.69406 4.55802 0
M  V30 9918 C 971.123 4.22372 4.7094 0
M  V30 9919 C 969.787 4.60862 4.82869 0
M  V30 9920 H 969.057 0.158874 0.723768 0
M  V30 9921 H 971.704 1.06556 1.59116 0
M  V30 9922 H 970.009 -0.113284 3.91636 0
M  V30 9923 H 971.706 0.268798 4.00098 0
M  V30 9924 H 968.296 1.7009 3.93405 0
M  V30 9925 H 972.48 2.64503 4.19943 0
M  V30 9926 H 967.736 3.99033 4.63231 0
M  V30 9927 H 971.91 4.93749 4.91106 0
M  V30 9928 H 969.537 5.6153 5.12433 0
M  V30 9929 N 971.112 -1.45937 0.595003 0
M  V30 9930 C 972.359 -2.0232 0.0853053 0
M  V30 9931 C 972.687 -1.465 -1.27937 0
M  V30 9932 O 971.942 -0.624767 -1.85459 0
M  V30 9933 C 972.241 -3.57396 -0.0173747 0
M  V30 9934 C 971.907 -4.32311 1.28131 0
M  V30 9935 C 970.569 -4.52496 1.63708 0
M  V30 9936 C 972.921 -4.75233 2.14017 0
M  V30 9937 C 970.249 -5.12857 2.84947 0
M  V30 9938 C 972.601 -5.36933 3.34493 0
M  V30 9939 C 971.265 -5.55343 3.70338 0
M  V30 9940 H 970.535 -0.740342 0.0312154 0
M  V30 9941 H 973.182 -1.75157 0.774103 0
M  V30 9942 H 971.487 -3.83766 -0.789371 0
M  V30 9943 H 973.184 -3.98713 -0.427699 0
M  V30 9944 H 969.774 -4.16905 0.994374 0
M  V30 9945 H 973.958 -4.59383 1.87833 0
M  V30 9946 H 969.214 -5.253 3.12841 0
M  V30 9947 H 973.388 -5.69147 4.01304 0
M  V30 9948 H 971.015 -6.01883 4.64371 0
M  V30 9949 N 972.59 -0.333456 -1.54032 0
M  V30 9950 C 973.836 0.266527 -2.01041 0
M  V30 9951 C 974.169 1.51006 -1.2211 0
M  V30 9952 O 973.444 1.92078 -0.306016 0
M  V30 9953 C 973.727 0.59078 -3.55221 0
M  V30 9954 C 973.58 -0.664143 -4.4487 0
M  V30 9955 C 974.899 1.40447 -4.17088 0
M  V30 9956 H 972.018 0.0953979 -0.7308 0
M  V30 9957 H 974.66 -0.451995 -1.84545 0
M  V30 9958 H 972.81 1.20292 -3.69408 0
M  V30 9959 H 974.482 -1.30227 -4.42537 0
M  V30 9960 H 972.725 -1.29106 -4.14143 0
M  V30 9961 H 973.396 -0.392664 -5.50602 0
M  V30 9962 H 975.872 0.886946 -4.06537 0
M  V30 9963 H 974.748 1.6001 -5.2506 0
M  V30 9964 H 975.009 2.40357 -3.71054 0
M  V30 9965 N 974.068 1.57479 -0.061844 0
M  V30 9966 C 975.016 2.13346 0.926629 0
M  V30 9967 C 976.01 1.06787 1.31502 0
M  V30 9968 O 977.216 1.25181 1.29343 0
M  V30 9969 H 973.591 0.682046 0.316729 0
M  V30 9970 H 975.562 2.95279 0.430424 0
M  V30 9971 C 974.311 2.70198 2.18834 0
M  V30 9972 H 973.634 3.51859 1.89829 0
M  V30 9973 H 975.074 3.12897 2.86132 0
M  V30 9974 C 973.533 1.64481 2.9402 0
M  V30 9975 O 974.063 1.0639 3.87355 0
M  V30 9976 N 972.269 1.35749 2.56944 0
M  V30 9977 H 971.816 1.83177 1.81119 0
M  V30 9978 H 971.774 0.652469 3.07555 0
M  V30 9979 N 975.546 -0.211634 1.56173 0
M  V30 9980 C 976.476 -1.26533 1.96244 0
M  V30 9981 C 977.457 -1.48362 0.832028 0
M  V30 9982 O 978.642 -1.60378 1.0951 0
M  V30 9983 C 975.772 -2.61307 2.2877 0
M  V30 9984 C 974.726 -2.54119 3.44395 0
M  V30 9985 C 974.052 -3.93014 3.62552 0
M  V30 9986 C 975.352 -2.08046 4.79076 0
M  V30 9987 H 977.046 -0.932407 2.84511 0
M  V30 9988 H 974.592 -0.447084 1.36884 0
M  V30 9989 H 976.545 -3.35188 2.55396 0
M  V30 9990 H 975.269 -2.96307 1.37367 0
M  V30 9991 H 973.928 -1.82694 3.17834 0
M  V30 9992 H 973.576 -4.25338 2.68508 0
M  V30 9993 H 973.276 -3.89083 4.40327 0
M  V30 9994 H 974.8 -4.68542 3.91537 0
M  V30 9995 H 976.214 -2.71676 5.04842 0
M  V30 9996 H 974.611 -2.15154 5.60204 0
M  V30 9997 H 975.681 -1.03306 4.73768 0
M  V30 9998 N 977.024 -1.50153 -0.478725 0
M  V30 9999 C 977.954 -1.71384 -1.58587 0
M  V30 10000 C 978.935 -0.562705 -1.60523 0
M  V30 10001 O 980.12 -0.80101 -1.76911 0
M  V30 10002 C 977.25 -1.80094 -2.96957 0
M  V30 10003 C 976.204 -2.95218 -3.09888 0
M  V30 10004 C 975.53 -2.89063 -4.49829 0
M  V30 10005 C 976.83 -4.35841 -2.8782 0
M  V30 10006 H 978.524 -2.64081 -1.41073 0
M  V30 10007 H 976.07 -1.27081 -0.677239 0
M  V30 10008 H 978.023 -1.93531 -3.74331 0
M  V30 10009 H 976.747 -0.840131 -3.1561 0
M  V30 10010 H 975.406 -2.81419 -2.34944 0
M  V30 10011 H 975.054 -1.90844 -4.6539 0
M  V30 10012 H 974.754 -3.66345 -4.59418 0
M  V30 10013 H 976.278 -3.04539 -5.29234 0
M  V30 10014 H 977.692 -4.50205 -3.54948 0
M  V30 10015 H 976.089 -5.14515 -3.0886 0
M  V30 10016 H 977.159 -4.48739 -1.83742 0
M  V30 10017 N 978.502 0.731368 -1.39602 0
M  V30 10018 C 979.779 1.48308 -1.27531 0
M  V30 10019 C 980.159 2.10795 0.113482 0
M  V30 10020 O 979.507 1.98886 1.12501 0
M  V30 10021 C 979.717 2.53156 -2.40235 0
M  V30 10022 C 981.065 3.19436 -2.79725 0
M  V30 10023 O 982.089 2.6347 -2.39712 0
M  V30 10024 O 980.948 4.20714 -3.48801 0
M  V30 10025 H 978.042 0.658753 -0.499973 0
M  V30 10026 H 980.588 0.764884 -1.51485 0
M  V30 10027 H 979.36 2.05387 -3.33064 0
M  V30 10028 H 978.983 3.3253 -2.17966 0
M  V30 10029 N 979.98 1.24838 0.961938 0
M  V30 10030 C 980.913 0.989041 2.05653 0
M  V30 10031 C 981.891 -0.079199 1.62407 0
M  V30 10032 O 983.075 0.0589397 1.88408 0
M  V30 10033 C 980.202 0.493661 3.35083 0
M  V30 10034 C 979.248 1.55132 3.97286 0
M  V30 10035 S 980.081 3.13438 4.34185 0
M  V30 10036 C 981.237 2.65617 5.66744 0
M  V30 10037 H 981.47 1.91588 2.27335 0
M  V30 10038 H 979.003 1.08287 1.10061 0
M  V30 10039 H 980.961 0.214482 4.09939 0
M  V30 10040 H 979.622 -0.412559 3.11379 0
M  V30 10041 H 978.815 1.15525 4.90581 0
M  V30 10042 H 978.417 1.78081 3.28882 0
M  V30 10043 H 980.709 2.08788 6.44526 0
M  V30 10044 H 981.652 3.57524 6.11214 0
M  V30 10045 H 982.06 2.05853 5.25628 0
M  V30 10046 N 981.458 -1.16348 1.06306 0
M  V30 10047 C 982.706 -1.86512 0.778311 0
M  V30 10048 C 983.027 -1.82107 -0.697273 0
M  V30 10049 O 982.297 -1.2547 -1.50446 0
M  V30 10050 H 980.877 -0.690529 0.284919 0
M  V30 10051 H 983.539 -1.41092 1.34458 0
M  V30 10052 H 982.635 -2.91947 1.10333 0
M  V30 10053 N 982.937 -0.845659 -1.3299 0
M  V30 10054 C 984.186 -0.440928 -1.96822 0
M  V30 10055 C 984.499 1.00668 -1.67706 0
M  V30 10056 O 985.705 1.51641 -2.25205 0
M  V30 10057 C 984.161 -0.73752 -3.52262 0
M  V30 10058 C 983.769 -2.20026 -3.90247 0
M  V30 10059 C 985.513 -0.400072 -4.22611 0
M  V30 10060 C 983.42 -2.44054 -5.38694 0
M  V30 10061 H 982.35 -0.161148 -0.736578 0
M  V30 10062 H 985.001 -1.03519 -1.51513 0
M  V30 10063 H 983.383 -0.0728025 -3.95933 0
M  V30 10064 H 984.557 -2.90602 -3.57613 0
M  V30 10065 H 982.872 -2.50135 -3.32899 0
M  V30 10066 H 985.469 -0.557136 -5.3179 0
M  V30 10067 H 985.812 0.657547 -4.11074 0
M  V30 10068 H 986.345 -1.0203 -3.84493 0
M  V30 10069 H 983.084 -3.48407 -5.55241 0
M  V30 10070 H 982.604 -1.78047 -5.72765 0
M  V30 10071 H 984.283 -2.27549 -6.05665 0
M  V30 10072 N 984.415 1.45619 -0.602734 0
M  V30 10073 C 985.643 2.06647 -0.102253 0
M  V30 10074 C 986.058 1.4482 1.21131 0
M  V30 10075 O 985.415 0.560621 1.73676 0
M  V30 10076 C 985.466 3.61467 0.0490113 0
M  V30 10077 O 985.187 4.20985 -1.21257 0
M  V30 10078 C 986.688 4.39469 0.581517 0
M  V30 10079 H 983.908 0.667685 -0.0666155 0
M  V30 10080 H 986.452 1.86939 -0.829091 0
M  V30 10081 H 984.607 3.80534 0.726153 0
M  V30 10082 H 985.021 5.14103 -1.03915 0
M  V30 10083 H 986.495 5.48318 0.636462 0
M  V30 10084 H 986.972 4.0891 1.60277 0
M  V30 10085 H 987.578 4.25256 -0.061419 0
M  V30 10086 N 985.893 0.34162 1.53853 0
M  V30 10087 C 987.139 -0.248546 2.01876 0
M  V30 10088 C 987.494 -1.48352 1.22513 0
M  V30 10089 O 986.787 -1.89174 0.303919 0
M  V30 10090 C 986.981 -0.616989 3.52034 0
M  V30 10091 C 986.81 0.580727 4.45935 0
M  V30 10092 C 985.58 1.08544 4.93504 0
M  V30 10093 C 987.778 1.43858 4.93771 0
M  V30 10094 N 985.76 2.24568 5.71351 0
M  V30 10095 C 987.131 2.44575 5.69722 0
M  V30 10096 C 989.186 1.46425 4.75882 0
M  V30 10097 C 987.889 3.47687 6.29688 0
M  V30 10098 C 989.915 2.48416 5.36697 0
M  V30 10099 C 989.277 3.4786 6.12514 0
M  V30 10100 H 985.376 -0.0543067 0.780112 0
M  V30 10101 H 987.96 0.480749 1.88671 0
M  V30 10102 H 986.131 -1.31539 3.65448 0
M  V30 10103 H 987.863 -1.19018 3.86803 0
M  V30 10104 H 984.618 0.653832 4.69065 0
M  V30 10105 H 985.042 2.83143 6.14946 0
M  V30 10106 H 989.684 0.709044 4.16812 0
M  V30 10107 H 987.402 4.24103 6.87868 0
M  V30 10108 H 990.988 2.51227 5.24763 0
M  V30 10109 H 989.868 4.25486 6.58734 0
M  V30 10110 N 987.371 -1.57444 0.0701946 0
M  V30 10111 C 988.281 -2.16132 -0.912377 0
M  V30 10112 C 989.297 -1.12406 -1.32819 0
M  V30 10113 O 990.473 -1.44665 -1.40121 0
M  V30 10114 C 987.538 -2.71008 -2.16231 0
M  V30 10115 C 986.599 -3.896 -1.80306 0
M  V30 10116 C 985.832 -4.4185 -2.9934 0
M  V30 10117 O 986.055 -3.93106 -4.13309 0
M  V30 10118 O 984.989 -5.33201 -2.7925 0
M  V30 10119 H 988.815 -3.00449 -0.443167 0
M  V30 10120 H 986.4 -1.48617 -0.152786 0
M  V30 10121 H 988.282 -3.06186 -2.8953 0
M  V30 10122 H 986.957 -1.8975 -2.62253 0
M  V30 10123 H 985.864 -3.59277 -1.04264 0
M  V30 10124 H 987.197 -4.72145 -1.39068 0
M  V30 10125 N 988.849 0.203349 -1.56283 0
M  V30 10126 C 990.26 0.768764 -1.70138 0
M  V30 10127 C 990.611 1.8421 -0.675358 0
M  V30 10128 O 989.736 2.15732 0.1699 0
M  V30 10129 C 990.331 1.40123 -3.08466 0
M  V30 10130 C 988.89 1.91382 -3.24114 0
M  V30 10131 C 988.037 0.780685 -2.66084 0
M  V30 10132 H 990.988 -0.0215997 -1.58685 0
M  V30 10133 H 991.009 2.27046 -3.05336 0
M  V30 10134 H 990.521 0.619805 -3.83119 0
M  V30 10135 H 988.622 2.7227 -2.54362 0
M  V30 10136 H 988.735 2.08128 -4.31531 0
M  V30 10137 H 987.099 1.19281 -2.25042 0
M  V30 10138 H 987.882 0.0116351 -3.43298 0
M  V30 10139 N 990.327 1.50405 0.470755 0
M  V30 10140 C 991.552 1.65442 1.25075 0
M  V30 10141 C 991.977 0.337612 1.85045 0
M  V30 10142 O 991.335 -0.698555 1.67302 0
M  V30 10143 C 991.383 2.74793 2.33498 0
M  V30 10144 O 990.487 2.36069 3.3815 0
M  V30 10145 H 989.828 0.552728 0.367951 0
M  V30 10146 H 992.358 1.96782 0.560177 0
M  V30 10147 H 992.368 2.97879 2.78804 0
M  V30 10148 H 991.043 3.70363 1.8922 0
M  V30 10149 H 989.62 2.2343 2.98552 0
M  V30 10150 N 991.805 -0.723954 1.39988 0
M  V30 10151 C 993.216 -1.30273 1.33738 0
M  V30 10152 C 993.567 -1.96199 0.00690581 0
M  V30 10153 O 992.692 -1.97016 -0.895179 0
M  V30 10154 C 993.287 -2.36889 2.42217 0
M  V30 10155 C 991.846 -2.90412 2.39453 0
M  V30 10156 C 990.993 -1.64103 2.2353 0
M  V30 10157 H 993.944 -0.520672 1.49916 0
M  V30 10158 H 993.965 -3.17538 2.09642 0
M  V30 10159 H 993.477 -1.88878 3.39038 0
M  V30 10160 H 991.578 -3.42674 1.46304 0
M  V30 10161 H 991.691 -3.42775 3.34727 0
M  V30 10162 H 990.055 -1.88855 1.70897 0
M  V30 10163 H 990.838 -1.18128 3.22336 0
M  V30 10164 N 993.283 -1.25346 -0.955304 0
M  V30 10165 C 994.246 -1.05754 -2.03344 0
M  V30 10166 C 995.246 -0.0105743 -1.60797 0
M  V30 10167 O 996.436 -0.252699 -1.72357 0
M  V30 10168 C 993.568 -0.605536 -3.35479 0
M  V30 10169 H 994.761 -2.01459 -2.22158 0
M  V30 10170 H 992.314 -1.07744 -1.1323 0
M  V30 10171 H 993.049 0.354154 -3.2236 0
M  V30 10172 H 992.834 -1.36134 -3.67709 0
M  V30 10173 H 994.324 -0.489867 -4.14717 0
M  V30 10174 N 994.761 1.15782 -1.06922 0
M  V30 10175 C 996.038 1.8253 -0.703 0
M  V30 10176 C 996.418 1.94733 0.814994 0
M  V30 10177 O 995.766 1.49537 1.72774 0
M  V30 10178 C 995.976 3.19145 -1.41234 0
M  V30 10179 C 997.324 3.94839 -1.56164 0
M  V30 10180 O 998.348 3.28685 -1.37277 0
M  V30 10181 O 997.207 5.13436 -1.87205 0
M  V30 10182 H 994.301 0.788425 -0.24963 0
M  V30 10183 H 996.847 1.22931 -1.16988 0
M  V30 10184 H 995.619 3.05336 -2.44715 0
M  V30 10185 H 995.242 3.86427 -0.935959 0
M  V30 10186 N 996.239 0.8527 1.3254 0
M  V30 10187 C 997.516 0.376491 1.91942 0
M  V30 10188 C 997.896 -1.13972 1.7769 0
M  V30 10189 O 997.244 -1.96047 1.17379 0
M  V30 10190 C 997.454 0.838694 3.38773 0
M  V30 10191 C 998.802 0.854736 4.15908 0
M  V30 10192 O 999.826 0.783203 3.47483 0
M  V30 10193 O 998.685 0.955207 5.38087 0
M  V30 10194 H 995.779 0.109412 0.81973 0
M  V30 10195 H 998.325 0.93947 1.41322 0
M  V30 10196 H 997.097 1.88179 3.43081 0
M  V30 10197 H 996.72 0.253055 3.96794 0
M  V30 10198 N 997.718 -1.45297 0.610449 0
M  V30 10199 C 998.966 -2.01819 0.106548 0
M  V30 10200 C 999.287 -1.48102 -1.26849 0
M  V30 10201 O 998.557 -0.676411 -1.83852 0
M  V30 10202 H 997.137 -0.746113 0.0363982 0
M  V30 10203 H 999.799 -1.78061 0.792491 0
M  V30 10204 H 998.895 -3.12045 0.0585 0
M  V30 10205 N 999.196 -0.349774 -1.5367 0
M  V30 10206 C 1000.42 0.246038 -2.05432 0
M  V30 10207 C 1000.84 1.43719 -1.22435 0
M  V30 10208 O 1000.2 1.80622 -0.261166 0
M  V30 10209 C 1000.25 0.65501 -3.55516 0
M  V30 10210 O 999.968 -0.488782 -4.35365 0
M  V30 10211 C 1001.47 1.31088 -4.23475 0
M  V30 10212 H 998.689 0.0463952 -0.669394 0
M  V30 10213 H 1001.23 -0.503566 -1.98203 0
M  V30 10214 H 999.388 1.35455 -3.62947 0
M  V30 10215 H 999.802 -0.161528 -5.24251 0
M  V30 10216 H 1001.28 1.54774 -5.29857 0
M  V30 10217 H 1001.75 2.26636 -3.76208 0
M  V30 10218 H 1002.36 0.653211 -4.20254 0
M  V30 10219 N 1000.67 1.57404 -0.0785433 0
M  V30 10220 C 1001.9 1.97787 0.596995 0
M  V30 10221 C 1002.31 0.955904 1.63276 0
M  V30 10222 O 1001.65 -0.0649169 1.83585 0
M  V30 10223 C 1001.72 3.34499 1.31723 0
M  V30 10224 C 1001.38 4.54933 0.434144 0
M  V30 10225 C 1002.38 5.18969 -0.311015 0
M  V30 10226 C 1000.06 5.01029 0.357046 0
M  V30 10227 C 1002.06 6.27457 -1.12142 0
M  V30 10228 C 999.744 6.09389 -0.457029 0
M  V30 10229 C 1000.74 6.72466 -1.19493 0
M  V30 10230 O 1000.43 7.78738 -1.99556 0
M  V30 10231 H 1000.16 0.655294 0.166028 0
M  V30 10232 H 1002.72 2.04855 -0.149517 0
M  V30 10233 H 1000.95 3.24064 2.10996 0
M  V30 10234 H 1002.63 3.5944 1.88567 0
M  V30 10235 H 1003.4 4.84297 -0.261084 0
M  V30 10236 H 999.28 4.51706 0.921026 0
M  V30 10237 H 1002.82 6.76622 -1.69788 0
M  V30 10238 H 998.721 6.43494 -0.508499 0
M  V30 10239 H 999.489 7.95648 -1.9206 0
M  V30 10240 N 1002.15 -0.195058 1.56388 0
M  V30 10241 C 1003.08 -1.26581 1.91076 0
M  V30 10242 C 1004.1 -1.41707 0.801436 0
M  V30 10243 O 1005.29 -1.42132 1.07985 0
M  V30 10244 C 1002.39 -2.63794 2.12758 0
M  V30 10245 C 1001.56 -2.70275 3.43904 0
M  V30 10246 C 1000.62 -3.88685 3.54698 0
M  V30 10247 O 999.644 -3.75786 4.2752 0
M  V30 10248 N 1000.85 -5.04141 2.87789 0
M  V30 10249 H 1003.61 -0.971401 2.83521 0
M  V30 10250 H 1001.17 -0.384976 1.57256 0
M  V30 10251 H 1003.16 -3.41434 2.17267 0
M  V30 10252 H 1001.73 -2.85723 1.26812 0
M  V30 10253 H 1000.95 -1.78909 3.51262 0
M  V30 10254 H 1002.24 -2.71597 4.30247 0
M  V30 10255 H 1001.64 -5.17519 2.28452 0
M  V30 10256 H 1000.2 -5.79727 2.97925 0
M  V30 10257 N 1003.63 -1.50653 -0.462772 0
M  V30 10258 C 1004.88 -1.61737 -1.21184 0
M  V30 10259 C 1005.2 -0.32369 -1.92295 0
M  V30 10260 O 1004.47 0.659269 -1.84473 0
M  V30 10261 H 1003.05 -0.596015 -0.450306 0
M  V30 10262 H 1005.71 -1.87469 -0.533051 0
M  V30 10263 H 1004.81 -2.43262 -1.95525 0
M  V30 10264 N 1005.11 0.71652 -1.4037 0
M  V30 10265 C 1006.06 1.8306 -1.40562 0
M  V30 10266 C 1007.03 1.64009 -0.262697 0
M  V30 10267 O 1008.21 1.85157 -0.460619 0
M  V30 10268 C 1005.35 3.2076 -1.27307 0
M  V30 10269 C 1004.46 3.51389 -2.51296 0
M  V30 10270 C 1003.6 4.78589 -2.30491 0
M  V30 10271 C 1002.64 5.02119 -3.50061 0
M  V30 10272 N 1001.77 6.20533 -3.28457 0
M  V30 10273 H 1006.61 1.82231 -2.35788 0
M  V30 10274 H 1004.15 0.890198 -1.17106 0
M  V30 10275 H 1006.11 4.00274 -1.17628 0
M  V30 10276 H 1004.74 3.2082 -0.357005 0
M  V30 10277 H 1003.79 2.66436 -2.71507 0
M  V30 10278 H 1005.1 3.64686 -3.40302 0
M  V30 10279 H 1004.26 5.66119 -2.1816 0
M  V30 10280 H 1003 4.67499 -1.38909 0
M  V30 10281 H 1002 4.13044 -3.6287 0
M  V30 10282 H 1003.23 5.15082 -4.42569 0
M  V30 10283 H 1001.17 6.10695 -2.39556 0
M  V30 10284 H 1001.09 6.34502 -4.11027 0
M  V30 10285 H 1002.36 7.10853 -3.19857 0
M  V30 10286 N 1006.59 1.25851 0.948643 0
M  V30 10287 C 1007.86 1.01717 1.67072 0
M  V30 10288 C 1008.24 -0.454749 2.06144 0
M  V30 10289 O 1007.59 -1.43345 1.77945 0
M  V30 10290 C 1007.8 1.95872 2.88852 0
M  V30 10291 C 1009.15 2.24057 3.60671 0
M  V30 10292 O 1010.17 1.93678 2.98944 0
M  V30 10293 O 1009.03 2.75745 4.71833 0
M  V30 10294 H 1006.13 0.386198 0.731287 0
M  V30 10295 H 1008.67 1.37031 1.00104 0
M  V30 10296 H 1007.44 2.95233 2.56814 0
M  V30 10297 H 1007.07 1.60992 3.63548 0
M  V30 10298 N 1008.06 -1.15214 1.07534 0
M  V30 10299 C 1009.31 -1.85676 0.79805 0
M  V30 10300 C 1009.63 -1.82837 -0.677919 0
M  V30 10301 O 1008.9 -1.27059 -1.49107 0
M  V30 10302 H 1007.48 -0.687468 0.292227 0
M  V30 10303 H 1010.15 -1.39658 1.35947 0
M  V30 10304 H 1009.24 -2.9076 1.13423 0
M  V30 10305 N 1009.54 -0.859717 -1.32086 0
M  V30 10306 C 1010.77 -0.478865 -2.01796 0
M  V30 10307 C 1011.19 0.918274 -1.64163 0
M  V30 10308 O 1010.55 1.60409 -0.844896 0
M  V30 10309 C 1010.6 -0.631356 -3.5503 0
M  V30 10310 O 1009.7 0.333712 -4.11048 0
M  V30 10311 H 1009.04 -0.191775 -0.635703 0
M  V30 10312 H 1011.57 -1.16031 -1.68517 0
M  V30 10313 H 1011.58 -0.520783 -4.04663 0
M  V30 10314 H 1010.26 -1.65015 -3.81763 0
M  V30 10315 H 1008.84 0.178953 -3.7247 0
M  V30 10316 N 1011.02 1.44971 -0.618145 0
M  V30 10317 C 1012.27 2.0176 -0.11725 0
M  V30 10318 C 1012.59 1.48773 1.26062 0
M  V30 10319 O 1011.86 0.686152 1.83491 0
M  V30 10320 H 1010.44 0.745909 -0.0403545 0
M  V30 10321 H 1013.1 1.77638 -0.801923 0
M  V30 10322 H 1012.2 3.1201 -0.0750477 0
M  V30 10323 N 1012.5 0.357919 1.53482 0
M  V30 10324 C 1013.45 -0.49217 2.25491 0
M  V30 10325 C 1014.42 -1.08382 1.25867 0
M  V30 10326 O 1015.6 -1.11775 1.54632 0
M  V30 10327 C 1012.74 -1.6299 3.04185 0
M  V30 10328 C 1011.85 -1.06416 4.18688 0
M  V30 10329 C 1010.99 -2.17037 4.84839 0
M  V30 10330 C 1010.03 -1.57889 5.91386 0
M  V30 10331 N 1009.16 -2.6231 6.51259 0
M  V30 10332 H 1014 0.128412 2.97723 0
M  V30 10333 H 1011.54 0.0751423 1.46908 0
M  V30 10334 H 1013.5 -2.29993 3.48079 0
M  V30 10335 H 1012.13 -2.22125 2.34223 0
M  V30 10336 H 1011.18 -0.284635 3.79334 0
M  V30 10337 H 1012.49 -0.591654 4.95279 0
M  V30 10338 H 1011.65 -2.91876 5.31877 0
M  V30 10339 H 1010.39 -2.67636 4.07703 0
M  V30 10340 H 1009.39 -0.815605 5.43717 0
M  V30 10341 H 1010.62 -1.08123 6.70437 0
M  V30 10342 H 1008.56 -3.12137 5.7698 0
M  V30 10343 H 1008.48 -2.19724 7.23365 0
M  V30 10344 H 1009.75 -3.36875 7.02948 0
M  V30 10345 N 1013.98 -1.5736 0.0868897 0
M  V30 10346 C 1015.22 -1.94341 -0.579598 0
M  V30 10347 C 1015.56 -0.968238 -1.68341 0
M  V30 10348 O 1014.83 8.29649e-05 -1.945 0
M  V30 10349 C 1015.11 -3.41497 -1.14245 0
M  V30 10350 C 1014.97 -4.49778 -0.044255 0
M  V30 10351 C 1016.29 -3.89788 -2.04336 0
M  V30 10352 H 1013.4 -0.70668 -0.20922 0
M  V30 10353 H 1016.05 -1.89359 0.15593 0
M  V30 10354 H 1014.2 -3.45873 -1.76929 0
M  V30 10355 H 1015.87 -4.57517 0.58959 0
M  V30 10356 H 1014.11 -4.293 0.623207 0
M  V30 10357 H 1014.78 -5.4992 -0.478749 0
M  V30 10358 H 1017.26 -3.87513 -1.51569 0
M  V30 10359 H 1016.13 -4.93335 -2.40648 0
M  V30 10360 H 1016.4 -3.28603 -2.95757 0
M  V30 10361 N 1015.45 0.186762 -1.56489 0
M  V30 10362 C 1016.4 1.23141 -1.95205 0
M  V30 10363 C 1017.37 1.44799 -0.81378 0
M  V30 10364 O 1018.56 1.57795 -1.07263 0
M  V30 10365 C 1015.7 2.56926 -2.30397 0
M  V30 10366 C 1014.81 2.42777 -3.57328 0
M  V30 10367 C 1013.94 3.69323 -3.81804 0
M  V30 10368 C 1012.98 3.50041 -5.02133 0
M  V30 10369 N 1012.12 4.68619 -5.2282 0
M  V30 10370 H 1016.96 0.894256 -2.84266 0
M  V30 10371 H 1014.5 0.430187 -1.40669 0
M  V30 10372 H 1016.46 3.3488 -2.4882 0
M  V30 10373 H 1015.09 2.88668 -1.44466 0
M  V30 10374 H 1014.14 1.56078 -3.46906 0
M  V30 10375 H 1015.45 2.24468 -4.45439 0
M  V30 10376 H 1014.6 4.55715 -4.00511 0
M  V30 10377 H 1013.34 3.90595 -2.92039 0
M  V30 10378 H 1012.35 2.62034 -4.8334 0
M  V30 10379 H 1013.57 3.30206 -5.93414 0
M  V30 10380 H 1011.52 4.90139 -4.36005 0
M  V30 10381 H 1011.44 4.53165 -6.05126 0
M  V30 10382 H 1012.7 5.56338 -5.45993 0
M  V30 10383 N 1016.93 1.50896 0.454776 0
M  V30 10384 C 1018.18 1.63905 1.20444 0
M  V30 10385 C 1018.53 0.342692 1.89323 0
M  V30 10386 O 1017.83 -0.660465 1.79857 0
M  V30 10387 C 1018.02 2.76839 2.26042 0
M  V30 10388 C 1017.85 4.17332 1.67524 0
M  V30 10389 C 1016.62 4.83512 1.46779 0
M  V30 10390 C 1018.82 5.01022 1.1611 0
M  V30 10391 N 1016.8 6.08171 0.83675 0
M  V30 10392 C 1018.17 6.16538 0.654283 0
M  V30 10393 C 1020.23 4.86677 1.05119 0
M  V30 10394 C 1018.93 7.19284 0.0483821 0
M  V30 10395 C 1020.95 5.89614 0.459211 0
M  V30 10396 C 1020.32 7.0439 -0.0371476 0
M  V30 10397 H 1016.42 0.653802 0.42903 0
M  V30 10398 H 1019 1.88069 0.503783 0
M  V30 10399 H 1017.17 2.54369 2.93515 0
M  V30 10400 H 1018.9 2.7912 2.93043 0
M  V30 10401 H 1015.66 4.41082 1.72464 0
M  V30 10402 H 1016.08 6.7485 0.539176 0
M  V30 10403 H 1020.72 3.98211 1.42085 0
M  V30 10404 H 1018.44 8.07412 -0.333438 0
M  V30 10405 H 1022.03 5.80582 0.376315 0
M  V30 10406 H 1020.91 7.8268 -0.488035 0
M  V30 10407 N 1018.41 -0.709066 1.40748 0
M  V30 10408 C 1019.64 -1.49808 1.42707 0
M  V30 10409 C 1020.05 -1.88778 0.0285574 0
M  V30 10410 O 1019.41 -1.55883 -0.949035 0
M  V30 10411 C 1019.46 -2.76926 2.32366 0
M  V30 10412 O 1019.18 -2.39602 3.66773 0
M  V30 10413 C 1020.68 -3.70773 2.42986 0
M  V30 10414 H 1017.9 -0.462106 0.486517 0
M  V30 10415 H 1020.45 -0.874135 1.84876 0
M  V30 10416 H 1018.6 -3.3559 1.93541 0
M  V30 10417 H 1019.02 -3.21443 4.14457 0
M  V30 10418 H 1020.49 -4.56789 3.09916 0
M  V30 10419 H 1020.97 -4.14332 1.45691 0
M  V30 10420 H 1021.57 -3.18019 2.8239 0
M  V30 10421 N 1019.89 -1.26353 -0.941956 0
M  V30 10422 C 1021.14 -1.1163 -1.68473 0
M  V30 10423 C 1021.46 0.34108 -1.91994 0
M  V30 10424 O 1020.73 1.24065 -1.51607 0
M  V30 10425 H 1019.31 -0.410113 -0.624353 0
M  V30 10426 H 1021.97 -1.58669 -1.13182 0
M  V30 10427 H 1021.07 -1.63445 -2.6588 0
M  V30 10428 N 1021.37 1.14642 -1.08144 0
M  V30 10429 C 1022.59 1.90025 -0.830972 0
M  V30 10430 C 1023.02 1.77904 0.610879 0
M  V30 10431 O 1022.38 1.11735 1.42776 0
M  V30 10432 C 1022.42 3.38085 -1.25422 0
M  V30 10433 O 1021.53 4.10412 -0.404486 0
M  V30 10434 H 1020.87 0.591327 -0.302041 0
M  V30 10435 H 1023.4 1.4513 -1.44216 0
M  V30 10436 H 1023.41 3.88894 -1.23391 0
M  V30 10437 H 1022.08 3.46226 -2.30435 0
M  V30 10438 H 1020.66 3.69693 -0.487987 0
M  V30 10439 N 1022.85 0.866709 1.31628 0
M  V30 10440 C 1024.26 0.558188 1.49521 0
M  V30 10441 C 1024.46 -0.90844 1.7986 0
M  V30 10442 O 1023.52 -1.6908 1.87531 0
M  V30 10443 C 1024.83 1.45559 2.63122 0
M  V30 10444 C 1026.38 1.45728 2.77006 0
M  V30 10445 C 1026.85 2.34017 3.937 0
M  V30 10446 N 1028.34 2.31879 4.00982 0
M  V30 10447 C 1029.08 2.96915 4.90539 0
M  V30 10448 N 1028.58 3.71109 5.85021 0
M  V30 10449 N 1030.37 2.86241 4.83759 0
M  V30 10450 H 1022.52 1.81574 1.10203 0
M  V30 10451 H 1024.78 0.77621 0.544244 0
M  V30 10452 H 1024.49 2.49904 2.47469 0
M  V30 10453 H 1024.36 1.15174 3.59186 0
M  V30 10454 H 1026.75 0.421419 2.92075 0
M  V30 10455 H 1026.83 1.80134 1.81619 0
M  V30 10456 H 1026.47 3.37678 3.79389 0
M  V30 10457 H 1026.4 1.96937 4.88388 0
M  V30 10458 H 1028.9 1.77948 3.33381 0
M  V30 10459 H 1029.21 4.1787 6.5008 0
M  V30 10460 H 1027.55 3.75217 5.8501 0
M  V30 10461 H 1030.74 2.27819 4.08921 0
M  V30 10462 H 1030.92 3.37206 5.5335 0
M  V30 10463 N 1024.32 -1.44642 0.625825 0
M  V30 10464 C 1025.57 -2.02393 0.128391 0
M  V30 10465 C 1025.9 -1.49075 -1.2446 0
M  V30 10466 O 1025.18 -0.672684 -1.82497 0
M  V30 10467 C 1025.46 -3.59934 0.109279 0
M  V30 10468 C 1025.31 -4.23546 1.51423 0
M  V30 10469 C 1026.63 -4.36406 -0.568985 0
M  V30 10470 H 1023.75 -0.735427 0.0481299 0
M  V30 10471 H 1026.39 -1.72277 0.801286 0
M  V30 10472 H 1024.54 -3.85722 -0.463726 0
M  V30 10473 H 1026.22 -4.08882 2.13572 0
M  V30 10474 H 1024.46 -3.81245 2.06966 0
M  V30 10475 H 1025.13 -5.32535 1.45294 0
M  V30 10476 H 1027.61 -4.1602 -0.0817516 0
M  V30 10477 H 1026.48 -5.46122 -0.551527 0
M  V30 10478 H 1026.74 -4.1062 -1.6384 0
M  V30 10479 N 1025.8 -0.366053 -1.5329 0
M  V30 10480 C 1027.08 0.279902 -1.93587 0
M  V30 10481 C 1027.46 1.66352 -1.29963 0
M  V30 10482 O 1026.81 2.23845 -0.458895 0
M  V30 10483 C 1027.02 0.329634 -3.4744 0
M  V30 10484 C 1028.36 0.569754 -4.2076 0
M  V30 10485 O 1029.39 0.410823 -3.53823 0
M  V30 10486 O 1028.25 0.879262 -5.3938 0
M  V30 10487 H 1025.34 0.16802 -0.809752 0
M  V30 10488 H 1027.89 -0.418871 -1.64449 0
M  V30 10489 H 1026.66 -0.640434 -3.86023 0
M  V30 10490 H 1026.28 1.07428 -3.82812 0
M  V30 10491 N 1027.28 1.57312 -0.0952337 0
M  V30 10492 C 1028.21 2.17056 0.860753 0
M  V30 10493 C 1029.19 1.10394 1.29411 0
M  V30 10494 O 1030.38 1.38532 1.36098 0
M  V30 10495 C 1027.51 2.751 2.11984 0
M  V30 10496 C 1026.46 3.87136 1.8251 0
M  V30 10497 C 1025.79 4.31883 3.15247 0
M  V30 10498 C 1027.09 5.10326 1.11194 0
M  V30 10499 H 1028.78 2.97192 0.362983 0
M  V30 10500 H 1026.33 1.42955 0.173151 0
M  V30 10501 H 1028.28 3.15547 2.79299 0
M  V30 10502 H 1027 1.92219 2.64044 0
M  V30 10503 H 1025.66 3.47229 1.17592 0
M  V30 10504 H 1025.31 3.45893 3.65195 0
M  V30 10505 H 1025.01 5.0742 2.96309 0
M  V30 10506 H 1026.53 4.74964 3.83721 0
M  V30 10507 H 1027.95 5.47942 1.6862 0
M  V30 10508 H 1026.34 5.91293 1.02435 0
M  V30 10509 H 1027.41 4.84807 0.0947227 0
M  V30 10510 N 1028.76 -0.17846 1.56586 0
M  V30 10511 C 1030 -0.897562 1.81856 0
M  V30 10512 C 1030.34 -1.82204 0.671955 0
M  V30 10513 O 1029.61 -1.91739 -0.326535 0
M  V30 10514 C 1029.89 -1.69942 3.17477 0
M  V30 10515 C 1029.75 -0.798545 4.42655 0
M  V30 10516 C 1031.07 -2.66861 3.49962 0
M  V30 10517 H 1028.19 -0.324863 0.661539 0
M  V30 10518 H 1030.83 -0.164106 1.8929 0
M  V30 10519 H 1028.98 -2.32471 3.11271 0
M  V30 10520 H 1030.65 -0.18668 4.60922 0
M  V30 10521 H 1028.89 -0.106181 4.3367 0
M  V30 10522 H 1029.56 -1.39496 5.34083 0
M  V30 10523 H 1032.04 -2.1446 3.56576 0
M  V30 10524 H 1030.92 -3.20037 4.45946 0
M  V30 10525 H 1031.18 -3.46715 2.74301 0
M  V30 10526 N 1030.24 -1.51135 -0.446768 0
M  V30 10527 C 1031.48 -1.63336 -1.19698 0
M  V30 10528 C 1031.81 -0.345099 -1.91414 0
M  V30 10529 O 1031.07 0.670365 -1.8386 0
M  V30 10530 C 1031.36 -2.78034 -2.2457 0
M  V30 10531 C 1031.03 -4.17652 -1.69934 0
M  V30 10532 C 1029.69 -4.55636 -1.54756 0
M  V30 10533 C 1032.04 -5.04813 -1.29665 0
M  V30 10534 C 1029.37 -5.78496 -0.977689 0
M  V30 10535 C 1031.72 -6.28244 -0.741112 0
M  V30 10536 C 1030.39 -6.65009 -0.576156 0
M  V30 10537 H 1029.66 -0.597689 -0.438006 0
M  V30 10538 H 1032.31 -1.85141 -0.48939 0
M  V30 10539 H 1030.61 -2.50413 -3.01331 0
M  V30 10540 H 1032.31 -2.84675 -2.8242 0
M  V30 10541 H 1028.9 -3.87699 -1.82722 0
M  V30 10542 H 1033.08 -4.76081 -1.40216 0
M  V30 10543 H 1028.34 -6.05636 -0.837563 0
M  V30 10544 H 1032.51 -6.95129 -0.42053 0
M  V30 10545 H 1030.14 -7.60085 -0.132443 0
M  V30 10546 N 1031.71 0.701592 -1.41122 0
M  V30 10547 C 1032.96 1.45871 -1.39879 0
M  V30 10548 C 1033.28 1.94999 -0.00668769 0
M  V30 10549 O 1032.55 1.71298 0.95047 0
M  V30 10550 H 1031.13 0.541231 -0.514857 0
M  V30 10551 H 1033.79 0.830803 -1.76306 0
M  V30 10552 H 1032.89 2.32479 -2.0823 0
M  V30 10553 N 1033.19 1.2685 0.935242 0
M  V30 10554 C 1034.42 1.15645 1.72165 0
M  V30 10555 C 1034.84 -0.283909 1.85945 0
M  V30 10556 O 1034.2 -1.20567 1.354 0
M  V30 10557 C 1034.25 1.83689 3.10307 0
M  V30 10558 O 1033.35 1.12972 3.96625 0
M  V30 10559 H 1032.69 0.402629 0.528002 0
M  V30 10560 H 1035.22 1.67781 1.17093 0
M  V30 10561 H 1035.23 1.90749 3.60664 0
M  V30 10562 H 1033.91 2.88472 2.99595 0
M  V30 10563 H 1032.48 1.13929 3.5507 0
M  V30 10564 N 1034.67 -1.14067 1.0875 0
M  V30 10565 C 1035.62 -2.21332 0.715195 0
M  V30 10566 C 1036.61 -1.67059 -0.280679 0
M  V30 10567 O 1037.82 -1.79432 -0.142874 0
M  V30 10568 H 1034.19 -0.721126 0.213264 0
M  V30 10569 H 1036.16 -2.50002 1.62916 0
M  V30 10570 C 1034.91 -3.474 0.144401 0
M  V30 10571 H 1034.24 -3.89495 0.901884 0
M  V30 10572 H 1035.68 -4.23928 -0.0782564 0
M  V30 10573 C 1034.14 -3.17787 -1.11862 0
M  V30 10574 O 1034.67 -3.35906 -2.20295 0
M  V30 10575 N 1032.87 -2.71719 -1.03039 0
M  V30 10576 H 1032.42 -2.57175 -0.14793 0
M  V30 10577 H 1032.38 -2.52281 -1.87621 0
M  V30 10578 N 1036.15 -0.873678 -1.31166 0
M  V30 10579 C 1037.37 -0.500242 -2.01277 0
M  V30 10580 C 1037.8 0.900811 -1.65127 0
M  V30 10581 O 1037.16 1.59504 -0.861862 0
M  V30 10582 C 1037.2 -0.668976 -3.5434 0
M  V30 10583 O 1036.31 0.290096 -4.11378 0
M  V30 10584 H 1035.65 -0.198507 -0.633633 0
M  V30 10585 H 1038.18 -1.17811 -1.67277 0
M  V30 10586 H 1038.19 -0.563673 -4.04088 0
M  V30 10587 H 1036.86 -1.69055 -3.79991 0
M  V30 10588 H 1035.44 0.139437 -3.72639 0
M  V30 10589 N 1037.63 1.44308 -0.633487 0
M  V30 10590 C 1038.54 2.34492 0.0711787 0
M  V30 10591 C 1039.55 1.52754 0.8332 0
M  V30 10592 O 1040.73 1.85475 0.784929 0
M  V30 10593 C 1037.79 3.30767 1.03895 0
M  V30 10594 C 1036.85 4.28412 0.276043 0
M  V30 10595 C 1036.09 5.20087 1.19772 0
M  V30 10596 O 1036.31 5.15743 2.4365 0
M  V30 10597 O 1035.24 5.98038 0.680764 0
M  V30 10598 H 1039.07 2.96203 -0.67063 0
M  V30 10599 H 1036.66 1.4412 -0.393678 0
M  V30 10600 H 1038.54 3.90021 1.59566 0
M  V30 10601 H 1037.21 2.71586 1.76133 0
M  V30 10602 H 1036.12 3.72696 -0.32377 0
M  V30 10603 H 1037.45 4.9052 -0.406364 0
M  V30 10604 N 1039.1 0.374177 1.53094 0
M  V30 10605 C 1040.03 -0.459976 2.28925 0
M  V30 10606 C 1041.02 -1.07656 1.31698 0
M  V30 10607 O 1042.2 -1.09219 1.60577 0
M  V30 10608 C 1039.33 -1.5954 3.08487 0
M  V30 10609 C 1038.28 -1.10563 4.13473 0
M  V30 10610 C 1037.61 -2.33196 4.81169 0
M  V30 10611 C 1038.91 -0.184275 5.21975 0
M  V30 10612 H 1040.6 0.172692 2.98902 0
M  V30 10613 H 1038.15 0.0844956 1.43752 0
M  V30 10614 H 1040.1 -2.18565 3.60288 0
M  V30 10615 H 1038.83 -2.25543 2.36216 0
M  V30 10616 H 1037.49 -0.53801 3.62631 0
M  V30 10617 H 1037.13 -2.97675 4.05461 0
M  V30 10618 H 1036.83 -2.01094 5.52119 0
M  V30 10619 H 1038.36 -2.92892 5.35767 0
M  V30 10620 H 1039.77 -0.682262 5.69226 0
M  V30 10621 H 1038.17 0.0462746 6.00082 0
M  V30 10622 H 1039.24 0.771152 4.78729 0
M  V30 10623 N 1040.58 -1.57259 0.103575 0
M  V30 10624 C 1042 -1.57581 -0.253062 0
M  V30 10625 C 1042.2 -1.11531 -1.67819 0
M  V30 10626 O 1041.25 -0.795632 -2.39637 0
M  V30 10627 C 1042.57 -3.00681 -0.0337753 0
M  V30 10628 C 1044.12 -3.12837 -0.10087 0
M  V30 10629 C 1044.59 -4.57911 0.0905295 0
M  V30 10630 N 1046.08 -4.63186 0.0359789 0
M  V30 10631 C 1046.82 -5.73179 0.159199 0
M  V30 10632 N 1046.31 -6.91976 0.337728 0
M  V30 10633 N 1048.11 -5.62011 0.0998662 0
M  V30 10634 H 1040.26 -1.85499 1.0346 0
M  V30 10635 H 1042.52 -0.856584 0.406163 0
M  V30 10636 H 1042.23 -3.38602 0.950858 0
M  V30 10637 H 1042.1 -3.69207 -0.772406 0
M  V30 10638 H 1044.49 -2.74783 -1.07601 0
M  V30 10639 H 1044.57 -2.46886 0.66939 0
M  V30 10640 H 1044.21 -4.9666 1.06258 0
M  V30 10641 H 1044.14 -5.21933 -0.699528 0
M  V30 10642 H 1046.63 -3.7777 -0.099121 0
M  V30 10643 H 1046.95 -7.71641 0.423032 0
M  V30 10644 H 1045.29 -6.93996 0.373504 0
M  V30 10645 H 1048.48 -4.68084 -0.0385356 0
M  V30 10646 H 1048.65 -6.47693 0.199342 0
M  V30 10647 N 1042.06 0.170153 -1.56679 0
M  V30 10648 C 1043.02 1.19443 -1.95617 0
M  V30 10649 C 1044.02 1.37118 -0.83996 0
M  V30 10650 O 1045.21 1.34504 -1.10699 0
M  V30 10651 C 1042.35 2.55926 -2.25199 0
M  V30 10652 H 1043.54 0.86095 -2.87276 0
M  V30 10653 H 1041.09 0.412646 -1.50755 0
M  V30 10654 H 1041.83 2.94286 -1.36257 0
M  V30 10655 H 1041.61 2.44464 -3.06562 0
M  V30 10656 H 1043.1 3.29742 -2.56242 0
M  V30 10657 N 1043.54 1.5137 0.438746 0
M  V30 10658 C 1044.47 1.75528 1.53987 0
M  V30 10659 C 1045.45 0.605067 1.58975 0
M  V30 10660 O 1046.63 0.847634 1.74725 0
M  V30 10661 C 1043.76 1.87904 2.92078 0
M  V30 10662 C 1042.72 3.0333 3.01951 0
M  V30 10663 C 1042.04 3.00888 4.42007 0
M  V30 10664 C 1043.34 4.43319 2.76163 0
M  V30 10665 H 1045.04 2.67728 1.34022 0
M  V30 10666 H 1042.58 1.28831 0.643308 0
M  V30 10667 H 1044.54 2.03388 3.69068 0
M  V30 10668 H 1043.26 0.923514 3.13271 0
M  V30 10669 H 1041.92 2.87549 2.274 0
M  V30 10670 H 1041.57 2.03116 4.60166 0
M  V30 10671 H 1041.27 3.78397 4.49544 0
M  V30 10672 H 1042.79 3.18464 5.20973 0
M  V30 10673 H 1044.21 4.59458 3.42887 0
M  V30 10674 H 1042.6 5.22523 2.9511 0
M  V30 10675 H 1043.67 4.53453 1.71779 0
M  V30 10676 N 1045.02 -0.694098 1.41492 0
M  V30 10677 C 1046.26 -1.4563 1.41137 0
M  V30 10678 C 1046.6 -1.94189 0.0208428 0
M  V30 10679 O 1045.87 -1.69628 -0.951655 0
M  V30 10680 C 1046.15 -2.66714 2.41941 0
M  V30 10681 C 1046.01 -2.23912 3.90107 0
M  V30 10682 C 1047.33 -3.68913 2.39981 0
M  V30 10683 H 1044.44 -0.52821 0.513968 0
M  V30 10684 H 1047.09 -0.790437 1.72778 0
M  V30 10685 H 1045.24 -3.23525 2.1509 0
M  V30 10686 H 1046.91 -1.72417 4.27867 0
M  V30 10687 H 1045.15 -1.5568 4.04903 0
M  V30 10688 H 1045.82 -3.108 4.56188 0
M  V30 10689 H 1048.3 -3.21779 2.63813 0
M  V30 10690 H 1047.17 -4.51242 3.12524 0
M  V30 10691 H 1047.44 -4.18711 1.41892 0
M  V30 10692 N 1046.49 -1.27344 -0.928501 0
M  V30 10693 C 1047.4 -1.11812 -2.06241 0
M  V30 10694 C 1048.42 -0.048347 -1.73933 0
M  V30 10695 O 1049.6 -0.25467 -1.99783 0
M  V30 10696 C 1046.66 -0.766036 -3.38131 0
M  V30 10697 C 1045.72 -1.91659 -3.84142 0
M  V30 10698 C 1044.96 -1.58121 -5.09738 0
M  V30 10699 O 1045.18 -0.488742 -5.68302 0
M  V30 10700 O 1044.11 -2.42013 -5.51102 0
M  V30 10701 H 1047.94 -2.06967 -2.22258 0
M  V30 10702 H 1045.52 -1.06524 -1.04752 0
M  V30 10703 H 1047.41 -0.582982 -4.17348 0
M  V30 10704 H 1046.08 0.155998 -3.23324 0
M  V30 10705 H 1044.99 -2.1547 -3.05816 0
M  V30 10706 H 1046.32 -2.8188 -4.0349 0
M  V30 10707 N 1047.97 1.13488 -1.09353 0
M  V30 10708 C 1049.22 1.85022 -0.830354 0
M  V30 10709 C 1049.55 1.83266 0.64242 0
M  V30 10710 O 1048.83 1.27024 1.47293 0
M  V30 10711 C 1049.11 3.33218 -1.36521 0
M  V30 10712 C 1048.96 3.43491 -2.90404 0
M  V30 10713 C 1050.28 4.28626 -0.998381 0
M  V30 10714 H 1047.4 0.671786 -0.303105 0
M  V30 10715 H 1050.04 1.33211 -1.3548 0
M  V30 10716 H 1048.19 3.77471 -0.919117 0
M  V30 10717 H 1049.86 3.07954 -3.43456 0
M  V30 10718 H 1048.11 2.84391 -3.27573 0
M  V30 10719 H 1048.78 4.47702 -3.22905 0
M  V30 10720 H 1051.25 3.9244 -1.38311 0
M  V30 10721 H 1050.13 5.30754 -1.39968 0
M  V30 10722 H 1050.39 4.42001 0.093517 0
M  V30 10723 N 1049.45 0.880621 1.30701 0
M  V30 10724 C 1050.68 0.51094 2.00182 0
M  V30 10725 C 1051.09 -0.903914 1.66211 0
M  V30 10726 O 1050.43 -1.60529 0.893089 0
M  V30 10727 C 1050.49 0.600775 3.54445 0
M  V30 10728 C 1050.16 1.97915 4.1192 0
M  V30 10729 C 1051.16 2.94802 4.28238 0
M  V30 10730 C 1048.84 2.28336 4.47401 0
M  V30 10731 C 1050.83 4.20245 4.79242 0
M  V30 10732 C 1048.52 3.54026 4.98105 0
M  V30 10733 C 1049.52 4.49796 5.13978 0
M  V30 10734 O 1049.21 5.73256 5.63589 0
M  V30 10735 H 1048.94 0.196477 0.646818 0
M  V30 10736 H 1051.49 1.18659 1.67658 0
M  V30 10737 H 1049.72 -0.131832 3.86475 0
M  V30 10738 H 1051.41 0.242996 4.05172 0
M  V30 10739 H 1052.18 2.7261 4.01134 0
M  V30 10740 H 1048.06 1.54564 4.34317 0
M  V30 10741 H 1051.6 4.95003 4.91546 0
M  V30 10742 H 1047.5 3.76057 5.24644 0
M  V30 10743 H 1048.27 5.75577 5.81939 0
M  V30 10744 N 1050.93 -1.4397 0.641131 0
M  V30 10745 C 1052.18 -2.01548 0.149333 0
M  V30 10746 C 1052.5 -1.50759 -1.23679 0
M  V30 10747 O 1051.77 -0.715257 -1.82376 0
M  V30 10748 H 1050.35 -0.745173 0.0522161 0
M  V30 10749 H 1053.01 -1.7634 0.830082 0
M  V30 10750 H 1052.11 -3.11851 0.124676 0
M  V30 10751 N 1052.41 -0.382291 -1.52893 0
M  V30 10752 C 1053.37 0.44408 -2.24857 0
M  V30 10753 C 1054.37 0.996004 -1.26239 0
M  V30 10754 O 1055.56 0.879114 -1.5039 0
M  V30 10755 C 1052.69 1.62234 -2.99822 0
M  V30 10756 H 1053.89 -0.185862 -2.99324 0
M  V30 10757 H 1051.44 -0.134275 -1.55722 0
M  V30 10758 H 1052.17 2.28991 -2.29638 0
M  V30 10759 H 1051.96 1.23336 -3.72197 0
M  V30 10760 H 1053.45 2.20756 -3.54481 0
M  V30 10761 N 1053.89 1.57202 -0.111913 0
M  V30 10762 C 1055.16 1.86459 0.590972 0
M  V30 10763 C 1055.54 1.01182 1.85271 0
M  V30 10764 O 1054.89 0.0887891 2.28327 0
M  V30 10765 C 1055.1 3.37455 0.890225 0
M  V30 10766 C 1056.45 4.05895 1.24638 0
M  V30 10767 O 1057.47 3.42433 0.980713 0
M  V30 10768 O 1056.33 5.17903 1.74466 0
M  V30 10769 H 1053.43 0.771652 0.297459 0
M  V30 10770 H 1055.97 1.69072 -0.145882 0
M  V30 10771 H 1054.74 3.913 -0.00419012 0
M  V30 10772 H 1054.37 3.60248 1.68248 0
M  V30 10773 N 1055.36 -0.161842 1.56767 0
M  V30 10774 C 1056.64 -0.904754 1.73417 0
M  V30 10775 C 1057.02 -1.99987 0.675908 0
M  V30 10776 O 1056.37 -2.26419 -0.307712 0
M  V30 10777 C 1056.58 -1.46082 3.16956 0
M  V30 10778 C 1057.93 -1.93004 3.78199 0
M  V30 10779 O 1058.95 -1.55856 3.20293 0
M  V30 10780 O 1057.81 -2.61465 4.79894 0
M  V30 10781 H 1054.9 -0.426518 0.708528 0
M  V30 10782 H 1057.45 -0.148928 1.69045 0
M  V30 10783 H 1056.22 -0.673087 3.85468 0
M  V30 10784 H 1055.84 -2.28056 3.25693 0
M  V30 10785 N 1056.84 -1.516 -0.430713 0
M  V30 10786 C 1057.8 -1.72794 -1.50582 0
M  V30 10787 C 1058.8 -0.597903 -1.49271 0
M  V30 10788 O 1059.99 -0.865535 -1.51176 0
M  V30 10789 C 1057.13 -1.79049 -2.90093 0
M  V30 10790 H 1058.32 -2.68751 -1.33091 0
M  V30 10791 H 1055.87 -1.4169 -0.659822 0
M  V30 10792 H 1056.61 -0.849309 -3.12981 0
M  V30 10793 H 1056.39 -2.61181 -2.92449 0
M  V30 10794 H 1057.88 -1.97262 -3.68072 0
M  V30 10795 N 1058.32 0.686584 -1.41858 0
M  V30 10796 C 1059.25 1.81202 -1.40352 0
M  V30 10797 C 1060.26 1.5993 -0.304322 0
M  V30 10798 O 1061.45 1.69267 -0.566643 0
M  V30 10799 C 1058.55 3.18116 -1.16856 0
M  V30 10800 C 1057.73 3.66339 -2.38987 0
M  V30 10801 C 1056.79 4.8195 -2.11212 0
M  V30 10802 O 1055.81 4.93102 -2.84323 0
M  V30 10803 N 1057.01 5.69829 -1.10793 0
M  V30 10804 H 1059.78 1.82983 -2.37355 0
M  V30 10805 H 1057.34 0.869244 -1.36586 0
M  V30 10806 H 1059.33 3.93097 -0.962125 0
M  V30 10807 H 1057.9 3.11306 -0.284186 0
M  V30 10808 H 1057.12 2.82166 -2.75274 0
M  V30 10809 H 1058.41 3.95297 -3.2034 0
M  V30 10810 H 1057.81 5.63459 -0.503012 0
M  V30 10811 H 1056.36 6.44671 -0.961379 0
M  V30 10812 N 1059.8 1.27835 0.921735 0
M  V30 10813 C 1061.21 1.13151 1.48505 0
M  V30 10814 C 1061.56 -0.281373 1.94172 0
M  V30 10815 O 1060.68 -1.17487 1.8173 0
M  V30 10816 C 1061.28 2.04792 2.69899 0
M  V30 10817 C 1059.84 1.94196 3.22436 0
M  V30 10818 C 1058.99 1.96999 1.95158 0
M  V30 10819 H 1061.94 1.40641 0.735241 0
M  V30 10820 H 1061.96 1.60724 3.44889 0
M  V30 10821 H 1061.47 3.07615 2.36631 0
M  V30 10822 H 1059.57 0.943805 3.60448 0
M  V30 10823 H 1059.68 2.80744 3.88226 0
M  V30 10824 H 1058.05 1.41301 2.11911 0
M  V30 10825 H 1058.83 3.01487 1.64196 0
M  V30 10826 N 1061.28 -1.12907 1.09954 0
M  V30 10827 C 1062.22 -2.18485 0.743848 0
M  V30 10828 C 1063.19 -1.63766 -0.277494 0
M  V30 10829 O 1064.38 -1.90146 -0.157899 0
M  V30 10830 C 1061.52 -3.44649 0.176437 0
M  V30 10831 C 1060.63 -4.13445 1.25248 0
M  V30 10832 C 1059.77 -5.27242 0.647242 0
M  V30 10833 C 1058.8 -5.87897 1.70421 0
M  V30 10834 N 1057.94 -6.93116 1.1196 0
M  V30 10835 H 1062.78 -2.48257 1.64841 0
M  V30 10836 H 1060.32 -1.21891 0.823471 0
M  V30 10837 H 1062.28 -4.16852 -0.170384 0
M  V30 10838 H 1060.91 -3.15309 -0.69137 0
M  V30 10839 H 1059.96 -3.39471 1.7165 0
M  V30 10840 H 1061.27 -4.54601 2.05279 0
M  V30 10841 H 1060.42 -6.06186 0.249579 0
M  V30 10842 H 1059.16 -4.87351 -0.184556 0
M  V30 10843 H 1058.17 -5.07643 2.11136 0
M  V30 10844 H 1059.39 -6.2986 2.53877 0
M  V30 10845 H 1057.34 -6.55271 0.309181 0
M  V30 10846 H 1057.26 -7.32843 1.85681 0
M  V30 10847 H 1058.52 -7.759 0.748326 0
M  V30 10848 N 1062.75 -0.88754 -1.30232 0
M  V30 10849 C 1064 -0.507279 -1.96043 0
M  V30 10850 C 1064.33 0.944059 -1.70052 0
M  V30 10851 O 1063.58 1.68255 -0.999444 0
M  V30 10852 C 1063.88 -0.731765 -3.49828 0
M  V30 10853 C 1063.55 -2.15858 -3.95874 0
M  V30 10854 C 1062.21 -2.54875 -4.08157 0
M  V30 10855 C 1064.56 -3.0883 -4.19849 0
M  V30 10856 C 1061.89 -3.86069 -4.41778 0
M  V30 10857 C 1064.24 -4.39559 -4.5494 0
M  V30 10858 C 1062.91 -4.78465 -4.65432 0
M  V30 10859 H 1062.18 -0.185627 -0.717373 0
M  V30 10860 H 1064.82 -1.12388 -1.55052 0
M  V30 10861 H 1063.13 -0.0321473 -3.91787 0
M  V30 10862 H 1064.83 -0.417107 -3.98825 0
M  V30 10863 H 1061.42 -1.84574 -3.86821 0
M  V30 10864 H 1065.6 -2.79906 -4.09837 0
M  V30 10865 H 1060.86 -4.1595 -4.48102 0
M  V30 10866 H 1065.03 -5.11636 -4.72442 0
M  V30 10867 H 1062.66 -5.80162 -4.91239 0
M  V30 10868 N 1064.23 1.43628 -0.648757 0
M  V30 10869 C 1065.48 2.02163 -0.160574 0
M  V30 10870 C 1065.81 1.51037 1.22072 0
M  V30 10871 O 1065.09 0.701633 1.81404 0
M  V30 10872 C 1065.37 3.59715 -0.166528 0
M  V30 10873 C 1065.22 4.21083 -1.58142 0
M  V30 10874 C 1066.54 4.37256 0.499485 0
M  V30 10875 H 1063.66 0.734568 -0.0598238 0
M  V30 10876 H 1066.3 1.70981 -0.828592 0
M  V30 10877 H 1064.45 3.86411 0.402302 0
M  V30 10878 H 1066.12 4.05433 -2.2005 0
M  V30 10879 H 1064.37 3.77904 -2.13005 0
M  V30 10880 H 1065.04 5.30156 -1.53748 0
M  V30 10881 H 1067.51 4.16097 0.0155561 0
M  V30 10882 H 1066.39 5.4693 0.464574 0
M  V30 10883 H 1066.65 4.13175 1.57286 0
M  V30 10884 N 1065.71 0.390394 1.52688 0
M  V30 10885 C 1066.64 -0.479319 2.24132 0
M  V30 10886 C 1067.66 -1.0258 1.26416 0
M  V30 10887 O 1068.84 -0.927943 1.52484 0
M  V30 10888 C 1065.94 -1.67711 2.94493 0
M  V30 10889 C 1065.12 -1.2578 4.18925 0
M  V30 10890 C 1064.18 -2.3204 4.72275 0
M  V30 10891 O 1063.2 -1.93402 5.35336 0
M  V30 10892 N 1064.4 -3.63967 4.52226 0
M  V30 10893 H 1067.17 0.132777 2.99406 0
M  V30 10894 H 1064.73 0.216807 1.60442 0
M  V30 10895 H 1066.72 -2.38323 3.27084 0
M  V30 10896 H 1065.29 -2.19552 2.22521 0
M  V30 10897 H 1064.51 -0.380528 3.92359 0
M  V30 10898 H 1065.8 -0.954329 4.9977 0
M  V30 10899 H 1065.2 -3.98119 4.01892 0
M  V30 10900 H 1063.76 -4.30611 4.89303 0
M  V30 10901 N 1067.19 -1.57141 0.120249 0
M  V30 10902 C 1068.47 -1.8677 -0.581075 0
M  V30 10903 C 1068.85 -1.02163 -1.84732 0
M  V30 10904 O 1068.19 -0.100897 -2.28277 0
M  V30 10905 C 1068.4 -3.37923 -0.872316 0
M  V30 10906 C 1069.75 -4.0655 -1.22483 0
M  V30 10907 O 1070.78 -3.42948 -0.962539 0
M  V30 10908 O 1069.63 -5.18821 -1.71717 0
M  V30 10909 H 1066.73 -0.773219 -0.293362 0
M  V30 10910 H 1069.27 -1.68992 0.154846 0
M  V30 10911 H 1068.05 -3.91292 0.0249416 0
M  V30 10912 H 1067.67 -3.61135 -1.66335 0
M  V30 10913 N 1068.67 0.153526 -1.5685 0
M  V30 10914 C 1069.91 0.867232 -1.8299 0
M  V30 10915 C 1070.24 1.81462 -0.700125 0
M  V30 10916 O 1069.5 1.93207 0.311348 0
M  V30 10917 C 1069.8 1.68066 -3.15418 0
M  V30 10918 C 1069.46 0.880635 -4.42217 0
M  V30 10919 C 1068.12 0.659899 -4.76654 0
M  V30 10920 C 1070.48 0.320698 -5.20212 0
M  V30 10921 C 1067.8 -0.131588 -5.86552 0
M  V30 10922 C 1070.16 -0.457794 -6.30941 0
M  V30 10923 C 1068.82 -0.689168 -6.63933 0
M  V30 10924 H 1068.09 0.317343 -0.669608 0
M  V30 10925 H 1070.74 0.131208 -1.9105 0
M  V30 10926 H 1069.04 2.4866 -3.02779 0
M  V30 10927 H 1070.74 2.23623 -3.32857 0
M  V30 10928 H 1067.33 1.06274 -4.15215 0
M  V30 10929 H 1071.51 0.47853 -4.93988 0
M  V30 10930 H 1066.77 -0.320413 -6.1056 0
M  V30 10931 H 1070.94 -0.898839 -6.90575 0
M  V30 10932 H 1068.57 -1.30433 -7.48927 0
M  V30 10933 N 1070.14 1.51827 0.422667 0
M  V30 10934 C 1071.39 1.65464 1.17258 0
M  V30 10935 C 1071.72 0.376834 1.90509 0
M  V30 10936 O 1071 -0.624219 1.84211 0
M  V30 10937 C 1071.28 2.86776 2.17788 0
M  V30 10938 C 1071.13 4.24571 1.48523 0
M  V30 10939 C 1072.45 3.03603 3.18611 0
M  V30 10940 H 1069.57 0.602169 0.424925 0
M  V30 10941 H 1072.21 1.84349 0.45996 0
M  V30 10942 H 1070.36 2.70806 2.78561 0
M  V30 10943 H 1072.04 4.5224 0.909739 0
M  V30 10944 H 1070.28 4.26595 0.787354 0
M  V30 10945 H 1070.95 5.05475 2.2181 0
M  V30 10946 H 1073.43 3.18381 2.67904 0
M  V30 10947 H 1072.3 3.90022 3.8623 0
M  V30 10948 H 1072.56 2.16318 3.85563 0
M  V30 10949 N 1071.62 -0.679052 1.4222 0
M  V30 10950 C 1072.59 -1.77448 1.45069 0
M  V30 10951 C 1073.59 -1.57189 0.338882 0
M  V30 10952 O 1074.78 -1.63559 0.599519 0
M  V30 10953 C 1071.91 -3.1603 1.27819 0
M  V30 10954 H 1073.1 -1.7631 2.426 0
M  V30 10955 H 1070.65 -0.888277 1.28605 0
M  V30 10956 H 1071.39 -3.22796 0.311946 0
M  V30 10957 H 1071.17 -3.32138 2.08391 0
M  V30 10958 H 1072.66 -3.9596 1.32686 0
M  V30 10959 N 1073.1 -1.28322 -0.914942 0
M  V30 10960 C 1074.06 -1.12169 -1.99877 0
M  V30 10961 C 1075.06 -0.0617252 -1.60681 0
M  V30 10962 O 1076.25 -0.307405 -1.71466 0
M  V30 10963 C 1073.39 -0.711959 -3.33383 0
M  V30 10964 H 1074.58 -2.08425 -2.15636 0
M  V30 10965 H 1072.13 -1.11291 -1.09745 0
M  V30 10966 H 1072.87 0.251418 -3.23324 0
M  V30 10967 H 1072.65 -1.47764 -3.63192 0
M  V30 10968 H 1074.14 -0.621558 -4.12948 0
M  V30 10969 N 1074.58 1.12322 -1.10551 0
M  V30 10970 C 1075.82 1.84333 -0.859826 0
M  V30 10971 C 1076.18 1.82539 0.608052 0
M  V30 10972 O 1075.47 1.26086 1.44267 0
M  V30 10973 C 1075.67 3.31177 -1.34375 0
M  V30 10974 C 1075.5 3.47272 -2.85714 0
M  V30 10975 C 1074.27 3.60837 -3.5373 0
M  V30 10976 C 1076.46 3.42336 -3.83811 0
M  V30 10977 N 1074.45 3.65309 -4.93378 0
M  V30 10978 C 1075.82 3.53318 -5.09477 0
M  V30 10979 C 1077.87 3.25809 -3.76501 0
M  V30 10980 C 1076.57 3.49477 -6.28695 0
M  V30 10981 C 1078.6 3.23282 -4.9522 0
M  V30 10982 C 1077.96 3.34826 -6.19735 0
M  V30 10983 H 1074.06 0.690186 -0.367651 0
M  V30 10984 H 1076.65 1.34463 -1.40811 0
M  V30 10985 H 1074.82 3.79585 -0.822767 0
M  V30 10986 H 1076.55 3.91051 -1.04217 0
M  V30 10987 H 1073.3 3.63005 -3.04178 0
M  V30 10988 H 1073.73 3.71207 -5.66157 0
M  V30 10989 H 1078.37 3.15777 -2.81149 0
M  V30 10990 H 1076.09 3.5828 -7.24335 0
M  V30 10991 H 1079.67 3.11674 -4.91274 0
M  V30 10992 H 1078.55 3.32847 -7.10058 0
M  V30 10993 N 1076.06 0.894434 1.2976 0
M  V30 10994 C 1077.33 0.437365 1.90648 0
M  V30 10995 C 1077.71 -1.08261 1.81226 0
M  V30 10996 O 1077.06 -1.92213 1.23557 0
M  V30 10997 C 1077.27 0.946047 3.35933 0
M  V30 10998 C 1078.62 0.986621 4.12978 0
M  V30 10999 O 1079.64 0.893356 3.44815 0
M  V30 11000 O 1078.5 1.12591 5.34776 0
M  V30 11001 H 1075.6 0.135436 0.815835 0
M  V30 11002 H 1078.14 0.983955 1.38262 0
M  V30 11003 H 1076.91 1.98998 3.3692 0
M  V30 11004 H 1076.54 0.379164 3.95788 0
M  V30 11005 N 1077.53 -1.43282 0.656365 0
M  V30 11006 C 1078.48 -2.30776 -0.0333155 0
M  V30 11007 C 1079.45 -1.44928 -0.811493 0
M  V30 11008 O 1080.64 -1.73792 -0.787465 0
M  V30 11009 C 1077.78 -3.30548 -0.991566 0
M  V30 11010 C 1076.89 -4.31493 -0.209159 0
M  V30 11011 C 1076.02 -5.18346 -1.16149 0
M  V30 11012 C 1075.06 -6.10983 -0.369699 0
M  V30 11013 N 1074.2 -6.90449 -1.27378 0
M  V30 11014 H 1079.04 -2.89204 0.718668 0
M  V30 11015 H 1076.58 -1.4247 0.366161 0
M  V30 11016 H 1078.54 -3.86905 -1.56078 0
M  V30 11017 H 1077.17 -2.73762 -1.71039 0
M  V30 11018 H 1076.22 -3.77405 0.476394 0
M  V30 11019 H 1077.53 -4.97142 0.406394 0
M  V30 11020 H 1076.68 -5.79345 -1.80124 0
M  V30 11021 H 1075.42 -4.52831 -1.81095 0
M  V30 11022 H 1074.43 -5.49069 0.283377 0
M  V30 11023 H 1075.65 -6.78541 0.275399 0
M  V30 11024 H 1073.6 -6.27579 -1.90999 0
M  V30 11025 H 1073.52 -7.52631 -0.71287 0
M  V30 11026 H 1074.78 -7.5595 -1.90158 0
M  V30 11027 N 1079.01 -0.398486 -1.52479 0
M  V30 11028 C 1080.26 0.181019 -2.0199 0
M  V30 11029 C 1080.59 1.45691 -1.28405 0
M  V30 11030 O 1079.87 1.90607 -0.387207 0
M  V30 11031 C 1080.15 0.439587 -3.57407 0
M  V30 11032 C 1080 -0.85223 -4.41653 0
M  V30 11033 C 1081.32 1.2263 -4.2267 0
M  V30 11034 H 1078.44 0.0643164 -0.734188 0
M  V30 11035 H 1081.08 -0.52986 -1.82462 0
M  V30 11036 H 1079.23 1.04516 -3.74177 0
M  V30 11037 H 1080.91 -1.48879 -4.36615 0
M  V30 11038 H 1079.15 -1.46555 -4.08294 0
M  V30 11039 H 1079.82 -0.625839 -5.48441 0
M  V30 11040 H 1082.3 0.713722 -4.09933 0
M  V30 11041 H 1081.17 1.37596 -5.31374 0
M  V30 11042 H 1081.43 2.24403 -3.80914 0
M  V30 11043 N 1080.49 1.57075 -0.12858 0
M  V30 11044 C 1081.42 2.11553 0.855593 0
M  V30 11045 C 1082.4 1.03435 1.25459 0
M  V30 11046 O 1083.59 1.3115 1.35395 0
M  V30 11047 C 1080.71 2.62012 2.14633 0
M  V30 11048 C 1079.76 3.82105 1.89467 0
M  V30 11049 S 1080.59 5.24033 1.10228 0
M  V30 11050 C 1081.75 5.77867 2.4046 0
M  V30 11051 H 1081.98 2.94701 0.392248 0
M  V30 11052 H 1079.51 1.54164 0.0853746 0
M  V30 11053 H 1081.47 2.91737 2.8879 0
M  V30 11054 H 1080.13 1.79029 2.58084 0
M  V30 11055 H 1079.33 4.15592 2.8513 0
M  V30 11056 H 1078.93 3.53047 1.23427 0
M  V30 11057 H 1081.22 5.88175 3.36238 0
M  V30 11058 H 1082.16 6.75775 2.11504 0
M  V30 11059 H 1082.57 5.05991 2.50266 0
M  V30 11060 N 1081.97 -0.145205 1.5693 0
M  V30 11061 C 1082.92 -1.19841 1.99351 0
M  V30 11062 C 1083.91 -1.44371 0.886197 0
M  V30 11063 O 1085.12 -1.44642 1.07138 0
M  V30 11064 H 1081.49 -0.403437 0.63462 0
M  V30 11065 H 1083.46 -0.813932 2.87085 0
M  V30 11066 C 1082.21 -2.52377 2.39167 0
M  V30 11067 H 1081.54 -2.34332 3.23927 0
M  V30 11068 H 1082.98 -3.24694 2.72671 0
M  V30 11069 C 1081.43 -3.1305 1.24503 0
M  V30 11070 O 1081.96 -3.97962 0.546739 0
M  V30 11071 N 1080.17 -2.72528 1.00882 0
M  V30 11072 H 1079.72 -2.03576 1.57843 0
M  V30 11073 H 1079.68 -3.13456 0.24351 0
M  V30 11074 N 1083.45 -1.52049 -0.414609 0
M  V30 11075 C 1084.38 -1.77956 -1.51175 0
M  V30 11076 C 1085.36 -0.630282 -1.57992 0
M  V30 11077 O 1086.54 -0.875324 -1.73354 0
M  V30 11078 C 1083.67 -1.92527 -2.89051 0
M  V30 11079 C 1082.63 -3.08096 -2.97087 0
M  V30 11080 C 1081.95 -3.07882 -4.37164 0
M  V30 11081 C 1083.25 -4.47656 -2.69075 0
M  V30 11082 H 1084.95 -2.69827 -1.29746 0
M  V30 11083 H 1082.49 -1.29839 -0.62273 0
M  V30 11084 H 1084.45 -2.09234 -3.65786 0
M  V30 11085 H 1083.17 -0.973235 -3.11762 0
M  V30 11086 H 1081.83 -2.91131 -2.22797 0
M  V30 11087 H 1081.48 -2.10411 -4.56877 0
M  V30 11088 H 1081.18 -3.85501 -4.43467 0
M  V30 11089 H 1082.7 -3.26712 -5.15841 0
M  V30 11090 H 1084.12 -4.64855 -3.35534 0
M  V30 11091 H 1082.51 -5.27151 -2.8676 0
M  V30 11092 H 1083.58 -4.56129 -1.64544 0
M  V30 11093 N 1084.93 0.6715 -1.42579 0
M  V30 11094 C 1086.2 1.42766 -1.33706 0
M  V30 11095 C 1086.58 2.11086 0.0239748 0
M  V30 11096 O 1085.93 2.03479 1.03964 0
M  V30 11097 C 1086.14 2.42739 -2.50756 0
M  V30 11098 C 1087.49 3.07284 -2.93021 0
M  V30 11099 O 1088.51 2.53066 -2.50671 0
M  V30 11100 O 1087.37 4.05541 -3.66331 0
M  V30 11101 H 1084.47 0.636955 -0.527463 0
M  V30 11102 H 1087.01 0.699946 -1.54593 0
M  V30 11103 H 1085.78 1.91076 -3.41476 0
M  V30 11104 H 1085.41 3.22986 -2.31874 0
M  V30 11105 N 1086.4 1.28806 0.908124 0
M  V30 11106 C 1087.82 1.06634 1.18749 0
M  V30 11107 C 1088.02 -0.187729 2.00624 0
M  V30 11108 O 1087.08 -0.88784 2.36376 0
M  V30 11109 C 1088.39 2.31703 1.91661 0
M  V30 11110 C 1089.94 2.36939 2.04521 0
M  V30 11111 C 1090.41 3.61789 2.80843 0
M  V30 11112 N 1091.9 3.62462 2.88402 0
M  V30 11113 C 1092.64 4.55746 3.47971 0
M  V30 11114 N 1092.13 5.59353 4.08774 0
M  V30 11115 N 1093.93 4.43331 3.45564 0
M  V30 11116 H 1086.08 2.09299 0.36164 0
M  V30 11117 H 1088.34 0.921479 0.222668 0
M  V30 11118 H 1088.05 3.23096 1.38931 0
M  V30 11119 H 1087.92 2.38556 2.92183 0
M  V30 11120 H 1090.31 1.4604 2.5643 0
M  V30 11121 H 1090.39 2.34077 1.03159 0
M  V30 11122 H 1090.03 4.53035 2.29612 0
M  V30 11123 H 1089.96 3.61907 3.82532 0
M  V30 11124 H 1092.45 2.87544 2.45208 0
M  V30 11125 H 1092.77 6.26668 4.52224 0
M  V30 11126 H 1091.11 5.63173 4.07261 0
M  V30 11127 H 1094.3 3.61587 2.97276 0
M  V30 11128 H 1094.48 5.16216 3.91695 0
M  V30 11129 N 1087.88 -1.11734 1.11145 0
M  V30 11130 C 1089.13 -1.83405 0.858413 0
M  V30 11131 C 1089.46 -1.84488 -0.615975 0
M  V30 11132 O 1088.71 -1.29123 -1.47057 0
M  V30 11133 C 1089.01 -3.3046 1.36129 0
M  V30 11134 C 1088.68 -3.4954 2.84837 0
M  V30 11135 C 1087.34 -3.54456 3.25445 0
M  V30 11136 C 1089.69 -3.56048 3.8063 0
M  V30 11137 C 1087.02 -3.63431 4.60581 0
M  V30 11138 C 1089.37 -3.66554 5.15579 0
M  V30 11139 C 1088.03 -3.69728 5.55749 0
M  V30 11140 H 1087.3 -0.671128 0.314115 0
M  V30 11141 H 1089.95 -1.31795 1.38933 0
M  V30 11142 H 1088.26 -3.84544 0.750547 0
M  V30 11143 H 1089.95 -3.84398 1.14188 0
M  V30 11144 H 1086.54 -3.46382 2.52423 0
M  V30 11145 H 1090.73 -3.51513 3.5036 0
M  V30 11146 H 1085.98 -3.64164 4.91116 0
M  V30 11147 H 1090.16 -3.70532 5.89643 0
M  V30 11148 H 1087.78 -3.76435 6.60455 0
M  V30 11149 N 1089.36 -0.901303 -1.29284 0
M  V30 11150 C 1090.64 -0.44747 -1.90413 0
M  V30 11151 C 1091.02 1.07298 -1.81797 0
M  V30 11152 O 1090.36 1.91555 -1.24574 0
M  V30 11153 C 1090.57 -0.963849 -3.35427 0
M  V30 11154 C 1091.92 -1.00851 -4.12449 0
M  V30 11155 O 1092.95 -0.91163 -3.44337 0
M  V30 11156 O 1091.81 -1.15426 -5.34171 0
M  V30 11157 H 1088.9 -0.13976 -0.815105 0
M  V30 11158 H 1091.45 -0.991274 -1.37738 0
M  V30 11159 H 1090.22 -2.00782 -3.3586 0
M  V30 11160 H 1089.84 -0.400149 -3.95581 0
M  V30 11161 N 1090.84 1.42931 -0.663954 0
M  V30 11162 C 1092.08 2.01982 -0.182007 0
M  V30 11163 C 1092.42 1.52323 1.20463 0
M  V30 11164 O 1091.69 0.720834 1.80649 0
M  V30 11165 C 1091.97 3.59518 -0.204671 0
M  V30 11166 C 1091.83 4.19382 -1.62599 0
M  V30 11167 C 1093.15 4.37762 0.45308 0
M  V30 11168 H 1090.27 0.733892 -0.0676115 0
M  V30 11169 H 1092.91 1.70092 -0.84668 0
M  V30 11170 H 1091.06 3.86816 0.361295 0
M  V30 11171 H 1092.73 4.03076 -2.24337 0
M  V30 11172 H 1090.97 3.75623 -2.17001 0
M  V30 11173 H 1091.64 5.28496 -1.59362 0
M  V30 11174 H 1094.12 4.1609 -0.0285774 0
M  V30 11175 H 1093 5.47392 0.406538 0
M  V30 11176 H 1093.26 4.1482 1.52895 0
M  V30 11177 N 1092.32 0.406567 1.52266 0
M  V30 11178 C 1093.73 0.0573228 1.59497 0
M  V30 11179 C 1093.93 -1.43005 1.41957 0
M  V30 11180 O 1092.99 -2.19659 1.24523 0
M  V30 11181 C 1094.3 0.549947 2.95628 0
M  V30 11182 C 1095.85 0.5077 3.08855 0
M  V30 11183 C 1096.32 0.976792 4.47463 0
M  V30 11184 N 1097.81 0.933508 4.53696 0
M  V30 11185 C 1098.55 1.26769 5.59211 0
M  V30 11186 N 1098.05 1.6732 6.72292 0
M  V30 11187 N 1099.84 1.18782 5.49406 0
M  V30 11188 H 1091.99 1.37468 1.61914 0
M  V30 11189 H 1094.25 0.564562 0.76156 0
M  V30 11190 H 1093.96 1.58943 3.13736 0
M  V30 11191 H 1093.83 -0.0417767 3.77177 0
M  V30 11192 H 1096.22 -0.522728 2.90433 0
M  V30 11193 H 1096.3 1.13545 2.29219 0
M  V30 11194 H 1095.94 2.00554 4.66627 0
M  V30 11195 H 1095.87 0.325885 5.25591 0
M  V30 11196 H 1098.37 0.635333 3.72521 0
M  V30 11197 H 1098.68 1.91137 7.4879 0
M  V30 11198 H 1097.02 1.71221 6.73579 0
M  V30 11199 H 1100.21 0.869906 4.59946 0
M  V30 11200 H 1100.39 1.45157 6.31533 0
M  V30 11201 O 1093.83 -1.59097 0.277559 0
M  V30 11202 H 1094.52 -1.91488 -0.291912 0
M  V30 END ATOM
M  V30 BEGIN BOND
M  V30 END BOND
M  V30 END CTAB
M  END
$$$$
