drugbank_target|P9WIJ3 Peptide deformylase (DB08310)
 OpenBabel12092120503D

  0  0  0     0  0            999 V3000
M  V30 BEGIN CTAB
M  V30 COUNTS 2910 2944 0 0 0
M  V30 BEGIN ATOM
M  V30 1 H -0.908 1.98254 -0.117106 0
M  V30 2 N 0 1.576 0 0
M  V30 3 C 0.933 2.03868 1.02534 0
M  V30 4 C 1.911 0.928543 1.3348 0
M  V30 5 O 3.095 1.19667 1.45644 0
M  V30 6 C 0.222 2.43627 2.35294 0
M  V30 7 C -0.732 3.65373 2.2001 0
M  V30 8 S 0.101 5.13292 1.52614 0
M  V30 9 C 1.257 5.56322 2.86805 0
M  V30 10 H 1.49 2.90518 0.631377 0
M  V30 11 H -0.977 1.52953 0.210867 0
M  V30 12 H 0.981 2.67203 3.11629 0
M  V30 13 H -0.358 1.57376 2.7183 0
M  V30 14 H -1.165 3.90944 3.18086 0
M  V30 15 H -1.563 3.418 1.51819 0
M  V30 16 H 0.729 5.58782 3.83104 0
M  V30 17 H 1.672 6.56266 2.65933 0
M  V30 18 H 2.08 4.83886 2.90714 0
M  V30 19 N 1.4781 -0.272755 1.55222 0
M  V30 20 C 2.4411 -1.32041 1.87344 0
M  V30 21 C 3.4411 -1.42342 0.74803 0
M  V30 22 O 4.6311 -1.41488 1.0162 0
M  V30 23 C 1.7631 -2.70173 2.07893 0
M  V30 24 H 2.9561 -1.04789 2.80997 0
M  V30 25 H 0.5091 -0.51083 1.47717 0
M  V30 26 H 1.2441 -3.02605 1.16622 0
M  V30 27 H 1.0291 -2.64082 2.89833 0
M  V30 28 H 2.5191 -3.45869 2.34017 0
M  V30 29 N 2.9562 -1.48159 -0.537278 0
M  V30 30 C 4.2022 -1.56035 -1.29541 0
M  V30 31 C 4.5352 -0.230377 -1.92829 0
M  V30 32 O 3.8102 0.762952 -1.78911 0
M  V30 33 C 4.0932 -2.69323 -2.39034 0
M  V30 34 C 3.9462 -4.12002 -1.80485 0
M  V30 35 C 5.2652 -2.78408 -3.40847 0
M  V30 36 H 2.3842 -0.567992 -0.469632 0
M  V30 37 H 5.0262 -1.80302 -0.599277 0
M  V30 38 H 3.1762 -2.48763 -2.98412 0
M  V30 39 H 4.8482 -4.43981 -1.25215 0
M  V30 40 H 3.0912 -4.19344 -1.11055 0
M  V30 41 H 3.7622 -4.87077 -2.59731 0
M  V30 42 H 6.2382 -2.97012 -2.91416 0
M  V30 43 H 5.1142 -3.59416 -4.14863 0
M  V30 44 H 5.3752 -1.86269 -4.00944 0
M  V30 45 N 4.4343 0.785586 -1.36625 0
M  V30 46 C 5.6803 1.54591 -1.31261 0
M  V30 47 C 6.0133 1.93906 0.106823 0
M  V30 48 O 5.2883 1.63007 1.06108 0
M  V30 49 C 5.5713 2.82038 -2.23889 0
M  V30 50 C 5.4243 2.49066 -3.74548 0
M  V30 51 C 6.7433 3.83887 -2.15217 0
M  V30 52 H 3.8623 0.560846 -0.478143 0
M  V30 53 H 6.5043 0.902278 -1.67209 0
M  V30 54 H 4.6543 3.36961 -1.93363 0
M  V30 55 H 6.3263 2.00164 -4.15611 0
M  V30 56 H 4.5693 1.81954 -3.93796 0
M  V30 57 H 5.2403 3.40109 -4.34776 0
M  V30 58 H 7.7163 3.38421 -2.42096 0
M  V30 59 H 6.5923 4.70806 -2.82193 0
M  V30 60 H 6.8533 4.27131 -1.14068 0
M  V30 61 N 5.9124 1.20967 1.01018 0
M  V30 62 C 7.3234 1.02319 1.56165 0
M  V30 63 C 7.6744 -0.418546 1.91684 0
M  V30 64 O 6.7994 -1.30096 1.72928 0
M  V30 65 C 7.3944 1.85109 2.8376 0
M  V30 66 C 5.9534 1.70809 3.35412 0
M  V30 67 C 5.1004 1.82643 2.08655 0
M  V30 68 H 8.0514 1.35065 0.833255 0
M  V30 69 H 8.0724 1.35827 3.55431 0
M  V30 70 H 7.5844 2.90035 2.57878 0
M  V30 71 H 5.6854 0.685464 3.66241 0
M  V30 72 H 5.7984 2.52467 4.07182 0
M  V30 73 H 4.1624 1.25896 2.21409 0
M  V30 74 H 4.9454 2.89066 1.85191 0
M  V30 75 N 7.3905 -1.2043 1.01659 0
M  V30 76 C 8.6395 -1.89118 0.701237 0
M  V30 77 C 8.9525 -1.79705 -0.772358 0
M  V30 78 O 10.1585 -2.43528 -1.20026 0
M  V30 79 C 8.6145 -3.39168 1.20388 0
M  V30 80 C 8.2225 -3.57166 2.70438 0
M  V30 81 C 9.9665 -4.1341 0.963953 0
M  V30 82 C 7.8735 -5.01042 3.14183 0
M  V30 83 H 6.8035 -0.708267 0.2586 0
M  V30 84 H 9.4545 -1.36239 1.22927 0
M  V30 85 H 7.8365 -3.91369 0.603824 0
M  V30 86 H 9.0105 -3.15351 3.35992 0
M  V30 87 H 7.3255 -2.96294 2.92572 0
M  V30 88 H 9.9225 -5.19491 1.26621 0
M  V30 89 H 10.2655 -4.16181 -0.099578 0
M  V30 90 H 10.7985 -3.67309 1.52738 0
M  V30 91 H 7.5375 -5.03426 4.19812 0
M  V30 92 H 7.0575 -5.43668 2.53348 0
M  V30 93 H 8.7365 -5.69623 3.0682 0
M  V30 94 N 8.8686 -0.792821 -1.36206 0
M  V30 95 C 10.2846 -0.474903 -1.52371 0
M  V30 96 C 10.4846 1.00622 -1.74578 0
M  V30 97 O 9.5406 1.79162 -1.77924 0
M  V30 98 C 10.8536 -1.3083 -2.70747 0
M  V30 99 C 12.4016 -1.30234 -2.84619 0
M  V30 100 C 12.8766 -2.11956 -4.06004 0
M  V30 101 N 14.3676 -2.09419 -4.13156 0
M  V30 102 C 15.1026 -2.69419 -5.06163 0
M  V30 103 N 14.5986 -3.3829 -6.04592 0
M  V30 104 N 16.3916 -2.59134 -4.98804 0
M  V30 105 H 8.5426 -1.75222 -1.20046 0
M  V30 106 H 10.8056 -0.745024 -0.586211 0
M  V30 107 H 10.5116 -2.35881 -2.6087 0
M  V30 108 H 10.3856 -0.95196 -3.6499 0
M  V30 109 H 12.7726 -0.259748 -2.93955 0
M  V30 110 H 12.8536 -1.69847 -1.91274 0
M  V30 111 H 12.4976 -3.16248 -3.97429 0
M  V30 112 H 12.4276 -1.69711 -4.98503 0
M  V30 113 H 14.9186 -1.59297 -3.42685 0
M  V30 114 H 15.2316 -3.81394 -6.7213 0
M  V30 115 H 13.5766 -3.42393 -6.04807 0
M  V30 116 H 16.7676 -2.04927 -4.20859 0
M  V30 117 H 16.9406 -3.06185 -5.711 0
M  V30 118 N 10.3467 1.47872 -0.545128 0
M  V30 119 C 11.5957 2.01695 -0.0145033 0
M  V30 120 C 11.9087 1.42609 1.33873 0
M  V30 121 O 13.1147 1.88021 1.95858 0
M  V30 122 C 11.5707 3.59892 0.0245068 0
M  V30 123 C 11.1787 4.27966 -1.32475 0
M  V30 124 C 12.9227 4.21507 0.50316 0
M  V30 125 C 10.8297 5.78136 -1.2455 0
M  V30 126 H 9.7597 0.753998 -0.00165172 0
M  V30 127 H 12.4107 1.69985 -0.691175 0
M  V30 128 H 10.7927 3.88509 0.766575 0
M  V30 129 H 11.9667 4.11003 -2.08357 0
M  V30 130 H 10.2817 3.78286 -1.74036 0
M  V30 131 H 12.8787 5.31538 0.580656 0
M  V30 132 H 13.2217 3.87855 1.51243 0
M  V30 133 H 13.7547 3.97376 -0.183681 0
M  V30 134 H 10.4937 6.16388 -2.23039 0
M  V30 135 H 10.0137 5.97469 -0.528282 0
M  V30 136 H 11.6927 6.40099 -0.942488 0
M  V30 137 N 11.8248 0.280983 1.55075 0
M  V30 138 C 13.0708 -0.33461 2.00021 0
M  V30 139 C 13.4038 -1.55063 1.16915 0
M  V30 140 O 12.6788 -1.93006 0.240646 0
M  V30 141 C 12.9618 -0.711007 3.53011 0
M  V30 142 C 12.8148 0.512766 4.46868 0
M  V30 143 C 14.1338 -1.54522 4.12081 0
M  V30 144 H 11.2528 -0.120147 0.727141 0
M  V30 145 H 13.8948 0.389097 1.85973 0
M  V30 146 H 12.0448 -1.32761 3.65112 0
M  V30 147 H 13.7168 1.15131 4.46702 0
M  V30 148 H 11.9598 1.14975 4.18286 0
M  V30 149 H 12.6308 0.205556 5.51617 0
M  V30 150 H 15.1068 -1.02442 4.03293 0
M  V30 151 H 13.9828 -1.77739 5.19327 0
M  V30 152 H 14.2438 -2.52813 3.62682 0
M  V30 153 N 13.3029 -1.57598 0.00835791 0
M  V30 154 C 14.5509 -1.90551 -0.6734 0
M  V30 155 C 14.8719 -0.883301 -1.73847 0
M  V30 156 O 14.1419 0.0781442 -1.95744 0
M  V30 157 H 12.7219 -0.703312 -0.251717 0
M  V30 158 H 15.3839 -1.94833 0.0512592 0
M  V30 159 H 14.4799 -2.9056 -1.13935 0
M  V30 160 N 14.781 0.264519 -1.55364 0
M  V30 161 C 16.058 1.01677 -1.67096 0
M  V30 162 C 16.438 2.03996 -0.543015 0
M  V30 163 O 15.786 2.23907 0.45585 0
M  V30 164 C 15.996 1.66596 -3.0667 0
M  V30 165 C 17.344 2.17442 -3.64697 0
M  V30 166 O 18.368 1.76568 -3.09358 0
M  V30 167 O 17.227 2.92439 -4.61673 0
M  V30 168 H 14.321 0.472161 -0.678965 0
M  V30 169 H 16.867 0.259703 -1.67701 0
M  V30 170 H 15.639 0.924962 -3.80211 0
M  V30 171 H 15.262 2.48968 -3.10001 0
M  V30 172 N 16.2591 1.48442 0.529413 0
M  V30 173 C 17.6701 1.5002 1.11134 0
M  V30 174 C 18.0211 0.27031 1.94329 0
M  V30 175 O 17.1461 -0.622507 2.07253 0
M  V30 176 C 17.7411 2.71834 2.02217 0
M  V30 177 C 16.3001 2.76283 2.55627 0
M  V30 178 C 15.4471 2.43542 1.326 0
M  V30 179 H 18.3981 1.5555 0.314641 0
M  V30 180 H 18.4191 2.50384 2.8651 0
M  V30 181 H 17.9311 3.61331 1.41639 0
M  V30 182 H 16.0321 1.90995 3.19924 0
M  V30 183 H 16.1451 3.77725 2.94721 0
M  V30 184 H 14.5091 1.94709 1.64196 0
M  V30 185 H 15.2921 3.3528 0.737734 0
M  V30 186 N 17.7372 -0.778329 1.37039 0
M  V30 187 C 18.9832 -1.53892 1.32079 0
M  V30 188 C 19.3162 -1.9396 -0.0965386 0
M  V30 189 O 18.5912 -1.63568 -1.05242 0
M  V30 190 C 18.8742 -2.80847 2.25382 0
M  V30 191 C 18.7272 -2.47076 3.75864 0
M  V30 192 C 20.0462 -3.82741 2.1725 0
M  V30 193 H 17.1652 -0.558303 0.48111 0
M  V30 194 H 19.8072 -0.893397 1.67685 0
M  V30 195 H 17.9572 -3.35931 1.95148 0
M  V30 196 H 19.6292 -1.97957 4.16666 0
M  V30 197 H 17.8722 -1.79863 3.94755 0
M  V30 198 H 18.5432 -3.37798 4.36574 0
M  V30 199 H 21.0192 -3.37133 2.43887 0
M  V30 200 H 19.8952 -4.69303 2.84686 0
M  V30 201 H 20.1562 -4.2652 1.16331 0
M  V30 202 N 19.2153 -1.21501 -1.00376 0
M  V30 203 C 20.1453 -0.999478 -2.11028 0
M  V30 204 C 21.1263 0.0759671 -1.6993 0
M  V30 205 O 22.3113 -0.0841106 -1.94018 0
M  V30 206 C 19.4413 -0.564709 -3.42678 0
M  V30 207 C 18.3953 -1.58486 -3.97576 0
M  V30 208 C 17.7213 -1.00628 -5.25146 0
M  V30 209 C 19.0213 -2.97204 -4.29496 0
M  V30 210 H 20.7153 -1.92495 -2.29317 0
M  V30 211 H 18.2613 -0.92693 -1.102 0
M  V30 212 H 20.2143 -0.401091 -4.19487 0
M  V30 213 H 18.9383 0.396411 -3.24185 0
M  V30 214 H 17.5973 -1.73606 -3.22888 0
M  V30 215 H 17.2453 -0.0368439 -5.02987 0
M  V30 216 H 16.9453 -1.68771 -5.62841 0
M  V30 217 H 18.4693 -0.854015 -6.04598 0
M  V30 218 H 19.8833 -2.8552 -4.97143 0
M  V30 219 H 18.2803 -3.62372 -4.78338 0
M  V30 220 H 19.3503 -3.47956 -3.3772 0
M  V30 221 N 20.6934 1.19889 -1.02296 0
M  V30 222 C 21.6434 2.20777 -0.56934 0
M  V30 223 C 22.6274 1.56379 0.378741 0
M  V30 224 O 23.8194 1.75859 0.200673 0
M  V30 225 C 20.9484 3.43196 0.0845077 0
M  V30 226 C 20.0344 4.14749 -0.88566 0
M  V30 227 N 20.4254 4.62584 -2.04573 0
M  V30 228 C 18.7234 4.40347 -0.707835 0
M  V30 229 C 19.4244 5.17466 -2.65714 0
M  V30 230 N 18.4004 5.0791 -1.93723 0
M  V30 231 H 22.2024 2.55434 -1.45365 0
M  V30 232 H 19.7164 1.35897 -0.88915 0
M  V30 233 H 21.7134 4.14707 0.427067 0
M  V30 234 H 20.3734 3.10042 0.964574 0
M  V30 235 H 21.3844 4.57597 -2.4254 0
M  V30 236 H 18.0614 4.17317 0.12364 0
M  V30 237 H 19.4514 5.64808 -3.63925 0
M  V30 238 N 22.1715 0.800033 1.35784 0
M  V30 239 C 23.3995 0.389606 2.03199 0
M  V30 240 C 23.8145 -0.997375 1.60306 0
M  V30 241 O 23.1715 -1.64154 0.797481 0
M  V30 242 C 23.2225 0.455855 3.58614 0
M  V30 243 O 22.9435 1.78815 3.99946 0
M  V30 244 C 24.4445 0.0374032 4.43284 0
M  V30 245 H 21.6645 0.159132 0.651857 0
M  V30 246 H 24.2085 1.08183 1.73541 0
M  V30 247 H 22.3635 -0.188057 3.86943 0
M  V30 248 H 22.7775 1.74636 4.94573 0
M  V30 249 H 24.2515 0.134882 5.51835 0
M  V30 250 H 24.7285 -1.01651 4.27275 0
M  V30 251 H 25.3345 0.654215 4.20238 0
M  V30 252 N 23.6496 -1.47581 0.552962 0
M  V30 253 C 24.6126 -2.28439 -0.186605 0
M  V30 254 C 25.6126 -1.36706 -0.84665 0
M  V30 255 O 26.8026 -1.59378 -0.703164 0
M  V30 256 C 23.9346 -3.16264 -1.2724 0
M  V30 257 H 25.1276 -2.95294 0.523609 0
M  V30 258 H 22.6806 -1.532 0.309745 0
M  V30 259 H 23.4156 -2.54091 -2.01514 0
M  V30 260 H 23.2006 -3.83769 -0.803968 0
M  V30 261 H 24.6906 -3.77198 -1.79196 0
M  V30 262 N 25.1277 -0.289203 -1.54924 0
M  V30 263 C 26.3557 0.326463 -2.04308 0
M  V30 264 C 26.7707 1.48413 -1.16701 0
M  V30 265 O 26.1277 1.81507 -0.190087 0
M  V30 266 C 26.1787 0.794014 -3.52672 0
M  V30 267 O 25.8997 -0.317564 -4.36948 0
M  V30 268 C 27.4007 1.47605 -4.18004 0
M  V30 269 H 24.6207 0.0726272 -0.667058 0
M  V30 270 H 27.1647 -0.425401 -2.00026 0
M  V30 271 H 25.3197 1.49593 -3.57352 0
M  V30 272 H 25.7337 0.0443186 -5.24481 0
M  V30 273 H 27.2077 1.75447 -5.23376 0
M  V30 274 H 27.6847 2.41224 -3.67025 0
M  V30 275 H 28.2907 0.81762 -4.17367 0
M  V30 276 N 26.6058 1.57591 -0.0167156 0
M  V30 277 C 27.8338 1.95575 0.675128 0
M  V30 278 C 28.2488 0.892542 1.6637 0
M  V30 279 O 27.6058 -0.126912 1.82058 0
M  V30 280 C 27.6568 3.33608 1.39239 0
M  V30 281 O 27.3778 4.3585 0.443444 0
M  V30 282 C 28.8788 3.86151 2.17721 0
M  V30 283 H 26.0988 0.644423 0.186978 0
M  V30 284 H 28.6428 2.0437 -0.0728 0
M  V30 285 H 26.7978 3.2607 2.09182 0
M  V30 286 H 27.2118 5.158 0.951358 0
M  V30 287 H 28.6858 4.85114 2.63379 0
M  V30 288 H 29.1628 3.19738 3.01105 0
M  V30 289 H 29.7688 3.96918 1.52761 0
M  V30 290 N 28.0839 -0.256276 1.55502 0
M  V30 291 C 29.4949 -0.826068 1.67431 0
M  V30 292 C 29.8459 -1.86396 0.612446 0
M  V30 293 O 28.9709 -2.15031 -0.243025 0
M  V30 294 C 29.5659 -1.50512 3.03532 0
M  V30 295 C 28.1249 -2.02273 3.17431 0
M  V30 296 C 27.2719 -0.870548 2.63281 0
M  V30 297 H 30.2229 -0.0322728 1.58667 0
M  V30 298 H 30.2439 -2.37279 2.97454 0
M  V30 299 H 29.7559 -0.749484 3.80794 0
M  V30 300 H 27.8569 -2.80746 2.44974 0
M  V30 301 H 27.9699 -2.22655 4.24219 0
M  V30 302 H 26.3339 -1.26851 2.20864 0
M  V30 303 H 27.1169 -0.128149 3.43061 0
M  V30 304 N 29.562 -1.4872 -0.521534 0
M  V30 305 C 30.808 -1.574 -1.27879 0
M  V30 306 C 31.141 -0.250817 -1.92573 0
M  V30 307 O 30.416 0.743934 -1.79711 0
M  V30 308 C 30.699 -2.71843 -2.36164 0
M  V30 309 C 30.552 -4.13893 -1.76105 0
M  V30 310 C 31.871 -2.82008 -3.37875 0
M  V30 311 H 28.99 -0.572941 -0.463581 0
M  V30 312 H 31.632 -1.80927 -0.580119 0
M  V30 313 H 29.782 -2.51914 -2.95756 0
M  V30 314 H 31.454 -4.45284 -1.20499 0
M  V30 315 H 29.697 -4.20498 -1.06601 0
M  V30 316 H 30.368 -4.89804 -2.5455 0
M  V30 317 H 32.844 -3.00086 -2.88249 0
M  V30 318 H 31.72 -3.63796 -4.11028 0
M  V30 319 H 31.981 -1.90511 -3.98946 0
M  V30 320 N 31.0401 0.771051 -1.3745 0
M  V30 321 C 32.2681 1.56015 -1.35893 0
M  V30 322 C 32.6831 1.88718 0.0555523 0
M  V30 323 O 32.0401 1.51502 1.01752 0
M  V30 324 C 32.0911 2.87001 -2.19801 0
M  V30 325 O 31.8121 2.557 -3.55738 0
M  V30 326 C 33.3131 3.81228 -2.26231 0
M  V30 327 H 30.5331 0.483317 -0.465453 0
M  V30 328 H 33.0771 0.955611 -1.80799 0
M  V30 329 H 31.2321 3.43877 -1.78402 0
M  V30 330 H 31.6461 3.39584 -3.99729 0
M  V30 331 H 33.1201 4.70139 -2.89263 0
M  V30 332 H 33.5971 4.20409 -1.27093 0
M  V30 333 H 34.2031 3.30281 -2.67945 0
M  V30 334 N 32.5182 1.22032 0.997298 0
M  V30 335 C 33.7642 1.04376 1.73878 0
M  V30 336 C 34.0972 -0.420716 1.89588 0
M  V30 337 O 33.3722 -1.31202 1.43583 0
M  V30 338 C 33.6552 1.75047 3.14691 0
M  V30 339 C 33.5082 3.29062 3.06656 0
M  V30 340 C 34.8272 1.49928 4.13775 0
M  V30 341 H 31.9462 0.380578 0.631133 0
M  V30 342 H 34.5882 1.50312 1.16217 0
M  V30 343 H 32.7382 1.35996 3.63919 0
M  V30 344 H 34.4102 3.7753 2.65083 0
M  V30 345 H 32.6532 3.58967 2.43568 0
M  V30 346 H 33.3242 3.73683 4.06282 0
M  V30 347 H 35.8002 1.83842 3.73285 0
M  V30 348 H 34.6762 2.01878 5.10428 0
M  V30 349 H 34.9372 0.430929 4.39995 0
M  V30 350 N 33.9963 -1.19345 1.0293 0
M  V30 351 C 34.9593 -2.20793 0.615069 0
M  V30 352 C 35.9593 -1.57553 -0.321533 0
M  V30 353 O 37.1493 -1.73862 -0.108483 0
M  V30 354 C 34.2813 -3.40754 -0.0999222 0
M  V30 355 H 35.4743 -2.58955 1.51269 0
M  V30 356 H 33.0273 -1.3303 0.820534 0
M  V30 357 H 33.7623 -3.0811 -1.01187 0
M  V30 358 H 33.5473 -3.87889 0.57309 0
M  V30 359 H 35.0373 -4.15898 -0.376645 0
M  V30 360 N 35.4744 -0.807222 -1.35358 0
M  V30 361 C 36.4374 -0.223665 -2.28106 0
M  V30 362 C 37.4374 0.589354 -1.4961 0
M  V30 363 O 38.6274 0.407745 -1.69361 0
M  V30 364 C 35.7594 0.688149 -3.33882 0
M  V30 365 H 36.9524 -1.04169 -2.81227 0
M  V30 366 H 34.5054 -0.577921 -1.45223 0
M  V30 367 H 35.2404 1.52984 -2.85948 0
M  V30 368 H 35.0254 0.10687 -3.91954 0
M  V30 369 H 36.5154 1.09075 -4.03104 0
M  V30 370 N 36.9525 1.47285 -0.560781 0
M  V30 371 C 38.2295 1.9558 0.0277798 0
M  V30 372 C 38.6095 1.5034 1.48192 0
M  V30 373 O 37.9575 0.743882 2.16052 0
M  V30 374 C 38.1675 3.48789 -0.121418 0
M  V30 375 C 39.5155 4.24594 0.0220912 0
M  V30 376 O 40.5395 3.56166 -0.0491439 0
M  V30 377 O 39.3985 5.46217 0.175958 0
M  V30 378 H 36.4925 0.824663 0.0621342 0
M  V30 379 H 39.0385 1.5767 -0.627556 0
M  V30 380 H 37.8105 3.74533 -1.13316 0
M  V30 381 H 37.4335 3.93473 0.571366 0
M  V30 382 N 38.4306 0.297415 1.54768 0
M  V30 383 C 39.6786 -0.312295 1.99673 0
M  V30 384 C 39.9996 -1.54686 1.18732 0
M  V30 385 O 39.2696 -1.93854 0.282382 0
M  V30 386 H 37.8496 -0.118381 0.73756 0
M  V30 387 H 40.5116 0.407915 1.90583 0
M  V30 388 H 39.6076 -0.586813 3.06534 0
M  V30 389 N 39.9087 -1.5758 0.0250728 0
M  V30 390 C 41.1337 -1.96337 -0.668317 0
M  V30 391 C 41.5587 -0.901314 -1.651 0
M  V30 392 O 40.9167 0.138187 -1.80773 0
M  V30 393 C 40.9647 -3.34191 -1.35457 0
M  V30 394 O 40.0687 -3.30269 -2.46974 0
M  V30 395 H 39.4097 -0.640281 -0.175887 0
M  V30 396 H 41.9397 -2.0442 0.0857224 0
M  V30 397 H 41.9497 -3.70331 -1.71228 0
M  V30 398 H 40.6247 -4.11036 -0.634218 0
M  V30 399 H 39.2017 -3.05841 -2.13344 0
M  V30 400 N 41.3868 0.248026 -1.55636 0
M  V30 401 C 42.3168 1.31079 -1.93237 0
M  V30 402 C 43.2978 1.50264 -0.797174 0
M  V30 403 O 44.4828 1.62891 -1.05737 0
M  V30 404 C 41.6128 2.66575 -2.22609 0
M  V30 405 C 40.5668 2.62087 -3.3837 0
M  V30 406 C 39.8928 4.01369 -3.53281 0
M  V30 407 C 41.1928 2.19171 -4.7409 0
M  V30 408 H 42.8868 0.998556 -2.82257 0
M  V30 409 H 40.4328 0.47891 -1.35803 0
M  V30 410 H 42.3858 3.41057 -2.47503 0
M  V30 411 H 41.1098 2.99432 -1.30414 0
M  V30 412 H 39.7688 1.90063 -3.13483 0
M  V30 413 H 39.4168 4.31489 -2.58508 0
M  V30 414 H 39.1168 3.99254 -4.31127 0
M  V30 415 H 40.6408 4.77552 -3.80495 0
M  V30 416 H 42.0548 2.83384 -4.98363 0
M  V30 417 H 40.4518 2.2817 -5.5503 0
M  V30 418 H 41.5218 1.14336 -4.71227 0
M  V30 419 N 42.8649 1.48995 0.513639 0
M  V30 420 C 44.2759 1.5119 1.09537 0
M  V30 421 C 44.6269 0.290906 1.94031 0
M  V30 422 O 43.7519 -0.60049 2.07902 0
M  V30 423 C 44.3469 2.73964 1.99322 0
M  V30 424 C 42.9059 2.78978 2.52682 0
M  V30 425 C 42.0529 2.44934 1.30009 0
M  V30 426 H 45.0039 1.55875 0.298125 0
M  V30 427 H 45.0249 2.53409 2.83838 0
M  V30 428 H 44.5369 3.62813 1.37799 0
M  V30 429 H 42.6379 1.94378 3.1788 0
M  V30 430 H 42.7509 3.8083 2.90698 0
M  V30 431 H 41.1149 1.9644 1.62122 0
M  V30 432 H 41.8979 3.36043 0.702131 0
M  V30 433 N 44.343 -0.763751 1.37857 0
M  V30 434 C 45.306 -1.85889 1.34081 0
M  V30 435 C 46.306 -1.58949 0.243277 0
M  V30 436 O 47.496 -1.66882 0.499589 0
M  V30 437 C 44.628 -3.23176 1.08489 0
M  V30 438 H 45.821 -1.90648 2.31502 0
M  V30 439 H 43.374 -0.964367 1.23003 0
M  V30 440 H 44.109 -3.24091 0.116318 0
M  V30 441 H 43.894 -3.44124 1.8794 0
M  V30 442 H 45.384 -4.03254 1.08517 0
M  V30 443 N 45.8211 -1.22559 -0.990812 0
M  V30 444 C 47.0981 -0.959875 -1.70428 0
M  V30 445 C 47.4781 0.524455 -2.04481 0
M  V30 446 O 46.8261 1.49302 -1.72977 0
M  V30 447 C 47.0361 -1.85955 -2.95333 0
M  V30 448 C 48.3841 -2.11687 -3.68068 0
M  V30 449 O 49.4081 -1.8342 -3.05345 0
M  V30 450 O 48.2671 -2.59572 -4.80921 0
M  V30 451 H 45.3611 -0.361154 -0.743974 0
M  V30 452 H 47.9071 -1.33554 -1.04697 0
M  V30 453 H 46.6791 -2.86346 -2.66687 0
M  V30 454 H 46.3021 -1.4856 -3.68803 0
M  V30 455 N 47.2992 1.18797 -1.03562 0
M  V30 456 C 48.2292 2.24472 -0.643019 0
M  V30 457 C 49.2102 1.66433 0.351283 0
M  V30 458 O 50.3952 1.92803 0.232505 0
M  V30 459 C 47.5252 3.473 4.24935e-05 0
M  V30 460 C 46.4792 4.18055 -0.917257 0
M  V30 461 C 45.8052 5.34519 -0.138941 0
M  V30 462 C 47.1052 4.72109 -2.23407 0
M  V30 463 H 48.7992 2.57566 -1.52643 0
M  V30 464 H 46.3452 1.23806 -0.735394 0
M  V30 465 H 48.2982 4.20426 0.286383 0
M  V30 466 H 47.0222 3.13424 0.918299 0
M  V30 467 H 45.6812 3.46821 -1.1879 0
M  V30 468 H 45.3292 4.96891 0.781562 0
M  V30 469 H 45.0292 5.82794 -0.750005 0
M  V30 470 H 46.5532 6.10438 0.1405 0
M  V30 471 H 47.9672 5.36955 -2.00879 0
M  V30 472 H 46.3642 5.30897 -2.79765 0
M  V30 473 H 47.4342 3.89807 -2.88407 0
M  V30 474 N 48.7773 0.814389 1.34928 0
M  V30 475 C 49.7403 0.235759 2.27984 0
M  V30 476 C 50.7403 -0.581412 1.49921 0
M  V30 477 O 51.9303 -0.398758 1.69575 0
M  V30 478 C 49.0623 -0.670433 3.34242 0
M  V30 479 H 50.2553 1.05659 2.80671 0
M  V30 480 H 47.8083 0.585614 1.44915 0
M  V30 481 H 48.5433 -1.51466 2.86755 0
M  V30 482 H 48.3283 -0.0860822 3.92005 0
M  V30 483 H 49.8183 -1.06935 4.03676 0
M  V30 484 N 50.2554 -1.46986 0.568584 0
M  V30 485 C 51.1874 -2.28233 -0.210337 0
M  V30 486 C 52.2004 -1.37682 -0.868767 0
M  V30 487 O 53.3894 -1.62406 -0.740705 0
M  V30 488 C 50.4894 -3.12293 -1.3163 0
M  V30 489 C 49.6624 -4.30878 -0.7525 0
M  V30 490 C 48.7214 -4.96445 -1.74439 0
M  V30 491 O 47.7474 -5.54482 -1.286 0
M  V30 492 N 48.9494 -4.92171 -3.07812 0
M  V30 493 H 51.7144 -2.95723 0.486648 0
M  V30 494 H 49.2754 -1.56742 0.405409 0
M  V30 495 H 51.2674 -3.53022 -1.97883 0
M  V30 496 H 49.8374 -2.46971 -1.91636 0
M  V30 497 H 49.0574 -3.94104 0.0871128 0
M  V30 498 H 50.3454 -5.07558 -0.35536 0
M  V30 499 H 49.7434 -4.46239 -3.47688 0
M  V30 500 H 48.3004 -5.36884 -3.69592 0
M  V30 501 N 51.7335 -0.305618 -1.54608 0
M  V30 502 C 52.6635 0.561482 -2.26649 0
M  V30 503 C 53.6445 1.13415 -1.26772 0
M  V30 504 O 54.8295 1.16262 -1.55553 0
M  V30 505 C 51.9595 1.73122 -3.01075 0
M  V30 506 C 50.9135 1.2887 -4.08138 0
M  V30 507 C 50.2395 2.54396 -4.70305 0
M  V30 508 C 51.5395 0.416578 -5.20636 0
M  V30 509 H 53.2335 -0.0393902 -2.99374 0
M  V30 510 H 50.7795 -0.020385 -1.43986 0
M  V30 511 H 52.7325 2.34396 -3.50195 0
M  V30 512 H 51.4565 2.3584 -2.25936 0
M  V30 513 H 50.1155 0.698991 -3.59875 0
M  V30 514 H 49.7635 3.15439 -3.918 0
M  V30 515 H 49.4635 2.25486 -5.42614 0
M  V30 516 H 50.9875 3.16464 -5.2219 0
M  V30 517 H 52.4015 0.935116 -5.65622 0
M  V30 518 H 50.7985 0.221046 -5.99693 0
M  V30 519 H 51.8685 -0.557162 -4.81688 0
M  V30 520 N 53.2116 1.57565 -0.0334293 0
M  V30 521 C 54.4606 1.91155 0.643639 0
M  V30 522 C 54.7736 0.91192 1.73042 0
M  V30 523 O 55.9796 1.13923 2.46442 0
M  V30 524 C 54.4356 3.39443 1.1961 0
M  V30 525 C 54.0436 4.47774 0.142381 0
M  V30 526 C 55.7876 3.82094 1.84944 0
M  V30 527 C 53.6946 5.87162 0.706727 0
M  V30 528 H 52.6246 0.713368 0.244176 0
M  V30 529 H 55.2756 1.8323 -0.0994323 0
M  V30 530 H 53.6576 3.42313 1.99092 0
M  V30 531 H 54.8316 4.56469 -0.630296 0
M  V30 532 H 53.1466 4.14352 -0.412446 0
M  V30 533 H 55.7436 4.83591 2.2813 0
M  V30 534 H 56.0866 3.17386 2.69392 0
M  V30 535 H 56.6196 3.81665 1.12145 0
M  V30 536 H 53.3586 6.55424 -0.0997178 0
M  V30 537 H 52.8786 5.82064 1.44779 0
M  V30 538 H 54.5576 6.35866 1.19514 0
M  V30 539 N 54.6897 -0.239769 1.55765 0
M  V30 540 C 55.6527 -1.28038 1.90103 0
M  V30 541 C 56.6527 -1.40723 0.778055 0
M  V30 542 O 57.8427 -1.39301 1.04599 0
M  V30 543 C 54.9747 -2.65702 2.13577 0
M  V30 544 H 56.1677 -0.988048 2.83157 0
M  V30 545 H 53.7207 -0.479382 1.48767 0
M  V30 546 H 54.4557 -3.00063 1.23015 0
M  V30 547 H 54.2407 -2.57875 2.95369 0
M  V30 548 H 55.7307 -3.40828 2.41301 0
M  V30 549 N 56.1678 -1.49265 -0.50573 0
M  V30 550 C 57.3958 -1.62215 -1.28429 0
M  V30 551 C 57.8108 -0.291697 -1.86533 0
M  V30 552 O 57.1678 0.722233 -1.67601 0
M  V30 553 C 57.2188 -2.68735 -2.41793 0
M  V30 554 O 56.9398 -3.96619 -1.86078 0
M  V30 555 C 58.4408 -2.92346 -3.3324 0
M  V30 556 H 55.6608 -0.546239 -0.389697 0
M  V30 557 H 58.2048 -1.95265 -0.607609 0
M  V30 558 H 56.3598 -2.38476 -3.053 0
M  V30 559 H 56.7738 -4.55256 -2.60465 0
M  V30 560 H 58.2478 -3.70623 -4.09075 0
M  V30 561 H 58.7248 -2.02081 -3.89948 0
M  V30 562 H 59.3308 -3.24003 -2.75503 0
M  V30 563 N 57.6459 0.756429 -1.3826 0
M  V30 564 C 58.5789 1.87802 -1.29637 0
M  V30 565 C 59.5569 1.61667 -0.173939 0
M  V30 566 O 60.7409 1.85208 -0.350775 0
M  V30 567 C 57.8679 3.23354 -1.00797 0
M  V30 568 C 56.9139 3.68379 -2.14939 0
M  V30 569 S 57.7469 3.8025 -3.77054 0
M  V30 570 C 58.9029 5.18626 -3.50396 0
M  V30 571 H 59.1359 1.94829 -2.24564 0
M  V30 572 H 56.6689 0.919117 -1.24063 0
M  V30 573 H 58.6269 4.01637 -0.848413 0
M  V30 574 H 57.2879 3.14008 -0.0759369 0
M  V30 575 H 56.4809 4.66693 -1.90299 0
M  V30 576 H 56.0829 2.97242 -2.26988 0
M  V30 577 H 58.3749 6.04289 -3.06334 0
M  V30 578 H 59.3179 5.48286 -4.48094 0
M  V30 579 H 59.7259 4.87289 -2.84973 0
M  V30 580 N 59.124 1.23083 0.984299 0
M  V30 581 C 60.354 1.08556 1.75781 0
M  V30 582 C 60.762 -0.366171 1.85623 0
M  V30 583 O 60.105 -1.26524 1.33182 0
M  V30 584 C 60.167 1.63208 3.20318 0
M  V30 585 C 59.831 3.11922 3.33997 0
M  V30 586 C 60.828 4.09259 3.2063 0
M  V30 587 C 58.513 3.51552 3.58771 0
M  V30 588 C 60.507 5.4421 3.31835 0
M  V30 589 C 58.194 4.86649 3.69616 0
M  V30 590 C 59.192 5.82787 3.56157 0
M  V30 591 O 58.88 7.15431 3.66626 0
M  V30 592 H 58.612 0.380713 0.5586 0
M  V30 593 H 61.166 1.63321 1.2456 0
M  V30 594 H 59.396 1.0286 3.72769 0
M  V30 595 H 61.085 1.44216 3.79416 0
M  V30 596 H 61.851 3.79984 3.01392 0
M  V30 597 H 57.73 2.77239 3.6832 0
M  V30 598 H 61.274 6.1923 3.21247 0
M  V30 599 H 57.171 5.15601 3.88363 0
M  V30 600 H 57.939 7.23127 3.83445 0
M  V30 601 N 60.6021 -1.18246 1.0419 0
M  V30 602 C 61.8791 -1.84121 0.660208 0
M  V30 603 C 62.2591 -1.92778 -0.860221 0
M  V30 604 O 61.6071 -1.45464 -1.76217 0
M  V30 605 C 61.8171 -3.22355 1.33747 0
M  V30 606 C 63.1651 -3.98376 1.46906 0
M  V30 607 O 64.1891 -3.31799 1.29568 0
M  V30 608 O 63.0481 -5.17665 1.75171 0
M  V30 609 H 60.1421 -0.794036 0.231161 0
M  V30 610 H 62.6881 -1.25628 1.14087 0
M  V30 611 H 61.4601 -3.10964 2.37522 0
M  V30 612 H 61.0831 -3.88506 0.845515 0
M  V30 613 N 62.0802 -0.821533 -1.34494 0
M  V30 614 C 63.3082 -0.421884 -2.02553 0
M  V30 615 C 63.7232 0.971745 -1.61872 0
M  V30 616 O 63.0802 1.62864 -0.823496 0
M  V30 617 C 63.1312 -0.51285 -3.57844 0
M  V30 618 O 62.8522 -1.85155 -3.97051 0
M  V30 619 C 64.3532 -0.107921 -4.43169 0
M  V30 620 H 61.5732 -0.169482 -0.649243 0
M  V30 621 H 64.1172 -1.1093 -1.71798 0
M  V30 622 H 62.2722 0.126474 -3.87193 0
M  V30 623 H 62.6862 -1.82482 -4.91732 0
M  V30 624 H 64.1602 -0.222657 -5.51551 0
M  V30 625 H 64.6372 0.948401 -4.28838 0
M  V30 626 H 65.2432 -0.720989 -4.19144 0
M  V30 627 N 63.5583 1.46682 -0.576371 0
M  V30 628 C 64.4913 2.27243 0.208731 0
M  V30 629 C 65.4693 1.35238 0.902746 0
M  V30 630 O 66.6533 1.64641 0.917904 0
M  V30 631 C 63.7803 3.12802 1.29896 0
M  V30 632 C 62.8263 4.20524 0.711457 0
M  V30 633 S 63.6593 5.33548 -0.456781 0
M  V30 634 C 64.8153 6.22673 0.634798 0
M  V30 635 H 65.0483 2.93484 -0.474838 0
M  V30 636 H 62.5813 1.50069 -0.363118 0
M  V30 637 H 64.5393 3.62661 1.92321 0
M  V30 638 H 63.2003 2.45887 1.95444 0
M  V30 639 H 62.3933 4.80191 1.53076 0
M  V30 640 H 61.9953 3.73645 0.162999 0
M  V30 641 H 64.2873 6.60181 1.52209 0
M  V30 642 H 65.2303 7.0806 0.0750311 0
M  V30 643 H 65.6383 5.56684 0.936092 0
M  V30 644 N 65.0364 0.313813 1.54444 0
M  V30 645 C 66.3134 -0.345447 1.92525 0
M  V30 646 C 66.6934 -1.70667 1.24242 0
M  V30 647 O 66.0414 -2.25273 0.382654 0
M  V30 648 C 66.2514 -0.44737 3.46121 0
M  V30 649 C 67.5994 -0.712238 4.18584 0
M  V30 650 O 68.6234 -0.530678 3.52225 0
M  V30 651 O 67.4824 -1.06183 5.36085 0
M  V30 652 H 64.5764 -0.195407 0.803583 0
M  V30 653 H 67.1224 0.362813 1.65776 0
M  V30 654 H 65.8944 0.509043 3.87975 0
M  V30 655 H 65.5174 -1.20359 3.78945 0
M  V30 656 N 66.5145 -1.57545 0.0417849 0
M  V30 657 C 67.4775 -2.09885 -0.92093 0
M  V30 658 C 68.4775 -1.01648 -1.24596 0
M  V30 659 O 69.6675 -1.27759 -1.1842 0
M  V30 660 C 66.7995 -2.57527 -2.23367 0
M  V30 661 H 67.9925 -2.96236 -0.467382 0
M  V30 662 H 65.5455 -1.5493 -0.206467 0
M  V30 663 H 66.2805 -1.74542 -2.73323 0
M  V30 664 H 66.0655 -3.36613 -2.01083 0
M  V30 665 H 67.5555 -2.98201 -2.92346 0
M  V30 666 N 67.9926 0.231505 -1.5589 0
M  V30 667 C 68.9556 1.27028 -1.90779 0
M  V30 668 C 69.9556 1.40308 -0.785507 0
M  V30 669 O 71.1456 1.38744 -1.05336 0
M  V30 670 C 68.2776 2.64566 -2.14983 0
M  V30 671 H 69.4706 0.973017 -2.83677 0
M  V30 672 H 67.0236 0.471486 -1.49019 0
M  V30 673 H 67.7586 2.99406 -1.24604 0
M  V30 674 H 67.5436 2.56305 -2.96732 0
M  V30 675 H 69.0336 3.39543 -2.43105 0
M  V30 676 N 69.4707 1.49531 0.497807 0
M  V30 677 C 70.4187 1.66926 1.61983 0
M  V30 678 C 71.4127 0.535167 1.60724 0
M  V30 679 O 72.6187 0.714896 1.65195 0
M  V30 680 H 68.9937 0.526415 0.537021 0
M  V30 681 H 70.9647 2.61098 1.44465 0
M  V30 682 C 69.7137 1.75602 3.00099 0
M  V30 683 H 69.0367 2.62244 3.01775 0
M  V30 684 H 70.4767 1.91807 3.78135 0
M  V30 685 C 68.9357 0.501543 3.33146 0
M  V30 686 O 69.4657 -0.371342 3.9998 0
M  V30 687 N 67.6717 0.363531 2.88317 0
M  V30 688 H 67.2187 1.07485 2.34104 0
M  V30 689 H 67.1767 -0.474728 3.10795 0
M  V30 690 N 70.9488 -0.749086 1.3866 0
M  V30 691 C 72.1968 -1.50535 1.34847 0
M  V30 692 C 72.5178 -1.94909 -0.0595016 0
M  V30 693 O 71.7878 -1.67973 -1.00806 0
M  V30 694 H 70.3678 -0.558395 0.49619 0
M  V30 695 H 73.0298 -0.890165 1.73384 0
M  V30 696 H 72.1258 -2.39413 2.00219 0
M  V30 697 N 72.4269 -1.23603 -0.977757 0
M  V30 698 C 73.6729 -1.07129 -1.72195 0
M  V30 699 C 74.0059 0.390501 -1.90233 0
M  V30 700 O 73.2809 1.28902 -1.45653 0
M  V30 701 C 73.5639 -1.80031 -3.11867 0
M  V30 702 C 73.4169 -3.33899 -3.01383 0
M  V30 703 C 74.7359 -1.56492 -4.11337 0
M  V30 704 H 71.8549 -0.390571 -0.624999 0
M  V30 705 H 74.4969 -1.52142 -1.13811 0
M  V30 706 H 72.6469 -1.41768 -3.6171 0
M  V30 707 H 74.3189 -3.81699 -2.59043 0
M  V30 708 H 72.5619 -3.62796 -2.37827 0
M  V30 709 H 73.2329 -3.801 -4.00285 0
M  V30 710 H 75.7089 -1.89757 -3.70313 0
M  V30 711 H 74.5849 -2.09973 -5.07151 0
M  V30 712 H 74.8459 -0.500874 -4.39254 0
M  V30 713 N 73.905 1.17692 -1.04816 0
M  V30 714 C 75.153 1.87488 -0.754497 0
M  V30 715 C 75.474 1.81205 0.720407 0
M  V30 716 O 74.744 1.23544 1.52032 0
M  V30 717 H 73.324 0.694101 -0.276102 0
M  V30 718 H 75.986 1.42793 -1.32651 0
M  V30 719 H 75.082 2.93328 -1.06606 0
M  V30 720 N 75.3831 0.828654 1.34056 0
M  V30 721 C 76.3131 0.269443 2.3194 0
M  V30 722 C 77.2941 -0.617247 1.58506 0
M  V30 723 O 78.4791 -0.542931 1.86456 0
M  V30 724 C 75.6091 -0.564793 3.42677 0
M  V30 725 C 74.5631 0.225241 4.27407 0
M  V30 726 C 73.8891 -0.7321 5.29664 0
M  V30 727 C 75.1891 1.43663 5.02154 0
M  V30 728 H 76.8831 1.08728 2.7896 0
M  V30 729 H 74.4291 0.524283 1.34117 0
M  V30 730 H 76.3821 -0.966233 4.10173 0
M  V30 731 H 75.1061 -1.41574 2.9432 0
M  V30 732 H 73.7651 0.608117 3.61521 0
M  V30 733 H 73.4131 -1.57916 4.77568 0
M  V30 734 H 73.1131 -0.20767 5.87233 0
M  V30 735 H 74.6371 -1.13128 6.00029 0
M  V30 736 H 76.0511 1.1089 5.62473 0
M  V30 737 H 74.4481 1.89711 5.69324 0
M  V30 738 H 75.5181 2.21181 4.31517 0
M  V30 739 N 76.8612 -1.46375 0.584142 0
M  V30 740 C 77.8242 -2.28784 -0.138108 0
M  V30 741 C 78.8242 -1.38471 -0.817462 0
M  V30 742 O 80.0142 -1.60833 -0.669199 0
M  V30 743 C 77.1462 -3.18892 -1.20503 0
M  V30 744 H 78.3392 -2.94117 0.586127 0
M  V30 745 H 75.8922 -1.52509 0.342171 0
M  V30 746 H 76.6272 -2.58309 -1.96079 0
M  V30 747 H 76.4122 -3.85388 -0.722384 0
M  V30 748 H 77.9022 -3.80914 -1.71155 0
M  V30 749 N 78.3393 -0.321999 -1.54275 0
M  V30 750 C 79.3023 0.531975 -2.22941 0
M  V30 751 C 80.3023 1.04478 -1.22234 0
M  V30 752 O 81.4923 0.937452 -1.46825 0
M  V30 753 C 78.6243 1.73874 -2.93224 0
M  V30 754 H 79.8173 -0.0682612 -2.99822 0
M  V30 755 H 77.3703 -0.0730644 -1.56129 0
M  V30 756 H 78.1053 2.37825 -2.20476 0
M  V30 757 H 77.8903 1.37847 -3.6707 0
M  V30 758 H 79.3803 2.34496 -3.45545 0
M  V30 759 N 79.8174 1.5752 -0.0501392 0
M  V30 760 C 80.7654 2.12651 0.942459 0
M  V30 761 C 81.7594 1.05807 1.32292 0
M  V30 762 O 82.9654 1.24217 1.3027 0
M  V30 763 H 79.3404 0.679673 0.321789 0
M  V30 764 H 81.3114 2.94951 0.452356 0
M  V30 765 C 80.0604 2.68565 2.20836 0
M  V30 766 H 79.3834 3.50439 1.92439 0
M  V30 767 H 80.8234 3.10761 2.8845 0
M  V30 768 C 79.2824 1.62291 2.95234 0
M  V30 769 O 79.8124 1.03508 3.88135 0
M  V30 770 N 78.0184 1.33836 2.57946 0
M  V30 771 H 77.5654 1.81826 1.82475 0
M  V30 772 H 77.5234 0.629595 3.08032 0
M  V30 773 N 81.2955 -0.223234 1.56011 0
M  V30 774 C 82.2275 -1.30006 1.88762 0
M  V30 775 C 83.2405 -1.43129 0.775746 0
M  V30 776 O 84.4295 -1.44057 1.05403 0
M  V30 777 C 81.5295 -2.67589 2.07965 0
M  V30 778 C 80.7025 -2.76434 3.38973 0
M  V30 779 C 79.7615 -3.95019 3.47629 0
M  V30 780 O 78.7875 -3.83436 4.20672 0
M  V30 781 N 79.9895 -5.09249 2.78649 0
M  V30 782 H 82.7545 -1.02238 2.81722 0
M  V30 783 H 80.3155 -0.413278 1.56536 0
M  V30 784 H 82.3075 -3.45297 2.11073 0
M  V30 785 H 80.8775 -2.87964 1.21638 0
M  V30 786 H 80.0975 -1.85216 3.47978 0
M  V30 787 H 81.3855 -2.79313 4.25278 0
M  V30 788 H 80.7835 -5.21556 2.19081 0
M  V30 789 H 79.3405 -5.85007 2.8742 0
M  V30 790 N 82.7736 -1.49793 -0.48987 0
M  V30 791 C 84.0226 -1.59085 -1.23995 0
M  V30 792 C 84.3356 -0.287907 -1.9347 0
M  V30 793 O 85.5416 -0.259506 -2.70257 0
M  V30 794 C 83.9976 -2.80736 -2.252 0
M  V30 795 C 83.6056 -4.17833 -1.61614 0
M  V30 796 C 85.3496 -2.99364 -3.00967 0
M  V30 797 C 83.2566 -5.30693 -2.60996 0
M  V30 798 H 82.1866 -0.592372 -0.466488 0
M  V30 799 H 84.8376 -1.76197 -0.51252 0
M  V30 800 H 83.2196 -2.57142 -3.01154 0
M  V30 801 H 84.3936 -4.51608 -0.915774 0
M  V30 802 H 82.7086 -4.04656 -0.981977 0
M  V30 803 H 85.3056 -3.80851 -3.75308 0
M  V30 804 H 85.6486 -2.10356 -3.59244 0
M  V30 805 H 86.1816 -3.2305 -2.32128 0
M  V30 806 H 82.9206 -6.21796 -2.07485 0
M  V30 807 H 82.4406 -5.01359 -3.2924 0
M  V30 808 H 84.1196 -5.6049 -3.23202 0
M  V30 809 N 84.2517 0.741722 -1.39055 0
M  V30 810 C 85.4997 1.49818 -1.35643 0
M  V30 811 C 85.8207 1.94938 0.0491642 0
M  V30 812 O 85.0907 1.68505 0.999141 0
M  V30 813 H 83.6707 0.555755 -0.499144 0
M  V30 814 H 86.3327 0.880957 -1.73854 0
M  V30 815 H 85.4287 2.38348 -2.01486 0
M  V30 816 N 85.7298 1.2412 0.971189 0
M  V30 817 C 86.9698 1.09066 1.7287 0
M  V30 818 C 87.3338 -0.364794 1.88503 0
M  V30 819 O 88.5348 -0.636748 2.61149 0
M  V30 820 C 86.8058 1.80629 3.08396 0
M  V30 821 S 88.3648 1.81263 3.99611 0
M  V30 822 H 85.1828 0.390145 0.594397 0
M  V30 823 H 87.7848 1.57397 1.15959 0
M  V30 824 H 86.4888 2.85647 2.94676 0
M  V30 825 H 86.0198 1.32617 3.70373 0
M  V30 826 H 88.0348 0.877804 4.88374 0
M  V30 827 N 87.2079 -1.17134 1.05439 0
M  V30 828 C 88.4329 -1.91913 0.786396 0
M  V30 829 C 88.8579 -1.7643 -0.652234 0
M  V30 830 O 88.2159 -1.08372 -1.45345 0
M  V30 831 C 88.2639 -3.40921 1.17497 0
M  V30 832 O 87.3679 -4.11244 0.308589 0
M  V30 833 H 86.7089 -0.598215 0.288158 0
M  V30 834 H 89.2389 -1.48457 1.4079 0
M  V30 835 H 89.2489 -3.91668 1.14281 0
M  V30 836 H 87.9239 -3.5151 2.22292 0
M  V30 837 H 86.5009 -3.70731 0.40157 0
M  V30 838 N 88.686 -0.835752 -1.33615 0
M  V30 839 C 89.616 -0.281739 -2.31794 0
M  V30 840 C 90.597 0.608833 -1.58831 0
M  V30 841 O 91.782 0.533035 -1.86741 0
M  V30 842 C 88.912 0.546612 -3.42971 0
M  V30 843 C 87.866 -0.247904 -4.27281 0
M  V30 844 C 87.192 0.704001 -5.30045 0
M  V30 845 C 88.492 -1.46324 -5.01385 0
M  V30 846 H 90.186 -1.10206 -2.78379 0
M  V30 847 H 87.732 -0.531388 -1.33837 0
M  V30 848 H 89.685 0.944467 -4.1068 0
M  V30 849 H 88.409 1.40011 -2.95067 0
M  V30 850 H 87.068 -0.627281 -3.61194 0
M  V30 851 H 86.716 1.55381 -4.78399 0
M  V30 852 H 86.416 0.176524 -5.87335 0
M  V30 853 H 87.94 1.09944 -6.0062 0
M  V30 854 H 89.354 -1.13871 -5.61877 0
M  V30 855 H 87.751 -1.92728 -5.6831 0
M  V30 856 H 88.821 -2.23467 -4.30338 0
M  V30 857 N 90.1641 1.46063 -0.591896 0
M  V30 858 C 91.5801 1.57561 -0.254288 0
M  V30 859 C 91.7801 1.58565 1.24336 0
M  V30 860 O 90.8361 1.50753 2.02558 0
M  V30 861 C 92.1491 2.86549 -0.911611 0
M  V30 862 C 93.6971 3.00197 -0.886059 0
M  V30 863 C 94.1721 4.31933 -1.5231 0
M  V30 864 N 95.6631 4.38654 -1.48786 0
M  V30 865 C 96.3981 5.39222 -1.95006 0
M  V30 866 N 95.8941 6.46414 -2.49241 0
M  V30 867 N 97.6871 5.3048 -1.85868 0
M  V30 868 H 89.8381 1.43655 -1.56451 0
M  V30 869 H 92.1011 0.68583 -0.654478 0
M  V30 870 H 91.8071 2.91651 -1.96551 0
M  V30 871 H 91.6811 3.74794 -0.425368 0
M  V30 872 H 94.0681 2.9467 0.159246 0
M  V30 873 H 94.1491 2.13403 -1.41041 0
M  V30 874 H 93.7931 4.38217 -2.56765 0
M  V30 875 H 93.7231 5.17516 -0.973891 0
M  V30 876 H 96.2141 3.61793 -1.09151 0
M  V30 877 H 96.5271 7.19376 -2.82344 0
M  V30 878 H 94.8721 6.47208 -2.53272 0
M  V30 879 H 98.0631 4.45643 -1.43248 0
M  V30 880 H 98.2361 6.08711 -2.22204 0
M  V30 881 N 91.6422 0.330177 1.54103 0
M  V30 882 C 92.5722 -0.525353 2.27513 0
M  V30 883 C 93.5532 -1.11383 1.2856 0
M  V30 884 O 94.7382 -1.13773 1.57383 0
M  V30 885 C 91.8682 -1.6831 3.03791 0
M  V30 886 C 90.8222 -1.2236 4.10137 0
M  V30 887 C 90.1482 -2.46882 4.74293 0
M  V30 888 C 91.4482 -0.333697 5.21233 0
M  V30 889 H 93.1422 0.087013 2.99274 0
M  V30 890 H 90.6882 0.0432893 1.43935 0
M  V30 891 H 92.6412 -2.28795 3.5388 0
M  V30 892 H 91.3652 -2.32216 2.29659 0
M  V30 893 H 90.0242 -0.64165 3.60941 0
M  V30 894 H 89.6722 -3.09165 3.96769 0
M  V30 895 H 89.3722 -2.16825 5.46133 0
M  V30 896 H 90.8962 -3.08117 5.27159 0
M  V30 897 H 92.3102 -0.845013 5.67038 0
M  V30 898 H 90.7072 -0.125612 5.99969 0
M  V30 899 H 91.7772 0.633724 4.80741 0
M  V30 900 N 93.1203 -1.57491 0.0584922 0
M  V30 901 C 94.3673 -1.92978 -0.613648 0
M  V30 902 C 94.6953 -0.937461 -1.70417 0
M  V30 903 O 93.9503 0.049078 -1.95638 0
M  V30 904 C 94.2493 -3.3513 -1.24188 0
M  V30 905 C 93.9153 -4.50037 -0.278826 0
M  V30 906 C 92.5773 -4.81198 -0.0138447 0
M  V30 907 C 94.9293 -5.19807 0.380777 0
M  V30 908 C 92.2573 -5.79473 0.918052 0
M  V30 909 C 94.6093 -6.19079 1.30091 0
M  V30 910 C 93.2733 -6.48665 1.57449 0
M  V30 911 H 92.5433 -0.706157 -0.22455 0
M  V30 912 H 95.1903 -1.91082 0.126533 0
M  V30 913 H 93.4953 -3.33429 -2.05749 0
M  V30 914 H 95.1923 -3.59871 -1.769 0
M  V30 915 H 91.7823 -4.25726 -0.495539 0
M  V30 916 H 95.9663 -4.95939 0.189158 0
M  V30 917 H 91.2223 -6.00727 1.1374 0
M  V30 918 H 95.3963 -6.7225 1.81804 0
M  V30 919 H 93.0233 -7.24628 2.29822 0
M  V30 920 N 94.5984 0.214957 -1.56127 0
M  V30 921 C 95.8444 0.939762 -1.79712 0
M  V30 922 C 96.1774 1.83723 -0.629247 0
M  V30 923 O 95.4524 1.90925 0.371197 0
M  V30 924 C 95.7354 1.77306 -3.13424 0
M  V30 925 C 95.5884 0.90164 -4.40671 0
M  V30 926 C 96.9074 2.74956 -3.43638 0
M  V30 927 H 94.0264 0.340214 -0.653776 0
M  V30 928 H 96.6684 0.20824 -1.88855 0
M  V30 929 H 94.8184 2.39673 -3.0576 0
M  V30 930 H 96.4904 0.294206 -4.60361 0
M  V30 931 H 94.7334 0.207368 -4.33304 0
M  V30 932 H 95.4044 1.51923 -5.30682 0
M  V30 933 H 97.8804 2.22724 -3.51473 0
M  V30 934 H 96.7564 3.30358 -4.38355 0
M  V30 935 H 97.0174 3.53023 -2.66134 0
M  V30 936 N 96.0765 1.50051 0.48192 0
M  V30 937 C 97.3065 1.63999 1.2565 0
M  V30 938 C 97.7145 0.318288 1.86504 0
M  V30 939 O 97.0575 -0.708534 1.69486 0
M  V30 940 C 97.1195 2.66504 2.4128 0
M  V30 941 C 96.7835 4.10352 2.01148 0
M  V30 942 C 97.7805 4.96562 1.54021 0
M  V30 943 C 95.4655 4.56203 2.10199 0
M  V30 944 C 97.4595 6.26668 1.16473 0
M  V30 945 C 95.1465 5.86318 1.72264 0
M  V30 946 C 96.1445 6.71375 1.25477 0
M  V30 947 O 95.8325 7.99062 0.880626 0
M  V30 948 H 95.5645 0.55456 0.386574 0
M  V30 949 H 98.1185 1.96954 0.582944 0
M  V30 950 H 96.3485 2.28769 3.11772 0
M  V30 951 H 98.0375 2.69783 3.03268 0
M  V30 952 H 98.8035 4.62358 1.46458 0
M  V30 953 H 94.6825 3.90152 2.45566 0
M  V30 954 H 98.2265 6.93011 0.798841 0
M  V30 955 H 94.1235 6.20046 1.79482 0
M  V30 956 H 94.8915 8.12239 1.01043 0
M  V30 957 N 97.5546 -0.734337 1.39446 0
M  V30 958 C 98.8316 -1.48579 1.27215 0
M  V30 959 C 99.2116 -2.1077 -0.117968 0
M  V30 960 O 98.5596 -1.98646 -1.12924 0
M  V30 961 C 98.7696 -2.53667 2.39696 0
M  V30 962 C 100.118 -3.20031 2.79044 0
M  V30 963 O 101.142 -2.6398 2.39151 0
M  V30 964 O 100.001 -4.21455 3.47905 0
M  V30 965 H 97.0946 -0.659816 0.49857 0
M  V30 966 H 99.6406 -0.768106 1.51322 0
M  V30 967 H 98.4126 -2.06096 3.32626 0
M  V30 968 H 98.0356 -3.32994 2.17258 0
M  V30 969 N 99.0327 -1.24633 -0.964593 0
M  V30 970 C 100.273 -1.09981 -1.72289 0
M  V30 971 C 100.637 0.354792 -1.88693 0
M  V30 972 O 101.838 0.62289 -2.61483 0
M  V30 973 C 100.109 -1.82262 -3.07434 0
M  V30 974 S 101.668 -1.83379 -3.98645 0
M  V30 975 H 98.4857 -0.393292 -0.59232 0
M  V30 976 H 101.088 -1.58009 -1.15123 0
M  V30 977 H 99.7917 -2.87206 -2.93157 0
M  V30 978 H 99.3227 -1.3458 -3.69664 0
M  V30 979 H 101.338 -0.903691 -4.87901 0
M  V30 980 N 100.511 1.16574 -1.06058 0
M  V30 981 C 101.474 2.19085 -0.673392 0
M  V30 982 C 102.474 1.5835 0.279648 0
M  V30 983 O 103.664 1.74088 0.0623488 0
M  V30 984 C 100.796 3.40899 0.00954234 0
M  V30 985 H 101.989 2.54853 -1.58081 0
M  V30 986 H 99.5418 1.30808 -0.855516 0
M  V30 987 H 100.277 3.10684 0.929826 0
M  V30 988 H 100.062 3.86233 -0.67573 0
M  V30 989 H 101.552 4.1675 0.266245 0
M  V30 990 N 101.989 0.842826 1.3317 0
M  V30 991 C 102.952 0.284065 2.27433 0
M  V30 992 C 103.952 -0.54948 1.5112 0
M  V30 993 O 105.142 -0.362699 1.70382 0
M  V30 994 C 102.274 -0.599384 3.35589 0
M  V30 995 H 103.467 1.11589 2.78366 0
M  V30 996 H 101.02 0.616221 1.4364 0
M  V30 997 H 101.755 -1.45349 2.89904 0
M  V30 998 H 101.54 -0.00291266 3.921 0
M  V30 999 H 103.03 -0.983488 4.05854 0
M  V30 1000 N 103.467 -1.45747 0.599634 0
M  V30 1001 C 104.744 -1.95585 0.0240846 0
M  V30 1002 C 105.124 -1.54217 -1.44154 0
M  V30 1003 O 104.472 -0.800903 -2.14004 0
M  V30 1004 C 104.682 -3.48344 0.21385 0
M  V30 1005 C 106.03 -4.24504 0.0904902 0
M  V30 1006 O 107.054 -3.55911 0.143558 0
M  V30 1007 O 105.913 -5.46491 -0.0310766 0
M  V30 1008 H 103.007 -0.82602 -0.0402478 0
M  V30 1009 H 105.553 -1.55951 0.669139 0
M  V30 1010 H 104.325 -3.71397 1.23206 0
M  V30 1011 H 103.948 -3.9485 -0.466842 0
M  V30 1012 N 104.945 -0.338344 -1.53925 0
M  V30 1013 C 106.361 0.0137736 -1.59594 0
M  V30 1014 C 106.561 1.49186 -1.35447 0
M  V30 1015 O 105.617 2.24987 -1.14616 0
M  V30 1016 C 106.93 -0.41773 -2.97784 0
M  V30 1017 C 108.478 -0.369633 -3.1081 0
M  V30 1018 C 108.953 -0.776524 -4.51369 0
M  V30 1019 N 110.444 -0.730506 -4.57403 0
M  V30 1020 C 111.179 -1.01736 -5.64303 0
M  V30 1021 N 110.675 -1.3721 -6.79077 0
M  V30 1022 N 112.468 -0.941942 -5.54151 0
M  V30 1023 H 104.619 -1.3012 -1.67876 0
M  V30 1024 H 106.882 -0.530082 -0.78595 0
M  V30 1025 H 106.588 -1.44811 -3.20504 0
M  V30 1026 H 106.462 0.209729 -3.76616 0
M  V30 1027 H 108.849 0.651568 -2.87817 0
M  V30 1028 H 108.93 -1.03223 -2.34049 0
M  V30 1029 H 108.574 -1.79571 -4.75096 0
M  V30 1030 H 108.504 -0.0914649 -5.26521 0
M  V30 1031 H 110.995 -0.468783 -3.74981 0
M  V30 1032 H 111.308 -1.57597 -7.5656 0
M  V30 1033 H 109.653 -1.4105 -6.80536 0
M  V30 1034 H 112.844 -0.664184 -4.63364 0
M  V30 1035 H 113.017 -1.16884 -6.37371 0
M  V30 1036 N 106.423 1.57458 -0.0668435 0
M  V30 1037 C 107.386 2.11323 0.887422 0
M  V30 1038 C 108.386 1.03618 1.22964 0
M  V30 1039 O 109.576 1.29626 1.16373 0
M  V30 1040 C 106.708 2.61048 2.19242 0
M  V30 1041 H 107.901 2.96942 0.420194 0
M  V30 1042 H 105.454 1.55239 0.181793 0
M  V30 1043 H 106.189 1.78868 2.70512 0
M  V30 1044 H 105.974 3.39769 1.95702 0
M  V30 1045 H 107.464 3.02814 2.87565 0
M  V30 1046 N 107.901 -0.206675 1.56239 0
M  V30 1047 C 108.834 -1.28383 1.88661 0
M  V30 1048 C 109.812 -1.44504 0.745481 0
M  V30 1049 O 110.996 -1.60079 0.995336 0
M  V30 1050 C 108.123 -2.65211 2.10667 0
M  V30 1051 C 107.169 -2.66025 3.33366 0
M  V30 1052 S 108.002 -2.18609 4.88846 0
M  V30 1053 C 109.158 -3.57283 5.13906 0
M  V30 1054 H 109.391 -1.00691 2.7973 0
M  V30 1055 H 106.924 -0.409627 1.48867 0
M  V30 1056 H 108.882 -3.43979 2.24029 0
M  V30 1057 H 107.543 -2.90121 1.20369 0
M  V30 1058 H 106.736 -3.66607 3.45855 0
M  V30 1059 H 106.338 -1.95331 3.18938 0
M  V30 1060 H 108.63 -4.53074 5.03717 0
M  V30 1061 H 109.573 -3.49699 6.15724 0
M  V30 1062 H 109.981 -3.51659 4.41583 0
M  V30 1063 N 109.379 -1.50304 -0.473955 0
M  V30 1064 C 110.607 -1.64902 -1.24959 0
M  V30 1065 C 111.022 -0.331198 -1.85872 0
M  V30 1066 O 110.379 0.68652 -1.69095 0
M  V30 1067 C 110.43 -2.73803 -2.36038 0
M  V30 1068 O 110.151 -4.00477 -1.77624 0
M  V30 1069 C 111.652 -2.99349 -3.26964 0
M  V30 1070 H 108.872 -0.554383 -0.378022 0
M  V30 1071 H 111.416 -1.9651 -0.566054 0
M  V30 1072 H 109.571 -2.44898 -3.00173 0
M  V30 1073 H 109.985 -4.60678 -2.5075 0
M  V30 1074 H 111.459 -3.79217 -4.01121 0
M  V30 1075 H 111.936 -2.10307 -3.85574 0
M  V30 1076 H 112.542 -3.29774 -2.68569 0
M  V30 1077 N 110.857 0.726932 -1.39834 0
M  V30 1078 C 111.82 1.82269 -1.38962 0
M  V30 1079 C 112.82 1.58248 -0.285334 0
M  V30 1080 O 114.01 1.65499 -0.54366 0
M  V30 1081 C 111.142 3.20186 -1.17019 0
M  V30 1082 H 112.335 1.84443 -2.36476 0
M  V30 1083 H 109.888 0.931416 -1.25516 0
M  V30 1084 H 110.623 3.23669 -0.202204 0
M  V30 1085 H 110.408 3.3902 -1.96998 0
M  V30 1086 H 111.898 4.00235 -1.1917 0
M  V30 1087 N 112.336 1.25143 0.95797 0
M  V30 1088 C 113.752 1.01892 1.22842 0
M  V30 1089 C 113.952 -0.266311 1.99732 0
M  V30 1090 O 113.008 -0.979913 2.3271 0
M  V30 1091 C 114.321 2.24004 2.00606 0
M  V30 1092 C 115.869 2.28731 2.13662 0
M  V30 1093 C 116.344 3.5049 2.94823 0
M  V30 1094 N 117.835 3.50866 3.02403 0
M  V30 1095 C 118.57 4.4174 3.65586 0
M  V30 1096 N 118.066 5.42882 4.30408 0
M  V30 1097 N 119.859 4.29429 3.62694 0
M  V30 1098 H 112.01 2.07718 0.443493 0
M  V30 1099 H 114.273 0.912031 0.258657 0
M  V30 1100 H 113.979 3.17395 1.51503 0
M  V30 1101 H 113.853 2.26907 3.01319 0
M  V30 1102 H 116.24 1.35865 2.61963 0
M  V30 1103 H 116.321 2.29848 1.12265 0
M  V30 1104 H 115.965 4.43676 2.47213 0
M  V30 1105 H 115.895 3.46617 3.96439 0
M  V30 1106 H 118.386 2.777 2.56302 0
M  V30 1107 H 118.699 6.0844 4.76467 0
M  V30 1108 H 117.044 5.46758 4.29047 0
M  V30 1109 H 120.235 3.49643 3.11236 0
M  V30 1110 H 120.408 5.00448 4.1165 0
M  V30 1111 N 113.814 -1.1601 1.06675 0
M  V30 1112 C 115.23 -1.38622 0.790948 0
M  V30 1113 C 115.43 -1.92109 -0.607965 0
M  V30 1114 O 114.486 -2.12239 -1.36787 0
M  V30 1115 C 115.799 -2.36347 1.85905 0
M  V30 1116 C 117.347 -2.50023 1.88301 0
M  V30 1117 C 117.822 -3.51033 2.94176 0
M  V30 1118 N 119.313 -3.58563 2.93235 0
M  V30 1119 C 120.048 -4.36521 3.71803 0
M  V30 1120 N 119.544 -5.17869 4.602 0
M  V30 1121 N 121.337 -4.31541 3.60178 0
M  V30 1122 H 113.488 -0.796294 1.96908 0
M  V30 1123 H 115.751 -0.412597 0.853503 0
M  V30 1124 H 115.457 -2.04147 2.86386 0
M  V30 1125 H 115.331 -3.36042 1.71334 0
M  V30 1126 H 117.718 -2.81524 0.884769 0
M  V30 1127 H 117.799 -1.5035 2.06951 0
M  V30 1128 H 117.443 -3.20268 3.94196 0
M  V30 1129 H 117.373 -4.50445 2.72776 0
M  V30 1130 H 119.864 -3.00496 2.29152 0
M  V30 1131 H 120.177 -5.74578 5.16797 0
M  V30 1132 H 118.522 -5.17199 4.64253 0
M  V30 1133 H 121.713 -3.67051 2.90502 0
M  V30 1134 H 121.886 -4.9205 4.21653 0
M  V30 1135 N 115.292 -0.849877 -1.32721 0
M  V30 1136 C 116.708 -0.539102 -1.50219 0
M  V30 1137 C 116.908 0.931271 -1.78689 0
M  V30 1138 O 115.964 1.71455 -1.85363 0
M  V30 1139 C 117.277 -1.42196 -2.64954 0
M  V30 1140 C 118.825 -1.42189 -2.78839 0
M  V30 1141 C 119.3 -2.28985 -3.96648 0
M  V30 1142 N 120.791 -2.26754 -4.03902 0
M  V30 1143 C 121.526 -2.90644 -4.94281 0
M  V30 1144 N 121.022 -3.63629 -5.897 0
M  V30 1145 N 122.815 -2.80057 -4.87365 0
M  V30 1146 H 114.966 -1.80156 -1.12506 0
M  V30 1147 H 117.229 -0.769217 -0.554085 0
M  V30 1148 H 116.935 -2.46733 -2.50631 0
M  V30 1149 H 116.809 -1.10591 -3.60624 0
M  V30 1150 H 119.196 -0.38419 -2.92588 0
M  V30 1151 H 119.277 -1.77807 -1.83898 0
M  V30 1152 H 118.921 -3.32819 -3.83658 0
M  V30 1153 H 118.851 -1.90702 -4.90857 0
M  V30 1154 H 121.342 -1.73688 -3.3562 0
M  V30 1155 H 121.655 -4.09558 -6.55349 0
M  V30 1156 H 120 -3.67737 -5.89741 0
M  V30 1157 H 123.191 -2.22593 -4.11789 0
M  V30 1158 H 123.364 -3.30132 -5.57599 0
M  V30 1159 N 116.77 1.45427 -0.607355 0
M  V30 1160 C 118.018 2.01841 -0.102253 0
M  V30 1161 C 118.339 1.47832 1.27164 0
M  V30 1162 O 117.609 0.672497 1.83995 0
M  V30 1163 H 116.189 0.746188 -0.0348101 0
M  V30 1164 H 118.851 1.78229 -0.7887 0
M  V30 1165 H 117.947 3.12057 -0.0518585 0
M  V30 1166 N 118.248 0.346503 1.53744 0
M  V30 1167 C 119.494 -0.249473 2.0126 0
M  V30 1168 C 119.827 -1.49965 1.23386 0
M  V30 1169 O 119.102 -1.91811 0.32229 0
M  V30 1170 C 119.385 -0.560643 3.55709 0
M  V30 1171 C 119.238 0.701836 4.44291 0
M  V30 1172 C 120.557 -1.36905 4.18264 0
M  V30 1173 H 117.676 -0.0891987 0.731582 0
M  V30 1174 H 120.318 0.467624 1.84156 0
M  V30 1175 H 118.468 -1.17156 3.70414 0
M  V30 1176 H 120.14 1.33974 4.41417 0
M  V30 1177 H 118.383 1.32612 4.13033 0
M  V30 1178 H 119.054 0.43933 5.50249 0
M  V30 1179 H 121.53 -0.852448 4.07275 0
M  V30 1180 H 120.406 -1.55553 5.26398 0
M  V30 1181 H 120.667 -2.37203 3.73078 0
M  V30 1182 N 119.726 -1.57421 0.075193 0
M  V30 1183 C 120.972 -1.93905 -0.594025 0
M  V30 1184 C 121.305 -0.955701 -1.69056 0
M  V30 1185 O 120.58 0.0145373 -1.94495 0
M  V30 1186 C 120.863 -3.40638 -1.1678 0
M  V30 1187 C 120.716 -4.49733 -0.0776792 0
M  V30 1188 C 122.035 -3.88259 -2.07228 0
M  V30 1189 H 119.154 -0.705105 -0.214466 0
M  V30 1190 H 121.796 -1.8947 0.141854 0
M  V30 1191 H 119.946 -3.44549 -1.79494 0
M  V30 1192 H 121.618 -4.57942 0.555573 0
M  V30 1193 H 119.861 -4.29751 0.591286 0
M  V30 1194 H 120.532 -5.49549 -0.519603 0
M  V30 1195 H 123.008 -3.86376 -1.54445 0
M  V30 1196 H 121.884 -4.91533 -2.44308 0
M  V30 1197 H 122.145 -3.26396 -2.98191 0
M  V30 1198 N 121.204 0.198386 -1.56346 0
M  V30 1199 C 122.453 0.917451 -1.79627 0
M  V30 1200 C 122.766 1.8456 -0.64784 0
M  V30 1201 O 123.972 2.60504 -0.764859 0
M  V30 1202 C 122.428 1.68175 -3.18191 0
M  V30 1203 C 122.036 0.798589 -4.40825 0
M  V30 1204 C 123.78 2.39065 -3.50782 0
M  V30 1205 C 121.687 1.56157 -5.70411 0
M  V30 1206 H 120.617 0.346317 -0.669762 0
M  V30 1207 H 123.268 0.170801 -1.82703 0
M  V30 1208 H 121.65 2.47216 -3.09354 0
M  V30 1209 H 122.824 0.0470665 -4.60776 0
M  V30 1210 H 121.139 0.200686 -4.15916 0
M  V30 1211 H 123.736 2.96692 -4.44835 0
M  V30 1212 H 124.079 3.13091 -2.74371 0
M  V30 1213 H 124.612 1.66993 -3.61052 0
M  V30 1214 H 121.351 0.864142 -6.49779 0
M  V30 1215 H 120.871 2.2871 -5.54483 0
M  V30 1216 H 122.55 2.11622 -6.11412 0
M  V30 1217 N 122.682 1.50554 0.465978 0
M  V30 1218 C 123.63 1.70324 1.58406 0
M  V30 1219 C 124.624 0.569139 1.59553 0
M  V30 1220 O 125.83 0.749776 1.63641 0
M  V30 1221 H 122.205 0.537688 0.525734 0
M  V30 1222 H 124.176 2.64104 1.38894 0
M  V30 1223 C 122.925 1.81928 2.96307 0
M  V30 1224 H 122.248 2.68586 2.96144 0
M  V30 1225 H 123.688 1.99784 3.73982 0
M  V30 1226 C 122.147 0.572095 3.32007 0
M  V30 1227 O 122.677 -0.286416 4.00678 0
M  V30 1228 N 120.883 0.424606 2.87481 0
M  V30 1229 H 120.43 1.12427 2.31771 0
M  V30 1230 H 120.388 -0.408697 3.11732 0
M  V30 1231 N 124.16 -0.719506 1.40217 0
M  V30 1232 C 125.571 -1.29848 1.34151 0
M  V30 1233 C 125.922 -1.96196 0.0131349 0
M  V30 1234 O 125.047 -1.973 -0.88892 0
M  V30 1235 C 125.642 -2.36118 2.42968 0
M  V30 1236 C 124.201 -2.8965 2.40374 0
M  V30 1237 C 123.348 -1.63393 2.24049 0
M  V30 1238 H 126.299 -0.51591 1.5008 0
M  V30 1239 H 126.32 -3.16871 2.10649 0
M  V30 1240 H 125.832 -1.878 3.39636 0
M  V30 1241 H 123.933 -3.42208 1.47392 0
M  V30 1242 H 124.046 -3.4171 3.35814 0
M  V30 1243 H 122.41 -1.88312 1.71495 0
M  V30 1244 H 123.193 -1.17104 3.2271 0
M  V30 1245 N 125.638 -1.25649 -0.95132 0
M  V30 1246 C 126.884 -1.10757 -1.69884 0
M  V30 1247 C 127.217 0.350061 -1.91019 0
M  V30 1248 O 126.492 1.25783 -1.48354 0
M  V30 1249 C 126.775 -1.86606 -3.07978 0
M  V30 1250 C 126.628 -3.40217 -2.94232 0
M  V30 1251 C 127.947 -1.65182 -4.07925 0
M  V30 1252 H 125.066 -0.40374 -0.616574 0
M  V30 1253 H 127.708 -1.54521 -1.10558 0
M  V30 1254 H 125.858 -1.49409 -3.58621 0
M  V30 1255 H 127.53 -3.87108 -2.50889 0
M  V30 1256 H 125.773 -3.67759 -2.30078 0
M  V30 1257 H 126.444 -3.88505 -3.92133 0
M  V30 1258 H 128.92 -1.9757 -3.66204 0
M  V30 1259 H 127.796 -2.20683 -5.02583 0
M  V30 1260 H 128.057 -0.593933 -4.38092 0
M  V30 1261 N 127.117 1.15442 -1.07289 0
M  V30 1262 C 128.047 2.22312 -0.714107 0
M  V30 1263 C 129.028 1.67467 0.298155 0
M  V30 1264 O 130.213 1.93445 0.171048 0
M  V30 1265 C 127.343 3.47124 -0.110448 0
M  V30 1266 C 126.297 4.14926 -1.04979 0
M  V30 1267 C 125.623 5.33807 -0.308924 0
M  V30 1268 C 126.923 4.64762 -2.38314 0
M  V30 1269 H 128.617 2.5258 -1.6076 0
M  V30 1270 H 126.163 1.21404 -0.77441 0
M  V30 1271 H 128.116 4.21124 0.152482 0
M  V30 1272 H 126.84 3.16187 0.81812 0
M  V30 1273 H 125.499 3.42866 -1.29764 0
M  V30 1274 H 125.147 4.99126 0.623084 0
M  V30 1275 H 124.847 5.80113 -0.935036 0
M  V30 1276 H 126.371 6.10576 -0.0537771 0
M  V30 1277 H 127.785 5.30292 -2.1786 0
M  V30 1278 H 126.182 5.21728 -2.96514 0
M  V30 1279 H 127.252 3.80434 -3.00663 0
M  V30 1280 N 128.595 0.856903 1.32268 0
M  V30 1281 C 129.505 0.306131 2.32594 0
M  V30 1282 C 130.521 -0.577209 1.64147 0
M  V30 1283 O 131.697 -0.477043 1.95669 0
M  V30 1284 C 128.762 -0.494561 3.43154 0
M  V30 1285 C 127.823 0.415186 4.27288 0
M  V30 1286 C 127.056 -0.347387 5.32568 0
M  V30 1287 O 127.279 -1.57708 5.48165 0
M  V30 1288 O 126.213 0.287982 6.01211 0
M  V30 1289 H 130.039 1.13737 2.81598 0
M  V30 1290 H 127.624 0.619902 1.35932 0
M  V30 1291 H 129.506 -0.948944 4.10576 0
M  V30 1292 H 128.181 -1.30257 2.96336 0
M  V30 1293 H 127.088 0.917793 3.62667 0
M  V30 1294 H 128.421 1.18844 4.77637 0
M  V30 1295 N 130.073 -1.45103 0.615059 0
M  V30 1296 C 131.301 -2.06553 0.11977 0
M  V30 1297 C 131.716 -1.45842 -1.19898 0
M  V30 1298 O 131.073 -0.575325 -1.73194 0
M  V30 1299 C 131.124 -3.61495 -0.018364 0
M  V30 1300 O 130.845 -4.19942 1.24822 0
M  V30 1301 C 132.346 -4.39947 -0.544237 0
M  V30 1302 H 129.566 -0.667096 0.0722739 0
M  V30 1303 H 132.11 -1.8623 0.84491 0
M  V30 1304 H 130.265 -3.81135 -0.693865 0
M  V30 1305 H 130.679 -5.13204 1.0827 0
M  V30 1306 H 132.153 -5.48838 -0.589953 0
M  V30 1307 H 132.63 -4.10255 -1.56805 0
M  V30 1308 H 133.236 -4.25188 0.0974703 0
M  V30 1309 N 131.551 -0.354651 -1.53558 0
M  V30 1310 C 132.776 0.242153 -2.05981 0
M  V30 1311 C 133.201 1.42553 -1.2272 0
M  V30 1312 O 132.559 1.79656 -0.243604 0
M  V30 1313 C 132.607 0.624367 -3.55154 0
M  V30 1314 O 131.711 1.72301 -3.74681 0
M  V30 1315 H 131.052 0.0378432 -0.662921 0
M  V30 1316 H 133.582 -0.512087 -1.98088 0
M  V30 1317 H 133.592 0.898433 -3.97985 0
M  V30 1318 H 132.267 -0.240989 -4.15201 0
M  V30 1319 H 130.844 1.44535 -3.4375 0
M  V30 1320 N 133.029 1.57378 -0.0835403 0
M  V30 1321 C 133.939 2.16897 0.894021 0
M  V30 1322 C 134.955 1.13528 1.31861 0
M  V30 1323 O 136.131 1.45848 1.3889 0
M  V30 1324 C 133.196 2.72831 2.13925 0
M  V30 1325 C 132.257 3.91115 1.76997 0
M  V30 1326 C 131.49 4.44371 2.95584 0
M  V30 1327 O 131.713 3.96596 4.09961 0
M  V30 1328 O 130.647 5.35549 2.74719 0
M  V30 1329 H 134.473 3.00814 0.417679 0
M  V30 1330 H 132.058 1.48741 0.140181 0
M  V30 1331 H 133.94 3.0863 2.86924 0
M  V30 1332 H 132.615 1.91967 2.60635 0
M  V30 1333 H 131.522 3.60148 1.01214 0
M  V30 1334 H 132.855 4.73307 1.3506 0
M  V30 1335 N 134.507 -0.190092 1.56449 0
M  V30 1336 C 135.756 -0.907912 1.80111 0
M  V30 1337 C 136.069 -1.84214 0.657619 0
M  V30 1338 O 137.275 -2.60094 0.778663 0
M  V30 1339 C 135.731 -1.66485 3.19078 0
M  V30 1340 C 135.339 -0.7752 4.41242 0
M  V30 1341 C 137.083 -2.37201 3.52045 0
M  V30 1342 C 134.99 -1.53129 5.71231 0
M  V30 1343 H 133.92 -0.34276 0.671589 0
M  V30 1344 H 136.571 -0.161109 1.82791 0
M  V30 1345 H 134.953 -2.45572 3.10661 0
M  V30 1346 H 136.127 -0.0226298 4.60794 0
M  V30 1347 H 134.442 -0.178627 4.16017 0
M  V30 1348 H 137.039 -2.94329 4.46402 0
M  V30 1349 H 137.382 -3.11632 2.76028 0
M  V30 1350 H 137.915 -1.65075 3.61932 0
M  V30 1351 H 134.654 -0.82967 6.50228 0
M  V30 1352 H 134.174 -2.25767 5.55688 0
M  V30 1353 H 135.853 -2.08377 6.12526 0
M  V30 1354 N 135.985 -1.50799 -0.457987 0
M  V30 1355 C 137.396 -1.55152 -1.0385 0
M  V30 1356 C 137.747 -0.362719 -1.92818 0
M  V30 1357 O 136.872 0.522915 -2.09987 0
M  V30 1358 C 137.467 -2.81173 -1.89017 0
M  V30 1359 C 136.026 -2.88164 -2.42154 0
M  V30 1360 C 135.173 -2.49591 -1.20829 0
M  V30 1361 H 138.124 -1.56874 -0.240068 0
M  V30 1362 H 138.145 -2.63769 -2.74238 0
M  V30 1363 H 137.657 -3.67677 -1.24238 0
M  V30 1364 H 135.758 -2.06042 -3.10447 0
M  V30 1365 H 135.871 -3.91356 -2.76364 0
M  V30 1366 H 134.235 -2.02322 -1.54719 0
M  V30 1367 H 135.018 -3.38418 -0.576927 0
M  V30 1368 N 137.463 0.71206 -1.40597 0
M  V30 1369 C 138.373 1.8562 -1.43466 0
M  V30 1370 C 139.389 1.70902 -0.326902 0
M  V30 1371 O 140.565 1.93105 -0.572043 0
M  V30 1372 C 137.63 3.21451 -1.29884 0
M  V30 1373 C 136.691 3.48398 -2.50833 0
M  V30 1374 C 135.924 4.77749 -2.3789 0
M  V30 1375 O 136.147 5.53089 -1.39459 0
M  V30 1376 O 135.081 5.05111 -3.27333 0
M  V30 1377 H 138.907 1.86155 -2.39958 0
M  V30 1378 H 136.492 0.86295 -1.21957 0
M  V30 1379 H 138.374 4.02579 -1.24531 0
M  V30 1380 H 137.049 3.21636 -0.364997 0
M  V30 1381 H 135.956 2.67265 -2.61763 0
M  V30 1382 H 137.289 3.53014 -3.4299 0
M  V30 1383 N 138.941 1.26152 0.944643 0
M  V30 1384 C 140.169 1.14259 1.72489 0
M  V30 1385 C 140.584 -0.302555 1.8636 0
M  V30 1386 O 139.941 -1.20741 1.36849 0
M  V30 1387 C 139.992 1.80266 3.13347 0
M  V30 1388 O 139.713 3.19133 3.00143 0
M  V30 1389 C 141.214 1.74283 4.07603 0
M  V30 1390 H 138.434 0.398051 0.540181 0
M  V30 1391 H 140.978 1.66706 1.18446 0
M  V30 1392 H 139.133 1.31766 3.64303 0
M  V30 1393 H 139.547 3.51744 3.89071 0
M  V30 1394 H 141.021 2.25111 5.04013 0
M  V30 1395 H 141.498 0.708631 4.33446 0
M  V30 1396 H 142.104 2.22319 3.62567 0
M  V30 1397 N 140.419 -1.14872 1.07899 0
M  V30 1398 C 141.352 -2.18794 0.64841 0
M  V30 1399 C 142.33 -1.59065 -0.337189 0
M  V30 1400 O 143.514 -1.86936 -0.242284 0
M  V30 1401 C 140.641 -3.38667 -0.0470417 0
M  V30 1402 C 139.687 -4.16942 0.897884 0
M  V30 1403 S 140.52 -4.78615 2.40183 0
M  V30 1404 C 141.676 -6.0185 1.71834 0
M  V30 1405 H 141.909 -2.5498 1.52881 0
M  V30 1406 H 139.442 -1.25922 0.893484 0
M  V30 1407 H 141.4 -4.08113 -0.442027 0
M  V30 1408 H 140.061 -3.00814 -0.903861 0
M  V30 1409 H 139.254 -5.02726 0.358096 0
M  V30 1410 H 138.856 -3.53073 1.23352 0
M  V30 1411 H 141.148 -6.69574 1.03328 0
M  V30 1412 H 142.091 -6.60408 2.55473 0
M  V30 1413 H 142.499 -5.5173 1.19392 0
M  V30 1414 N 141.898 -0.863906 -1.31812 0
M  V30 1415 C 143.309 -0.52522 -1.7916 0
M  V30 1416 C 143.66 0.957518 -1.71248 0
M  V30 1417 O 142.785 1.74734 -1.27659 0
M  V30 1418 C 143.38 -0.9466 -3.25307 0
M  V30 1419 C 141.939 -0.659668 -3.70574 0
M  V30 1420 C 141.086 -1.14126 -2.52726 0
M  V30 1421 H 144.037 -1.05022 -1.1898 0
M  V30 1422 H 144.058 -0.266766 -3.79564 0
M  V30 1423 H 143.57 -2.02579 -3.31034 0
M  V30 1424 H 141.671 0.408416 -3.70355 0
M  V30 1425 H 141.784 -1.23245 -4.62977 0
M  V30 1426 H 140.148 -0.561216 -2.4844 0
M  V30 1427 H 140.931 -2.22775 -2.61201 0
M  V30 1428 N 143.376 1.44774 -0.622745 0
M  V30 1429 C 144.653 1.95522 -0.0551974 0
M  V30 1430 C 145.033 1.5649 1.41683 0
M  V30 1431 O 144.381 0.834848 2.12703 0
M  V30 1432 C 144.591 3.4796 -0.269242 0
M  V30 1433 C 145.939 4.24306 -0.158014 0
M  V30 1434 O 146.963 3.55637 -0.200162 0
M  V30 1435 O 145.822 5.46471 -0.0558693 0
M  V30 1436 H 142.916 0.826556 0.0271015 0
M  V30 1437 H 145.462 1.54866 -0.693864 0
M  V30 1438 H 144.234 3.6939 -1.29099 0
M  V30 1439 H 143.857 3.95543 0.403966 0
M  V30 1440 N 144.854 0.36279 1.53368 0
M  V30 1441 C 146.265 -0.117022 1.86333 0
M  V30 1442 C 146.616 -1.48397 1.28347 0
M  V30 1443 O 145.741 -2.07787 0.604428 0
M  V30 1444 C 146.336 -0.21912 3.38091 0
M  V30 1445 C 144.895 -0.643184 3.70864 0
M  V30 1446 C 144.042 0.211318 2.76494 0
M  V30 1447 H 146.993 0.581687 1.47655 0
M  V30 1448 H 147.014 -1.04319 3.6592 0
M  V30 1449 H 146.526 0.775902 3.80265 0
M  V30 1450 H 144.627 -1.64654 3.34245 0
M  V30 1451 H 144.74 -0.41973 4.77258 0
M  V30 1452 H 143.104 -0.319367 2.5269 0
M  V30 1453 H 143.887 1.20383 3.21501 0
M  V30 1454 N 146.332 -1.57332 0.0918853 0
M  V30 1455 C 147.609 -1.85691 -0.614668 0
M  V30 1456 C 147.989 -0.988146 -1.86545 0
M  V30 1457 O 147.337 -0.0597055 -2.28422 0
M  V30 1458 C 147.547 -3.36294 -0.933126 0
M  V30 1459 C 148.895 -4.04275 -1.29796 0
M  V30 1460 O 149.919 -3.41157 -1.02424 0
M  V30 1461 O 148.778 -5.1564 -1.81047 0
M  V30 1462 H 145.872 -0.767802 -0.307261 0
M  V30 1463 H 148.418 -1.69244 0.12434 0
M  V30 1464 H 147.19 -3.91273 -0.0456404 0
M  V30 1465 H 146.813 -3.58076 -1.72822 0
M  V30 1466 N 147.81 0.181792 -1.56548 0
M  V30 1467 C 149.038 0.915947 -1.85521 0
M  V30 1468 C 149.453 1.76282 -0.676016 0
M  V30 1469 O 148.81 1.79012 0.355077 0
M  V30 1470 C 148.861 1.80126 -3.13427 0
M  V30 1471 O 148.582 0.988562 -4.26801 0
M  V30 1472 C 150.083 2.64597 -3.55673 0
M  V30 1473 H 147.303 0.26661 -0.61576 0
M  V30 1474 H 149.847 0.185039 -2.03661 0
M  V30 1475 H 148.002 2.48563 -2.97145 0
M  V30 1476 H 148.416 1.59308 -4.99721 0
M  V30 1477 H 149.89 3.2235 -4.48101 0
M  V30 1478 H 150.367 3.38958 -2.79292 0
M  V30 1479 H 150.973 2.0151 -3.74532 0
M  V30 1480 N 149.288 1.51039 0.449983 0
M  V30 1481 C 150.565 1.53612 1.21089 0
M  V30 1482 C 150.945 0.292997 2.09057 0
M  V30 1483 O 150.293 -0.72259 2.16774 0
M  V30 1484 C 150.503 2.84337 2.0237 0
M  V30 1485 C 151.851 3.35807 2.59843 0
M  V30 1486 O 152.875 2.85802 2.12593 0
M  V30 1487 O 151.734 4.23029 3.45989 0
M  V30 1488 H 148.828 0.617057 0.550608 0
M  V30 1489 H 151.374 1.63344 0.460082 0
M  V30 1490 H 150.146 3.66278 1.37681 0
M  V30 1491 H 149.769 2.77708 2.84542 0
M  V30 1492 N 150.766 -0.704594 1.40972 0
M  V30 1493 C 152.043 -1.45847 1.30338 0
M  V30 1494 C 152.423 -2.10973 -0.0732344 0
M  V30 1495 O 151.771 -2.00997 -1.08685 0
M  V30 1496 C 151.981 -2.48525 2.45023 0
M  V30 1497 C 153.329 -3.1404 2.8577 0
M  V30 1498 O 154.353 -2.58848 2.44696 0
M  V30 1499 O 153.212 -4.13981 3.56766 0
M  V30 1500 H 150.306 -0.649092 0.512454 0
M  V30 1501 H 152.852 -0.735836 1.52917 0
M  V30 1502 H 151.624 -1.98994 3.36923 0
M  V30 1503 H 151.247 -3.2831 2.24272 0
M  V30 1504 N 152.244 -1.26651 -0.937939 0
M  V30 1505 C 153.154 -1.10276 -2.07066 0
M  V30 1506 C 154.17 -0.0354197 -1.73964 0
M  V30 1507 O 155.346 -0.239816 -1.99967 0
M  V30 1508 C 152.411 -0.740887 -3.38691 0
M  V30 1509 C 151.472 -1.88799 -3.85556 0
M  V30 1510 C 150.705 -1.54329 -5.10899 0
M  V30 1511 O 150.928 -0.446494 -5.6865 0
M  V30 1512 O 149.862 -2.37911 -5.52885 0
M  V30 1513 H 153.688 -2.05309 -2.23789 0
M  V30 1514 H 151.273 -1.05743 -1.0554 0
M  V30 1515 H 153.155 -0.55195 -4.1777 0
M  V30 1516 H 151.83 0.180022 -3.23199 0
M  V30 1517 H 150.737 -2.13191 -3.07409 0
M  V30 1518 H 152.07 -2.78874 -4.05574 0
M  V30 1519 N 153.722 1.14298 -1.08507 0
M  V30 1520 C 154.97 1.84993 -0.813763 0
M  V30 1521 C 155.291 1.83405 0.662393 0
M  V30 1522 O 154.561 1.28319 1.48024 0
M  V30 1523 H 153.141 0.684966 -0.298045 0
M  V30 1524 H 155.803 1.385 -1.37126 0
M  V30 1525 H 154.899 2.89788 -1.15884 0
M  V30 1526 N 155.201 0.870884 1.31352 0
M  V30 1527 C 156.441 0.488783 1.9847 0
M  V30 1528 C 156.805 -0.941536 1.67329 0
M  V30 1529 O 158.006 -1.42903 2.27667 0
M  V30 1530 C 156.277 0.739688 3.49662 0
M  V30 1531 S 157.836 0.457582 4.36408 0
M  V30 1532 H 154.654 0.18242 0.6872 0
M  V30 1533 H 157.256 1.12711 1.59739 0
M  V30 1534 H 155.96 1.77944 3.69816 0
M  V30 1535 H 155.491 0.0883905 3.93301 0
M  V30 1536 H 157.506 -0.709752 4.91098 0
M  V30 1537 N 156.679 -1.44442 0.630414 0
M  V30 1538 C 157.609 -2.33418 -0.0618083 0
M  V30 1539 C 158.59 -1.48165 -0.835541 0
M  V30 1540 O 159.775 -1.76886 -0.801564 0
M  V30 1541 C 156.905 -3.31222 -1.04449 0
M  V30 1542 C 155.859 -4.26288 -0.382436 0
M  V30 1543 C 155.185 -5.13954 -1.47497 0
M  V30 1544 C 156.485 -5.1744 0.710865 0
M  V30 1545 H 158.179 -2.91548 0.681184 0
M  V30 1546 H 155.725 -1.40191 0.329026 0
M  V30 1547 H 157.678 -3.92351 -1.53748 0
M  V30 1548 H 156.402 -2.71299 -1.81836 0
M  V30 1549 H 155.061 -3.6649 0.0899054 0
M  V30 1550 H 154.709 -4.50385 -2.2397 0
M  V30 1551 H 154.409 -5.7837 -1.03737 0
M  V30 1552 H 155.933 -5.77955 -1.96979 0
M  V30 1553 H 157.347 -5.72509 0.300996 0
M  V30 1554 H 155.744 -5.90455 1.07156 0
M  V30 1555 H 156.814 -4.58496 1.57829 0
M  V30 1556 N 158.157 -0.370918 -1.53173 0
M  V30 1557 C 159.382 0.220293 -2.06227 0
M  V30 1558 C 159.807 1.41243 -1.24225 0
M  V30 1559 O 159.165 1.79387 -0.262645 0
M  V30 1560 C 159.213 0.586663 -3.55796 0
M  V30 1561 O 158.317 1.68317 -3.76488 0
M  V30 1562 H 157.658 0.0308099 -0.663285 0
M  V30 1563 H 160.188 -0.533068 -1.97534 0
M  V30 1564 H 160.198 0.85617 -3.98916 0
M  V30 1565 H 158.873 -0.285013 -4.14922 0
M  V30 1566 H 157.45 1.40881 -3.45264 0
M  V30 1567 N 159.635 1.57281 -0.100228 0
M  V30 1568 C 160.881 1.94826 0.563101 0
M  V30 1569 C 161.214 0.982475 1.67514 0
M  V30 1570 O 160.489 0.0164069 1.94493 0
M  V30 1571 C 160.772 3.42453 1.11346 0
M  V30 1572 C 160.625 4.498 0.00612081 0
M  V30 1573 C 161.944 3.91506 2.01024 0
M  V30 1574 H 159.063 0.708428 0.203221 0
M  V30 1575 H 161.705 1.8922 -0.171979 0
M  V30 1576 H 159.855 3.47361 1.7399 0
M  V30 1577 H 161.527 4.57 -0.628357 0
M  V30 1578 H 159.77 4.28756 -0.659581 0
M  V30 1579 H 160.441 5.50306 0.432109 0
M  V30 1580 H 162.917 3.88784 1.48278 0
M  V30 1581 H 161.793 4.95358 2.36457 0
M  V30 1582 H 162.054 3.31099 2.92961 0
M  V30 1583 N 161.113 -0.173488 1.56642 0
M  V30 1584 C 162.524 -0.736155 1.71574 0
M  V30 1585 C 162.875 -1.82888 0.710389 0
M  V30 1586 O 162 -2.16017 -0.1287 0
M  V30 1587 C 162.595 -1.34211 3.11083 0
M  V30 1588 C 161.154 -1.85162 3.27707 0
M  V30 1589 C 160.301 -0.729765 2.67525 0
M  V30 1590 H 163.252 0.0518786 1.58615 0
M  V30 1591 H 163.273 -2.21178 3.09613 0
M  V30 1592 H 162.785 -0.546579 3.84232 0
M  V30 1593 H 160.886 -2.67366 2.59512 0
M  V30 1594 H 160.999 -1.99855 4.35425 0
M  V30 1595 H 159.363 -1.14965 2.27278 0
M  V30 1596 H 160.146 0.0538806 3.43258 0
M  V30 1597 N 162.591 -1.51276 -0.441967 0
M  V30 1598 C 163.839 -1.63392 -1.18943 0
M  V30 1599 C 164.16 -0.350159 -1.9183 0
M  V30 1600 O 163.43 0.633784 -1.85364 0
M  V30 1601 H 162.01 -0.602164 -0.442049 0
M  V30 1602 H 164.672 -1.88186 -0.507165 0
M  V30 1603 H 163.768 -2.45934 -1.92154 0
M  V30 1604 N 164.069 0.697108 -1.41344 0
M  V30 1605 C 164.979 1.84088 -1.45427 0
M  V30 1606 C 165.995 1.70545 -0.34501 0
M  V30 1607 O 167.171 1.92488 -0.592492 0
M  V30 1608 C 164.236 3.20056 -1.33286 0
M  V30 1609 C 163.297 3.45718 -2.54514 0
M  V30 1610 C 162.53 4.75199 -2.42944 0
M  V30 1611 O 162.753 5.51579 -1.45318 0
M  V30 1612 O 161.687 5.0161 -3.32672 0
M  V30 1613 H 165.513 1.836 -2.41919 0
M  V30 1614 H 163.098 0.849966 -1.22866 0
M  V30 1615 H 164.98 4.01236 -1.28794 0
M  V30 1616 H 163.655 3.2123 -0.39909 0
M  V30 1617 H 162.562 2.64474 -2.64583 0
M  V30 1618 H 163.895 3.49356 -3.46715 0
M  V30 1619 N 165.547 1.27147 0.931209 0
M  V30 1620 C 166.772 1.16191 1.71797 0
M  V30 1621 C 167.197 -0.278004 1.86034 0
M  V30 1622 O 166.555 -1.20137 1.35782 0
M  V30 1623 C 166.603 1.84673 3.09723 0
M  V30 1624 O 165.707 1.14231 3.96264 0
M  V30 1625 H 165.048 0.404303 0.526721 0
M  V30 1626 H 167.578 1.68152 1.1656 0
M  V30 1627 H 167.588 1.91893 3.60057 0
M  V30 1628 H 166.263 2.89421 2.98677 0
M  V30 1629 H 164.84 1.15056 3.54706 0
M  V30 1630 N 167.025 -1.13721 1.09112 0
M  V30 1631 C 168.272 -1.84924 0.825192 0
M  V30 1632 C 168.6 -1.83347 -0.649151 0
M  V30 1633 O 167.855 -1.26449 -1.49362 0
M  V30 1634 C 168.154 -3.32861 1.30146 0
M  V30 1635 C 167.82 -3.54621 2.78486 0
M  V30 1636 C 166.482 -3.60268 3.18999 0
M  V30 1637 C 168.834 -3.62855 3.74146 0
M  V30 1638 C 166.162 -3.71679 4.53951 0
M  V30 1639 C 168.514 -3.75793 5.08883 0
M  V30 1640 C 167.178 -3.79692 5.4899 0
M  V30 1641 H 166.448 -0.676684 0.301959 0
M  V30 1642 H 169.095 -1.3428 1.36533 0
M  V30 1643 H 167.4 -3.85835 0.681064 0
M  V30 1644 H 169.097 -3.86395 1.07236 0
M  V30 1645 H 165.687 -3.50879 2.46134 0
M  V30 1646 H 169.871 -3.57775 3.43963 0
M  V30 1647 H 165.127 -3.72963 4.84467 0
M  V30 1648 H 169.301 -3.81107 5.82864 0
M  V30 1649 H 166.928 -3.88287 6.53558 0
M  V30 1650 N 168.503 -0.877838 -1.30888 0
M  V30 1651 C 169.914 -0.544193 -1.78593 0
M  V30 1652 C 170.265 0.939301 -1.72254 0
M  V30 1653 O 169.39 1.7337 -1.29505 0
M  V30 1654 C 169.985 -0.98105 -3.24285 0
M  V30 1655 C 168.544 -0.698935 -3.69854 0
M  V30 1656 C 167.691 -1.168 -2.51502 0
M  V30 1657 H 170.642 -1.06278 -1.17859 0
M  V30 1658 H 170.663 -0.307009 -3.79259 0
M  V30 1659 H 170.175 -2.06079 -3.28866 0
M  V30 1660 H 168.276 0.369112 -3.70767 0
M  V30 1661 H 168.389 -1.28148 -4.61644 0
M  V30 1662 H 166.753 -0.587535 -2.47831 0
M  V30 1663 H 167.536 -2.25533 -2.58824 0
M  V30 1664 N 169.982 1.44106 -0.638065 0
M  V30 1665 C 171.21 2.06336 -0.152615 0
M  V30 1666 C 171.625 1.47731 1.17563 0
M  V30 1667 O 170.982 0.602806 1.72257 0
M  V30 1668 C 171.033 3.61479 -0.0391491 0
M  V30 1669 O 170.754 4.17903 -1.31487 0
M  V30 1670 C 172.255 4.40757 0.474176 0
M  V30 1671 H 169.475 0.665862 -0.0828776 0
M  V30 1672 H 172.019 1.84862 -0.87443 0
M  V30 1673 H 170.174 3.82191 0.633142 0
M  V30 1674 H 170.588 5.11416 -1.16421 0
M  V30 1675 H 172.062 5.49707 0.502562 0
M  V30 1676 H 172.539 4.12697 1.50258 0
M  V30 1677 H 173.145 4.24979 -0.165102 0
M  V30 1678 N 171.46 0.379036 1.52974 0
M  V30 1679 C 172.708 -0.206014 2.01047 0
M  V30 1680 C 173.029 -1.48175 1.26765 0
M  V30 1681 O 172.299 -1.92085 0.384743 0
M  V30 1682 H 170.879 -0.0791184 0.742798 0
M  V30 1683 H 173.541 0.508366 1.88153 0
M  V30 1684 H 172.637 -0.423501 3.09213 0
M  V30 1685 N 172.938 -1.57226 0.108567 0
M  V30 1686 C 174.354 -1.5766 -0.248058 0
M  V30 1687 C 174.554 -1.12063 -1.67464 0
M  V30 1688 O 173.61 -0.803236 -2.39383 0
M  V30 1689 C 174.923 -3.0069 -0.0242287 0
M  V30 1690 C 176.471 -3.12868 -0.0909372 0
M  V30 1691 C 176.946 -4.57879 0.105067 0
M  V30 1692 N 178.437 -4.63172 0.0506846 0
M  V30 1693 C 179.172 -5.73126 0.177396 0
M  V30 1694 N 178.668 -6.91866 0.359696 0
M  V30 1695 N 180.461 -5.61977 0.117709 0
M  V30 1696 H 172.612 -1.85169 1.04049 0
M  V30 1697 H 174.875 -0.85529 0.40888 0
M  V30 1698 H 174.581 -3.38299 0.961604 0
M  V30 1699 H 174.455 -3.6945 -0.76068 0
M  V30 1700 H 176.842 -2.75124 -1.06729 0
M  V30 1701 H 176.923 -2.46672 0.677225 0
M  V30 1702 H 176.567 -4.96321 1.07834 0
M  V30 1703 H 176.497 -5.22153 -0.682954 0
M  V30 1704 H 178.988 -3.778 -0.0871266 0
M  V30 1705 H 179.301 -7.71503 0.447529 0
M  V30 1706 H 177.646 -6.93874 0.395536 0
M  V30 1707 H 180.837 -4.68094 -0.0236741 0
M  V30 1708 H 181.01 -6.47627 0.219905 0
M  V30 1709 N 174.416 0.165178 -1.56732 0
M  V30 1710 C 175.379 1.18822 -1.95995 0
M  V30 1711 C 176.379 1.3685 -0.84431 0
M  V30 1712 O 177.569 1.34152 -1.11126 0
M  V30 1713 C 174.701 2.5521 -2.26011 0
M  V30 1714 H 175.894 0.851825 -2.87548 0
M  V30 1715 H 173.447 0.407857 -1.50885 0
M  V30 1716 H 174.182 2.93852 -1.37191 0
M  V30 1717 H 173.967 2.43489 -3.07336 0
M  V30 1718 H 175.457 3.28927 -2.57288 0
M  V30 1719 N 175.894 1.51508 0.433938 0
M  V30 1720 C 176.841 1.73068 1.52696 0
M  V30 1721 C 177.811 0.572441 1.55924 0
M  V30 1722 O 178.996 0.807253 1.72882 0
M  V30 1723 C 176.136 1.86474 2.90381 0
M  V30 1724 C 175.249 3.14037 2.96656 0
M  V30 1725 C 174.384 3.18019 4.25485 0
M  V30 1726 C 173.423 4.39882 4.2564 0
M  V30 1727 N 172.56 4.41394 5.45999 0
M  V30 1728 H 177.4 2.66366 1.33615 0
M  V30 1729 H 174.937 1.32008 0.649018 0
M  V30 1730 H 176.895 1.92229 3.70275 0
M  V30 1731 H 175.525 0.965809 3.08013 0
M  V30 1732 H 174.577 3.17575 2.09404 0
M  V30 1733 H 175.889 4.0394 2.92633 0
M  V30 1734 H 175.043 3.22708 5.13755 0
M  V30 1735 H 173.782 2.2601 4.3217 0
M  V30 1736 H 172.787 4.35366 3.35763 0
M  V30 1737 H 174.012 5.33159 4.20617 0
M  V30 1738 H 171.958 3.52258 5.53399 0
M  V30 1739 H 171.875 5.25111 5.4387 0
M  V30 1740 H 173.143 4.50281 6.36292 0
M  V30 1741 N 177.372 -0.689602 1.41712 0
M  V30 1742 C 178.618 -1.45041 1.42599 0
M  V30 1743 C 178.973 -1.92366 0.0363764 0
M  V30 1744 O 178.266 -1.67022 -0.938844 0
M  V30 1745 C 178.46 -2.67298 2.37247 0
M  V30 1746 C 178.289 -2.31935 3.85274 0
M  V30 1747 C 177.059 -2.2201 4.53916 0
M  V30 1748 C 179.257 -1.94526 4.76093 0
M  V30 1749 N 177.239 -1.79594 5.87043 0
M  V30 1750 C 178.61 -1.62915 5.98213 0
M  V30 1751 C 180.665 -1.81388 4.63684 0
M  V30 1752 C 179.368 -1.19486 7.09306 0
M  V30 1753 C 181.394 -1.39364 5.74745 0
M  V30 1754 C 180.756 -1.08668 6.95967 0
M  V30 1755 H 176.855 -0.527806 0.577014 0
M  V30 1756 H 179.439 -0.797266 1.77628 0
M  V30 1757 H 177.61 -3.30325 2.04304 0
M  V30 1758 H 179.342 -3.33806 2.28814 0
M  V30 1759 H 176.097 -2.406 4.07932 0
M  V30 1760 H 176.521 -1.60851 6.57614 0
M  V30 1761 H 181.163 -2.03772 3.70455 0
M  V30 1762 H 178.881 -0.958477 8.02396 0
M  V30 1763 H 182.467 -1.2974 5.6715 0
M  V30 1764 H 181.347 -0.766417 7.80446 0
M  V30 1765 N 178.85 -1.27639 -0.924453 0
M  V30 1766 C 179.813 -1.10681 -2.00705 0
M  V30 1767 C 180.813 -0.0497823 -1.60723 0
M  V30 1768 O 182.003 -0.294654 -1.7169 0
M  V30 1769 C 179.135 -0.687164 -3.33902 0
M  V30 1770 H 180.328 -2.06817 -2.17179 0
M  V30 1771 H 177.881 -1.10473 -1.10569 0
M  V30 1772 H 178.616 0.275439 -3.23128 0
M  V30 1773 H 178.401 -1.45061 -3.6428 0
M  V30 1774 H 179.891 -0.590853 -4.13399 0
M  V30 1775 N 180.328 1.1314 -1.09713 0
M  V30 1776 C 181.744 1.36477 -0.827423 0
M  V30 1777 C 181.944 1.93654 0.556817 0
M  V30 1778 O 181 2.15791 1.31112 0
M  V30 1779 C 182.313 2.31334 -1.92106 0
M  V30 1780 C 183.861 2.44943 -1.94864 0
M  V30 1781 C 184.336 3.4311 -3.0338 0
M  V30 1782 N 185.827 3.50662 -3.02639 0
M  V30 1783 C 186.562 4.2651 -3.83246 0
M  V30 1784 N 186.058 5.05485 -4.73768 0
M  V30 1785 N 187.851 4.2184 -3.71493 0
M  V30 1786 H 180.002 0.743807 -1.9895 0
M  V30 1787 H 182.265 0.389823 -0.864143 0
M  V30 1788 H 181.971 1.96483 -2.91698 0
M  V30 1789 H 181.845 3.31381 -1.80184 0
M  V30 1790 H 184.232 2.79079 -0.959099 0
M  V30 1791 H 184.313 1.4481 -2.10864 0
M  V30 1792 H 183.957 3.09704 -4.02549 0
M  V30 1793 H 183.887 4.43055 -2.84622 0
M  V30 1794 H 186.378 2.94315 -2.37039 0
M  V30 1795 H 186.691 5.60675 -5.3185 0
M  V30 1796 H 185.036 5.04708 -4.77802 0
M  V30 1797 H 188.227 3.5922 -3.00131 0
M  V30 1798 H 188.4 4.80697 -4.3455 0
M  V30 1799 N 181.806 0.884767 1.30421 0
M  V30 1800 C 183.052 0.503851 1.96441 0
M  V30 1801 C 183.385 -0.944518 1.69684 0
M  V30 1802 O 182.66 -1.66737 1.00145 0
M  V30 1803 C 182.943 0.779085 3.51571 0
M  V30 1804 C 182.796 2.27807 3.87846 0
M  V30 1805 C 184.115 0.255452 4.39358 0
M  V30 1806 H 181.234 0.184533 0.713524 0
M  V30 1807 H 183.876 1.10872 1.54297 0
M  V30 1808 H 182.026 0.264274 3.876 0
M  V30 1809 H 183.698 2.86127 3.61841 0
M  V30 1810 H 181.941 2.74479 3.35922 0
M  V30 1811 H 182.612 2.42125 4.96064 0
M  V30 1812 H 185.088 0.696079 4.10236 0
M  V30 1813 H 183.964 0.477361 5.4682 0
M  V30 1814 H 184.225 -0.843293 4.33983 0
M  V30 1815 N 183.284 -1.43765 0.645699 0
M  V30 1816 C 184.512 -2.06253 0.163556 0
M  V30 1817 C 184.927 -1.48352 -1.16778 0
M  V30 1818 O 184.284 -0.611932 -1.71935 0
M  V30 1819 C 184.335 -3.61453 0.0583186 0
M  V30 1820 O 184.056 -4.172 1.33702 0
M  V30 1821 C 185.557 -4.41002 -0.450795 0
M  V30 1822 H 182.777 -0.665413 0.0864077 0
M  V30 1823 H 185.321 -1.84396 0.884222 0
M  V30 1824 H 183.476 -3.82522 -0.612865 0
M  V30 1825 H 183.89 -5.10791 1.19131 0
M  V30 1826 H 185.364 -5.49966 -0.473403 0
M  V30 1827 H 185.841 -4.13488 -1.48068 0
M  V30 1828 H 186.447 -4.24886 0.187637 0
M  V30 1829 N 184.763 -0.387143 -1.52771 0
M  V30 1830 C 186.011 0.195349 -2.01154 0
M  V30 1831 C 186.332 1.475 -1.27549 0
M  V30 1832 O 185.602 1.91878 -0.394924 0
M  V30 1833 H 184.182 0.075178 -0.743207 0
M  V30 1834 H 186.844 -0.518337 -1.87881 0
M  V30 1835 H 185.94 0.407096 -3.09434 0
M  V30 1836 N 186.241 1.57166 -0.116904 0
M  V30 1837 C 187.171 2.18222 0.830759 0
M  V30 1838 C 188.152 1.12167 1.27877 0
M  V30 1839 O 189.337 1.40394 1.34176 0
M  V30 1840 C 186.467 2.77996 2.08172 0
M  V30 1841 C 185.421 3.89614 1.77157 0
M  V30 1842 C 184.747 4.36187 3.09265 0
M  V30 1843 C 186.047 5.1181 1.04151 0
M  V30 1844 H 187.741 2.97664 0.321992 0
M  V30 1845 H 185.287 1.4318 0.153434 0
M  V30 1846 H 187.24 3.19366 2.74924 0
M  V30 1847 H 185.964 1.9584 2.6137 0
M  V30 1848 H 184.623 3.48816 1.12796 0
M  V30 1849 H 184.271 3.50893 3.60393 0
M  V30 1850 H 183.971 5.11455 2.89288 0
M  V30 1851 H 185.495 4.80207 3.77139 0
M  V30 1852 H 186.909 5.50214 1.61052 0
M  V30 1853 H 185.306 5.92648 0.942762 0
M  V30 1854 H 186.376 4.84892 0.0279022 0
M  V30 1855 N 187.719 -0.156864 1.56817 0
M  V30 1856 C 188.996 -0.899244 1.73704 0
M  V30 1857 C 189.376 -1.99771 0.682254 0
M  V30 1858 O 188.724 -2.26515 -0.300522 0
M  V30 1859 C 188.934 -1.45075 3.17418 0
M  V30 1860 C 190.282 -1.91802 3.7881 0
M  V30 1861 O 191.306 -1.54838 3.20786 0
M  V30 1862 O 190.165 -2.5994 4.80722 0
M  V30 1863 H 187.259 -0.424267 0.709878 0
M  V30 1864 H 189.805 -0.143561 1.69092 0
M  V30 1865 H 188.577 -0.660846 3.85679 0
M  V30 1866 H 188.2 -2.27021 3.26416 0
M  V30 1867 N 189.197 -1.51736 -0.425897 0
M  V30 1868 C 190.16 -1.73271 -1.50032 0
M  V30 1869 C 191.16 -0.602639 -1.4908 0
M  V30 1870 O 192.35 -0.87033 -1.509 0
M  V30 1871 C 189.482 -1.79969 -2.89523 0
M  V30 1872 H 190.675 -2.69172 -1.32237 0
M  V30 1873 H 188.228 -1.41899 -0.65532 0
M  V30 1874 H 188.963 -0.859241 -3.1271 0
M  V30 1875 H 188.748 -2.62109 -2.91619 0
M  V30 1876 H 190.238 -1.9843 -3.67444 0
M  V30 1877 N 190.675 0.682077 -1.42076 0
M  V30 1878 C 191.952 1.43755 -1.32642 0
M  V30 1879 C 192.332 2.11063 0.0396611 0
M  V30 1880 O 191.68 2.02701 1.05474 0
M  V30 1881 C 191.89 2.44596 -2.48946 0
M  V30 1882 C 193.238 3.09454 -2.9073 0
M  V30 1883 O 194.262 2.54922 -2.48783 0
M  V30 1884 O 193.121 4.08253 -3.63307 0
M  V30 1885 H 190.215 0.640857 -0.522715 0
M  V30 1886 H 192.761 0.711415 -1.54068 0
M  V30 1887 H 191.533 1.93609 -3.40046 0
M  V30 1888 H 191.156 3.24701 -2.29467 0
M  V30 1889 N 192.153 1.28127 0.917671 0
M  V30 1890 C 193.401 1.14825 1.66312 0
M  V30 1891 C 193.722 -0.304379 1.9261 0
M  V30 1892 O 192.992 -1.21149 1.53947 0
M  V30 1893 H 191.572 0.421953 0.616413 0
M  V30 1894 H 194.234 1.608 1.10134 0
M  V30 1895 H 193.33 1.68489 2.62712 0
M  V30 1896 N 193.631 -1.12557 1.10312 0
M  V30 1897 C 194.856 -1.88405 0.867085 0
M  V30 1898 C 195.281 -1.79038 -0.576817 0
M  V30 1899 O 194.639 -1.14439 -1.40618 0
M  V30 1900 C 194.687 -3.3563 1.31851 0
M  V30 1901 O 193.791 -4.09565 0.482734 0
M  V30 1902 H 193.132 -0.585455 0.313271 0
M  V30 1903 H 195.662 -1.42352 1.4696 0
M  V30 1904 H 195.672 -3.86469 1.3079 0
M  V30 1905 H 194.347 -3.41765 2.37001 0
M  V30 1906 H 192.924 -3.68695 0.558448 0
M  V30 1907 N 195.109 -0.891671 -1.2995 0
M  V30 1908 C 196.52 -0.563104 -1.78006 0
M  V30 1909 C 196.871 0.920978 -1.73241 0
M  V30 1910 O 195.996 1.71987 -1.31337 0
M  V30 1911 C 196.591 -1.01539 -3.23226 0
M  V30 1912 C 195.15 -0.738124 -3.69092 0
M  V30 1913 C 194.297 -1.19461 -2.50249 0
M  V30 1914 H 197.248 -1.07522 -1.16725 0
M  V30 1915 H 197.269 -0.347217 -3.78912 0
M  V30 1916 H 196.781 -2.09555 -3.26662 0
M  V30 1917 H 194.882 0.329766 -3.71138 0
M  V30 1918 H 194.995 -1.33037 -4.60259 0
M  V30 1919 H 193.359 -0.613787 -2.47194 0
M  V30 1920 H 194.142 -2.28265 -2.56417 0
M  V30 1921 N 196.587 1.43421 -0.653314 0
M  V30 1922 C 197.833 2.02111 -0.166992 0
M  V30 1923 C 198.166 1.51423 1.21592 0
M  V30 1924 O 197.441 0.707389 1.8118 0
M  V30 1925 C 197.724 3.5966 -0.177948 0
M  V30 1926 C 197.577 4.20579 -1.59478 0
M  V30 1927 C 198.896 4.37413 0.4856 0
M  V30 1928 H 196.015 0.734374 -0.0621557 0
M  V30 1929 H 198.657 1.70717 -0.834016 0
M  V30 1930 H 196.807 3.86537 0.390032 0
M  V30 1931 H 198.479 4.04732 -2.21336 0
M  V30 1932 H 196.722 3.77226 -2.14204 0
M  V30 1933 H 197.393 5.29665 -1.5543 0
M  V30 1934 H 199.869 4.161 0.00234528 0
M  V30 1935 H 198.745 5.47075 0.447207 0
M  V30 1936 H 199.006 4.13672 1.55974 0
M  V30 1937 N 198.065 0.39524 1.52563 0
M  V30 1938 C 199.29 -0.187456 2.06551 0
M  V30 1939 C 199.715 -1.39249 1.26457 0
M  V30 1940 O 199.073 -1.78947 0.291151 0
M  V30 1941 C 199.121 -0.529985 3.56684 0
M  V30 1942 O 198.225 -1.62307 3.79118 0
M  V30 1943 H 197.566 -0.0202537 0.663691 0
M  V30 1944 H 200.096 0.564426 1.96661 0
M  V30 1945 H 200.106 -0.792598 4.00227 0
M  V30 1946 H 198.781 0.350987 4.14416 0
M  V30 1947 H 197.358 -1.3537 3.47461 0
M  V30 1948 N 199.544 -1.57102 0.125237 0
M  V30 1949 C 200.793 -1.94582 -0.531095 0
M  V30 1950 C 201.106 -1.01126 -1.6743 0
M  V30 1951 O 202.312 -1.28097 -2.39381 0
M  V30 1952 C 200.768 -3.45839 -0.996164 0
M  V30 1953 C 200.376 -4.47842 0.118926 0
M  V30 1954 C 202.12 -3.92227 -1.62352 0
M  V30 1955 C 200.027 -5.90284 -0.363192 0
M  V30 1956 H 198.957 -0.726391 -0.20217 0
M  V30 1957 H 201.608 -1.82339 0.206092 0
M  V30 1958 H 199.99 -3.53338 -1.78796 0
M  V30 1959 H 201.164 -4.52018 0.895358 0
M  V30 1960 H 199.479 -4.11243 0.653324 0
M  V30 1961 H 202.076 -4.96069 -1.99548 0
M  V30 1962 H 202.419 -3.32552 -2.50429 0
M  V30 1963 H 202.952 -3.87554 -0.897019 0
M  V30 1964 H 199.691 -6.53728 0.481679 0
M  V30 1965 H 199.211 -5.89515 -1.10597 0
M  V30 1966 H 200.89 -6.41752 -0.822377 0
M  V30 1967 N 201.022 0.148545 -1.56898 0
M  V30 1968 C 201.932 1.20293 -2.01412 0
M  V30 1969 C 202.948 1.47107 -0.929273 0
M  V30 1970 O 204.124 1.58807 -1.23863 0
M  V30 1971 C 201.189 2.51682 -2.38447 0
M  V30 1972 C 200.25 2.32529 -3.60872 0
M  V30 1973 C 199.483 3.57653 -3.96132 0
M  V30 1974 O 199.706 4.63771 -3.32073 0
M  V30 1975 O 198.64 3.50408 -4.89385 0
M  V30 1976 H 202.466 0.855025 -2.91416 0
M  V30 1977 H 200.051 0.357151 -1.45068 0
M  V30 1978 H 201.933 3.29147 -2.63135 0
M  V30 1979 H 200.608 2.86006 -1.51599 0
M  V30 1980 H 199.515 1.53019 -3.41373 0
M  V30 1981 H 200.848 2.03121 -4.48333 0
M  V30 1982 N 202.5 1.5196 0.417844 0
M  V30 1983 C 203.748 1.65263 1.16329 0
M  V30 1984 C 204.069 0.380634 1.91249 0
M  V30 1985 O 203.339 -0.604214 1.86349 0
M  V30 1986 H 201.919 0.60912 0.432414 0
M  V30 1987 H 204.581 1.88969 0.477162 0
M  V30 1988 H 203.677 2.4896 1.88217 0
M  V30 1989 N 203.978 -0.674533 1.42435 0
M  V30 1990 C 205.206 -1.46283 1.46317 0
M  V30 1991 C 205.621 -1.88653 0.0745836 0
M  V30 1992 O 204.978 -1.58151 -0.91074 0
M  V30 1993 C 205.029 -2.71178 2.3905 0
M  V30 1994 O 204.75 -2.30586 3.72507 0
M  V30 1995 C 206.251 -3.64738 2.51955 0
M  V30 1996 H 203.471 -0.450104 0.497642 0
M  V30 1997 H 206.015 -0.828792 1.86953 0
M  V30 1998 H 204.17 -3.3077 2.01667 0
M  V30 1999 H 204.584 -3.11241 4.22172 0
M  V30 2000 H 206.058 -4.49096 3.20962 0
M  V30 2001 H 206.535 -4.10656 1.55752 0
M  V30 2002 H 207.141 -3.11038 2.90061 0
M  V30 2003 N 205.456 -1.28612 -0.910864 0
M  V30 2004 C 206.704 -1.15705 -1.65701 0
M  V30 2005 C 207.025 0.29416 -1.92769 0
M  V30 2006 O 206.295 1.20331 -1.54588 0
M  V30 2007 H 204.875 -0.425216 -0.614167 0
M  V30 2008 H 207.537 -1.61381 -1.0928 0
M  V30 2009 H 206.633 -1.6988 -2.61815 0
M  V30 2010 N 206.934 1.1197 -1.10907 0
M  V30 2011 C 207.864 2.19928 -0.784473 0
M  V30 2012 C 208.845 1.6833 0.244726 0
M  V30 2013 O 210.03 1.93892 0.109418 0
M  V30 2014 C 207.16 3.46597 -0.220827 0
M  V30 2015 C 206.114 4.11376 -1.18127 0
M  V30 2016 C 205.44 5.32554 -0.478594 0
M  V30 2017 C 206.74 4.56945 -2.52979 0
M  V30 2018 H 208.434 2.47337 -1.68715 0
M  V30 2019 H 205.98 1.18879 -0.812642 0
M  V30 2020 H 207.933 4.21396 0.0184278 0
M  V30 2021 H 206.657 3.1863 0.717113 0
M  V30 2022 H 205.316 3.38564 -1.40606 0
M  V30 2023 H 204.964 5.00856 0.463976 0
M  V30 2024 H 204.664 5.76844 -1.11912 0
M  V30 2025 H 206.188 6.10096 -0.248 0
M  V30 2026 H 207.602 5.23093 -2.3462 0
M  V30 2027 H 205.999 5.1203 -3.12962 0
M  V30 2028 H 207.069 3.70676 -3.12614 0
M  V30 2029 N 208.412 0.89855 1.29475 0
M  V30 2030 C 209.659 0.523882 1.95606 0
M  V30 2031 C 209.987 -0.929608 1.70847 0
M  V30 2032 O 209.242 -1.67401 1.01367 0
M  V30 2033 C 209.541 0.761398 3.49195 0
M  V30 2034 C 209.207 2.19207 3.94029 0
M  V30 2035 C 207.869 2.58326 4.05982 0
M  V30 2036 C 210.221 3.12379 4.17216 0
M  V30 2037 C 207.549 3.898 4.38489 0
M  V30 2038 C 209.901 4.43401 4.51197 0
M  V30 2039 C 208.565 4.82394 4.61359 0
M  V30 2040 H 207.835 0.191702 0.715773 0
M  V30 2041 H 210.482 1.13699 1.54094 0
M  V30 2042 H 208.787 0.0653622 3.91745 0
M  V30 2043 H 210.484 0.450904 3.98457 0
M  V30 2044 H 207.074 1.87846 3.85242 0
M  V30 2045 H 211.258 2.83371 4.07449 0
M  V30 2046 H 206.514 4.19734 4.44559 0
M  V30 2047 H 210.688 5.15623 4.68087 0
M  V30 2048 H 208.315 5.84306 4.86303 0
M  V30 2049 N 209.89 -1.43072 0.660911 0
M  V30 2050 C 210.853 -2.29194 -0.0166406 0
M  V30 2051 C 211.853 -1.42609 -0.742912 0
M  V30 2052 O 213.043 -1.64155 -0.583004 0
M  V30 2053 C 210.175 -3.24831 -1.0343 0
M  V30 2054 H 211.368 -2.90596 0.741208 0
M  V30 2055 H 208.921 -1.5048 0.422532 0
M  V30 2056 H 209.656 -2.68339 -1.82111 0
M  V30 2057 H 209.441 -3.88676 -0.517082 0
M  V30 2058 H 210.931 -3.89451 -1.50723 0
M  V30 2059 N 211.368 -0.403325 -1.52352 0
M  V30 2060 C 212.784 -0.0539281 -1.59509 0
M  V30 2061 C 212.984 1.43307 -1.41652 0
M  V30 2062 O 212.04 2.19924 -1.24056 0
M  V30 2063 C 213.353 -0.543654 -2.95745 0
M  V30 2064 C 214.901 -0.501125 -3.08962 0
M  V30 2065 C 215.376 -0.967267 -4.47669 0
M  V30 2066 N 216.867 -0.923849 -4.53893 0
M  V30 2067 C 217.602 -1.25578 -5.5948 0
M  V30 2068 N 217.098 -1.65889 -6.72646 0
M  V30 2069 N 218.891 -1.17613 -5.49658 0
M  V30 2070 H 211.042 -1.37123 -1.62206 0
M  V30 2071 H 213.305 -0.56294 -0.76276 0
M  V30 2072 H 213.011 -1.58275 -3.14073 0
M  V30 2073 H 212.885 0.0498042 -3.77167 0
M  V30 2074 H 215.272 0.528909 -2.90321 0
M  V30 2075 H 215.353 -1.13056 -2.2946 0
M  V30 2076 H 214.997 -1.9956 -4.67053 0
M  V30 2077 H 214.927 -0.314698 -5.25659 0
M  V30 2078 H 217.418 -0.627403 -3.72655 0
M  V30 2079 H 217.731 -1.89543 -7.49195 0
M  V30 2080 H 216.076 -1.69787 -6.73942 0
M  V30 2081 H 219.267 -0.860115 -4.6013 0
M  V30 2082 H 219.44 -1.43812 -6.3184 0
M  V30 2083 N 212.846 1.57033 -0.133567 0
M  V30 2084 C 213.779 2.11824 0.848872 0
M  V30 2085 C 214.757 1.03833 1.2513 0
M  V30 2086 O 215.941 1.31579 1.34978 0
M  V30 2087 C 213.068 2.62692 2.138 0
M  V30 2088 C 212.114 3.82705 1.88253 0
M  V30 2089 S 212.947 5.2438 1.08563 0
M  V30 2090 C 214.103 5.78627 2.38624 0
M  V30 2091 H 214.336 2.94824 0.38289 0
M  V30 2092 H 211.869 1.5419 0.0804796 0
M  V30 2093 H 213.827 2.92652 2.87863 0
M  V30 2094 H 212.488 1.79847 2.57515 0
M  V30 2095 H 211.681 4.16496 2.83809 0
M  V30 2096 H 211.283 3.53437 1.22305 0
M  V30 2097 H 213.575 5.8924 3.34369 0
M  V30 2098 H 214.518 6.76443 2.09358 0
M  V30 2099 H 214.926 5.06783 2.48658 0
M  V30 2100 N 214.325 -0.140222 1.56975 0
M  V30 2101 C 215.255 -1.17456 2.01808 0
M  V30 2102 C 216.236 -1.44415 0.898794 0
M  V30 2103 O 217.421 -1.5522 1.16707 0
M  V30 2104 C 214.551 -2.50607 2.40444 0
M  V30 2105 C 213.505 -2.38155 3.55621 0
M  V30 2106 C 212.831 -3.76078 3.80091 0
M  V30 2107 C 214.131 -1.85991 4.88062 0
M  V30 2108 H 215.825 -0.801743 2.88466 0
M  V30 2109 H 213.371 -0.38422 1.38779 0
M  V30 2110 H 215.324 -3.23197 2.7041 0
M  V30 2111 H 214.048 -2.89737 1.50732 0
M  V30 2112 H 212.707 -1.68016 3.25832 0
M  V30 2113 H 212.355 -4.12656 2.87618 0
M  V30 2114 H 212.055 -3.68606 4.57606 0
M  V30 2115 H 213.579 -4.50206 4.12488 0
M  V30 2116 H 214.993 -2.4838 5.16701 0
M  V30 2117 H 213.39 -1.89393 5.6943 0
M  V30 2118 H 214.46 -0.816023 4.77984 0
M  V30 2119 N 215.803 -1.52179 -0.40978 0
M  V30 2120 C 216.735 -1.71703 -1.51825 0
M  V30 2121 C 217.748 -0.597445 -1.51441 0
M  V30 2122 O 218.937 -0.872582 -1.55719 0
M  V30 2123 C 216.037 -1.74171 -2.90719 0
M  V30 2124 C 215.21 -3.03156 -3.15302 0
M  V30 2125 C 214.269 -2.97445 -4.34065 0
M  V30 2126 O 213.295 -3.71352 -4.31377 0
M  V30 2127 N 214.497 -2.15191 -5.39141 0
M  V30 2128 H 217.262 -2.67334 -1.35472 0
M  V30 2129 H 214.823 -1.50409 -0.599069 0
M  V30 2130 H 216.815 -1.67884 -3.68235 0
M  V30 2131 H 215.385 -0.860166 -3.00533 0
M  V30 2132 H 214.605 -3.23097 -2.25836 0
M  V30 2133 H 215.893 -3.88484 -3.28569 0
M  V30 2134 H 215.291 -1.54573 -5.44173 0
M  V30 2135 H 213.848 -2.1476 -6.15403 0
M  V30 2136 N 217.281 0.66697 -1.42791 0
M  V30 2137 C 218.231 1.77313 -1.43332 0
M  V30 2138 C 219.215 1.5801 -0.303586 0
M  V30 2139 O 220.407 1.68356 -0.546385 0
M  V30 2140 C 217.536 3.15822 -1.34578 0
M  V30 2141 C 216.622 3.40721 -2.52528 0
M  V30 2142 N 217.013 3.36162 -3.77927 0
M  V30 2143 C 215.311 3.71387 -2.46956 0
M  V30 2144 C 216.012 3.60762 -4.56318 0
M  V30 2145 N 214.988 3.81908 -3.86843 0
M  V30 2146 H 218.79 1.72193 -2.38174 0
M  V30 2147 H 216.304 0.868114 -1.3725 0
M  V30 2148 H 218.301 3.951 -1.33048 0
M  V30 2149 H 216.961 3.22133 -0.407453 0
M  V30 2150 H 217.972 3.15885 -4.10411 0
M  V30 2151 H 214.649 3.84897 -1.61743 0
M  V30 2152 H 216.039 3.63132 -5.65318 0
M  V30 2153 N 218.759 1.29093 0.90403 0
M  V30 2154 C 219.669 1.15727 2.0407 0
M  V30 2155 C 220.685 0.0815308 1.73809 0
M  V30 2156 O 221.861 0.292749 1.99261 0
M  V30 2157 C 218.926 0.830424 3.36608 0
M  V30 2158 C 217.987 1.98955 3.80415 0
M  V30 2159 C 217.22 1.6782 5.06628 0
M  V30 2160 O 217.443 0.597105 5.67266 0
M  V30 2161 O 216.377 2.52486 5.46383 0
M  V30 2162 H 220.203 2.11171 2.18267 0
M  V30 2163 H 217.788 1.08504 1.027 0
M  V30 2164 H 219.67 0.662521 4.16159 0
M  V30 2165 H 218.345 -0.0942678 3.23563 0
M  V30 2166 H 217.252 2.21267 3.01648 0
M  V30 2167 H 218.585 2.89529 3.98037 0
M  V30 2168 N 220.237 -1.11381 1.11499 0
M  V30 2169 C 221.465 -1.86934 0.88675 0
M  V30 2170 C 221.88 -1.80195 -0.563476 0
M  V30 2171 O 221.237 -1.18367 -1.38908 0
M  V30 2172 C 221.288 -3.35722 1.34064 0
M  V30 2173 O 221.009 -3.4232 2.73401 0
M  V30 2174 C 222.51 -4.2818 1.14791 0
M  V30 2175 H 219.73 -0.591117 0.317523 0
M  V30 2176 H 222.274 -1.40865 1.48248 0
M  V30 2177 H 220.429 -3.79294 0.788355 0
M  V30 2178 H 220.843 -4.34971 2.93087 0
M  V30 2179 H 222.317 -5.30817 1.5145 0
M  V30 2180 H 222.794 -4.39113 0.0875279 0
M  V30 2181 H 223.4 -3.90402 1.68721 0
M  V30 2182 N 221.715 -0.905404 -1.28997 0
M  V30 2183 C 222.963 -0.533192 -1.9494 0
M  V30 2184 C 223.284 0.924618 -1.71685 0
M  V30 2185 O 222.554 1.65268 -1.05183 0
M  V30 2186 H 221.134 -0.194194 -0.721317 0
M  V30 2187 H 223.796 -1.15294 -1.57141 0
M  V30 2188 H 222.892 -0.72059 -3.03667 0
M  V30 2189 N 223.193 1.4272 -0.668489 0
M  V30 2190 C 224.143 2.27971 0.0363806 0
M  V30 2191 C 225.127 1.40741 0.779794 0
M  V30 2192 O 226.319 1.64245 0.659745 0
M  V30 2193 C 223.448 3.28673 0.991398 0
M  V30 2194 C 222.534 4.23388 0.245658 0
M  V30 2195 N 222.925 5.00267 -0.746069 0
M  V30 2196 C 221.223 4.43355 0.484988 0
M  V30 2197 C 221.924 5.69396 -1.19009 0
M  V30 2198 N 220.9 5.41095 -0.521287 0
M  V30 2199 H 224.702 2.84833 -0.724394 0
M  V30 2200 H 222.216 1.54607 -0.497028 0
M  V30 2201 H 224.213 3.88543 1.51129 0
M  V30 2202 H 222.873 2.73373 1.75207 0
M  V30 2203 H 223.884 5.05525 -1.12537 0
M  V30 2204 H 220.561 3.99104 1.22565 0
M  V30 2205 H 221.951 6.41083 -2.01153 0
M  V30 2206 N 224.671 0.411399 1.52136 0
M  V30 2207 C 225.601 -0.404015 2.29978 0
M  V30 2208 C 226.582 -1.04412 1.34284 0
M  V30 2209 O 227.767 -1.0527 1.63192 0
M  V30 2210 C 224.897 -1.5197 3.12286 0
M  V30 2211 C 223.851 -1.00448 4.16046 0
M  V30 2212 C 223.177 -2.21393 4.86712 0
M  V30 2213 C 224.477 -0.0569336 5.22269 0
M  V30 2214 H 226.171 0.245529 2.98392 0
M  V30 2215 H 223.717 0.119525 1.43503 0
M  V30 2216 H 225.67 -2.09715 3.6551 0
M  V30 2217 H 224.394 -2.19716 2.41646 0
M  V30 2218 H 223.053 -0.449421 3.63835 0
M  V30 2219 H 222.701 -2.87699 4.12599 0
M  V30 2220 H 222.401 -1.87571 5.56858 0
M  V30 2221 H 223.925 -2.7974 5.4275 0
M  V30 2222 H 225.339 -0.54325 5.7072 0
M  V30 2223 H 223.736 0.192594 5.99791 0
M  V30 2224 H 224.806 0.887663 4.76706 0
M  V30 2225 N 226.149 -1.5696 0.141893 0
M  V30 2226 C 227.426 -1.87553 -0.555281 0
M  V30 2227 C 227.806 -1.04699 -1.83306 0
M  V30 2228 O 227.154 -0.132346 -2.28116 0
M  V30 2229 C 227.364 -3.39093 -0.825664 0
M  V30 2230 C 228.712 -4.08199 -1.16869 0
M  V30 2231 O 229.736 -3.44242 -0.915185 0
M  V30 2232 O 228.595 -5.21139 -1.6455 0
M  V30 2233 H 225.689 -0.777188 -0.282679 0
M  V30 2234 H 228.235 -1.68763 0.17812 0
M  V30 2235 H 227.007 -3.91221 0.0788633 0
M  V30 2236 H 226.63 -3.63393 -1.61343 0
M  V30 2237 N 227.627 0.131896 -1.57047 0
M  V30 2238 C 228.875 0.840269 -1.83804 0
M  V30 2239 C 229.196 1.81017 -0.72512 0
M  V30 2240 O 228.466 1.94272 0.251995 0
M  V30 2241 H 227.046 0.313294 -0.678127 0
M  V30 2242 H 229.708 0.122294 -1.94516 0
M  V30 2243 H 228.804 1.39335 -2.79271 0
M  V30 2244 N 229.106 1.52395 0.401703 0
M  V30 2245 C 230.353 1.66817 1.14796 0
M  V30 2246 C 230.681 0.401772 1.90305 0
M  V30 2247 O 229.936 -0.615487 1.85769 0
M  V30 2248 C 230.235 2.84578 2.16217 0
M  V30 2249 C 229.901 4.22513 1.5746 0
M  V30 2250 C 228.563 4.60029 1.41161 0
M  V30 2251 C 230.915 5.0844 1.14622 0
M  V30 2252 C 228.243 5.81144 0.80552 0
M  V30 2253 C 230.595 6.30167 0.55428 0
M  V30 2254 C 229.259 6.66426 0.378482 0
M  V30 2255 H 228.529 0.610428 0.420069 0
M  V30 2256 H 231.176 1.86512 0.434212 0
M  V30 2257 H 229.481 2.59248 2.93764 0
M  V30 2258 H 231.178 2.92933 2.73845 0
M  V30 2259 H 227.768 3.92953 1.71132 0
M  V30 2260 H 231.952 4.80034 1.26021 0
M  V30 2261 H 227.208 6.07855 0.657399 0
M  V30 2262 H 231.382 6.96071 0.213983 0
M  V30 2263 H 229.009 7.60143 -0.0932606 0
M  V30 2264 N 230.584 -0.659388 1.43143 0
M  V30 2265 C 231.514 -1.78422 1.50625 0
M  V30 2266 C 232.495 -1.66216 0.361443 0
M  V30 2267 O 233.68 -1.85404 0.577834 0
M  V30 2268 C 230.81 -3.16815 1.42287 0
M  V30 2269 C 229.764 -3.43777 2.54954 0
M  V30 2270 C 229.09 -4.81905 2.31671 0
M  V30 2271 C 230.39 -3.39134 3.97222 0
M  V30 2272 H 232.084 -1.72417 2.44771 0
M  V30 2273 H 229.63 -0.828084 1.17808 0
M  V30 2274 H 231.583 -3.95253 1.46127 0
M  V30 2275 H 230.307 -3.23534 0.446435 0
M  V30 2276 H 228.966 -2.67707 2.50457 0
M  V30 2277 H 228.614 -4.85294 1.32284 0
M  V30 2278 H 228.314 -5.00906 3.07192 0
M  V30 2279 H 229.838 -5.62609 2.37284 0
M  V30 2280 H 231.252 -4.07518 4.03239 0
M  V30 2281 H 229.649 -3.69671 4.72719 0
M  V30 2282 H 230.719 -2.37426 4.22797 0
M  V30 2283 N 232.062 -1.29571 -0.897171 0
M  V30 2284 C 233.292 -1.20408 -1.67886 0
M  V30 2285 C 233.7 0.237429 -1.87704 0
M  V30 2286 O 233.043 1.17048 -1.41582 0
M  V30 2287 C 233.105 -1.84887 -3.08314 0
M  V30 2288 C 232.769 -3.34189 -3.11716 0
M  V30 2289 C 233.766 -4.30374 -2.91675 0
M  V30 2290 C 231.451 -3.75431 -3.33701 0
M  V30 2291 C 233.445 -5.65776 -2.93557 0
M  V30 2292 C 231.132 -5.10955 -3.35214 0
M  V30 2293 C 232.13 -6.05938 -3.15164 0
M  V30 2294 O 231.818 -7.38987 -3.1647 0
M  V30 2295 H 231.55 -0.418289 -0.531046 0
M  V30 2296 H 234.104 -1.71514 -1.13014 0
M  V30 2297 H 232.334 -1.28295 -3.64798 0
M  V30 2298 H 234.023 -1.70011 -3.6858 0
M  V30 2299 H 234.789 -3.99844 -2.74499 0
M  V30 2300 H 230.668 -3.01953 -3.48347 0
M  V30 2301 H 234.212 -6.39889 -2.77826 0
M  V30 2302 H 230.109 -5.4113 -3.51922 0
M  V30 2303 H 230.877 -7.47823 -3.3272 0
M  V30 2304 N 233.54 1.10788 -1.12088 0
M  V30 2305 C 234.47 2.19083 -0.807755 0
M  V30 2306 C 235.451 1.6858 0.226859 0
M  V30 2307 O 236.636 1.93997 0.0888475 0
M  V30 2308 C 233.766 3.46344 -0.257576 0
M  V30 2309 C 232.72 4.101 -1.22483 0
M  V30 2310 C 232.046 5.32016 -0.535052 0
M  V30 2311 C 233.346 4.54236 -2.57811 0
M  V30 2312 H 235.04 2.45534 -1.71328 0
M  V30 2313 H 232.586 1.1801 -0.825205 0
M  V30 2314 H 234.539 4.21392 -0.0262679 0
M  V30 2315 H 233.263 3.19373 0.683278 0
M  V30 2316 H 231.922 3.37054 -1.44189 0
M  V30 2317 H 231.57 5.01319 0.410827 0
M  V30 2318 H 231.27 5.75625 -1.18024 0
M  V30 2319 H 232.794 6.09799 -0.312695 0
M  V30 2320 H 234.208 5.20575 -2.40155 0
M  V30 2321 H 232.605 5.08682 -3.18375 0
M  V30 2322 H 233.675 3.6734 -3.16528 0
M  V30 2323 N 235.018 0.912232 1.28515 0
M  V30 2324 C 236.295 0.463597 1.90027 0
M  V30 2325 C 236.675 -1.05753 1.82701 0
M  V30 2326 O 236.023 -1.90492 1.26194 0
M  V30 2327 C 236.233 0.992253 3.34597 0
M  V30 2328 C 237.581 1.04344 4.11579 0
M  V30 2329 O 238.605 0.94079 3.43551 0
M  V30 2330 O 237.464 1.1995 5.33174 0
M  V30 2331 H 234.558 0.146666 0.813891 0
M  V30 2332 H 237.104 1.00292 1.36893 0
M  V30 2333 H 235.876 2.03623 3.34146 0
M  V30 2334 H 235.499 0.433672 3.95228 0
M  V30 2335 N 236.496 -1.42363 0.676048 0
M  V30 2336 C 237.912 -1.55811 0.345718 0
M  V30 2337 C 238.112 -1.65544 -1.14879 0
M  V30 2338 O 237.168 -1.62306 -1.93424 0
M  V30 2339 C 238.481 -2.80746 1.07713 0
M  V30 2340 C 240.029 -2.9452 1.05958 0
M  V30 2341 C 240.504 -4.22318 1.77233 0
M  V30 2342 N 241.995 -4.29233 1.74108 0
M  V30 2343 C 242.73 -5.26935 2.26113 0
M  V30 2344 N 242.226 -6.30783 2.86505 0
M  V30 2345 N 244.019 -5.18741 2.1648 0
M  V30 2346 H 236.17 -1.34289 1.6456 0
M  V30 2347 H 238.433 -0.646506 0.69335 0
M  V30 2348 H 238.139 -2.79696 2.13221 0
M  V30 2349 H 238.013 -3.71676 0.64316 0
M  V30 2350 H 240.4 -2.95097 0.0128255 0
M  V30 2351 H 240.481 -2.04817 1.53244 0
M  V30 2352 H 240.125 -4.22502 2.81877 0
M  V30 2353 H 240.055 -5.10958 1.27396 0
M  V30 2354 H 242.546 -3.54814 1.30059 0
M  V30 2355 H 242.859 -7.01691 3.23805 0
M  V30 2356 H 241.204 -6.31341 2.90575 0
M  V30 2357 H 244.395 -4.36533 1.68987 0
M  V30 2358 H 244.568 -5.94721 2.57316 0
M  V30 2359 N 237.974 -0.419461 -1.51915 0
M  V30 2360 C 238.904 0.391813 -2.30189 0
M  V30 2361 C 239.885 1.03699 -1.34836 0
M  V30 2362 O 241.07 1.04403 -1.63748 0
M  V30 2363 C 238.2 1.50312 -3.13087 0
M  V30 2364 C 237.154 0.9824 -4.16573 0
M  V30 2365 C 236.48 2.18809 -4.8788 0
M  V30 2366 C 237.78 0.0292356 -5.22292 0
M  V30 2367 H 239.474 -0.26135 -2.98257 0
M  V30 2368 H 237.02 -0.127134 -1.43438 0
M  V30 2369 H 238.973 2.07773 -3.66617 0
M  V30 2370 H 237.697 2.18431 -2.42807 0
M  V30 2371 H 236.356 0.430119 -3.64068 0
M  V30 2372 H 236.004 2.85507 -4.14119 0
M  V30 2373 H 235.704 1.84615 -5.57845 0
M  V30 2374 H 237.228 2.76858 -5.44226 0
M  V30 2375 H 238.642 0.512976 -5.71 0
M  V30 2376 H 237.039 -0.2244 -5.9968 0
M  V30 2377 H 238.109 -0.912931 -4.76228 0
M  V30 2378 N 239.452 1.56882 -0.150215 0
M  V30 2379 C 240.701 1.95403 0.500071 0
M  V30 2380 C 241.014 1.03777 1.658 0
M  V30 2381 O 242.22 1.31889 2.37313 0
M  V30 2382 C 240.676 3.4738 0.941018 0
M  V30 2383 C 240.284 4.47596 -0.190158 0
M  V30 2384 C 242.028 3.9476 1.56091 0
M  V30 2385 C 239.935 5.90787 0.269237 0
M  V30 2386 H 238.865 0.729515 0.190588 0
M  V30 2387 H 241.516 1.81988 -0.235074 0
M  V30 2388 H 239.898 3.56138 1.73152 0
M  V30 2389 H 241.072 4.50536 -0.967157 0
M  V30 2390 H 239.387 4.10151 -0.718666 0
M  V30 2391 H 241.984 4.99181 1.9163 0
M  V30 2392 H 242.327 3.36494 2.45107 0
M  V30 2393 H 242.86 3.88932 0.835249 0
M  V30 2394 H 239.599 6.52879 -0.585621 0
M  V30 2395 H 239.119 5.912 1.01204 0
M  V30 2396 H 240.798 6.42979 0.720176 0
M  V30 2397 N 240.93 -0.123565 1.57115 0
M  V30 2398 C 242.178 -0.83051 1.84247 0
M  V30 2399 C 242.499 -1.80629 0.73471 0
M  V30 2400 O 241.769 -1.94403 -0.241688 0
M  V30 2401 H 240.349 -0.309694 0.679778 0
M  V30 2402 H 243.011 -0.111976 1.94578 0
M  V30 2403 H 242.107 -1.37852 2.80006 0
M  V30 2404 N 242.408 -1.52605 -0.393616 0
M  V30 2405 C 243.824 -1.41753 -0.733357 0
M  V30 2406 C 244.024 -0.534293 -1.94287 0
M  V30 2407 O 243.08 -0.0059787 -2.52499 0
M  V30 2408 C 244.393 -2.84531 -0.972772 0
M  V30 2409 C 245.941 -2.93978 -1.07453 0
M  V30 2410 C 246.416 -4.37756 -1.3466 0
M  V30 2411 N 247.907 -4.4106 -1.41492 0
M  V30 2412 C 248.642 -5.49387 -1.642 0
M  V30 2413 N 248.138 -6.67806 -1.8441 0
M  V30 2414 N 249.931 -5.36923 -1.66342 0
M  V30 2415 H 242.082 -2.08555 0.402328 0
M  V30 2416 H 244.345 -0.940654 0.117789 0
M  V30 2417 H 244.051 -3.51353 -0.156204 0
M  V30 2418 H 243.925 -3.26508 -1.88871 0
M  V30 2419 H 246.312 -2.27326 -1.88167 0
M  V30 2420 H 246.393 -2.55435 -0.136605 0
M  V30 2421 H 246.037 -5.04972 -0.544581 0
M  V30 2422 H 245.967 -4.73848 -2.2973 0
M  V30 2423 H 248.458 -3.55705 -1.27601 0
M  V30 2424 H 248.771 -7.46141 -2.01231 0
M  V30 2425 H 247.116 -6.70843 -1.81644 0
M  V30 2426 H 250.307 -4.43381 -1.50102 0
M  V30 2427 H 250.48 -6.21416 -1.837 0
M  V30 2428 N 243.887 0.651787 -1.4349 0
M  V30 2429 C 245.117 1.43728 -1.48411 0
M  V30 2430 C 245.525 1.8893 -0.10103 0
M  V30 2431 O 244.868 1.60182 0.899307 0
M  V30 2432 C 244.93 2.70411 -2.36893 0
M  V30 2433 C 244.594 2.4714 -3.8441 0
M  V30 2434 C 245.591 2.10271 -4.75481 0
M  V30 2435 C 243.276 2.6142 -4.28912 0
M  V30 2436 C 245.27 1.87982 -6.0905 0
M  V30 2437 C 242.957 2.38746 -5.62533 0
M  V30 2438 C 243.955 2.02083 -6.5242 0
M  V30 2439 O 243.643 1.79647 -7.8357 0
M  V30 2440 H 243.375 0.447962 -0.506267 0
M  V30 2441 H 245.929 0.80624 -1.88915 0
M  V30 2442 H 244.159 3.36079 -1.91278 0
M  V30 2443 H 245.848 3.32364 -2.33 0
M  V30 2444 H 246.614 1.98814 -4.42378 0
M  V30 2445 H 242.493 2.88931 -3.59222 0
M  V30 2446 H 246.037 1.5929 -6.7917 0
M  V30 2447 H 241.934 2.49806 -5.95203 0
M  V30 2448 H 242.702 1.9406 -7.95162 0
M  V30 2449 N 245.365 1.30045 0.890287 0
M  V30 2450 C 246.328 1.15963 1.977 0
M  V30 2451 C 247.328 0.0923777 1.60534 0
M  V30 2452 O 248.518 0.340071 1.70848 0
M  V30 2453 C 245.65 0.775451 3.31963 0
M  V30 2454 H 246.843 2.12502 2.11619 0
M  V30 2455 H 244.396 1.13366 1.07601 0
M  V30 2456 H 245.131 -0.189671 3.23745 0
M  V30 2457 H 244.916 1.54668 3.60306 0
M  V30 2458 H 246.406 0.700251 4.11687 0
M  V30 2459 N 246.843 -1.10192 1.12674 0
M  V30 2460 C 248.259 -1.34235 0.863317 0
M  V30 2461 C 248.459 -1.95062 -0.505277 0
M  V30 2462 O 247.515 -2.19192 -1.25345 0
M  V30 2463 C 248.828 -2.2616 1.98172 0
M  V30 2464 C 250.376 -2.3969 2.0129 0
M  V30 2465 C 250.851 -3.34946 3.1237 0
M  V30 2466 N 252.342 -3.42515 3.11829 0
M  V30 2467 C 253.077 -4.16199 3.94419 0
M  V30 2468 N 252.573 -4.92747 4.87004 0
M  V30 2469 N 254.366 -4.11843 3.82547 0
M  V30 2470 H 246.517 -0.690798 2.00853 0
M  V30 2471 H 248.78 -0.366774 0.874174 0
M  V30 2472 H 248.486 -1.8868 2.96804 0
M  V30 2473 H 248.36 -3.26488 1.88906 0
M  V30 2474 H 250.747 -2.76438 1.03276 0
M  V30 2475 H 250.828 -1.39169 2.14629 0
M  V30 2476 H 250.472 -2.98923 4.10619 0
M  V30 2477 H 250.402 -4.35353 2.96269 0
M  V30 2478 H 252.893 -2.87926 2.44759 0
M  V30 2479 H 253.206 -5.46376 5.46528 0
M  V30 2480 H 251.551 -4.91862 4.91016 0
M  V30 2481 H 254.742 -3.51136 3.0955 0
M  V30 2482 H 254.915 -4.69007 4.47142 0
M  V30 2483 N 248.321 -0.919034 -1.28029 0
M  V30 2484 C 249.269 -0.401753 -2.29104 0
M  V30 2485 C 250.263 0.509354 -1.61561 0
M  V30 2486 O 251.469 0.390014 -1.75724 0
M  V30 2487 H 247.844 -0.111331 -0.743713 0
M  V30 2488 H 249.815 -1.2672 -2.70156 0
M  V30 2489 C 248.564 0.338148 -3.46052 0
M  V30 2490 H 247.887 -0.353732 -3.98232 0
M  V30 2491 H 249.327 0.664653 -4.18758 0
M  V30 2492 C 247.786 1.54798 -2.99231 0
M  V30 2493 O 248.316 2.64696 -3.02157 0
M  V30 2494 N 246.522 1.3968 -2.54829 0
M  V30 2495 H 246.069 0.502698 -2.52647 0
M  V30 2496 H 246.027 2.20755 -2.23863 0
M  V30 2497 N 249.799 1.42003 -0.683588 0
M  V30 2498 C 250.762 2.29191 -0.0198243 0
M  V30 2499 C 251.762 1.43773 0.72013 0
M  V30 2500 O 252.952 1.65061 0.556815 0
M  V30 2501 C 250.084 3.26435 0.982487 0
M  V30 2502 H 251.277 2.8938 -0.787345 0
M  V30 2503 H 248.83 1.49789 -0.446418 0
M  V30 2504 H 249.565 2.71203 1.77819 0
M  V30 2505 H 249.35 3.89449 0.455182 0
M  V30 2506 H 250.84 3.918 1.44508 0
M  V30 2507 N 251.277 0.427512 1.51691 0
M  V30 2508 C 252.224 -0.388867 2.275 0
M  V30 2509 C 253.194 -1.02532 1.30677 0
M  V30 2510 O 254.379 -1.0461 1.59566 0
M  V30 2511 C 251.519 -1.48954 3.11298 0
M  V30 2512 C 250.632 -0.872194 4.23104 0
M  V30 2513 C 249.767 -1.94709 4.94228 0
M  V30 2514 C 248.806 -1.30766 5.97969 0
M  V30 2515 N 247.943 -2.32349 6.62539 0
M  V30 2516 H 252.783 0.263997 2.96828 0
M  V30 2517 H 250.32 0.142033 1.46413 0
M  V30 2518 H 252.278 -2.13887 3.58201 0
M  V30 2519 H 250.908 -2.11217 2.44105 0
M  V30 2520 H 249.96 -0.111419 3.80237 0
M  V30 2521 H 251.272 -0.365264 4.97461 0
M  V30 2522 H 250.426 -2.67327 5.44629 0
M  V30 2523 H 249.165 -2.48773 4.1948 0
M  V30 2524 H 248.17 -0.566902 5.4687 0
M  V30 2525 H 249.395 -0.774483 6.74669 0
M  V30 2526 H 247.341 -2.85511 5.90609 0
M  V30 2527 H 247.258 -1.8652 7.3263 0
M  V30 2528 H 248.526 -3.04481 7.17574 0
M  V30 2529 N 252.755 -1.56801 0.158532 0
M  V30 2530 C 254.171 -1.5837 -0.197774 0
M  V30 2531 C 254.371 -1.17334 -1.63814 0
M  V30 2532 O 253.427 -0.878988 -2.36707 0
M  V30 2533 C 254.74 -3.00615 0.0714459 0
M  V30 2534 C 256.288 -3.12999 0.00864533 0
M  V30 2535 C 256.763 -4.57313 0.250685 0
M  V30 2536 N 258.254 -4.62777 0.198014 0
M  V30 2537 C 258.989 -5.72271 0.359642 0
M  V30 2538 N 258.485 -6.90371 0.579625 0
M  V30 2539 N 260.278 -5.61318 0.296438 0
M  V30 2540 H 252.429 -1.81765 1.09887 0
M  V30 2541 H 254.692 -0.841849 0.435884 0
M  V30 2542 H 254.398 -3.35068 1.06874 0
M  V30 2543 H 254.272 -3.71683 -0.642757 0
M  V30 2544 H 256.659 -2.7838 -0.979217 0
M  V30 2545 H 256.74 -2.44393 0.755359 0
M  V30 2546 H 256.384 -4.92639 1.2357 0
M  V30 2547 H 256.314 -5.24061 -0.516489 0
M  V30 2548 H 258.805 -3.77885 0.0331115 0
M  V30 2549 H 259.118 -7.69689 0.69275 0
M  V30 2550 H 257.463 -6.92264 0.616087 0
M  V30 2551 H 260.654 -4.67932 0.125258 0
M  V30 2552 H 260.827 -6.46599 0.425831 0
M  V30 2553 N 254.233 0.115231 -1.57178 0
M  V30 2554 C 255.196 1.12526 -1.99676 0
M  V30 2555 C 256.196 1.34095 -0.88742 0
M  V30 2556 O 257.386 1.30548 -1.15337 0
M  V30 2557 C 254.518 2.4789 -2.34015 0
M  V30 2558 H 255.711 0.759912 -2.90113 0
M  V30 2559 H 253.264 0.359648 -1.52106 0
M  V30 2560 H 253.999 2.89339 -1.4647 0
M  V30 2561 H 253.784 2.33588 -3.14927 0
M  V30 2562 H 255.274 3.20575 -2.67622 0
M  V30 2563 N 255.711 1.52812 0.385517 0
M  V30 2564 C 256.957 1.68275 1.13188 0
M  V30 2565 C 257.29 0.423179 1.89533 0
M  V30 2566 O 256.565 -0.579113 1.85679 0
M  V30 2567 C 256.848 2.92001 2.1073 0
M  V30 2568 C 256.701 4.28067 1.38125 0
M  V30 2569 C 258.02 3.11283 3.11113 0
M  V30 2570 H 255.139 0.612352 0.410115 0
M  V30 2571 H 257.781 1.85415 0.414869 0
M  V30 2572 H 255.931 2.77519 2.71874 0
M  V30 2573 H 257.603 4.54324 0.799187 0
M  V30 2574 H 255.846 4.28388 0.683092 0
M  V30 2575 H 256.517 5.10733 2.09417 0
M  V30 2576 H 258.993 3.2482 2.6006 0
M  V30 2577 H 257.869 3.99325 3.76605 0
M  V30 2578 H 258.13 2.25656 3.80173 0
M  V30 2579 N 257.189 -0.644168 1.43834 0
M  V30 2580 C 258.136 -1.75671 1.49694 0
M  V30 2581 C 259.106 -1.6246 0.345809 0
M  V30 2582 O 260.291 -1.82573 0.554234 0
M  V30 2583 C 257.431 -3.13867 1.43463 0
M  V30 2584 C 256.544 -3.38147 2.6885 0
M  V30 2585 C 255.679 -4.66241 2.54544 0
M  V30 2586 C 254.718 -4.83657 3.75157 0
M  V30 2587 N 253.855 -6.03016 3.59605 0
M  V30 2588 H 258.695 -1.69998 2.44754 0
M  V30 2589 H 256.232 -0.829458 1.21484 0
M  V30 2590 H 258.19 -3.9377 1.37843 0
M  V30 2591 H 256.82 -3.18588 0.519783 0
M  V30 2592 H 255.872 -2.52276 2.84712 0
M  V30 2593 H 257.184 -3.46899 3.58417 0
M  V30 2594 H 256.338 -5.54285 2.46683 0
M  V30 2595 H 255.077 -4.59826 1.62516 0
M  V30 2596 H 254.082 -3.94046 3.83416 0
M  V30 2597 H 255.307 -4.91896 4.68204 0
M  V30 2598 H 253.253 -5.97715 2.7032 0
M  V30 2599 H 253.17 -6.12766 4.42779 0
M  V30 2600 H 254.438 -6.93657 3.55613 0
M  V30 2601 N 258.668 -1.30515 -0.883378 0
M  V30 2602 C 259.893 -1.22487 -1.67367 0
M  V30 2603 C 260.318 0.208767 -1.86938 0
M  V30 2604 O 259.676 1.15015 -1.40148 0
M  V30 2605 C 259.724 -1.96041 -3.02655 0
M  V30 2606 O 258.828 -1.28859 -3.91751 0
M  V30 2607 H 258.169 -0.423573 -0.511353 0
M  V30 2608 H 260.699 -1.72362 -1.10239 0
M  V30 2609 H 260.709 -2.05124 -3.52687 0
M  V30 2610 H 259.384 -3.00307 -2.8773 0
M  V30 2611 H 257.961 -1.28141 -3.50192 0
M  V30 2612 N 260.146 1.09593 -1.13257 0
M  V30 2613 C 261.096 2.14345 -0.777179 0
M  V30 2614 C 262.08 1.59277 0.227966 0
M  V30 2615 O 263.272 1.76971 0.0321413 0
M  V30 2616 C 260.401 3.42439 -0.242991 0
M  V30 2617 C 259.487 4.04419 -1.27694 0
M  V30 2618 N 259.878 4.40979 -2.47732 0
M  V30 2619 C 258.176 4.31596 -1.12432 0
M  V30 2620 C 258.877 4.89784 -3.13826 0
M  V30 2621 N 257.853 4.87133 -2.41252 0
M  V30 2622 H 261.655 2.40415 -1.69049 0
M  V30 2623 H 259.169 1.26803 -1.01463 0
M  V30 2624 H 261.166 4.16889 0.0298496 0
M  V30 2625 H 259.826 3.17824 0.66467 0
M  V30 2626 H 260.837 4.32396 -2.85051 0
M  V30 2627 H 257.514 4.16595 -0.274684 0
M  V30 2628 H 258.904 5.2755 -4.16102 0
M  V30 2629 N 261.624 0.925811 1.2754 0
M  V30 2630 C 262.872 0.564138 1.94067 0
M  V30 2631 C 263.193 -0.897188 1.73134 0
M  V30 2632 O 262.463 -1.63573 1.07799 0
M  V30 2633 H 261.043 0.205645 0.718136 0
M  V30 2634 H 263.705 1.1778 1.55287 0
M  V30 2635 H 262.801 0.76881 3.02483 0
M  V30 2636 N 263.102 -1.41638 0.69111 0
M  V30 2637 C 264.348 -2.02104 0.229258 0
M  V30 2638 C 264.703 -1.53741 -1.15678 0
M  V30 2639 O 263.996 -0.736849 -1.76865 0
M  V30 2640 C 264.19 -3.56714 0.221277 0
M  V30 2641 C 264.019 -4.20083 1.605 0
M  V30 2642 C 262.789 -4.54566 2.20676 0
M  V30 2643 C 264.987 -4.46587 2.55078 0
M  V30 2644 N 262.969 -5.03199 3.5166 0
M  V30 2645 C 264.34 -4.96946 3.70735 0
M  V30 2646 C 266.395 -4.28593 2.53401 0
M  V30 2647 C 265.098 -5.31203 4.8499 0
M  V30 2648 C 267.124 -4.63936 3.66765 0
M  V30 2649 C 266.486 -5.14463 4.81152 0
M  V30 2650 H 262.585 -0.771256 0.12918 0
M  V30 2651 H 265.169 -1.72251 0.907626 0
M  V30 2652 H 263.34 -3.86051 -0.426562 0
M  V30 2653 H 265.072 -4.03896 -0.254983 0
M  V30 2654 H 261.827 -4.4087 1.73005 0
M  V30 2655 H 262.251 -5.31926 4.18789 0
M  V30 2656 H 266.893 -3.88771 1.66184 0
M  V30 2657 H 264.611 -5.69951 5.72871 0
M  V30 2658 H 268.197 -4.51677 3.66714 0
M  V30 2659 H 267.077 -5.41299 5.67419 0
M  V30 2660 N 264.58 -0.43555 -1.51462 0
M  V30 2661 C 265.828 0.131254 -2.01673 0
M  V30 2662 C 266.149 1.43368 -1.32177 0
M  V30 2663 O 265.419 1.90524 -0.455769 0
M  V30 2664 H 263.999 0.0514954 -0.745223 0
M  V30 2665 H 266.661 -0.577847 -1.86137 0
M  V30 2666 H 265.757 0.308446 -3.10572 0
M  V30 2667 N 266.058 1.56714 -0.166846 0
M  V30 2668 C 267.304 1.97039 0.479962 0
M  V30 2669 C 267.637 1.05264 1.63197 0
M  V30 2670 O 266.912 0.0988833 1.94248 0
M  V30 2671 C 267.195 3.46867 0.967212 0
M  V30 2672 C 267.048 4.49421 -0.18466 0
M  V30 2673 C 268.367 3.9968 1.84238 0
M  V30 2674 H 265.486 0.71641 0.172992 0
M  V30 2675 H 268.128 1.8832 -0.252079 0
M  V30 2676 H 266.278 3.54428 1.59101 0
M  V30 2677 H 267.95 4.53924 -0.821621 0
M  V30 2678 H 266.193 4.25573 -0.840837 0
M  V30 2679 H 266.864 5.51644 0.198317 0
M  V30 2680 H 269.34 3.94723 1.31655 0
M  V30 2681 H 268.216 5.04941 2.15234 0
M  V30 2682 H 268.477 3.43226 2.78654 0
M  V30 2683 N 267.536 -0.106894 1.57237 0
M  V30 2684 C 268.947 -0.662723 1.74542 0
M  V30 2685 C 269.298 -1.7971 0.787319 0
M  V30 2686 O 268.423 -2.16368 -0.0369636 0
M  V30 2687 C 269.018 -1.20896 3.16496 0
M  V30 2688 C 267.577 -1.71096 3.35266 0
M  V30 2689 C 266.724 -0.615642 2.7038 0
M  V30 2690 H 269.675 0.119106 1.58252 0
M  V30 2691 H 269.696 -2.07847 3.18716 0
M  V30 2692 H 269.208 -0.383122 3.86204 0
M  V30 2693 H 267.309 -2.56119 2.70618 0
M  V30 2694 H 267.422 -1.81208 4.43509 0
M  V30 2695 H 265.786 -1.05222 2.31949 0
M  V30 2696 H 266.569 0.199419 3.4272 0
M  V30 2697 N 269.014 -1.53014 -0.377408 0
M  V30 2698 C 270.262 -1.6829 -1.11906 0
M  V30 2699 C 270.583 -0.431206 -1.90173 0
M  V30 2700 O 269.853 0.554595 -1.87886 0
M  V30 2701 H 268.433 -0.620371 -0.416112 0
M  V30 2702 H 271.095 -1.90167 -0.426893 0
M  V30 2703 H 270.191 -2.53862 -1.8155 0
M  V30 2704 N 270.492 0.636531 -1.44174 0
M  V30 2705 C 271.422 1.76003 -1.53444 0
M  V30 2706 C 272.403 1.65619 -0.387841 0
M  V30 2707 O 273.588 1.84461 -0.607257 0
M  V30 2708 C 270.718 3.14511 -1.4731 0
M  V30 2709 C 269.672 3.39677 -2.60391 0
M  V30 2710 C 268.998 4.78159 -2.39308 0
M  V30 2711 C 270.298 3.32772 -4.02567 0
M  V30 2712 H 271.992 1.68501 -2.47483 0
M  V30 2713 H 269.538 0.809237 -1.19111 0
M  V30 2714 H 271.491 3.92878 -1.52397 0
M  V30 2715 H 270.215 3.22783 -0.49785 0
M  V30 2716 H 268.874 2.63688 -2.54684 0
M  V30 2717 H 268.522 4.83128 -1.39988 0
M  V30 2718 H 268.222 4.95956 -3.15122 0
M  V30 2719 H 269.746 5.58762 -2.46205 0
M  V30 2720 H 271.16 4.01051 -4.09672 0
M  V30 2721 H 269.557 3.62104 -4.7854 0
M  V30 2722 H 270.627 2.30669 -4.2652 0
M  V30 2723 N 271.97 1.30982 0.876444 0
M  V30 2724 C 273.195 1.23373 1.66715 0
M  V30 2725 C 273.62 -0.19885 1.87046 0
M  V30 2726 O 272.978 -1.1427 1.40756 0
M  V30 2727 C 273.026 1.97644 3.01611 0
M  V30 2728 O 272.13 1.30935 3.91062 0
M  V30 2729 H 271.471 0.426279 0.509099 0
M  V30 2730 H 274.001 1.72944 1.09323 0
M  V30 2731 H 274.011 2.06992 3.51594 0
M  V30 2732 H 272.686 3.01829 2.86133 0
M  V30 2733 H 271.263 1.29996 3.49507 0
M  V30 2734 N 273.449 -1.08991 1.13837 0
M  V30 2735 C 274.695 -1.81699 0.91417 0
M  V30 2736 C 275.05 -1.84264 -0.553594 0
M  V30 2737 O 274.343 -1.30313 -1.4046 0
M  V30 2738 C 274.537 -3.27042 1.44147 0
M  V30 2739 C 274.366 -3.38637 2.95897 0
M  V30 2740 C 273.136 -3.50177 3.64286 0
M  V30 2741 C 275.334 -3.30791 3.93804 0
M  V30 2742 N 273.316 -3.50501 5.04006 0
M  V30 2743 C 274.687 -3.38037 5.19741 0
M  V30 2744 C 276.742 -3.14488 3.86007 0
M  V30 2745 C 275.445 -3.30659 6.38793 0
M  V30 2746 C 277.471 -3.08438 5.04599 0
M  V30 2747 C 276.833 -3.1628 6.29402 0
M  V30 2748 H 272.932 -0.678967 0.387979 0
M  V30 2749 H 275.516 -1.30224 1.4474 0
M  V30 2750 H 273.687 -3.76976 0.935091 0
M  V30 2751 H 275.419 -3.87785 1.1578 0
M  V30 2752 H 272.174 -3.53815 3.1482 0
M  V30 2753 H 272.598 -3.54236 5.76928 0
M  V30 2754 H 277.24 -3.07291 2.90399 0
M  V30 2755 H 274.958 -3.36618 7.34652 0
M  V30 2756 H 278.544 -2.96952 5.0031 0
M  V30 2757 H 277.424 -3.1162 7.19627 0
M  V30 2758 N 274.927 -0.932562 -1.27047 0
M  V30 2759 C 275.857 -0.452902 -2.29066 0
M  V30 2760 C 276.838 0.489338 -1.62909 0
M  V30 2761 O 278.023 0.393046 -1.90181 0
M  V30 2762 C 275.153 0.290698 -3.46081 0
M  V30 2763 C 274.107 -0.564168 -4.24265 0
M  V30 2764 C 273.433 0.308886 -5.33807 0
M  V30 2765 C 274.733 -1.83112 -4.89149 0
M  V30 2766 H 276.427 -1.30552 -2.69437 0
M  V30 2767 H 273.973 -0.629201 -1.29526 0
M  V30 2768 H 275.926 0.637233 -4.16554 0
M  V30 2769 H 274.65 1.17738 -3.0464 0
M  V30 2770 H 273.309 -0.893477 -3.55545 0
M  V30 2771 H 272.957 1.19467 -4.88607 0
M  V30 2772 H 272.657 -0.259633 -5.87026 0
M  V30 2773 H 274.181 0.650884 -6.07121 0
M  V30 2774 H 275.595 -1.55236 -5.51883 0
M  V30 2775 H 273.992 -2.34353 -5.52448 0
M  V30 2776 H 275.062 -2.54772 -4.12576 0
M  V30 2777 N 276.405 1.4127 -0.698611 0
M  V30 2778 C 277.816 1.84187 -0.305289 0
M  V30 2779 C 278.167 1.58449 1.15708 0
M  V30 2780 O 277.292 1.05651 1.88856 0
M  V30 2781 C 277.887 3.3435 -0.547314 0
M  V30 2782 C 276.446 3.75826 -0.207878 0
M  V30 2783 C 275.593 2.64647 -0.828099 0
M  V30 2784 H 278.544 1.30778 -0.89904 0
M  V30 2785 H 278.565 3.8001 0.192998 0
M  V30 2786 H 278.077 3.53051 -1.61172 0
M  V30 2787 H 276.178 3.62725 0.852143 0
M  V30 2788 H 276.291 4.74462 -0.665021 0
M  V30 2789 H 274.655 2.53395 -0.257458 0
M  V30 2790 H 275.438 2.86165 -1.89643 0
M  V30 2791 N 277.883 0.443576 1.51229 0
M  V30 2792 C 279.131 -0.120557 2.0174 0
M  V30 2793 C 279.452 -1.42665 1.32935 0
M  V30 2794 O 278.722 -1.9028 0.465866 0
M  V30 2795 H 277.302 -0.0475426 0.745486 0
M  V30 2796 H 279.964 0.587711 1.85828 0
M  V30 2797 H 279.06 -0.291972 3.10731 0
M  V30 2798 N 279.361 -1.56624 0.175154 0
M  V30 2799 C 280.271 -2.21741 -0.766042 0
M  V30 2800 C 281.287 -1.21023 -1.25018 0
M  V30 2801 O 282.463 -1.53697 -1.3015 0
M  V30 2802 C 279.528 -2.84839 -1.97655 0
M  V30 2803 C 278.589 -4.00769 -1.53892 0
M  V30 2804 C 277.822 -4.60849 -2.69173 0
M  V30 2805 O 278.045 -4.19823 -3.86141 0
M  V30 2806 O 276.979 -5.50655 -2.43028 0
M  V30 2807 H 280.805 -3.02738 -0.241585 0
M  V30 2808 H 278.39 -1.49305 -0.053222 0
M  V30 2809 H 280.272 -3.24834 -2.68442 0
M  V30 2810 H 278.947 -2.06836 -2.48999 0
M  V30 2811 H 277.854 -3.65436 -0.80044 0
M  V30 2812 H 279.187 -4.80376 -1.07236 0
M  V30 2813 N 280.839 0.0985539 -1.57292 0
M  V30 2814 C 282.116 0.834155 -1.76921 0
M  V30 2815 C 282.496 1.97101 -0.755928 0
M  V30 2816 O 281.844 2.27474 0.216245 0
M  V30 2817 C 282.054 1.33194 -3.22584 0
M  V30 2818 C 283.402 1.77611 -3.85668 0
M  V30 2819 O 284.426 1.42825 -3.26312 0
M  V30 2820 O 283.285 2.4192 -4.90038 0
M  V30 2821 H 280.379 0.397628 -0.725135 0
M  V30 2822 H 282.925 0.0807044 -1.69508 0
M  V30 2823 H 281.697 0.517248 -3.87866 0
M  V30 2824 H 281.32 2.1475 -3.34616 0
M  V30 2825 N 282.317 1.53212 0.369288 0
M  V30 2826 C 283.728 1.60943 0.946276 0
M  V30 2827 C 284.079 0.47452 1.90375 0
M  V30 2828 O 283.204 -0.399597 2.12679 0
M  V30 2829 C 283.799 2.91715 1.72302 0
M  V30 2830 C 282.358 3.01792 2.24941 0
M  V30 2831 C 281.505 2.56211 1.06072 0
M  V30 2832 H 284.456 1.58007 0.148198 0
M  V30 2833 H 284.477 2.79309 2.58393 0
M  V30 2834 H 283.989 3.74295 1.0259 0
M  V30 2835 H 282.09 2.23791 2.97906 0
M  V30 2836 H 282.203 4.06803 2.53077 0
M  V30 2837 H 280.567 2.10998 1.4266 0
M  V30 2838 H 281.35 3.41206 0.378639 0
M  V30 2839 N 283.795 -0.628877 1.44509 0
M  V30 2840 C 285.072 -1.38733 1.37886 0
M  V30 2841 C 285.452 -2.11065 0.0387008 0
M  V30 2842 O 284.8 -2.06476 -0.97878 0
M  V30 2843 C 285.01 -2.35188 2.57852 0
M  V30 2844 C 286.358 -2.9845 3.02014 0
M  V30 2845 O 287.382 -2.45513 2.58073 0
M  V30 2846 O 286.241 -3.94487 3.78209 0
M  V30 2847 H 283.335 -0.621015 0.54614 0
M  V30 2848 H 285.881 -0.653744 1.56602 0
M  V30 2849 H 284.653 -1.80855 3.46998 0
M  V30 2850 H 284.276 -3.1596 2.4136 0
M  V30 2851 N 285.273 -1.31445 -0.869486 0
M  V30 2852 C 286.684 -1.19042 -1.43826 0
M  V30 2853 C 287.035 0.202919 -1.95148 0
M  V30 2854 O 286.16 1.10071 -1.86315 0
M  V30 2855 C 286.755 -2.15499 -2.6143 0
M  V30 2856 C 285.314 -2.07028 -3.14351 0
M  V30 2857 C 284.461 -2.04701 -1.87063 0
M  V30 2858 H 287.412 -1.43489 -0.677984 0
M  V30 2859 H 287.433 -1.74488 -3.38134 0
M  V30 2860 H 286.945 -3.16899 -2.24046 0
M  V30 2861 H 285.046 -1.08825 -3.56354 0
M  V30 2862 H 285.159 -2.96157 -3.766 0
M  V30 2863 H 283.523 -1.49724 -2.06046 0
M  V30 2864 H 284.306 -3.07857 -1.51917 0
M  V30 2865 N 286.751 1.08385 -1.14413 0
M  V30 2866 C 287.998 1.80776 -0.912482 0
M  V30 2867 C 288.326 1.86236 0.560934 0
M  V30 2868 O 287.581 1.33431 1.43159 0
M  V30 2869 C 287.88 3.26273 -1.45879 0
M  V30 2870 C 287.546 3.4093 -2.95089 0
M  V30 2871 C 286.208 3.44638 -3.35824 0
M  V30 2872 C 288.56 3.44591 -3.91033 0
M  V30 2873 C 285.888 3.49597 -4.71167 0
M  V30 2874 C 288.24 3.51086 -5.26233 0
M  V30 2875 C 286.904 3.53067 -5.6648 0
M  V30 2876 H 286.174 0.661507 -0.333901 0
M  V30 2877 H 288.821 1.27613 -1.42784 0
M  V30 2878 H 287.126 3.82146 -0.864376 0
M  V30 2879 H 288.823 3.80839 -1.2555 0
M  V30 2880 H 285.413 3.38736 -2.62594 0
M  V30 2881 H 289.597 3.40957 -3.60641 0
M  V30 2882 H 284.853 3.49424 -5.0171 0
M  V30 2883 H 289.027 3.52864 -6.00383 0
M  V30 2884 H 286.654 3.56662 -6.71339 0
M  V30 2885 N 288.23 0.939286 1.26551 0
M  V30 2886 C 289.478 0.58469 1.93457 0
M  V30 2887 C 289.799 -0.878774 1.74076 0
M  V30 2888 O 289.069 -1.62421 1.09528 0
M  V30 2889 H 287.649 0.21325 0.715914 0
M  V30 2890 H 290.311 1.1942 1.54029 0
M  V30 2891 H 289.407 0.800849 3.0165 0
M  V30 2892 N 289.708 -1.40897 0.706093 0
M  V30 2893 C 290.658 -2.27987 0.0240746 0
M  V30 2894 C 291.642 -1.42759 -0.742204 0
M  V30 2895 O 292.834 -1.65936 -0.615966 0
M  V30 2896 C 289.963 -3.31186 -0.903907 0
M  V30 2897 C 289.049 -4.2389 -0.133318 0
M  V30 2898 N 289.44 -4.98113 0.878444 0
M  V30 2899 C 287.738 -4.44485 -0.367269 0
M  V30 2900 C 288.439 -5.6604 1.34064 0
M  V30 2901 N 287.415 -5.39522 0.664565 0
M  V30 2902 H 291.217 -2.82812 0.799658 0
M  V30 2903 H 288.731 -1.53235 0.537845 0
M  V30 2904 H 290.728 -3.92413 -1.40775 0
M  V30 2905 H 289.388 -2.77922 -1.67897 0
M  V30 2906 H 290.399 -5.02364 1.25901 0
M  V30 2907 H 287.076 -4.02213 -1.1194 0
M  V30 2908 H 288.466 -6.35524 2.1808 0
M  V30 2909 O 291.225 -0.593567 -1.50197 0
M  V30 2910 H 291.916 -0.101366 -1.93435 0
M  V30 END ATOM
M  V30 BEGIN BOND
M  V30 END BOND
M  V30 END CTAB
M  END
$$$$
