drugbank_target|P9WI73 Serine/threonine-protein kinase PknG (DB07398)
 OpenBabel12092120423D

  0  0  0     0  0            999 V3000
M  V30 BEGIN CTAB
M  V30 COUNTS 11472 11596 0 0 0
M  V30 BEGIN ATOM
M  V30 1 H -0.908 1.98254 -0.117106 0
M  V30 2 N 0 1.576 0 0
M  V30 3 C 0.933 2.03868 1.02534 0
M  V30 4 C 1.911 0.928543 1.3348 0
M  V30 5 O 3.095 1.19667 1.45644 0
M  V30 6 C 0.222 2.43627 2.35294 0
M  V30 7 C -0.732 3.65373 2.2001 0
M  V30 8 S 0.101 5.13292 1.52614 0
M  V30 9 C 1.257 5.56322 2.86805 0
M  V30 10 H 1.49 2.90518 0.631377 0
M  V30 11 H -0.977 1.52953 0.210867 0
M  V30 12 H 0.981 2.67203 3.11629 0
M  V30 13 H -0.358 1.57376 2.7183 0
M  V30 14 H -1.165 3.90944 3.18086 0
M  V30 15 H -1.563 3.418 1.51819 0
M  V30 16 H 0.729 5.58782 3.83104 0
M  V30 17 H 1.672 6.56266 2.65933 0
M  V30 18 H 2.08 4.83886 2.90714 0
M  V30 19 N 1.4781 -0.272755 1.55222 0
M  V30 20 C 2.4411 -1.32041 1.87344 0
M  V30 21 C 3.4411 -1.42342 0.74803 0
M  V30 22 O 4.6311 -1.41488 1.0162 0
M  V30 23 C 1.7631 -2.70173 2.07893 0
M  V30 24 H 2.9561 -1.04789 2.80997 0
M  V30 25 H 0.5091 -0.51083 1.47717 0
M  V30 26 H 1.2441 -3.02605 1.16622 0
M  V30 27 H 1.0291 -2.64082 2.89833 0
M  V30 28 H 2.5191 -3.45869 2.34017 0
M  V30 29 N 2.9562 -1.48159 -0.537278 0
M  V30 30 C 3.9032 -1.62138 -1.64256 0
M  V30 31 C 4.8732 -0.463668 -1.59497 0
M  V30 32 O 6.0582 -0.686241 -1.78032 0
M  V30 33 C 3.1982 -1.66028 -3.02537 0
M  V30 34 C 2.3112 -2.92855 -3.17585 0
M  V30 35 C 1.4462 -2.87952 -4.46382 0
M  V30 36 C 0.4852 -4.09516 -4.54932 0
M  V30 37 N -0.3778 -4.02733 -5.75109 0
M  V30 38 H 4.4622 -2.56529 -1.51647 0
M  V30 39 H 1.9992 -1.27224 -0.738414 0
M  V30 40 H 3.9572 -1.66265 -3.82638 0
M  V30 41 H 2.5872 -0.751331 -3.13934 0
M  V30 42 H 1.6392 -3.02395 -2.30784 0
M  V30 43 H 2.9512 -3.82822 -3.19764 0
M  V30 44 H 2.1052 -2.8655 -5.34765 0
M  V30 45 H 0.8442 -1.95702 -4.46712 0
M  V30 46 H -0.1508 -4.11201 -3.64957 0
M  V30 47 H 1.0742 -5.02917 -4.56346 0
M  V30 48 H -0.9798 -3.13299 -5.76351 0
M  V30 49 H -1.0628 -4.86397 -5.78752 0
M  V30 50 H 0.2052 -4.05379 -6.65799 0
M  V30 51 N 4.4343 0.785586 -1.36625 0
M  V30 52 C 5.3973 1.87999 -1.31107 0
M  V30 53 C 6.3973 1.59316 -0.217959 0
M  V30 54 O 7.5873 1.67656 -0.472977 0
M  V30 55 C 4.7193 3.24861 -1.03334 0
M  V30 56 H 5.9123 1.94307 -2.2844 0
M  V30 57 H 3.4653 0.983813 -1.21453 0
M  V30 58 H 4.2003 3.24235 -0.0647432 0
M  V30 59 H 3.9853 3.4707 -1.82441 0
M  V30 60 H 5.4753 4.04929 -1.02088 0
M  V30 61 N 5.9124 1.20967 1.01018 0
M  V30 62 C 7.1374 1.0503 1.78839 0
M  V30 63 C 7.5624 -0.395752 1.8389 0
M  V30 64 O 6.9204 -1.28529 1.27867 0
M  V30 65 C 6.9684 1.64602 3.2084 0
M  V30 66 O 6.0724 0.887988 4.02726 0
M  V30 67 H 5.4134 0.369987 0.551367 0
M  V30 68 H 7.9434 1.60399 1.27018 0
M  V30 69 H 7.9534 1.68607 3.71532 0
M  V30 70 H 6.6284 2.69841 3.16479 0
M  V30 71 H 5.2054 0.922648 3.61305 0
M  V30 72 N 7.3905 -1.2043 1.01659 0
M  V30 73 C 8.3005 -2.2689 0.596484 0
M  V30 74 C 9.3165 -1.70107 -0.36599 0
M  V30 75 O 10.4925 -2.00117 -0.226942 0
M  V30 76 C 7.5575 -3.4665 -0.0586659 0
M  V30 77 C 6.6185 -4.18662 0.949751 0
M  V30 78 C 5.8515 -5.32705 0.32577 0
M  V30 79 O 6.0745 -5.63656 -0.874509 0
M  V30 80 O 5.0085 -5.92803 1.04249 0
M  V30 81 H 8.8345 -2.65041 1.4828 0
M  V30 82 H 6.4195 -1.27048 0.786082 0
M  V30 83 H 8.3015 -4.19256 -0.424564 0
M  V30 84 H 6.9765 -3.10375 -0.91918 0
M  V30 85 H 5.8835 -3.48229 1.36702 0
M  V30 86 H 7.2165 -4.58878 1.78023 0
M  V30 87 N 8.8686 -0.792821 -1.36206 0
M  V30 88 C 10.0966 -0.378825 -2.03402 0
M  V30 89 C 10.5116 1.00586 -1.59774 0
M  V30 90 O 9.8686 1.64574 -0.788764 0
M  V30 91 C 9.9196 -0.43683 -3.58851 0
M  V30 92 O 9.6406 -1.76691 -4.00889 0
M  V30 93 C 11.1416 -0.0138943 -4.43298 0
M  V30 94 H 8.3616 -0.155673 -0.652692 0
M  V30 95 H 10.9056 -1.07261 -1.74113 0
M  V30 96 H 9.0606 0.208575 -3.86838 0
M  V30 97 H 9.4746 -1.72011 -4.95492 0
M  V30 98 H 10.9486 -0.105615 -5.51899 0
M  V30 99 H 11.4256 1.03915 -4.2673 0
M  V30 100 H 12.0316 -0.63192 -4.20579 0
M  V30 101 N 10.3467 1.47872 -0.545128 0
M  V30 102 C 11.2567 2.33633 0.212746 0
M  V30 103 C 12.2727 1.4744 0.923983 0
M  V30 104 O 13.4487 1.80393 0.895572 0
M  V30 105 C 10.5137 3.23884 1.23693 0
M  V30 106 C 9.5747 4.25961 0.534417 0
M  V30 107 C 8.8077 5.11899 1.5098 0
M  V30 108 O 9.0307 5.00077 2.7437 0
M  V30 109 O 7.9647 5.92831 1.0409 0
M  V30 110 H 11.7907 2.99714 -0.490416 0
M  V30 111 H 9.3757 1.46235 -0.305871 0
M  V30 112 H 11.2577 3.79666 1.82843 0
M  V30 113 H 9.9327 2.60446 1.92222 0
M  V30 114 H 8.8397 3.73972 -0.0979679 0
M  V30 115 H 10.1727 4.92079 -0.109213 0
M  V30 116 N 11.8248 0.280983 1.55075 0
M  V30 117 C 13.2408 -0.0729964 1.59433 0
M  V30 118 C 13.4408 -1.5411 1.29817 0
M  V30 119 O 12.4968 -2.29086 1.06187 0
M  V30 120 C 13.8098 0.306921 2.9913 0
M  V30 121 C 15.3578 0.254023 3.11968 0
M  V30 122 C 15.8328 0.608467 4.5394 0
M  V30 123 N 17.3238 0.560241 4.59799 0
M  V30 124 C 18.0588 0.80722 5.6769 0
M  V30 125 N 17.5548 1.11912 6.83701 0
M  V30 126 N 19.3478 0.735623 5.57266 0
M  V30 127 H 11.4988 1.238 1.7259 0
M  V30 128 H 13.7618 0.500547 0.805082 0
M  V30 129 H 13.4678 1.32816 3.25657 0
M  V30 130 H 13.3418 -0.349363 3.75579 0
M  V30 131 H 15.7288 -0.75794 2.852 0
M  V30 132 H 15.8098 0.944649 2.37718 0
M  V30 133 H 15.4538 1.61814 4.81434 0
M  V30 134 H 15.3838 -0.104013 5.26497 0
M  V30 135 H 17.8748 0.329288 3.76463 0
M  V30 136 H 18.1878 1.29409 7.61888 0
M  V30 137 H 16.5328 1.15695 6.85303 0
M  V30 138 H 19.7238 0.491752 4.6551 0
M  V30 139 H 19.8968 0.931482 6.4127 0
M  V30 140 N 13.3029 -1.57598 0.00835791 0
M  V30 141 C 14.5279 -1.95617 -0.689103 0
M  V30 142 C 14.9529 -0.883753 -1.66046 0
M  V30 143 O 14.3109 0.157352 -1.80616 0
M  V30 144 C 14.3589 -3.32736 -1.38994 0
M  V30 145 O 13.4629 -3.27631 -2.50463 0
M  V30 146 H 12.8039 -0.638379 -0.182668 0
M  V30 147 H 15.3339 -2.045 0.064036 0
M  V30 148 H 15.3439 -3.68494 -1.75147 0
M  V30 149 H 14.0189 -4.1034 -0.677778 0
M  V30 150 H 12.5959 -3.03561 -2.16576 0
M  V30 151 N 14.781 0.264519 -1.55364 0
M  V30 152 C 16.029 0.993021 -1.76021 0
M  V30 153 C 16.35 1.86511 -0.569099 0
M  V30 154 O 15.62 1.91438 0.415735 0
M  V30 155 H 14.2 0.369639 -0.649135 0
M  V30 156 H 16.862 0.286707 -1.9278 0
M  V30 157 H 15.958 1.62502 -2.66457 0
M  V30 158 N 16.2591 1.48442 0.529413 0
M  V30 159 C 17.6701 1.5002 1.11134 0
M  V30 160 C 18.0211 0.27031 1.94329 0
M  V30 161 O 17.1461 -0.622507 2.07253 0
M  V30 162 C 17.7411 2.71834 2.02217 0
M  V30 163 C 16.3001 2.76283 2.55627 0
M  V30 164 C 15.4471 2.43542 1.326 0
M  V30 165 H 18.3981 1.5555 0.314641 0
M  V30 166 H 18.4191 2.50384 2.8651 0
M  V30 167 H 17.9311 3.61331 1.41639 0
M  V30 168 H 16.0321 1.90995 3.19924 0
M  V30 169 H 16.1451 3.77725 2.94721 0
M  V30 170 H 14.5091 1.94709 1.64196 0
M  V30 171 H 15.2921 3.3528 0.737734 0
M  V30 172 N 17.7372 -0.778329 1.37039 0
M  V30 173 C 18.9852 -1.53361 1.31623 0
M  V30 174 C 19.3062 -1.94739 -0.100831 0
M  V30 175 O 18.5762 -1.65797 -1.04347 0
M  V30 176 H 17.1562 -0.568794 0.484234 0
M  V30 177 H 19.8182 -0.926742 1.71457 0
M  V30 178 H 18.9142 -2.43606 1.95096 0
M  V30 179 N 19.2153 -1.21501 -1.00376 0
M  V30 180 C 20.4433 -1.059 -1.77744 0
M  V30 181 C 20.8583 0.391125 -1.84704 0
M  V30 182 O 20.2153 1.27133 -1.30933 0
M  V30 183 C 20.2663 -1.65111 -3.21591 0
M  V30 184 O 19.9873 -3.0445 -3.15027 0
M  V30 185 C 21.4883 -1.54637 -4.15454 0
M  V30 186 H 18.7083 -0.371825 -0.558558 0
M  V30 187 H 21.2523 -1.60865 -1.26264 0
M  V30 188 H 19.4073 -1.14235 -3.70175 0
M  V30 189 H 19.8213 -3.3278 -4.0541 0
M  V30 190 H 21.2953 -2.00808 -5.14179 0
M  V30 191 H 21.7723 -0.501022 -4.36333 0
M  V30 192 H 22.3783 -2.04767 -3.72761 0
M  V30 193 N 20.6934 1.19889 -1.02296 0
M  V30 194 C 21.6254 2.22334 -0.556787 0
M  V30 195 C 22.6384 1.58674 0.364199 0
M  V30 196 O 23.8274 1.77768 0.161533 0
M  V30 197 C 20.9274 3.38257 0.208694 0
M  V30 198 C 20.1004 4.31504 -0.71577 0
M  V30 199 C 19.1594 5.262 0.00325597 0
M  V30 200 O 18.1854 5.65798 -0.621357 0
M  V30 201 N 19.3874 5.66303 1.27599 0
M  V30 202 H 22.1524 2.62957 -1.43784 0
M  V30 203 H 19.7134 1.34495 -0.901261 0
M  V30 204 H 21.7054 3.98616 0.699111 0
M  V30 205 H 20.2754 2.96472 0.991102 0
M  V30 206 H 19.4954 3.69016 -1.38638 0
M  V30 207 H 20.7834 4.9072 -1.34428 0
M  V30 208 H 20.1814 5.36155 1.80429 0
M  V30 209 H 18.7384 6.28942 1.71102 0
M  V30 210 N 22.1715 0.800033 1.35784 0
M  V30 211 C 23.5825 0.439142 1.81462 0
M  V30 212 C 23.9335 -1.03813 1.66485 0
M  V30 213 O 23.0585 -1.80626 1.19177 0
M  V30 214 C 23.6535 0.790314 3.29453 0
M  V30 215 C 22.2125 0.482111 3.733 0
M  V30 216 C 21.3595 1.01938 2.57883 0
M  V30 217 H 24.3105 0.992254 1.23855 0
M  V30 218 H 24.3315 0.0853677 3.80404 0
M  V30 219 H 23.8435 1.86554 3.40322 0
M  V30 220 H 21.9445 -0.584652 3.67984 0
M  V30 221 H 22.0575 1.01015 4.6833 0
M  V30 222 H 20.4215 0.442043 2.50835 0
M  V30 223 H 21.2045 2.10059 2.71533 0
M  V30 224 N 23.6496 -1.47581 0.552962 0
M  V30 225 C 24.6126 -2.28439 -0.186605 0
M  V30 226 C 25.6126 -1.36706 -0.84665 0
M  V30 227 O 26.8026 -1.59378 -0.703164 0
M  V30 228 C 23.9346 -3.16264 -1.2724 0
M  V30 229 H 25.1276 -2.95294 0.523609 0
M  V30 230 H 22.6806 -1.532 0.309745 0
M  V30 231 H 23.4156 -2.54091 -2.01514 0
M  V30 232 H 23.2006 -3.83769 -0.803968 0
M  V30 233 H 24.6906 -3.77198 -1.79196 0
M  V30 234 N 25.1277 -0.289203 -1.54924 0
M  V30 235 C 26.4047 0.376032 -1.91951 0
M  V30 236 C 26.7847 1.72622 -1.21511 0
M  V30 237 O 26.1327 2.25853 -0.346767 0
M  V30 238 C 26.3427 0.502378 -3.45365 0
M  V30 239 C 27.6907 0.778741 -4.17398 0
M  V30 240 O 28.7147 0.586647 -3.51336 0
M  V30 241 O 27.5737 1.14698 -5.34328 0
M  V30 242 H 24.6677 0.208167 -0.800372 0
M  V30 243 H 27.2137 -0.336394 -1.66332 0
M  V30 244 H 25.9857 -0.447255 -3.88736 0
M  V30 245 H 25.6087 1.26373 -3.76982 0
M  V30 246 N 26.6058 1.57591 -0.0167156 0
M  V30 247 C 27.5688 2.08393 0.954204 0
M  V30 248 C 28.5688 0.996531 1.26198 0
M  V30 249 O 29.7588 1.25858 1.20438 0
M  V30 250 C 26.8908 2.5394 2.27436 0
M  V30 251 H 28.0838 2.95455 0.514451 0
M  V30 252 H 25.6368 1.54582 0.231089 0
M  V30 253 H 26.3718 1.70171 2.76066 0
M  V30 254 H 26.1568 3.33371 2.06412 0
M  V30 255 H 27.6468 2.93512 2.97053 0
M  V30 256 N 28.0839 -0.256276 1.55502 0
M  V30 257 C 29.0159 -1.33981 1.85962 0
M  V30 258 C 30.0289 -1.44743 0.745212 0
M  V30 259 O 31.2179 -1.4626 1.02324 0
M  V30 260 C 28.3179 -2.7194 2.02242 0
M  V30 261 C 27.4909 -2.83562 3.33033 0
M  V30 262 C 26.5499 -4.02304 3.39172 0
M  V30 263 O 25.5759 -3.92273 4.12444 0
M  V30 264 N 26.7779 -5.15045 2.67784 0
M  V30 265 H 29.5429 -1.08191 2.7949 0
M  V30 266 H 27.1039 -0.446388 1.55624 0
M  V30 267 H 29.0959 -3.49697 2.03701 0
M  V30 268 H 27.6659 -2.90479 1.15502 0
M  V30 269 H 26.8859 -1.92555 3.43971 0
M  V30 270 H 28.1739 -2.88271 4.19258 0
M  V30 271 H 27.5719 -5.26085 2.07968 0
M  V30 272 H 26.1289 -5.90972 2.74947 0
M  V30 273 N 29.562 -1.4872 -0.521534 0
M  V30 274 C 30.79 -1.60843 -1.30142 0
M  V30 275 C 31.205 -0.271897 -1.86832 0
M  V30 276 O 30.562 0.739969 -1.66825 0
M  V30 277 C 30.613 -2.66155 -2.4463 0
M  V30 278 O 30.334 -3.94623 -1.90275 0
M  V30 279 C 31.835 -2.88795 -3.36322 0
M  V30 280 H 29.055 -0.542075 -0.395468 0
M  V30 281 H 31.599 -1.94609 -0.628285 0
M  V30 282 H 29.754 -2.35224 -3.07812 0
M  V30 283 H 30.168 -4.52468 -2.65279 0
M  V30 284 H 31.642 -3.66264 -4.12983 0
M  V30 285 H 32.119 -1.97934 -3.9207 0
M  V30 286 H 32.725 -3.21063 -2.78924 0
M  V30 287 N 31.0401 0.771051 -1.3745 0
M  V30 288 C 32.0031 1.86598 -1.33093 0
M  V30 289 C 33.0031 1.59076 -0.234845 0
M  V30 290 O 34.1931 1.67145 -0.490732 0
M  V30 291 C 31.3251 3.23747 -1.06773 0
M  V30 292 H 32.5181 1.91873 -2.30488 0
M  V30 293 H 30.0711 0.970876 -1.2249 0
M  V30 294 H 30.8061 3.24148 -0.099129 0
M  V30 295 H 30.5911 3.45115 -1.86112 0
M  V30 296 H 32.0811 4.03824 -1.06377 0
M  V30 297 N 32.5182 1.22032 0.997298 0
M  V30 298 C 33.7462 1.06841 1.7718 0
M  V30 299 C 34.1612 -0.381325 1.84909 0
M  V30 300 O 33.5182 -1.26437 1.31605 0
M  V30 301 C 33.5692 1.66814 3.20711 0
M  V30 302 O 33.2902 3.06116 3.13408 0
M  V30 303 C 34.7912 1.56838 4.14628 0
M  V30 304 H 32.0112 0.374782 0.556578 0
M  V30 305 H 34.5552 1.61532 1.2541 0
M  V30 306 H 32.7102 1.16196 3.69564 0
M  V30 307 H 33.1242 3.34926 4.0364 0
M  V30 308 H 34.5982 2.03532 5.13107 0
M  V30 309 H 35.0752 0.524155 4.36061 0
M  V30 310 H 35.6812 2.06741 3.7167 0
M  V30 311 N 33.9963 -1.19345 1.0293 0
M  V30 312 C 35.2213 -1.93538 0.745511 0
M  V30 313 C 35.6463 -1.75007 -0.689511 0
M  V30 314 O 35.0043 -1.05265 -1.47611 0
M  V30 315 C 35.0523 -3.43336 1.10239 0
M  V30 316 O 34.1563 -4.11806 0.221289 0
M  V30 317 H 33.4973 -0.604193 0.275404 0
M  V30 318 H 36.0273 -1.5141 1.37609 0
M  V30 319 H 36.0373 -3.94004 1.05947 0
M  V30 320 H 34.7123 -3.56146 2.14786 0
M  V30 321 H 33.2893 -3.715 0.322842 0
M  V30 322 N 35.4744 -0.807222 -1.35358 0
M  V30 323 C 36.4374 -0.223665 -2.28106 0
M  V30 324 C 37.4374 0.589354 -1.4961 0
M  V30 325 O 38.6274 0.407745 -1.69361 0
M  V30 326 C 35.7594 0.688149 -3.33882 0
M  V30 327 H 36.9524 -1.04169 -2.81227 0
M  V30 328 H 34.5054 -0.577921 -1.45223 0
M  V30 329 H 35.2404 1.52984 -2.85948 0
M  V30 330 H 35.0254 0.10687 -3.91954 0
M  V30 331 H 36.5154 1.09075 -4.03104 0
M  V30 332 N 36.9525 1.47285 -0.560781 0
M  V30 333 C 38.1805 2.06855 -0.0430262 0
M  V30 334 C 38.5955 1.41291 1.25229 0
M  V30 335 O 37.9525 0.510648 1.7521 0
M  V30 336 C 38.0035 3.61178 0.152518 0
M  V30 337 O 37.7245 4.24285 -1.0915 0
M  V30 338 C 39.2255 4.37624 0.707145 0
M  V30 339 H 36.4455 0.669319 -0.0474652 0
M  V30 340 H 38.9895 1.89237 -0.77521 0
M  V30 341 H 37.1445 3.78298 0.834843 0
M  V30 342 H 37.5585 5.16868 -0.891482 0
M  V30 343 H 39.0325 5.46271 0.793244 0
M  V30 344 H 39.5095 4.04152 1.71923 0
M  V30 345 H 40.1155 4.25257 0.0604027 0
M  V30 346 N 38.4306 0.297415 1.54768 0
M  V30 347 C 39.6766 -0.313376 2.00364 0
M  V30 348 C 40.0096 -1.53815 1.18553 0
M  V30 349 O 39.2846 -1.92739 0.261103 0
M  V30 350 C 39.5676 -0.673525 3.53745 0
M  V30 351 C 39.4206 0.560133 4.46299 0
M  V30 352 C 40.7396 -1.50143 4.13697 0
M  V30 353 H 37.8586 -0.112428 0.728374 0
M  V30 354 H 40.5006 0.4088 1.8555 0
M  V30 355 H 38.6506 -1.28881 3.665 0
M  V30 356 H 40.3226 1.19863 4.45455 0
M  V30 357 H 38.5656 1.19405 4.17043 0
M  V30 358 H 39.2366 0.26405 5.51368 0
M  V30 359 H 41.7126 -0.981588 4.04356 0
M  V30 360 H 40.5886 -1.72221 5.21182 0
M  V30 361 H 40.8496 -2.48952 3.65343 0
M  V30 362 N 39.9087 -1.5758 0.0250728 0
M  V30 363 C 41.3247 -1.56124 -0.331282 0
M  V30 364 C 41.5247 -1.03029 -1.73169 0
M  V30 365 O 40.5807 -0.675215 -2.43305 0
M  V30 366 C 41.8937 -3.00139 -0.183584 0
M  V30 367 C 43.4417 -3.11946 -0.256654 0
M  V30 368 C 43.9167 -4.57793 -0.137792 0
M  V30 369 N 45.4077 -4.6279 -0.194904 0
M  V30 370 C 46.1427 -5.7326 -0.126655 0
M  V30 371 N 45.6387 -6.928 -0.00755288 0
M  V30 372 N 47.4317 -5.61811 -0.180348 0
M  V30 373 H 39.5827 -1.90424 0.94087 0
M  V30 374 H 41.8457 -0.875761 0.362968 0
M  V30 375 H 41.5517 -3.4292 0.780927 0
M  V30 376 H 41.4257 -3.64899 -0.955448 0
M  V30 377 H 43.8127 -2.69079 -1.21162 0
M  V30 378 H 43.8937 -2.49915 0.545517 0
M  V30 379 H 43.5377 -5.01339 0.813739 0
M  V30 380 H 43.4677 -5.17798 -0.958775 0
M  V30 381 H 45.9587 -3.76807 -0.287267 0
M  V30 382 H 46.2717 -7.72791 0.0379428 0
M  V30 383 H 44.6167 -6.94995 0.0271731 0
M  V30 384 H 47.8077 -4.6731 -0.271767 0
M  V30 385 H 47.9807 -6.47882 -0.123697 0
M  V30 386 N 41.3868 0.248026 -1.55636 0
M  V30 387 C 42.7978 0.817177 -1.67866 0
M  V30 388 C 43.1488 1.86069 -0.622322 0
M  V30 389 O 42.2738 2.15157 0.231618 0
M  V30 390 C 42.8688 1.489 -3.04326 0
M  V30 391 C 41.4278 2.00587 -3.185 0
M  V30 392 C 40.5748 0.856573 -2.63739 0
M  V30 393 H 43.5258 0.0238579 -1.58682 0
M  V30 394 H 43.5468 2.35698 -2.98708 0
M  V30 395 H 43.0588 0.729279 -3.81186 0
M  V30 396 H 41.1598 2.79443 -2.4646 0
M  V30 397 H 41.2728 2.20402 -4.25393 0
M  V30 398 H 39.6368 1.25678 -2.21534 0
M  V30 399 H 40.4198 0.109953 -3.43124 0
M  V30 400 N 42.8649 1.48995 0.513639 0
M  V30 401 C 43.7949 1.67636 1.62544 0
M  V30 402 C 44.7759 0.525087 1.61793 0
M  V30 403 O 45.9609 0.759502 1.78732 0
M  V30 404 C 43.0909 1.73114 3.01079 0
M  V30 405 C 42.0449 2.87905 3.16693 0
M  V30 406 C 41.3709 2.78486 4.56453 0
M  V30 407 C 42.6709 4.29005 2.97913 0
M  V30 408 H 44.3649 2.60716 1.47198 0
M  V30 409 H 41.9109 1.25465 0.706714 0
M  V30 410 H 43.8639 1.84742 3.78746 0
M  V30 411 H 42.5879 0.766241 3.17484 0
M  V30 412 H 41.2469 2.75859 2.41448 0
M  V30 413 H 40.8949 1.7993 4.69717 0
M  V30 414 H 40.5949 3.55523 4.67843 0
M  V30 415 H 42.1189 2.92104 5.36197 0
M  V30 416 H 43.5329 4.41798 3.65359 0
M  V30 417 H 41.9299 5.07166 3.20785 0
M  V30 418 H 42.9999 4.44329 1.94165 0
M  V30 419 N 44.343 -0.763751 1.37857 0
M  V30 420 C 45.568 -1.55805 1.36893 0
M  V30 421 C 45.993 -1.88054 -0.0416135 0
M  V30 422 O 45.351 -1.49825 -1.02089 0
M  V30 423 C 45.399 -2.84012 2.22192 0
M  V30 424 O 44.503 -3.78732 1.63204 0
M  V30 425 H 43.844 -0.471638 0.46739 0
M  V30 426 H 46.374 -0.944657 1.81487 0
M  V30 427 H 46.384 -3.33037 2.35691 0
M  V30 428 H 45.059 -2.59869 3.24716 0
M  V30 429 H 43.636 -3.37402 1.58791 0
M  V30 430 N 45.8211 -1.22559 -0.990812 0
M  V30 431 C 47.0491 -1.07779 -1.76611 0
M  V30 432 C 47.4641 0.371513 -1.85109 0
M  V30 433 O 46.8211 1.25737 -1.32274 0
M  V30 434 C 46.8721 -1.68512 -3.19822 0
M  V30 435 O 46.5931 -3.07774 -3.1178 0
M  V30 436 C 48.0941 -1.59035 -4.13791 0
M  V30 437 H 45.3141 -0.377729 -0.554583 0
M  V30 438 H 47.8581 -1.62195 -1.24551 0
M  V30 439 H 46.0131 -1.18154 -3.68942 0
M  V30 440 H 46.4271 -3.37062 -4.01858 0
M  V30 441 H 47.9011 -2.0625 -5.1202 0
M  V30 442 H 48.3781 -0.547273 -4.35777 0
M  V30 443 H 48.9841 -2.08709 -3.70568 0
M  V30 444 N 47.2992 1.18797 -1.03562 0
M  V30 445 C 48.2312 2.21731 -0.580337 0
M  V30 446 C 49.2442 1.59051 0.347349 0
M  V30 447 O 50.4332 1.77929 0.142669 0
M  V30 448 C 47.5332 3.38459 0.172805 0
M  V30 449 C 46.7062 4.3072 -0.761496 0
M  V30 450 C 45.7652 5.26174 -0.0525547 0
M  V30 451 O 44.7912 5.65108 -0.681333 0
M  V30 452 N 45.9932 5.67624 1.21586 0
M  V30 453 H 48.7582 2.61417 -1.46565 0
M  V30 454 H 46.3192 1.33531 -0.915476 0
M  V30 455 H 48.3112 3.99335 0.656793 0
M  V30 456 H 46.8812 2.97507 0.959602 0
M  V30 457 H 46.1012 3.67525 -1.42544 0
M  V30 458 H 47.3892 4.89267 -1.39626 0
M  V30 459 H 46.7872 5.38038 1.74732 0
M  V30 460 H 45.3442 6.30721 1.64421 0
M  V30 461 N 48.7773 0.814389 1.34928 0
M  V30 462 C 49.7403 0.235759 2.27984 0
M  V30 463 C 50.7403 -0.581412 1.49921 0
M  V30 464 O 51.9303 -0.398758 1.69575 0
M  V30 465 C 49.0623 -0.670433 3.34242 0
M  V30 466 H 50.2553 1.05659 2.80671 0
M  V30 467 H 47.8083 0.585614 1.44915 0
M  V30 468 H 48.5433 -1.51466 2.86755 0
M  V30 469 H 48.3283 -0.0860822 3.92005 0
M  V30 470 H 49.8183 -1.06935 4.03676 0
M  V30 471 N 50.2554 -1.46986 0.568584 0
M  V30 472 C 51.5014 -2.02741 0.0488709 0
M  V30 473 C 51.8344 -1.44077 -1.30214 0
M  V30 474 O 51.1094 -0.600552 -1.84996 0
M  V30 475 C 51.3924 -3.60086 -0.032047 0
M  V30 476 C 51.2454 -4.29162 1.34686 0
M  V30 477 C 52.5644 -4.33838 -0.739798 0
M  V30 478 H 49.6834 -0.736749 0.0192338 0
M  V30 479 H 52.3254 -1.75289 0.733065 0
M  V30 480 H 50.4754 -3.83606 -0.61473 0
M  V30 481 H 52.1474 -4.16948 1.97362 0
M  V30 482 H 50.3904 -3.89073 1.91846 0
M  V30 483 H 51.0614 -5.37826 1.24285 0
M  V30 484 H 53.5374 -4.15378 -0.244939 0
M  V30 485 H 52.4134 -5.43537 -0.765406 0
M  V30 486 H 52.6744 -4.03875 -1.79827 0
M  V30 487 N 51.7335 -0.305618 -1.54608 0
M  V30 488 C 52.9805 0.302298 -2.00231 0
M  V30 489 C 53.3085 1.5354 -1.19398 0
M  V30 490 O 52.5635 1.93973 -0.259423 0
M  V30 491 C 52.8625 0.698983 -3.50498 0
M  V30 492 C 52.5285 -0.432903 -4.48817 0
M  V30 493 C 51.1905 -0.743622 -4.75419 0
M  V30 494 C 53.5425 -1.19409 -5.07337 0
M  V30 495 C 50.8705 -1.81857 -5.57804 0
M  V30 496 C 53.2225 -2.25899 -5.90891 0
M  V30 497 C 51.8865 -2.57572 -6.15803 0
M  V30 498 H 51.1565 0.110619 -0.732697 0
M  V30 499 H 53.8035 -0.425674 -1.86709 0
M  V30 500 H 52.1085 1.50711 -3.61654 0
M  V30 501 H 53.8055 1.1806 -3.83227 0
M  V30 502 H 50.3955 -0.18063 -4.28219 0
M  V30 503 H 54.5795 -0.967295 -4.86782 0
M  V30 504 H 49.8355 -2.06864 -5.75341 0
M  V30 505 H 54.0095 -2.85335 -6.35261 0
M  V30 506 H 51.6365 -3.40998 -6.7943 0
M  V30 507 N 53.2116 1.57565 -0.0334293 0
M  V30 508 C 54.6276 1.56297 0.322997 0
M  V30 509 C 54.8276 1.03945 1.7262 0
M  V30 510 O 53.8836 0.688109 2.42943 0
M  V30 511 C 55.1966 3.00232 0.167664 0
M  V30 512 C 56.7446 3.12078 0.240107 0
M  V30 513 C 57.2196 4.57859 0.113513 0
M  V30 514 N 58.7106 4.62887 0.170359 0
M  V30 515 C 59.4456 5.73319 0.0962517 0
M  V30 516 N 58.9416 6.92794 -0.0291881 0
M  V30 517 N 60.7346 5.61898 0.150551 0
M  V30 518 H 52.8856 1.89923 -0.950956 0
M  V30 519 H 55.1486 0.873824 -0.367608 0
M  V30 520 H 54.8546 3.42501 -0.799102 0
M  V30 521 H 54.7286 3.654 0.936083 0
M  V30 522 H 57.1156 2.69718 1.19733 0
M  V30 523 H 57.1966 2.49623 -0.558763 0
M  V30 524 H 56.8406 5.009 -0.840314 0
M  V30 525 H 56.7706 5.18299 0.931302 0
M  V30 526 H 59.2616 3.76954 0.26728 0
M  V30 527 H 59.5746 7.7276 -0.0789252 0
M  V30 528 H 57.9196 6.94971 -0.0640299 0
M  V30 529 H 61.1106 4.67448 0.246981 0
M  V30 530 H 61.2836 6.47938 0.0893365 0
M  V30 531 N 54.6897 -0.239769 1.55765 0
M  V30 532 C 56.1007 -0.808263 1.68297 0
M  V30 533 C 56.4517 -1.85736 0.632181 0
M  V30 534 O 55.5767 -2.15277 -0.220204 0
M  V30 535 C 56.1717 -1.47284 3.05111 0
M  V30 536 C 54.7307 -1.98895 3.19559 0
M  V30 537 C 53.8777 -0.842575 2.64189 0
M  V30 538 H 56.8287 -0.0154422 1.58692 0
M  V30 539 H 56.8497 -2.34111 2.99954 0
M  V30 540 H 56.3617 -0.709053 3.81568 0
M  V30 541 H 54.4627 -2.78132 2.47938 0
M  V30 542 H 54.5757 -2.18143 4.26556 0
M  V30 543 H 52.9397 -1.24501 2.22197 0
M  V30 544 H 53.7227 -0.0917552 3.43177 0
M  V30 545 N 56.1678 -1.49265 -0.50573 0
M  V30 546 C 57.4448 -1.49012 -1.26707 0
M  V30 547 C 57.8248 -0.215205 -2.1 0
M  V30 548 O 57.1728 0.802547 -2.13943 0
M  V30 549 C 57.3828 -2.7663 -2.12783 0
M  V30 550 C 58.7308 -3.25932 -2.72127 0
M  V30 551 O 59.7548 -2.77715 -2.23054 0
M  V30 552 O 58.6138 -4.09897 -3.61451 0
M  V30 553 H 55.7078 -0.596197 -0.57313 0
M  V30 554 H 58.2538 -1.61524 -0.52039 0
M  V30 555 H 57.0258 -3.60916 -1.5118 0
M  V30 556 H 56.6488 -2.66956 -2.94653 0
M  V30 557 N 57.6459 0.756429 -1.3826 0
M  V30 558 C 58.8929 1.51547 -1.34312 0
M  V30 559 C 59.2209 1.94382 0.0677144 0
M  V30 560 O 58.4759 1.65514 1.04421 0
M  V30 561 C 58.7749 2.78313 -2.24224 0
M  V30 562 C 58.4409 2.54455 -3.72241 0
M  V30 563 C 57.1029 2.47657 -4.12576 0
M  V30 564 C 59.4549 2.3354 -4.65949 0
M  V30 565 C 56.7829 2.17956 -5.44713 0
M  V30 566 C 59.1349 2.05359 -5.9834 0
M  V30 567 C 57.7989 1.97016 -6.37762 0
M  V30 568 H 57.0689 0.55455 -0.491482 0
M  V30 569 H 59.7159 0.870039 -1.70595 0
M  V30 570 H 58.0209 3.47492 -1.80987 0
M  V30 571 H 59.7179 3.36259 -2.18474 0
M  V30 572 H 56.3079 2.60616 -3.40261 0
M  V30 573 H 60.4919 2.37772 -4.35635 0
M  V30 574 H 55.7479 2.10003 -5.74203 0
M  V30 575 H 59.9219 1.88179 -6.70494 0
M  V30 576 H 57.5489 1.73766 -7.40074 0
M  V30 577 N 59.124 1.23083 0.984299 0
M  V30 578 C 60.372 1.05848 1.72165 0
M  V30 579 C 60.693 -0.406049 1.90726 0
M  V30 580 O 59.963 -1.29139 1.47309 0
M  V30 581 H 58.543 0.388685 0.637913 0
M  V30 582 H 61.205 1.54736 1.18503 0
M  V30 583 H 60.301 1.54327 2.71274 0
M  V30 584 N 60.6021 -1.18246 1.0419 0
M  V30 585 C 61.8791 -1.84121 0.660208 0
M  V30 586 C 62.2591 -1.92778 -0.860221 0
M  V30 587 O 61.6071 -1.45464 -1.76217 0
M  V30 588 C 61.8171 -3.22355 1.33747 0
M  V30 589 C 63.1651 -3.98376 1.46906 0
M  V30 590 O 64.1891 -3.31799 1.29568 0
M  V30 591 O 63.0481 -5.17665 1.75171 0
M  V30 592 H 60.1421 -0.794036 0.231161 0
M  V30 593 H 62.6881 -1.25628 1.14087 0
M  V30 594 H 61.4601 -3.10964 2.37522 0
M  V30 595 H 61.0831 -3.88506 0.845515 0
M  V30 596 N 62.0802 -0.821533 -1.34494 0
M  V30 597 C 62.9902 -0.244355 -2.33324 0
M  V30 598 C 64.0062 0.620527 -1.62559 0
M  V30 599 O 65.1822 0.528754 -1.94335 0
M  V30 600 C 62.2472 0.585368 -3.41723 0
M  V30 601 C 61.3082 -0.301752 -4.28238 0
M  V30 602 C 60.5412 0.488466 -5.3146 0
M  V30 603 O 60.7642 1.72186 -5.4379 0
M  V30 604 O 59.6982 -0.12848 -6.01763 0
M  V30 605 H 63.5242 -1.06231 -2.84515 0
M  V30 606 H 61.1092 -0.583645 -1.37528 0
M  V30 607 H 62.9912 1.05747 -4.07916 0
M  V30 608 H 61.6662 1.38068 -2.92778 0
M  V30 609 H 60.5732 -0.821315 -3.64973 0
M  V30 610 H 61.9062 -1.06138 -4.8062 0
M  V30 611 N 63.5583 1.46682 -0.576371 0
M  V30 612 C 64.8353 1.95599 0.00703437 0
M  V30 613 C 65.2153 1.51904 1.46589 0
M  V30 614 O 64.5633 0.766755 2.15251 0
M  V30 615 C 64.7733 3.4864 -0.158404 0
M  V30 616 C 66.1213 4.24594 -0.0229439 0
M  V30 617 O 67.1453 3.56094 -0.0869173 0
M  V30 618 O 66.0043 5.46373 0.118015 0
M  V30 619 H 63.0983 0.825275 0.053384 0
M  V30 620 H 65.6443 1.56996 -0.644244 0
M  V30 621 H 64.4163 3.7331 -1.17282 0
M  V30 622 H 64.0393 3.94057 0.5296 0
M  V30 623 N 65.0364 0.313813 1.54444 0
M  V30 624 C 65.9844 -0.572171 2.25453 0
M  V30 625 C 66.9784 -1.12657 1.2651 0
M  V30 626 O 68.1844 -1.07573 1.44319 0
M  V30 627 H 64.5594 -0.203146 0.724041 0
M  V30 628 H 66.5304 0.0491145 2.9836 0
M  V30 629 C 65.2794 -1.72626 3.0182 0
M  V30 630 H 64.6024 -1.30891 3.77767 0
M  V30 631 H 66.0424 -2.32199 3.54767 0
M  V30 632 C 64.5014 -2.63806 2.09542 0
M  V30 633 O 65.0314 -3.65256 1.67185 0
M  V30 634 N 63.2374 -2.31824 1.75232 0
M  V30 635 H 62.7844 -1.49368 2.09873 0
M  V30 636 H 62.7424 -2.93095 1.13767 0
M  V30 637 N 66.5145 -1.57545 0.0417849 0
M  V30 638 C 67.7615 -1.92317 -0.634082 0
M  V30 639 C 68.0895 -0.919334 -1.71402 0
M  V30 640 O 67.3445 0.0698253 -1.95575 0
M  V30 641 C 67.6435 -3.33794 -1.27735 0
M  V30 642 C 67.3095 -4.49716 -0.326543 0
M  V30 643 C 65.9715 -4.81156 -0.0648814 0
M  V30 644 C 68.3235 -5.20182 0.325623 0
M  V30 645 C 65.6515 -5.80414 0.856539 0
M  V30 646 C 68.0035 -6.20424 1.23518 0
M  V30 647 C 66.6675 -6.50298 1.5056 0
M  V30 648 H 65.9375 -0.703736 -0.232027 0
M  V30 649 H 68.5845 -1.91205 0.106259 0
M  V30 650 H 66.8895 -3.31228 -2.09274 0
M  V30 651 H 68.5865 -3.57975 -1.80707 0
M  V30 652 H 65.1765 -4.25176 -0.540665 0
M  V30 653 H 69.3605 -4.96112 0.136546 0
M  V30 654 H 64.6165 -6.019 1.07363 0
M  V30 655 H 68.7905 -6.74141 1.74664 0
M  V30 656 H 66.4175 -7.27025 2.22123 0
M  V30 657 N 67.9926 0.231505 -1.5589 0
M  V30 658 C 69.4036 0.799327 -1.68724 0
M  V30 659 C 69.7546 1.85398 -0.642022 0
M  V30 660 O 68.8796 2.1539 0.208784 0
M  V30 661 C 69.4746 1.45664 -3.05888 0
M  V30 662 C 68.0336 1.97197 -3.20609 0
M  V30 663 C 67.1806 0.828552 -2.64632 0
M  V30 664 H 70.1316 0.00702616 -1.58698 0
M  V30 665 H 70.1526 2.32517 -3.01191 0
M  V30 666 H 69.6646 0.688808 -3.81939 0
M  V30 667 H 67.7656 2.76813 -2.4941 0
M  V30 668 H 67.8786 2.15878 -4.27707 0
M  V30 669 H 66.2426 1.23321 -2.22854 0
M  V30 670 H 67.0256 0.0735544 -3.43221 0
M  V30 671 N 69.4707 1.49531 0.497807 0
M  V30 672 C 70.4207 1.62829 1.59596 0
M  V30 673 C 71.4047 0.483824 1.53453 0
M  V30 674 O 72.5967 0.736937 1.60929 0
M  V30 675 C 69.7257 1.7011 2.98191 0
M  V30 676 C 68.8117 2.90144 3.09317 0
M  V30 677 N 69.2027 4.1418 2.90324 0
M  V30 678 C 67.5007 2.88148 3.40422 0
M  V30 679 C 68.2017 4.94886 3.05717 0
M  V30 680 N 67.1777 4.28314 3.34736 0
M  V30 681 H 70.9797 2.56446 1.4357 0
M  V30 682 H 68.4937 1.46347 0.704001 0
M  V30 683 H 70.4907 1.77735 3.77115 0
M  V30 684 H 69.1507 0.776315 3.15283 0
M  V30 685 H 70.1617 4.44109 2.66436 0
M  V30 686 H 66.8387 2.05061 3.63671 0
M  V30 687 H 68.2287 6.03432 2.95499 0
M  V30 688 N 70.9488 -0.749086 1.3866 0
M  V30 689 C 72.3598 -1.32664 1.31366 0
M  V30 690 C 72.7108 -1.96179 -0.028484 0
M  V30 691 O 71.8358 -1.9537 -0.93057 0
M  V30 692 C 72.4308 -2.41219 2.37905 0
M  V30 693 C 70.9898 -2.94684 2.34176 0
M  V30 694 C 70.1368 -1.68108 2.20533 0
M  V30 695 H 73.0878 -0.547628 1.48952 0
M  V30 696 H 73.1088 -3.21268 2.0388 0
M  V30 697 H 72.6208 -1.94962 3.35576 0
M  V30 698 H 70.7218 -3.45258 1.401 0
M  V30 699 H 70.8348 -3.48757 3.2849 0
M  V30 700 H 69.1988 -1.91907 1.67463 0
M  V30 701 H 69.9818 -1.23923 3.20153 0
M  V30 702 N 72.4269 -1.23603 -0.977757 0
M  V30 703 C 73.6549 -1.09646 -1.75458 0
M  V30 704 C 74.0699 0.351859 -1.85492 0
M  V30 705 O 73.4269 1.24327 -1.336 0
M  V30 706 C 73.4779 -1.71895 -3.18016 0
M  V30 707 O 73.1989 -3.11063 -3.08498 0
M  V30 708 C 74.6999 -1.63415 -4.12081 0
M  V30 709 H 71.9199 -0.38359 -0.550545 0
M  V30 710 H 74.4639 -1.63507 -1.22824 0
M  V30 711 H 72.6189 -1.22061 -3.67668 0
M  V30 712 H 73.0329 -3.41305 -3.9826 0
M  V30 713 H 74.5069 -2.11669 -5.09804 0
M  V30 714 H 74.9839 -0.593462 -4.35172 0
M  V30 715 H 75.5899 -2.12628 -3.68334 0
M  V30 716 N 73.905 1.17692 -1.04816 0
M  V30 717 C 74.835 2.23777 -0.666791 0
M  V30 718 C 75.816 1.66796 0.33361 0
M  V30 719 O 77.001 1.93039 0.212042 0
M  V30 720 C 74.131 3.47281 -0.0367933 0
M  V30 721 C 73.085 4.17059 -0.961546 0
M  V30 722 C 72.411 5.34342 -0.195626 0
M  V30 723 C 73.711 4.69713 -2.28402 0
M  V30 724 H 75.405 2.55933 -1.55367 0
M  V30 725 H 72.951 1.23019 -0.748484 0
M  V30 726 H 74.904 4.20706 0.241775 0
M  V30 727 H 73.628 3.14381 0.885004 0
M  V30 728 H 72.287 3.45541 -1.22462 0
M  V30 729 H 71.935 4.97692 0.728816 0
M  V30 730 H 71.635 5.81966 -0.811775 0
M  V30 731 H 73.159 6.10553 0.0757473 0
M  V30 732 H 74.573 5.34794 -2.06563 0
M  V30 733 H 72.97 5.279 -2.8538 0
M  V30 734 H 74.04 3.86726 -2.92525 0
M  V30 735 N 75.3831 0.828654 1.34056 0
M  V30 736 C 76.6311 0.41863 1.97717 0
M  V30 737 C 76.9521 -1.02314 1.66002 0
M  V30 738 O 76.2221 -1.71119 0.953683 0
M  V30 739 H 74.8021 0.151809 0.731412 0
M  V30 740 H 77.4641 1.05936 1.63596 0
M  V30 741 H 76.5601 0.542318 3.07352 0
M  V30 742 N 76.8612 -1.46375 0.584142 0
M  V30 743 C 78.2722 -1.86031 0.157959 0
M  V30 744 C 78.6232 -1.48753 -1.27933 0
M  V30 745 O 77.7482 -0.903098 -1.96655 0
M  V30 746 C 78.3432 -3.37642 0.279892 0
M  V30 747 C 76.9022 -3.76289 -0.09143 0
M  V30 748 C 76.0492 -2.7039 0.615178 0
M  V30 749 H 79.0002 -1.37509 0.792274 0
M  V30 750 H 79.0212 -3.77275 -0.494364 0
M  V30 751 H 78.5332 -3.64742 1.32607 0
M  V30 752 H 76.6342 -3.54806 -1.13769 0
M  V30 753 H 76.7472 -4.78246 0.285886 0
M  V30 754 H 75.1112 -2.5464 0.0552833 0
M  V30 755 H 75.8942 -3.0033 1.66303 0
M  V30 756 N 78.3393 -0.321999 -1.54275 0
M  V30 757 C 79.6163 0.335232 -1.92706 0
M  V30 758 C 79.9963 1.70006 -1.25145 0
M  V30 759 O 79.3443 2.25067 -0.394596 0
M  V30 760 C 79.5543 0.429008 -3.46353 0
M  V30 761 C 80.9023 0.690029 -4.18956 0
M  V30 762 O 81.9263 0.511992 -3.52501 0
M  V30 763 O 80.7853 1.03338 -5.36641 0
M  V30 764 H 77.8793 0.191143 -0.804608 0
M  V30 765 H 80.4253 -0.3716 -1.65581 0
M  V30 766 H 79.1973 -0.529611 -3.87699 0
M  V30 767 H 78.8203 1.18348 -3.79578 0
M  V30 768 N 79.8174 1.5752 -0.0501392 0
M  V30 769 C 81.0454 1.96963 0.633492 0
M  V30 770 C 81.4604 0.927631 1.6444 0
M  V30 771 O 80.8174 -0.0882665 1.82286 0
M  V30 772 C 80.8684 3.36487 1.32132 0
M  V30 773 O 80.5894 4.36693 0.350894 0
M  V30 774 C 82.0904 3.90682 2.09481 0
M  V30 775 H 79.3104 0.648244 0.173266 0
M  V30 776 H 81.8544 2.0417 -0.116134 0
M  V30 777 H 80.0094 3.30434 2.02218 0
M  V30 778 H 80.4234 5.17702 0.841735 0
M  V30 779 H 81.8974 4.90591 2.5303 0
M  V30 780 H 82.3744 3.26053 2.94255 0
M  V30 781 H 82.9804 4.00069 1.44307 0
M  V30 782 N 81.2955 -0.223234 1.56011 0
M  V30 783 C 82.2055 -1.29766 1.95443 0
M  V30 784 C 83.2215 -1.51373 0.858028 0
M  V30 785 O 84.3975 -1.64536 1.16146 0
M  V30 786 C 81.4625 -2.62772 2.26167 0
M  V30 787 C 80.5235 -2.49482 3.49367 0
M  V30 788 C 79.7565 -3.76145 3.78616 0
M  V30 789 O 79.9795 -4.79087 3.09568 0
M  V30 790 O 78.9135 -3.73358 4.72109 0
M  V30 791 H 82.7395 -0.99309 2.87004 0
M  V30 792 H 80.3245 -0.425958 1.43199 0
M  V30 793 H 82.2065 -3.41327 2.47131 0
M  V30 794 H 80.8815 -2.92913 1.37781 0
M  V30 795 H 79.7885 -1.69133 3.33684 0
M  V30 796 H 81.1215 -2.2428 4.38131 0
M  V30 797 N 82.7736 -1.49793 -0.48987 0
M  V30 798 C 84.1846 -1.52914 -1.07118 0
M  V30 799 C 84.5356 -0.321738 -1.93544 0
M  V30 800 O 83.6606 0.567338 -2.08831 0
M  V30 801 C 84.2556 -2.771 -1.94938 0
M  V30 802 C 82.8146 -2.82963 -2.48212 0
M  V30 803 C 81.9616 -2.46972 -1.26096 0
M  V30 804 H 84.9126 -1.56329 -0.273289 0
M  V30 805 H 84.9336 -2.57892 -2.79771 0
M  V30 806 H 84.4456 -3.64959 -1.32009 0
M  V30 807 H 82.5466 -1.99411 -3.14748 0
M  V30 808 H 82.6596 -3.85406 -2.84603 0
M  V30 809 H 81.0236 -1.98994 -1.58976 0
M  V30 810 H 81.8066 -3.37118 -0.648581 0
M  V30 811 N 84.2517 0.741722 -1.39055 0
M  V30 812 C 85.1837 1.8657 -1.33133 0
M  V30 813 C 86.1967 1.61001 -0.241329 0
M  V30 814 O 87.3857 1.7136 -0.499784 0
M  V30 815 C 84.4857 3.22457 -1.04283 0
M  V30 816 C 83.6587 3.75435 -2.24427 0
M  V30 817 C 82.7177 4.89867 -1.92138 0
M  V30 818 O 81.7437 5.03879 -2.64754 0
M  V30 819 N 82.9457 5.73738 -0.88347 0
M  V30 820 H 85.7107 1.92156 -2.29991 0
M  V30 821 H 83.2717 0.922172 -1.3307 0
M  V30 822 H 85.2637 3.9657 -0.807128 0
M  V30 823 H 83.8337 3.12181 -0.161807 0
M  V30 824 H 83.0537 2.92751 -2.6399 0
M  V30 825 H 84.3417 4.07563 -3.04581 0
M  V30 826 H 83.7397 5.64999 -0.281517 0
M  V30 827 H 82.2967 6.47947 -0.707662 0
M  V30 828 N 85.7298 1.2412 0.971189 0
M  V30 829 C 87.0068 0.986867 1.6888 0
M  V30 830 C 87.3868 -0.491857 2.0529 0
M  V30 831 O 86.7348 -1.46531 1.75331 0
M  V30 832 C 86.9448 1.9063 2.92338 0
M  V30 833 C 88.2928 2.17515 3.64654 0
M  V30 834 O 89.3168 1.88254 3.02388 0
M  V30 835 O 88.1758 2.6719 4.7673 0
M  V30 836 H 85.2698 0.372944 0.738134 0
M  V30 837 H 87.8158 1.35203 1.02559 0
M  V30 838 H 86.5878 2.90552 2.62097 0
M  V30 839 H 86.2108 1.54408 3.66393 0
M  V30 840 N 87.2079 -1.17134 1.05439 0
M  V30 841 C 88.6239 -1.39454 0.776201 0
M  V30 842 C 88.8239 -1.91454 -0.628307 0
M  V30 843 O 87.8799 -2.10777 -1.39031 0
M  V30 844 C 89.1929 -2.38305 1.83388 0
M  V30 845 C 90.7409 -2.52006 1.85639 0
M  V30 846 C 91.2159 -3.54133 2.90437 0
M  V30 847 N 92.7069 -3.61653 2.89415 0
M  V30 848 C 93.4419 -4.4044 3.67152 0
M  V30 849 N 92.9379 -5.22721 4.54681 0
M  V30 850 N 94.7309 -4.35337 3.55581 0
M  V30 851 H 86.8819 -0.817134 1.96053 0
M  V30 852 H 89.1449 -0.421626 0.849079 0
M  V30 853 H 88.8509 -2.07173 2.84204 0
M  V30 854 H 88.7249 -3.37841 1.67761 0
M  V30 855 H 91.1119 -2.82447 0.85486 0
M  V30 856 H 91.1929 -1.52537 2.05344 0
M  V30 857 H 90.8369 -3.24431 3.90777 0
M  V30 858 H 90.7669 -4.53313 2.67983 0
M  V30 859 H 93.2579 -3.02909 2.25952 0
M  V30 860 H 93.5709 -5.80027 5.10674 0
M  V30 861 H 91.9159 -5.22093 4.58741 0
M  V30 862 H 95.1069 -3.70112 2.86592 0
M  V30 863 H 95.2799 -4.96494 4.1641 0
M  V30 864 N 88.686 -0.835752 -1.33615 0
M  V30 865 C 89.619 -0.211815 -2.27215 0
M  V30 866 C 90.597 0.639249 -1.49507 0
M  V30 867 O 91.781 0.600193 -1.78689 0
M  V30 868 C 88.908 0.702893 -3.31326 0
M  V30 869 C 87.954 -0.0723049 -4.26439 0
M  V30 870 S 88.787 -1.42811 -5.16106 0
M  V30 871 C 89.943 -0.518613 -6.23748 0
M  V30 872 H 90.176 -1.00533 -2.79786 0
M  V30 873 H 87.709 -0.632336 -1.40858 0
M  V30 874 H 89.667 1.22505 -3.91794 0
M  V30 875 H 88.328 1.47004 -2.77576 0
M  V30 876 H 87.521 0.62359 -5.00127 0
M  V30 877 H 87.123 -0.525424 -3.70291 0
M  V30 878 H 89.415 0.284778 -6.76901 0
M  V30 879 H 90.358 -1.22556 -6.97413 0
M  V30 880 H 90.766 -0.101344 -5.64409 0
M  V30 881 N 90.1641 1.46063 -0.591896 0
M  V30 882 C 91.1271 2.28854 0.125973 0
M  V30 883 C 92.1271 1.38903 0.810107 0
M  V30 884 O 93.3171 1.61186 0.66066 0
M  V30 885 C 90.4491 3.19526 1.1881 0
M  V30 886 H 91.6421 2.93802 -0.601717 0
M  V30 887 H 89.1951 1.52325 -0.350254 0
M  V30 888 H 89.9301 2.59345 1.94707 0
M  V30 889 H 89.7151 3.85766 0.701936 0
M  V30 890 H 91.2051 3.81817 1.69132 0
M  V30 891 N 91.6422 0.330177 1.54103 0
M  V30 892 C 92.8702 -0.272179 2.05102 0
M  V30 893 C 93.2852 -1.45267 1.20595 0
M  V30 894 O 92.6422 -1.8094 0.238144 0
M  V30 895 C 92.6932 -0.70023 3.54653 0
M  V30 896 O 92.4142 0.433301 4.35952 0
M  V30 897 C 93.9152 -1.3647 4.21771 0
M  V30 898 H 91.1352 -0.0549159 0.668749 0
M  V30 899 H 93.6792 0.478285 1.98828 0
M  V30 900 H 91.8342 -1.40066 3.61193 0
M  V30 901 H 92.2482 0.0947539 5.24414 0
M  V30 902 H 93.7222 -1.61509 5.27843 0
M  V30 903 H 94.1992 -2.31409 3.73292 0
M  V30 904 H 94.8052 -0.706675 4.19388 0
M  V30 905 N 93.1203 -1.57491 0.0584922 0
M  V30 906 C 94.3483 -1.97296 -0.623037 0
M  V30 907 C 94.7633 -0.936338 -1.63946 0
M  V30 908 O 94.1203 0.0785981 -1.82331 0
M  V30 909 C 94.1713 -3.37183 -1.30345 0
M  V30 910 O 93.8923 -4.36872 -0.32773 0
M  V30 911 C 95.3933 -3.91788 -2.07406 0
M  V30 912 H 92.6133 -0.649153 -0.169826 0
M  V30 913 H 95.1573 -2.04106 0.12696 0
M  V30 914 H 93.3123 -3.31502 -2.00463 0
M  V30 915 H 93.7263 -5.18141 -0.814269 0
M  V30 916 H 95.2003 -4.91926 -2.50425 0
M  V30 917 H 95.6773 -3.27609 -2.92521 0
M  V30 918 H 96.2833 -4.00829 -1.42184 0
M  V30 919 N 94.5984 0.214957 -1.56127 0
M  V30 920 C 95.8234 0.95924 -1.83884 0
M  V30 921 C 96.2484 1.7689 -0.639644 0
M  V30 922 O 95.6064 1.76566 0.411601 0
M  V30 923 C 95.6544 1.84723 -3.09693 0
M  V30 924 O 94.7584 2.94346 -2.8885 0
M  V30 925 H 94.0994 0.27125 -0.606069 0
M  V30 926 H 96.6294 0.226276 -2.03345 0
M  V30 927 H 96.6394 2.25576 -3.39969 0
M  V30 928 H 95.3144 1.25218 -3.96602 0
M  V30 929 H 93.8914 2.57391 -2.69823 0
M  V30 930 N 96.0765 1.50051 0.48192 0
M  V30 931 C 97.4925 1.37237 0.814756 0
M  V30 932 C 97.6925 0.420109 1.97072 0
M  V30 933 O 96.7485 -0.141246 2.52105 0
M  V30 934 C 98.0615 2.78375 1.13701 0
M  V30 935 C 99.6095 2.87213 1.2441 0
M  V30 936 C 100.084 4.29161 1.59954 0
M  V30 937 N 101.575 4.32061 1.66967 0
M  V30 938 C 102.31 5.38879 1.95952 0
M  V30 939 N 101.806 6.55918 2.23031 0
M  V30 940 N 103.599 5.26312 1.97363 0
M  V30 941 H 95.7505 2.10546 -0.28005 0
M  V30 942 H 98.0135 0.945921 -0.0627454 0
M  V30 943 H 97.7195 3.49845 0.360787 0
M  V30 944 H 97.5935 3.14941 2.07586 0
M  V30 945 H 99.9805 2.15969 2.01101 0
M  V30 946 H 100.061 2.54204 0.285299 0
M  V30 947 H 99.7055 5.00938 0.838067 0
M  V30 948 H 99.6355 4.59648 2.56966 0
M  V30 949 H 102.126 3.47661 1.48123 0
M  V30 950 H 102.439 7.33139 2.44391 0
M  V30 951 H 100.784 6.59112 2.20447 0
M  V30 952 H 103.975 4.33876 1.75697 0
M  V30 953 H 104.148 6.09649 2.19618 0
M  V30 954 N 97.5546 -0.734337 1.39446 0
M  V30 955 C 98.8006 -1.49613 1.36908 0
M  V30 956 C 99.1336 -1.94169 -0.0347829 0
M  V30 957 O 98.4086 -1.66833 -0.999847 0
M  V30 958 C 98.6916 -2.73534 2.34203 0
M  V30 959 C 98.5446 -2.34993 3.83534 0
M  V30 960 C 99.8636 -3.75635 2.29317 0
M  V30 961 H 96.9826 -0.542714 0.498629 0
M  V30 962 H 99.6246 -0.839597 1.70443 0
M  V30 963 H 97.7746 -3.29553 2.05736 0
M  V30 964 H 99.4466 -1.84601 4.22753 0
M  V30 965 H 97.6896 -1.67213 4.00278 0
M  V30 966 H 98.3606 -3.23738 4.47099 0
M  V30 967 H 100.837 -3.29203 2.54489 0
M  V30 968 H 99.7126 -4.60008 2.99472 0
M  V30 969 H 99.9736 -4.22603 1.29842 0
M  V30 970 N 99.0327 -1.24633 -0.964593 0
M  V30 971 C 100.449 -1.01239 -1.2338 0
M  V30 972 C 100.649 0.2769 -1.99588 0
M  V30 973 O 99.7047 0.992241 -2.32187 0
M  V30 974 C 101.018 -2.22937 -2.01791 0
M  V30 975 C 102.566 -2.27594 -2.14872 0
M  V30 976 C 103.041 -3.48921 -2.96678 0
M  V30 977 N 104.532 -3.49257 -3.04259 0
M  V30 978 C 105.267 -4.39795 -3.67924 0
M  V30 979 N 104.763 -5.40591 -4.33281 0
M  V30 980 N 106.556 -4.275 -3.64966 0
M  V30 981 H 98.7067 -2.0748 -0.454502 0
M  V30 982 H 100.97 -0.910647 -0.26349 0
M  V30 983 H 100.676 -3.16587 -1.53184 0
M  V30 984 H 100.55 -2.25306 -3.02518 0
M  V30 985 H 102.937 -1.34473 -2.6268 0
M  V30 986 H 103.018 -2.2925 -1.13482 0
M  V30 987 H 102.662 -4.42359 -2.49562 0
M  V30 988 H 102.592 -3.4451 -3.98272 0
M  V30 989 H 105.083 -2.76337 -2.57771 0
M  V30 990 H 105.396 -6.05904 -4.79687 0
M  V30 991 H 103.741 -5.44475 -4.3194 0
M  V30 992 H 106.932 -3.47987 -3.13086 0
M  V30 993 H 107.105 -4.98258 -4.14298 0
M  V30 994 N 100.511 1.16574 -1.06058 0
M  V30 995 C 101.922 1.68662 -0.800632 0
M  V30 996 C 102.273 1.84184 0.67608 0
M  V30 997 O 101.398 1.53568 1.52466 0
M  V30 998 C 101.993 3.06356 -1.44676 0
M  V30 999 C 100.552 3.55575 -1.23465 0
M  V30 1000 C 99.6988 2.31616 -1.52477 0
M  V30 1001 H 102.65 1.00969 -1.22438 0
M  V30 1002 H 102.671 3.70636 -0.860788 0
M  V30 1003 H 102.183 2.95027 -2.52152 0
M  V30 1004 H 100.284 3.72167 -0.179527 0
M  V30 1005 H 100.397 4.37812 -1.94571 0
M  V30 1006 H 98.7608 2.36512 -0.945209 0
M  V30 1007 H 99.5438 2.22887 -2.61106 0
M  V30 1008 N 101.989 0.842826 1.3317 0
M  V30 1009 C 103.4 0.496651 1.79973 0
M  V30 1010 C 103.751 -0.984641 1.69703 0
M  V30 1011 O 102.876 -1.76743 1.24863 0
M  V30 1012 C 103.471 0.894727 3.26772 0
M  V30 1013 C 102.03 0.600629 3.71577 0
M  V30 1014 C 101.177 1.10091 2.5451 0
M  V30 1015 H 104.128 1.03116 1.20635 0
M  V30 1016 H 104.149 0.206347 3.7994 0
M  V30 1017 H 103.661 1.97287 3.34215 0
M  V30 1018 H 101.762 -0.467284 3.69658 0
M  V30 1019 H 101.875 1.15863 4.64879 0
M  V30 1020 H 100.239 0.52162 2.49301 0
M  V30 1021 H 101.022 2.18591 2.64713 0
M  V30 1022 N 103.467 -1.45747 0.599634 0
M  V30 1023 C 104.713 -2.02592 0.0918643 0
M  V30 1024 C 105.046 -1.46806 -1.27128 0
M  V30 1025 O 104.321 -0.639658 -1.83681 0
M  V30 1026 C 104.604 -3.60073 0.0443398 0
M  V30 1027 C 104.457 -4.26208 1.43759 0
M  V30 1028 C 105.776 -4.35309 -0.647608 0
M  V30 1029 H 102.895 -0.736175 0.034857 0
M  V30 1030 H 105.537 -1.73694 0.770081 0
M  V30 1031 H 103.687 -3.84823 -0.533224 0
M  V30 1032 H 105.359 -4.12668 2.06162 0
M  V30 1033 H 103.602 -3.84916 2.00056 0
M  V30 1034 H 104.273 -5.35069 1.35665 0
M  V30 1035 H 106.749 -4.15805 -0.156776 0
M  V30 1036 H 105.625 -5.45038 -0.649942 0
M  V30 1037 H 105.886 -4.07598 -1.71219 0
M  V30 1038 N 104.945 -0.338344 -1.53925 0
M  V30 1039 C 106.361 0.0137736 -1.59594 0
M  V30 1040 C 106.561 1.49186 -1.35447 0
M  V30 1041 O 105.617 2.24987 -1.14616 0
M  V30 1042 C 106.93 -0.41773 -2.97784 0
M  V30 1043 C 108.478 -0.369633 -3.1081 0
M  V30 1044 C 108.953 -0.776524 -4.51369 0
M  V30 1045 N 110.444 -0.730506 -4.57403 0
M  V30 1046 C 111.179 -1.01736 -5.64303 0
M  V30 1047 N 110.675 -1.3721 -6.79077 0
M  V30 1048 N 112.468 -0.941942 -5.54151 0
M  V30 1049 H 104.619 -1.3012 -1.67876 0
M  V30 1050 H 106.882 -0.530082 -0.78595 0
M  V30 1051 H 106.588 -1.44811 -3.20504 0
M  V30 1052 H 106.462 0.209729 -3.76616 0
M  V30 1053 H 108.849 0.651568 -2.87817 0
M  V30 1054 H 108.93 -1.03223 -2.34049 0
M  V30 1055 H 108.574 -1.79571 -4.75096 0
M  V30 1056 H 108.504 -0.0914649 -5.26521 0
M  V30 1057 H 110.995 -0.468783 -3.74981 0
M  V30 1058 H 111.308 -1.57597 -7.5656 0
M  V30 1059 H 109.653 -1.4105 -6.80536 0
M  V30 1060 H 112.844 -0.664184 -4.63364 0
M  V30 1061 H 113.017 -1.16884 -6.37371 0
M  V30 1062 N 106.423 1.57458 -0.0668435 0
M  V30 1063 C 107.839 1.56947 0.289772 0
M  V30 1064 C 108.039 1.07584 1.70376 0
M  V30 1065 O 107.095 0.739486 2.41429 0
M  V30 1066 C 108.408 3.0052 0.103943 0
M  V30 1067 C 109.956 3.12517 0.173857 0
M  V30 1068 C 110.431 4.57997 0.0163682 0
M  V30 1069 N 111.922 4.63144 0.0721352 0
M  V30 1070 C 112.657 5.73394 -0.0253794 0
M  V30 1071 N 112.153 6.92576 -0.176133 0
M  V30 1072 N 113.946 5.62091 0.0313305 0
M  V30 1073 H 106.097 1.87863 -0.991027 0
M  V30 1074 H 108.36 0.86583 -0.38606 0
M  V30 1075 H 108.066 3.40729 -0.871572 0
M  V30 1076 H 107.94 3.67304 0.858366 0
M  V30 1077 H 110.327 2.72197 1.13985 0
M  V30 1078 H 110.408 2.48381 -0.611586 0
M  V30 1079 H 110.052 4.99005 -0.946374 0
M  V30 1080 H 109.982 5.20158 0.821153 0
M  V30 1081 H 112.473 3.77436 0.187263 0
M  V30 1082 H 112.786 7.72418 -0.242821 0
M  V30 1083 H 111.131 6.94678 -0.211429 0
M  V30 1084 H 114.322 4.67867 0.147773 0
M  V30 1085 H 114.495 6.47982 -0.048121 0
M  V30 1086 N 107.901 -0.206675 1.56239 0
M  V30 1087 C 108.831 -1.25909 1.96645 0
M  V30 1088 C 109.812 -1.48097 0.836734 0
M  V30 1089 O 110.997 -1.6003 1.10019 0
M  V30 1090 C 108.127 -2.6058 2.29599 0
M  V30 1091 C 107.081 -2.53024 3.452 0
M  V30 1092 C 106.407 -3.91861 3.63798 0
M  V30 1093 C 107.707 -2.06524 4.79734 0
M  V30 1094 H 109.401 -0.923369 2.84806 0
M  V30 1095 H 106.947 -0.442735 1.37025 0
M  V30 1096 H 108.9 -3.34375 2.56459 0
M  V30 1097 H 107.624 -2.95869 1.38307 0
M  V30 1098 H 106.283 -1.81684 3.18412 0
M  V30 1099 H 105.931 -4.24483 2.69857 0
M  V30 1100 H 105.631 -3.87683 4.4156 0
M  V30 1101 H 107.155 -4.67296 3.93022 0
M  V30 1102 H 108.569 -2.70072 5.05702 0
M  V30 1103 H 106.966 -2.13374 5.60885 0
M  V30 1104 H 108.036 -1.01802 4.74093 0
M  V30 1105 N 109.379 -1.50304 -0.473955 0
M  V30 1106 C 110.627 -1.60832 -1.22382 0
M  V30 1107 C 110.948 -0.30939 -1.9253 0
M  V30 1108 O 110.218 0.67296 -1.83978 0
M  V30 1109 H 108.798 -0.592652 -0.454723 0
M  V30 1110 H 111.46 -1.87068 -0.546968 0
M  V30 1111 H 110.556 -2.41803 -1.97327 0
M  V30 1112 N 110.857 0.726932 -1.39834 0
M  V30 1113 C 112.105 1.4837 -1.37225 0
M  V30 1114 C 112.426 1.94979 0.0284857 0
M  V30 1115 O 111.696 1.69555 0.981213 0
M  V30 1116 H 110.276 0.55043 -0.505011 0
M  V30 1117 H 112.938 0.862468 -1.74778 0
M  V30 1118 H 112.034 2.36198 -2.04003 0
M  V30 1119 N 112.336 1.25143 0.95797 0
M  V30 1120 C 113.584 1.09476 1.69881 0
M  V30 1121 C 113.905 -0.365502 1.91544 0
M  V30 1122 O 113.175 -1.25985 1.50015 0
M  V30 1123 H 111.755 0.402128 0.629525 0
M  V30 1124 H 114.417 1.57214 1.15194 0
M  V30 1125 H 113.513 1.60046 2.6794 0
M  V30 1126 N 113.814 -1.1601 1.06675 0
M  V30 1127 C 114.744 -2.22688 0.702307 0
M  V30 1128 C 115.725 -1.67306 -0.307032 0
M  V30 1129 O 116.91 -1.93352 -0.181305 0
M  V30 1130 C 114.04 -3.47178 0.092038 0
M  V30 1131 C 112.994 -4.15477 1.02777 0
M  V30 1132 C 112.32 -5.33963 0.28061 0
M  V30 1133 C 113.62 -4.66019 2.35846 0
M  V30 1134 H 115.314 -2.53429 1.59419 0
M  V30 1135 H 112.86 -1.21813 0.767961 0
M  V30 1136 H 114.813 -4.21037 -0.174814 0
M  V30 1137 H 113.537 -3.15749 -0.834877 0
M  V30 1138 H 112.196 -3.43549 1.27944 0
M  V30 1139 H 111.844 -4.98788 -0.649545 0
M  V30 1140 H 111.544 -5.806 0.904258 0
M  V30 1141 H 113.068 -6.10596 0.021396 0
M  V30 1142 H 114.482 -5.3144 2.15045 0
M  V30 1143 H 112.879 -5.23293 2.93743 0
M  V30 1144 H 113.949 -3.82023 2.98641 0
M  V30 1145 N 115.292 -0.849877 -1.32721 0
M  V30 1146 C 116.538 -0.451591 -1.97708 0
M  V30 1147 C 116.871 0.989175 -1.6712 0
M  V30 1148 O 116.146 1.69334 -0.956891 0
M  V30 1149 C 116.429 -0.685598 -3.53513 0
M  V30 1150 C 116.282 -2.17444 -3.93749 0
M  V30 1151 C 117.601 -0.138874 -4.39881 0
M  V30 1152 H 114.72 -0.16555 -0.718166 0
M  V30 1153 H 117.362 -1.06742 -1.57182 0
M  V30 1154 H 115.512 -0.161416 -3.88165 0
M  V30 1155 H 117.184 -2.76433 -3.693 0
M  V30 1156 H 115.427 -2.65476 -3.43081 0
M  V30 1157 H 116.098 -2.28888 -5.02309 0
M  V30 1158 H 118.574 -0.587068 -4.11938 0
M  V30 1159 H 117.45 -0.332213 -5.47894 0
M  V30 1160 H 117.711 0.95806 -4.31594 0
M  V30 1161 N 116.77 1.45427 -0.607355 0
M  V30 1162 C 117.68 2.34325 0.113463 0
M  V30 1163 C 118.696 1.51226 0.860617 0
M  V30 1164 O 119.872 1.84029 0.818255 0
M  V30 1165 C 116.937 3.28839 1.09844 0
M  V30 1166 C 115.998 4.27844 0.353271 0
M  V30 1167 C 115.231 5.17842 1.29133 0
M  V30 1168 O 115.454 5.11264 2.52913 0
M  V30 1169 O 114.388 5.96713 0.788523 0
M  V30 1170 H 118.214 2.97364 -0.617094 0
M  V30 1171 H 115.799 1.44807 -0.367619 0
M  V30 1172 H 117.681 3.8708 1.66575 0
M  V30 1173 H 116.356 2.68365 1.81003 0
M  V30 1174 H 115.263 3.7322 -0.256494 0
M  V30 1175 H 116.596 4.91173 -0.317822 0
M  V30 1176 N 118.248 0.346503 1.53744 0
M  V30 1177 C 119.497 -0.250122 2.00143 0
M  V30 1178 C 119.81 -1.51418 1.23822 0
M  V30 1179 O 121.016 -2.18823 1.60713 0
M  V30 1180 C 119.472 -0.496252 3.56462 0
M  V30 1181 C 119.08 0.752077 4.41642 0
M  V30 1182 C 120.824 -1.05157 4.11269 0
M  V30 1183 C 118.731 0.476583 5.89477 0
M  V30 1184 H 117.661 -0.0972409 0.747703 0
M  V30 1185 H 120.312 0.46229 1.77581 0
M  V30 1186 H 118.694 -1.26944 3.75102 0
M  V30 1187 H 119.868 1.5266 4.34778 0
M  V30 1188 H 118.183 1.22925 3.97842 0
M  V30 1189 H 120.78 -1.27269 5.19333 0
M  V30 1190 H 121.123 -2.00799 3.64672 0
M  V30 1191 H 121.656 -0.339019 3.96353 0
M  V30 1192 H 118.395 1.4028 6.40314 0
M  V30 1193 H 117.915 -0.259794 5.99237 0
M  V30 1194 H 119.594 0.0949315 6.4693 0
M  V30 1195 N 119.726 -1.57421 0.075193 0
M  V30 1196 C 121.137 -1.81021 -0.456964 0
M  V30 1197 C 121.488 -0.98936 -1.69429 0
M  V30 1198 O 120.613 -0.212865 -2.15351 0
M  V30 1199 C 121.208 -3.28329 -0.83581 0
M  V30 1200 C 119.767 -3.52764 -1.31281 0
M  V30 1201 C 118.914 -2.75676 -0.299648 0
M  V30 1202 H 121.865 -1.55822 0.300856 0
M  V30 1203 H 121.886 -3.40564 -1.69696 0
M  V30 1204 H 121.398 -3.88046 0.0649238 0
M  V30 1205 H 119.499 -2.98355 -2.23193 0
M  V30 1206 H 119.612 -4.61451 -1.28839 0
M  V30 1207 H 117.976 -2.42538 -0.777641 0
M  V30 1208 H 118.759 -3.38132 0.593417 0
M  V30 1209 N 121.204 0.198386 -1.56346 0
M  V30 1210 C 122.62 0.549085 -1.49857 0
M  V30 1211 C 122.82 1.86016 -0.774611 0
M  V30 1212 O 121.876 2.50416 -0.323776 0
M  V30 1213 C 123.189 0.606868 -2.94512 0
M  V30 1214 C 124.737 0.695925 -3.05165 0
M  V30 1215 C 125.212 0.784848 -4.51225 0
M  V30 1216 N 126.703 0.848463 -4.55363 0
M  V30 1217 C 127.438 0.937378 -5.65686 0
M  V30 1218 N 126.934 0.9888 -6.85707 0
M  V30 1219 N 128.727 0.974312 -5.53592 0
M  V30 1220 H 120.878 -0.661655 -2.01831 0
M  V30 1221 H 123.141 -0.235261 -0.918344 0
M  V30 1222 H 122.847 -0.28732 -3.50524 0
M  V30 1223 H 122.721 1.46268 -3.47686 0
M  V30 1224 H 125.108 1.58055 -2.49204 0
M  V30 1225 H 125.189 -0.186022 -2.55123 0
M  V30 1226 H 124.833 -0.0954072 -5.0781 0
M  V30 1227 H 124.763 1.68255 -4.98997 0
M  V30 1228 H 127.254 0.818103 -3.68938 0
M  V30 1229 H 127.567 1.05707 -7.65536 0
M  V30 1230 H 125.912 0.957534 -6.88372 0
M  V30 1231 H 129.103 0.930954 -4.58749 0
M  V30 1232 H 129.276 1.04015 -6.39597 0
M  V30 1233 N 122.682 1.50554 0.465978 0
M  V30 1234 C 123.645 1.69233 1.54574 0
M  V30 1235 C 124.645 0.562901 1.50626 0
M  V30 1236 O 125.835 0.830016 1.53155 0
M  V30 1237 C 122.967 1.7223 2.94193 0
M  V30 1238 H 124.16 2.65571 1.39327 0
M  V30 1239 H 121.713 1.40111 0.692711 0
M  V30 1240 H 122.448 0.77603 3.14878 0
M  V30 1241 H 122.233 2.54285 2.98466 0
M  V30 1242 H 123.723 1.88618 3.72576 0
M  V30 1243 N 124.16 -0.719506 1.40217 0
M  V30 1244 C 125.571 -1.29848 1.34151 0
M  V30 1245 C 125.922 -1.96196 0.0131349 0
M  V30 1246 O 125.047 -1.973 -0.88892 0
M  V30 1247 C 125.642 -2.36118 2.42968 0
M  V30 1248 C 124.201 -2.8965 2.40374 0
M  V30 1249 C 123.348 -1.63393 2.24049 0
M  V30 1250 H 126.299 -0.51591 1.5008 0
M  V30 1251 H 126.32 -3.16871 2.10649 0
M  V30 1252 H 125.832 -1.878 3.39636 0
M  V30 1253 H 123.933 -3.42208 1.47392 0
M  V30 1254 H 124.046 -3.4171 3.35814 0
M  V30 1255 H 122.41 -1.88312 1.71495 0
M  V30 1256 H 123.193 -1.17104 3.2271 0
M  V30 1257 N 125.638 -1.25649 -0.95132 0
M  V30 1258 C 126.915 -1.01361 -1.67288 0
M  V30 1259 C 127.295 0.459135 -2.06046 0
M  V30 1260 O 126.643 1.43723 -1.7764 0
M  V30 1261 C 126.853 -1.95256 -2.89268 0
M  V30 1262 C 128.201 -2.23289 -3.61147 0
M  V30 1263 O 129.225 -1.93041 -2.99355 0
M  V30 1264 O 128.084 -2.74741 -4.72419 0
M  V30 1265 H 125.178 -0.38464 -0.732107 0
M  V30 1266 H 127.724 -1.36817 -1.00395 0
M  V30 1267 H 126.496 -2.94685 -2.57442 0
M  V30 1268 H 126.119 -1.60218 -3.6389 0
M  V30 1269 N 127.117 1.15442 -1.07289 0
M  V30 1270 C 128.366 1.85557 -0.790669 0
M  V30 1271 C 128.679 1.83186 0.685739 0
M  V30 1272 O 129.885 2.48977 1.0827 0
M  V30 1273 C 128.341 3.33038 -1.36433 0
M  V30 1274 C 127.949 3.43856 -2.8717 0
M  V30 1275 C 129.693 4.0834 -1.1601 0
M  V30 1276 C 127.6 4.85482 -3.3773 0
M  V30 1277 H 126.53 0.695122 -0.292098 0
M  V30 1278 H 129.181 1.30219 -1.29287 0
M  V30 1279 H 127.563 3.88043 -0.789864 0
M  V30 1280 H 128.737 2.98961 -3.50655 0
M  V30 1281 H 127.052 2.81998 -3.06376 0
M  V30 1282 H 129.649 5.12859 -1.51262 0
M  V30 1283 H 129.992 4.16182 -0.0991007 0
M  V30 1284 H 130.525 3.59603 -1.70089 0
M  V30 1285 H 127.264 4.82823 -4.43353 0
M  V30 1286 H 126.784 5.30961 -2.78999 0
M  V30 1287 H 128.463 5.54335 -3.33648 0
M  V30 1288 N 128.595 0.856903 1.32268 0
M  V30 1289 C 129.872 0.382583 1.91822 0
M  V30 1290 C 130.252 -1.13407 1.78051 0
M  V30 1291 O 129.6 -1.95673 1.18001 0
M  V30 1292 C 129.81 0.849446 3.38505 0
M  V30 1293 C 131.158 0.867936 4.15634 0
M  V30 1294 O 132.182 0.794232 3.47232 0
M  V30 1295 O 131.041 0.972286 5.37781 0
M  V30 1296 H 128.135 0.112014 0.819379 0
M  V30 1297 H 130.681 0.943952 1.41024 0
M  V30 1298 H 129.453 1.89267 3.42482 0
M  V30 1299 H 129.076 0.265652 3.96712 0
M  V30 1300 N 130.073 -1.45103 0.615059 0
M  V30 1301 C 131.484 -1.85654 0.197383 0
M  V30 1302 C 131.835 -1.51433 -1.24749 0
M  V30 1303 O 130.96 -0.944608 -1.94695 0
M  V30 1304 C 131.555 -3.36972 0.351448 0
M  V30 1305 C 130.114 -3.76398 -0.011593 0
M  V30 1306 C 129.261 -2.69024 0.672394 0
M  V30 1307 H 132.212 -1.35797 0.821263 0
M  V30 1308 H 132.233 -3.78239 -0.414227 0
M  V30 1309 H 131.745 -3.61847 1.40314 0
M  V30 1310 H 129.846 -3.5714 -1.06217 0
M  V30 1311 H 129.959 -4.77532 0.387265 0
M  V30 1312 H 128.323 -2.54465 0.109284 0
M  V30 1313 H 129.106 -2.96735 1.72636 0
M  V30 1314 N 131.551 -0.354651 -1.53558 0
M  V30 1315 C 132.481 0.489091 -2.2832 0
M  V30 1316 C 133.462 1.09324 -1.30316 0
M  V30 1317 O 134.647 1.11255 -1.59173 0
M  V30 1318 C 131.777 1.63456 -3.0643 0
M  V30 1319 C 130.731 1.1582 -4.12031 0
M  V30 1320 C 130.057 2.39305 -4.7816 0
M  V30 1321 C 131.357 0.250731 -5.21698 0
M  V30 1322 H 133.051 -0.134614 -2.99097 0
M  V30 1323 H 130.597 -0.0661826 -1.43848 0
M  V30 1324 H 132.55 2.23136 -3.57475 0
M  V30 1325 H 131.274 2.28533 -2.33325 0
M  V30 1326 H 129.933 0.584146 -3.61916 0
M  V30 1327 H 129.581 3.02814 -4.01637 0
M  V30 1328 H 129.281 2.08109 -5.49513 0
M  V30 1329 H 130.805 2.99691 -5.31994 0
M  V30 1330 H 132.219 0.754695 -5.68311 0
M  V30 1331 H 130.616 0.0301468 -6.00092 0
M  V30 1332 H 131.686 -0.710125 -4.79672 0
M  V30 1333 N 133.029 1.57378 -0.0835403 0
M  V30 1334 C 133.939 2.16897 0.894021 0
M  V30 1335 C 134.955 1.13528 1.31861 0
M  V30 1336 O 136.131 1.45848 1.3889 0
M  V30 1337 C 133.196 2.72831 2.13925 0
M  V30 1338 C 132.257 3.91115 1.76997 0
M  V30 1339 C 131.49 4.44371 2.95584 0
M  V30 1340 O 131.713 3.96596 4.09961 0
M  V30 1341 O 130.647 5.35549 2.74719 0
M  V30 1342 H 134.473 3.00814 0.417679 0
M  V30 1343 H 132.058 1.48741 0.140181 0
M  V30 1344 H 133.94 3.0863 2.86924 0
M  V30 1345 H 132.615 1.91967 2.60635 0
M  V30 1346 H 131.522 3.60148 1.01214 0
M  V30 1347 H 132.855 4.73307 1.3506 0
M  V30 1348 N 134.507 -0.190092 1.56449 0
M  V30 1349 C 135.47 -1.21925 1.9408 0
M  V30 1350 C 136.47 -1.38176 0.822431 0
M  V30 1351 O 137.66 -1.35903 1.08977 0
M  V30 1352 C 134.792 -2.58773 2.21922 0
M  V30 1353 H 135.985 -0.897464 2.86157 0
M  V30 1354 H 133.538 -0.43181 1.50217 0
M  V30 1355 H 134.273 -2.95998 1.32499 0
M  V30 1356 H 134.058 -2.48348 3.03424 0
M  V30 1357 H 135.548 -3.32978 2.52022 0
M  V30 1358 N 135.985 -1.50799 -0.457987 0
M  V30 1359 C 136.915 -1.73553 -1.5621 0
M  V30 1360 C 137.896 -0.584774 -1.59732 0
M  V30 1361 O 139.081 -0.825314 -1.7579 0
M  V30 1362 C 136.211 -1.84169 -2.94447 0
M  V30 1363 C 135.165 -2.99461 -3.0579 0
M  V30 1364 C 134.491 -2.95235 -4.45803 0
M  V30 1365 C 135.791 -4.39766 -2.81786 0
M  V30 1366 H 137.485 -2.66 -1.37421 0
M  V30 1367 H 135.031 -1.28002 -0.659662 0
M  V30 1368 H 136.984 -1.98672 -3.71628 0
M  V30 1369 H 135.708 -0.883545 -3.14422 0
M  V30 1370 H 134.367 -2.8463 -2.31044 0
M  V30 1371 H 134.015 -1.97239 -4.62715 0
M  V30 1372 H 133.715 -3.72642 -4.54326 0
M  V30 1373 H 135.239 -3.11803 -5.24987 0
M  V30 1374 H 136.653 -4.55054 -3.4871 0
M  V30 1375 H 135.05 -5.18722 -3.0174 0
M  V30 1376 H 136.12 -4.51229 -1.7754 0
M  V30 1377 N 137.463 0.71206 -1.40597 0
M  V30 1378 C 138.396 1.83582 -1.35546 0
M  V30 1379 C 139.374 1.61032 -0.225284 0
M  V30 1380 O 140.558 1.83998 -0.409519 0
M  V30 1381 C 137.685 3.19983 -1.11034 0
M  V30 1382 C 136.731 3.61355 -2.2655 0
M  V30 1383 S 137.564 3.68062 -3.88961 0
M  V30 1384 C 138.72 5.07216 -3.66719 0
M  V30 1385 H 138.953 1.87586 -2.30648 0
M  V30 1386 H 136.486 0.879182 -1.26924 0
M  V30 1387 H 138.444 3.98734 -0.975761 0
M  V30 1388 H 137.105 3.13608 -0.175798 0
M  V30 1389 H 136.298 4.60403 -2.0505 0
M  V30 1390 H 135.9 2.8987 -2.36329 0
M  V30 1391 H 138.192 5.94238 -3.25404 0
M  V30 1392 H 139.135 5.33753 -4.6531 0
M  V30 1393 H 139.543 4.77976 -3.00332 0
M  V30 1394 N 138.941 1.26152 0.944643 0
M  V30 1395 C 140.169 1.14259 1.72489 0
M  V30 1396 C 140.584 -0.302555 1.8636 0
M  V30 1397 O 139.941 -1.20741 1.36849 0
M  V30 1398 C 139.992 1.80266 3.13347 0
M  V30 1399 O 139.713 3.19133 3.00143 0
M  V30 1400 C 141.214 1.74283 4.07603 0
M  V30 1401 H 138.434 0.398051 0.540181 0
M  V30 1402 H 140.978 1.66706 1.18446 0
M  V30 1403 H 139.133 1.31766 3.64303 0
M  V30 1404 H 139.547 3.51744 3.89071 0
M  V30 1405 H 141.021 2.25111 5.04013 0
M  V30 1406 H 141.498 0.708631 4.33446 0
M  V30 1407 H 142.104 2.22319 3.62567 0
M  V30 1408 N 140.419 -1.14872 1.07899 0
M  V30 1409 C 141.367 -2.21857 0.698727 0
M  V30 1410 C 142.361 -1.66845 -0.293086 0
M  V30 1411 O 143.567 -1.79321 -0.156204 0
M  V30 1412 H 139.942 -0.722691 0.207899 0
M  V30 1413 H 141.913 -2.51205 1.61054 0
M  V30 1414 C 140.662 -3.47498 0.11858 0
M  V30 1415 H 139.985 -3.90154 0.872914 0
M  V30 1416 H 141.425 -4.23858 -0.109759 0
M  V30 1417 C 139.884 -3.16947 -1.1422 0
M  V30 1418 O 140.414 -3.3426 -2.22785 0
M  V30 1419 N 138.62 -2.70946 -1.05055 0
M  V30 1420 H 138.167 -2.57058 -0.167038 0
M  V30 1421 H 138.125 -2.50879 -1.89491 0
M  V30 1422 N 141.898 -0.863906 -1.31812 0
M  V30 1423 C 143.309 -0.52522 -1.7916 0
M  V30 1424 C 143.66 0.957518 -1.71248 0
M  V30 1425 O 142.785 1.74734 -1.27659 0
M  V30 1426 C 143.38 -0.9466 -3.25307 0
M  V30 1427 C 141.939 -0.659668 -3.70574 0
M  V30 1428 C 141.086 -1.14126 -2.52726 0
M  V30 1429 H 144.037 -1.05022 -1.1898 0
M  V30 1430 H 144.058 -0.266766 -3.79564 0
M  V30 1431 H 143.57 -2.02579 -3.31034 0
M  V30 1432 H 141.671 0.408416 -3.70355 0
M  V30 1433 H 141.784 -1.23245 -4.62977 0
M  V30 1434 H 140.148 -0.561216 -2.4844 0
M  V30 1435 H 140.931 -2.22775 -2.61201 0
M  V30 1436 N 143.376 1.44774 -0.622745 0
M  V30 1437 C 144.622 2.0242 -0.124083 0
M  V30 1438 C 144.955 1.4881 1.24777 0
M  V30 1439 O 144.23 0.668799 1.8264 0
M  V30 1440 C 144.513 3.59957 -0.101619 0
M  V30 1441 C 144.366 4.23867 -1.50521 0
M  V30 1442 C 145.685 4.36284 0.578272 0
M  V30 1443 H 142.804 0.735528 -0.0465645 0
M  V30 1444 H 145.446 1.72447 -0.797617 0
M  V30 1445 H 143.596 3.85623 0.471934 0
M  V30 1446 H 145.268 4.09336 -2.12701 0
M  V30 1447 H 143.511 3.81684 -2.06154 0
M  V30 1448 H 144.182 5.32843 -1.4416 0
M  V30 1449 H 146.658 4.16001 0.0906057 0
M  V30 1450 H 145.534 5.46004 0.563149 0
M  V30 1451 H 145.795 4.10271 1.64713 0
M  V30 1452 N 144.854 0.36279 1.53368 0
M  V30 1453 C 146.1 -0.228113 2.01513 0
M  V30 1454 C 146.433 -1.48648 1.2497 0
M  V30 1455 O 145.708 -1.91459 0.342616 0
M  V30 1456 C 145.991 -0.522884 3.56284 0
M  V30 1457 C 145.844 0.74892 4.43521 0
M  V30 1458 C 147.163 -1.32461 4.19693 0
M  V30 1459 H 144.282 -0.0814343 0.732487 0
M  V30 1460 H 146.924 0.48713 1.83649 0
M  V30 1461 H 145.074 -1.1322 3.71636 0
M  V30 1462 H 146.746 1.38648 4.39971 0
M  V30 1463 H 144.989 1.36986 4.11603 0
M  V30 1464 H 145.66 0.497667 5.49752 0
M  V30 1465 H 148.136 -0.809203 4.08156 0
M  V30 1466 H 147.012 -1.49961 5.28018 0
M  V30 1467 H 147.273 -2.33232 3.75573 0
M  V30 1468 N 146.332 -1.57332 0.0918853 0
M  V30 1469 C 147.743 -1.81496 -0.437739 0
M  V30 1470 C 148.094 -1.00727 -1.6837 0
M  V30 1471 O 147.219 -0.235694 -2.15113 0
M  V30 1472 C 147.814 -3.29197 -0.800939 0
M  V30 1473 C 146.373 -3.54136 -1.27532 0
M  V30 1474 C 145.52 -2.75979 -0.270392 0
M  V30 1475 H 148.471 -1.55494 0.317366 0
M  V30 1476 H 148.492 -3.42344 -1.66074 0
M  V30 1477 H 148.004 -3.87955 0.106078 0
M  V30 1478 H 146.105 -3.00705 -2.20016 0
M  V30 1479 H 146.218 -4.62792 -1.23938 0
M  V30 1480 H 144.582 -2.43349 -0.751872 0
M  V30 1481 H 145.365 -3.37484 0.629248 0
M  V30 1482 N 147.81 0.181792 -1.56548 0
M  V30 1483 C 148.72 1.24538 -1.98815 0
M  V30 1484 C 149.736 1.49045 -0.897861 0
M  V30 1485 O 150.912 1.61399 -1.20467 0
M  V30 1486 C 147.977 2.56683 -2.33055 0
M  V30 1487 C 147.038 2.40131 -3.55859 0
M  V30 1488 C 146.271 3.65975 -3.88456 0
M  V30 1489 O 146.494 4.70711 -3.22161 0
M  V30 1490 O 145.428 3.6071 -4.81842 0
M  V30 1491 H 149.254 0.916647 -2.89536 0
M  V30 1492 H 146.839 0.387842 -1.44278 0
M  V30 1493 H 148.721 3.34655 -2.56094 0
M  V30 1494 H 147.396 2.89157 -1.45498 0
M  V30 1495 H 146.303 1.60226 -3.38051 0
M  V30 1496 H 147.636 2.12585 -4.43924 0
M  V30 1497 N 149.288 1.51039 0.449983 0
M  V30 1498 C 150.513 1.6715 1.22783 0
M  V30 1499 C 150.938 0.363081 1.84563 0
M  V30 1500 O 150.296 -0.675433 1.68249 0
M  V30 1501 C 150.344 2.77985 2.29689 0
M  V30 1502 O 149.448 2.40707 3.34864 0
M  V30 1503 H 148.789 0.557746 0.360299 0
M  V30 1504 H 151.319 1.97535 0.533005 0
M  V30 1505 H 151.329 3.01693 2.74673 0
M  V30 1506 H 150.004 3.72935 1.84098 0
M  V30 1507 H 148.581 2.27523 2.95445 0
M  V30 1508 N 150.766 -0.704594 1.40972 0
M  V30 1509 C 151.713 -1.81862 1.42109 0
M  V30 1510 C 152.683 -1.63781 0.276593 0
M  V30 1511 O 153.868 -1.84759 0.4763 0
M  V30 1512 C 151.008 -3.19669 1.30022 0
M  V30 1513 C 150.121 -3.49246 2.54267 0
M  V30 1514 C 149.256 -4.76618 2.3454 0
M  V30 1515 C 148.295 -4.99133 3.54306 0
M  V30 1516 N 147.432 -6.17726 3.33706 0
M  V30 1517 H 152.272 -1.80226 2.37324 0
M  V30 1518 H 149.809 -0.880238 1.17857 0
M  V30 1519 H 151.767 -3.99263 1.21018 0
M  V30 1520 H 150.397 -3.20506 0.384192 0
M  V30 1521 H 149.449 -2.64125 2.73756 0
M  V30 1522 H 150.761 -3.61788 3.43381 0
M  V30 1523 H 149.915 -5.64249 2.22952 0
M  V30 1524 H 148.654 -4.66305 1.42867 0
M  V30 1525 H 147.659 -4.09953 3.66359 0
M  V30 1526 H 148.884 -5.11311 4.4692 0
M  V30 1527 H 146.83 -6.08642 2.44725 0
M  V30 1528 H 146.747 -6.30995 4.16391 0
M  V30 1529 H 148.015 -7.08115 3.25873 0
M  V30 1530 N 152.244 -1.26651 -0.937939 0
M  V30 1531 C 153.66 -1.03834 -1.21205 0
M  V30 1532 C 153.86 0.234502 -2.00131 0
M  V30 1533 O 152.916 0.942767 -2.3424 0
M  V30 1534 C 154.229 -2.27167 -1.97017 0
M  V30 1535 C 155.777 -2.32101 -2.09996 0
M  V30 1536 C 156.252 -3.55136 -2.8921 0
M  V30 1537 N 157.743 -3.55632 -2.96783 0
M  V30 1538 C 158.478 -4.475 -3.58512 0
M  V30 1539 N 157.974 -5.4966 -4.21717 0
M  V30 1540 N 159.767 -4.35145 -3.55816 0
M  V30 1541 H 151.918 -2.08398 -0.410391 0
M  V30 1542 H 154.181 -0.916031 -0.244114 0
M  V30 1543 H 153.887 -3.19765 -1.46434 0
M  V30 1544 H 153.761 -2.31672 -2.97671 0
M  V30 1545 H 156.148 -1.40015 -2.59769 0
M  V30 1546 H 156.229 -2.31605 -1.08594 0
M  V30 1547 H 155.873 -4.47553 -2.40123 0
M  V30 1548 H 155.803 -3.5288 -3.90875 0
M  V30 1549 H 158.294 -2.81743 -2.51852 0
M  V30 1550 H 158.607 -6.15943 -4.66727 0
M  V30 1551 H 156.952 -5.53514 -4.20294 0
M  V30 1552 H 160.143 -3.5455 -3.05634 0
M  V30 1553 H 160.316 -5.06934 -4.03636 0
M  V30 1554 N 153.722 1.14298 -1.08507 0
M  V30 1555 C 154.969 1.85359 -0.815373 0
M  V30 1556 C 155.297 1.83001 0.658865 0
M  V30 1557 O 154.552 1.25655 1.50031 0
M  V30 1558 C 154.851 3.33547 -1.28379 0
M  V30 1559 C 154.517 3.56093 -2.76602 0
M  V30 1560 C 153.179 3.61955 -3.17084 0
M  V30 1561 C 155.531 3.64834 -3.72217 0
M  V30 1562 C 152.859 3.74082 -4.51973 0
M  V30 1563 C 155.211 3.78487 -5.06883 0
M  V30 1564 C 153.875 3.82598 -5.46969 0
M  V30 1565 H 153.145 0.678276 -0.298366 0
M  V30 1566 H 155.792 1.35002 -1.35819 0
M  V30 1567 H 154.097 3.86191 -0.660593 0
M  V30 1568 H 155.794 3.86959 -1.05186 0
M  V30 1569 H 152.384 3.52179 -2.4427 0
M  V30 1570 H 156.568 3.59595 -3.42061 0
M  V30 1571 H 151.824 3.75527 -4.82483 0
M  V30 1572 H 155.998 3.84193 -5.80834 0
M  V30 1573 H 153.625 3.91747 -6.51489 0
M  V30 1574 N 155.201 0.870884 1.31352 0
M  V30 1575 C 156.441 0.488783 1.9847 0
M  V30 1576 C 156.805 -0.941536 1.67329 0
M  V30 1577 O 158.006 -1.42903 2.27667 0
M  V30 1578 C 156.277 0.739688 3.49662 0
M  V30 1579 S 157.836 0.457582 4.36408 0
M  V30 1580 H 154.654 0.18242 0.6872 0
M  V30 1581 H 157.256 1.12711 1.59739 0
M  V30 1582 H 155.96 1.77944 3.69816 0
M  V30 1583 H 155.491 0.0883905 3.93301 0
M  V30 1584 H 157.506 -0.709752 4.91098 0
M  V30 1585 N 156.679 -1.44442 0.630414 0
M  V30 1586 C 157.925 -2.02894 0.143332 0
M  V30 1587 C 158.28 -1.48697 -1.22094 0
M  V30 1588 O 157.573 -0.661171 -1.79831 0
M  V30 1589 C 157.767 -3.57332 0.0697835 0
M  V30 1590 C 157.596 -4.26512 1.42539 0
M  V30 1591 C 156.366 -4.63516 2.01198 0
M  V30 1592 C 158.564 -4.57004 2.35907 0
M  V30 1593 N 156.546 -5.17661 3.30001 0
M  V30 1594 C 157.917 -5.12223 3.49324 0
M  V30 1595 C 159.972 -4.38955 2.34995 0
M  V30 1596 C 158.675 -5.51295 4.62024 0
M  V30 1597 C 160.701 -4.79075 3.46758 0
M  V30 1598 C 160.063 -5.34407 4.58899 0
M  V30 1599 H 156.162 -0.776041 0.0963523 0
M  V30 1600 H 158.746 -1.75945 0.833752 0
M  V30 1601 H 156.917 -3.83894 -0.589915 0
M  V30 1602 H 158.649 -4.02451 -0.42606 0
M  V30 1603 H 155.404 -4.47811 1.54151 0
M  V30 1604 H 155.828 -5.4921 3.95851 0
M  V30 1605 H 160.47 -3.95469 1.49545 0
M  V30 1606 H 158.188 -5.93736 5.48182 0
M  V30 1607 H 161.774 -4.66824 3.47227 0
M  V30 1608 H 160.654 -5.64878 5.4395 0
M  V30 1609 N 158.157 -0.370918 -1.53173 0
M  V30 1610 C 159.105 0.488101 -2.27421 0
M  V30 1611 C 160.099 1.07884 -1.30604 0
M  V30 1612 O 161.305 1.02143 -1.48212 0
M  V30 1613 H 157.68 0.176134 -0.731082 0
M  V30 1614 H 159.651 -0.159815 -2.97972 0
M  V30 1615 C 158.4 1.61306 -3.08019 0
M  V30 1616 H 157.723 1.1678 -3.82364 0
M  V30 1617 H 159.163 2.18872 -3.63141 0
M  V30 1618 C 157.622 2.55848 -2.19188 0
M  V30 1619 O 158.152 3.58799 -1.80626 0
M  V30 1620 N 156.358 2.2516 -1.83715 0
M  V30 1621 H 155.905 1.41476 -2.15273 0
M  V30 1622 H 155.863 2.8867 -1.24567 0
M  V30 1623 N 159.635 1.57281 -0.100228 0
M  V30 1624 C 160.875 1.96419 0.56558 0
M  V30 1625 C 161.239 0.981265 1.65031 0
M  V30 1626 O 162.44 1.26133 2.37369 0
M  V30 1627 C 160.711 3.39996 1.10171 0
M  V30 1628 S 162.27 4.01134 1.77867 0
M  V30 1629 H 159.088 0.68667 0.184406 0
M  V30 1630 H 161.69 1.94662 -0.180851 0
M  V30 1631 H 160.394 4.09296 0.300803 0
M  V30 1632 H 159.925 3.45361 1.88385 0
M  V30 1633 H 161.94 3.90358 3.06326 0
M  V30 1634 N 161.113 -0.173488 1.56642 0
M  V30 1635 C 162.361 -0.888706 1.81512 0
M  V30 1636 C 162.682 -1.82875 0.676872 0
M  V30 1637 O 161.952 -1.93536 -0.303414 0
M  V30 1638 H 160.532 -0.331164 0.669582 0
M  V30 1639 H 163.194 -0.173823 1.94123 0
M  V30 1640 H 162.29 -1.46691 2.75478 0
M  V30 1641 N 162.591 -1.51276 -0.441967 0
M  V30 1642 C 164.007 -1.39349 -0.778083 0
M  V30 1643 C 164.207 -0.472212 -1.95889 0
M  V30 1644 O 163.263 0.0743551 -2.5239 0
M  V30 1645 C 164.576 -2.81292 -1.0628 0
M  V30 1646 C 166.124 -2.9041 -1.16751 0
M  V30 1647 C 166.599 -4.33251 -1.48519 0
M  V30 1648 N 168.09 -4.36336 -1.55453 0
M  V30 1649 C 168.825 -5.43885 -1.81596 0
M  V30 1650 N 168.321 -6.61601 -2.05562 0
M  V30 1651 N 170.114 -5.3136 -1.8334 0
M  V30 1652 H 162.265 -2.09729 0.335774 0
M  V30 1653 H 164.528 -0.943925 0.0878028 0
M  V30 1654 H 164.234 -3.50678 -0.267905 0
M  V30 1655 H 164.108 -3.20334 -1.99163 0
M  V30 1656 H 166.495 -2.21225 -1.95304 0
M  V30 1657 H 166.576 -2.54871 -0.217801 0
M  V30 1658 H 166.22 -5.02984 -0.704958 0
M  V30 1659 H 166.15 -4.66299 -2.44689 0
M  V30 1660 H 168.641 -3.51466 -1.38853 0
M  V30 1661 H 168.954 -7.39361 -2.24867 0
M  V30 1662 H 167.299 -6.64725 -2.02894 0
M  V30 1663 H 170.49 -4.38382 -1.64132 0
M  V30 1664 H 170.663 -6.15258 -2.03377 0
M  V30 1665 N 164.069 0.697108 -1.41344 0
M  V30 1666 C 165.48 1.27697 -1.36199 0
M  V30 1667 C 165.831 1.9615 -0.0443463 0
M  V30 1668 O 164.956 1.98689 0.857419 0
M  V30 1669 C 165.551 2.32223 -2.46694 0
M  V30 1670 C 164.11 2.8579 -2.44952 0
M  V30 1671 C 163.257 1.59807 -2.26621 0
M  V30 1672 H 166.208 0.491968 -1.50882 0
M  V30 1673 H 166.229 3.1348 -2.15664 0
M  V30 1674 H 165.741 1.82373 -3.42581 0
M  V30 1675 H 163.842 3.3982 -1.52817 0
M  V30 1676 H 163.955 3.36325 -3.41207 0
M  V30 1677 H 162.319 1.8556 -1.7447 0
M  V30 1678 H 163.102 1.11956 -3.24532 0
M  V30 1679 N 165.547 1.27147 0.931209 0
M  V30 1680 C 166.793 1.13446 1.68101 0
M  V30 1681 C 167.126 -0.319628 1.91552 0
M  V30 1682 O 166.401 -1.23407 1.50336 0
M  V30 1683 C 166.684 1.91482 3.0497 0
M  V30 1684 C 166.537 3.44855 2.88782 0
M  V30 1685 C 167.856 1.71651 4.05246 0
M  V30 1686 H 164.975 0.413498 0.610072 0
M  V30 1687 H 167.617 1.56261 1.08086 0
M  V30 1688 H 165.767 1.55095 3.56199 0
M  V30 1689 H 167.439 3.9105 2.44698 0
M  V30 1690 H 165.682 3.71373 2.24198 0
M  V30 1691 H 166.353 3.94694 3.85902 0
M  V30 1692 H 168.829 2.0337 3.63015 0
M  V30 1693 H 167.705 2.28651 4.99009 0
M  V30 1694 H 167.966 0.663555 4.37092 0
M  V30 1695 N 167.025 -1.13721 1.09112 0
M  V30 1696 C 168.273 -1.84559 0.823562 0
M  V30 1697 C 168.594 -1.83754 -0.652658 0
M  V30 1698 O 167.864 -1.29102 -1.47342 0
M  V30 1699 H 166.444 -0.683376 0.301673 0
M  V30 1700 H 169.106 -1.37771 1.37859 0
M  V30 1701 H 168.202 -2.8917 1.17419 0
M  V30 1702 N 168.503 -0.877838 -1.30888 0
M  V30 1703 C 169.919 -0.570844 -1.49042 0
M  V30 1704 C 170.119 0.893159 -1.80624 0
M  V30 1705 O 169.175 1.67485 -1.88958 0
M  V30 1706 C 170.488 -1.47784 -2.61878 0
M  V30 1707 C 172.036 -1.48071 -2.75761 0
M  V30 1708 C 172.511 -2.37347 -3.91702 0
M  V30 1709 N 174.002 -2.35271 -3.99001 0
M  V30 1710 C 174.737 -3.01063 -4.88004 0
M  V30 1711 N 174.233 -3.76055 -5.81854 0
M  V30 1712 N 176.026 -2.90332 -4.81315 0
M  V30 1713 H 168.177 -1.82502 -1.0866 0
M  V30 1714 H 170.44 -0.780797 -0.537644 0
M  V30 1715 H 170.146 -2.51993 -2.45341 0
M  V30 1716 H 170.02 -1.18215 -3.58197 0
M  V30 1717 H 172.407 -0.446166 -2.91708 0
M  V30 1718 H 172.488 -1.81668 -1.80085 0
M  V30 1719 H 172.132 -3.40883 -3.76512 0
M  V30 1720 H 172.062 -2.01071 -4.86701 0
M  V30 1721 H 174.553 -1.80768 -3.3186 0
M  V30 1722 H 174.866 -4.23366 -6.46514 0
M  V30 1723 H 173.211 -3.80163 -5.81808 0
M  V30 1724 H 176.402 -2.31278 -4.06974 0
M  V30 1725 H 176.575 -3.41885 -5.50471 0
M  V30 1726 N 169.982 1.44106 -0.638065 0
M  V30 1727 C 171.207 2.0685 -0.150916 0
M  V30 1728 C 171.632 1.47417 1.16833 0
M  V30 1729 O 170.99 0.578264 1.71831 0
M  V30 1730 C 171.038 3.60555 -0.05708 0
M  V30 1731 O 170.142 4.00465 0.984972 0
M  V30 1732 H 169.483 0.658151 -0.0879399 0
M  V30 1733 H 172.013 1.84865 -0.876707 0
M  V30 1734 H 172.023 4.07789 0.131232 0
M  V30 1735 H 170.698 4.03193 -1.02021 0
M  V30 1736 H 169.275 3.64849 0.770672 0
M  V30 1737 N 171.46 0.379036 1.52974 0
M  V30 1738 C 172.737 -0.263479 1.93817 0
M  V30 1739 C 173.117 -1.65244 1.31368 0
M  V30 1740 O 172.465 -2.23448 0.477856 0
M  V30 1741 C 172.675 -0.300166 3.47707 0
M  V30 1742 C 174.023 -0.534061 4.21228 0
M  V30 1743 O 175.047 -0.38081 3.54159 0
M  V30 1744 O 173.906 -0.833501 5.40106 0
M  V30 1745 H 171 -0.161149 0.811147 0
M  V30 1746 H 173.546 0.432798 1.64088 0
M  V30 1747 H 172.318 0.673138 3.85467 0
M  V30 1748 H 171.941 -1.04179 3.83709 0
M  V30 1749 N 172.938 -1.57226 0.108567 0
M  V30 1750 C 174.163 -1.99604 -0.563303 0
M  V30 1751 C 174.588 -0.987563 -1.6009 0
M  V30 1752 O 173.946 0.0421687 -1.81251 0
M  V30 1753 C 173.994 -3.40902 -1.17552 0
M  V30 1754 O 173.098 -3.42896 -2.2912 0
M  V30 1755 H 172.439 -0.648704 -0.1417 0
M  V30 1756 H 174.969 -2.03679 0.193961 0
M  V30 1757 H 174.979 -3.78886 -1.51357 0
M  V30 1758 H 173.654 -4.1382 -0.415445 0
M  V30 1759 H 172.231 -3.1672 -1.96832 0
M  V30 1760 N 174.416 0.165178 -1.56732 0
M  V30 1761 C 175.326 1.22423 -2.00125 0
M  V30 1762 C 176.342 1.48084 -0.913619 0
M  V30 1763 O 177.518 1.60112 -1.22172 0
M  V30 1764 C 174.583 2.54197 -2.35764 0
M  V30 1765 C 173.644 2.36343 -3.58386 0
M  V30 1766 C 172.877 3.61834 -3.92316 0
M  V30 1767 O 173.1 4.67267 -3.27135 0
M  V30 1768 O 172.034 3.55579 -4.85641 0
M  V30 1769 H 175.86 0.885886 -2.90492 0
M  V30 1770 H 173.445 0.372518 -1.44681 0
M  V30 1771 H 175.327 3.3192 -2.59629 0
M  V30 1772 H 174.002 2.87598 -1.48557 0
M  V30 1773 H 172.909 1.56632 -3.39731 0
M  V30 1774 H 174.242 2.07865 -4.46154 0
M  V30 1775 N 175.894 1.51508 0.433938 0
M  V30 1776 C 177.122 1.68157 1.20543 0
M  V30 1777 C 177.537 0.380362 1.84929 0
M  V30 1778 O 176.894 -0.641446 1.70856 0
M  V30 1779 C 176.945 2.79965 2.28696 0
M  V30 1780 O 176.666 4.05045 1.66943 0
M  V30 1781 C 178.167 3.07912 3.18912 0
M  V30 1782 H 175.387 0.56421 0.363191 0
M  V30 1783 H 177.931 1.97941 0.513754 0
M  V30 1784 H 176.086 2.5277 2.93574 0
M  V30 1785 H 176.5 4.67165 2.38448 0
M  V30 1786 H 177.974 3.89719 3.90926 0
M  V30 1787 H 178.451 2.20456 3.79863 0
M  V30 1788 H 179.057 3.36779 2.59731 0
M  V30 1789 N 177.372 -0.689602 1.41712 0
M  V30 1790 C 178.319 -1.80345 1.44029 0
M  V30 1791 C 179.289 -1.63478 0.293948 0
M  V30 1792 O 180.474 -1.84244 0.495869 0
M  V30 1793 C 177.614 -3.18272 1.33405 0
M  V30 1794 C 176.727 -3.46529 2.57956 0
M  V30 1795 C 175.862 -4.74103 2.39582 0
M  V30 1796 C 174.901 -4.95347 3.5958 0
M  V30 1797 N 174.038 -6.14151 3.40239 0
M  V30 1798 H 178.878 -1.77698 2.39222 0
M  V30 1799 H 176.415 -0.867688 1.18784 0
M  V30 1800 H 178.373 -3.97956 1.25246 0
M  V30 1801 H 177.003 -3.2008 0.418164 0
M  V30 1802 H 176.055 -2.61207 2.76542 0
M  V30 1803 H 177.367 -3.58126 3.47199 0
M  V30 1804 H 176.521 -5.61853 2.28924 0
M  V30 1805 H 175.26 -4.64763 1.47805 0
M  V30 1806 H 174.265 -4.06044 3.70686 0
M  V30 1807 H 175.49 -5.06542 4.52318 0
M  V30 1808 H 173.436 -6.06013 2.51167 0
M  V30 1809 H 173.353 -6.26543 4.23061 0
M  V30 1810 H 174.621 -7.04619 3.33365 0
M  V30 1811 N 178.85 -1.27639 -0.924453 0
M  V30 1812 C 180.098 -1.13941 -1.66918 0
M  V30 1813 C 180.419 0.314589 -1.92446 0
M  V30 1814 O 179.689 1.21964 -1.53303 0
M  V30 1815 H 178.269 -0.418678 -0.618642 0
M  V30 1816 H 180.931 -1.60213 -1.10985 0
M  V30 1817 H 180.027 -1.67094 -2.63602 0
M  V30 1818 N 180.328 1.1314 -1.09713 0
M  V30 1819 C 181.291 2.16831 -0.742751 0
M  V30 1820 C 182.291 1.59159 0.229129 0
M  V30 1821 O 183.481 1.74199 0.00693237 0
M  V30 1822 C 180.613 3.40756 -0.0989168 0
M  V30 1823 H 181.806 2.49695 -1.66109 0
M  V30 1824 H 179.359 1.2802 -0.896699 0
M  V30 1825 H 180.094 3.13485 0.830514 0
M  V30 1826 H 179.879 3.83888 -0.798265 0
M  V30 1827 H 181.369 4.17386 0.133524 0
M  V30 1828 N 181.806 0.884767 1.30421 0
M  V30 1829 C 183.031 0.517288 2.00845 0
M  V30 1830 C 183.456 -0.886779 1.65885 0
M  V30 1831 O 182.814 -1.58768 0.875354 0
M  V30 1832 C 182.862 0.698994 3.5376 0
M  V30 1833 O 181.966 -0.255208 4.1161 0
M  V30 1834 H 181.307 0.203872 0.631927 0
M  V30 1835 H 183.837 1.19225 1.66272 0
M  V30 1836 H 183.847 0.597912 4.03595 0
M  V30 1837 H 182.522 1.72271 3.78544 0
M  V30 1838 H 181.099 -0.10784 3.72744 0
M  V30 1839 N 183.284 -1.43765 0.645699 0
M  V30 1840 C 184.194 -2.34544 -0.0512957 0
M  V30 1841 C 185.21 -1.53455 -0.82022 0
M  V30 1842 O 186.386 -1.86133 -0.769176 0
M  V30 1843 C 183.451 -3.31636 -1.01087 0
M  V30 1844 C 182.512 -4.2863 -0.239712 0
M  V30 1845 C 181.745 -5.21084 -1.15358 0
M  V30 1846 O 181.968 -5.1779 -2.39269 0
M  V30 1847 O 180.902 -5.98593 -0.630038 0
M  V30 1848 H 184.728 -2.95624 0.695718 0
M  V30 1849 H 182.313 -1.43781 0.405882 0
M  V30 1850 H 184.195 -3.9136 -1.56254 0
M  V30 1851 H 182.87 -2.73069 -1.73824 0
M  V30 1852 H 181.777 -3.72408 0.355356 0
M  V30 1853 H 183.11 -4.90157 0.447936 0
M  V30 1854 N 184.763 -0.387143 -1.52771 0
M  V30 1855 C 186.011 0.195349 -2.01154 0
M  V30 1856 C 186.332 1.475 -1.27549 0
M  V30 1857 O 185.602 1.91878 -0.394924 0
M  V30 1858 H 184.182 0.075178 -0.743207 0
M  V30 1859 H 186.844 -0.518337 -1.87881 0
M  V30 1860 H 185.94 0.407096 -3.09434 0
M  V30 1861 N 186.241 1.57166 -0.116904 0
M  V30 1862 C 187.487 1.96206 0.536166 0
M  V30 1863 C 187.842 0.99915 1.64422 0
M  V30 1864 O 187.135 0.0288195 1.91578 0
M  V30 1865 C 187.329 3.39508 1.11664 0
M  V30 1866 C 187.158 4.49651 0.0663474 0
M  V30 1867 C 185.928 5.03982 -0.36474 0
M  V30 1868 C 188.126 5.09322 -0.713829 0
M  V30 1869 N 186.108 5.97699 -1.40102 0
M  V30 1870 C 187.479 5.98963 -1.60136 0
M  V30 1871 C 189.534 4.91989 -0.764948 0
M  V30 1872 C 188.237 6.73128 -2.53556 0
M  V30 1873 C 190.263 5.66833 -1.68685 0
M  V30 1874 C 189.625 6.56158 -2.56196 0
M  V30 1875 H 185.724 0.764203 0.165886 0
M  V30 1876 H 188.308 1.93623 -0.204535 0
M  V30 1877 H 186.479 3.42743 1.82707 0
M  V30 1878 H 188.211 3.65677 1.73386 0
M  V30 1879 H 184.966 4.73592 0.027252 0
M  V30 1880 H 185.39 6.49262 -1.91802 0
M  V30 1881 H 190.032 4.22676 -0.102501 0
M  V30 1882 H 187.75 7.41689 -3.20816 0
M  V30 1883 H 191.336 5.55427 -1.73181 0
M  V30 1884 H 190.216 7.13057 -3.26372 0
M  V30 1885 N 187.719 -0.156864 1.56817 0
M  V30 1886 C 188.959 -0.877453 1.84608 0
M  V30 1887 C 189.323 -1.78791 0.699845 0
M  V30 1888 O 190.524 -2.5472 0.858553 0
M  V30 1889 C 188.795 -1.63992 3.17555 0
M  V30 1890 S 190.354 -2.40729 3.66872 0
M  V30 1891 H 187.172 -0.293612 0.647544 0
M  V30 1892 H 189.774 -0.138099 1.95012 0
M  V30 1893 H 188.478 -0.962363 3.98957 0
M  V30 1894 H 188.009 -2.42038 3.10131 0
M  V30 1895 H 190.024 -3.65725 3.3535 0
M  V30 1896 N 189.197 -1.51736 -0.425897 0
M  V30 1897 C 190.608 -1.5732 -1.00536 0
M  V30 1898 C 190.959 -0.403537 -1.92005 0
M  V30 1899 O 190.084 0.478256 -2.11049 0
M  V30 1900 C 190.679 -2.85119 -1.8301 0
M  V30 1901 C 189.238 -2.93236 -2.35987 0
M  V30 1902 C 188.385 -2.52098 -1.15508 0
M  V30 1903 H 191.336 -1.57348 -0.206739 0
M  V30 1904 H 191.357 -2.69526 -2.68581 0
M  V30 1905 H 190.869 -3.7023 -1.16411 0
M  V30 1906 H 188.97 -2.12581 -3.06007 0
M  V30 1907 H 189.083 -3.9713 -2.68001 0
M  V30 1908 H 187.447 -2.05558 -1.50393 0
M  V30 1909 H 188.23 -3.39565 -0.505014 0
M  V30 1910 N 190.675 0.682077 -1.42076 0
M  V30 1911 C 191.905 1.46844 -1.45329 0
M  V30 1912 C 192.313 1.89102 -0.0609328 0
M  V30 1913 O 191.656 1.58238 0.933082 0
M  V30 1914 C 191.718 2.75375 -2.31104 0
M  V30 1915 C 191.382 2.55238 -3.79081 0
M  V30 1916 C 192.379 2.20309 -4.70914 0
M  V30 1917 C 190.064 2.70459 -4.2327 0
M  V30 1918 C 192.058 2.00859 -6.04925 0
M  V30 1919 C 189.745 2.50624 -5.57343 0
M  V30 1920 C 190.743 2.15876 -6.47986 0
M  V30 1921 O 190.431 1.96227 -7.79583 0
M  V30 1922 H 190.163 0.4586 -0.496651 0
M  V30 1923 H 192.717 0.846131 -1.87162 0
M  V30 1924 H 190.947 3.40061 -1.84107 0
M  V30 1925 H 192.636 3.37231 -2.25898 0
M  V30 1926 H 193.402 2.08153 -4.38061 0
M  V30 1927 H 189.281 2.96485 -3.53012 0
M  V30 1928 H 192.825 1.7366 -6.75639 0
M  V30 1929 H 188.722 2.62375 -5.89771 0
M  V30 1930 H 189.49 2.10883 -7.90867 0
M  V30 1931 N 192.153 1.28127 0.917671 0
M  V30 1932 C 193.393 1.163 1.68088 0
M  V30 1933 C 193.757 -0.284515 1.8988 0
M  V30 1934 O 194.958 -0.525413 2.63615 0
M  V30 1935 C 193.229 1.93546 3.00457 0
M  V30 1936 S 194.788 1.98048 3.91564 0
M  V30 1937 H 191.606 0.415005 0.577315 0
M  V30 1938 H 194.208 1.62173 1.09179 0
M  V30 1939 H 192.912 2.97888 2.82295 0
M  V30 1940 H 192.443 1.48207 3.64415 0
M  V30 1941 H 194.458 1.08415 4.84211 0
M  V30 1942 N 193.631 -1.12557 1.10312 0
M  V30 1943 C 194.879 -1.83675 0.843091 0
M  V30 1944 C 195.2 -1.84435 -0.633131 0
M  V30 1945 O 194.47 -1.30657 -1.45964 0
M  V30 1946 H 193.05 -0.680138 0.308904 0
M  V30 1947 H 195.712 -1.36301 1.39313 0
M  V30 1948 H 194.808 -2.87908 1.2048 0
M  V30 1949 N 195.109 -0.891671 -1.2995 0
M  V30 1950 C 196.334 -0.527932 -2.00568 0
M  V30 1951 C 196.759 0.877969 -1.66353 0
M  V30 1952 O 196.117 1.58301 -0.883762 0
M  V30 1953 C 196.165 -0.717745 -3.53385 0
M  V30 1954 O 195.269 0.233376 -4.11739 0
M  V30 1955 H 194.61 -0.20722 -0.630837 0
M  V30 1956 H 197.14 -1.20105 -1.65638 0
M  V30 1957 H 197.15 -0.619307 -4.03272 0
M  V30 1958 H 195.825 -1.74276 -3.77625 0
M  V30 1959 H 194.402 0.0880706 -3.72796 0
M  V30 1960 N 196.587 1.43421 -0.653314 0
M  V30 1961 C 197.998 1.85065 -0.246537 0
M  V30 1962 C 198.349 1.54688 1.2069 0
M  V30 1963 O 197.474 0.995896 1.92122 0
M  V30 1964 C 198.069 3.35922 -0.440666 0
M  V30 1965 C 196.628 3.76297 -0.0882064 0
M  V30 1966 C 195.775 2.67147 -0.743484 0
M  V30 1967 H 198.726 1.33572 -0.856979 0
M  V30 1968 H 198.747 3.79204 0.313798 0
M  V30 1969 H 198.259 3.58 -1.49858 0
M  V30 1970 H 196.36 3.5983 0.96711 0
M  V30 1971 H 196.473 4.76338 -0.513738 0
M  V30 1972 H 194.837 2.54086 -0.176712 0
M  V30 1973 H 195.62 2.92053 -1.80443 0
M  V30 1974 N 198.065 0.39524 1.52563 0
M  V30 1975 C 199.295 -0.184675 2.05773 0
M  V30 1976 C 199.703 -1.40571 1.26635 0
M  V30 1977 O 199.046 -1.81105 0.30769 0
M  V30 1978 C 199.108 -0.613551 3.54226 0
M  V30 1979 C 198.772 0.49484 4.54313 0
M  V30 1980 C 199.769 1.3541 5.01956 0
M  V30 1981 C 197.454 0.663565 4.97898 0
M  V30 1982 C 199.448 2.36716 5.91814 0
M  V30 1983 C 197.135 1.67996 5.87555 0
M  V30 1984 C 198.133 2.53017 6.34406 0
M  V30 1985 O 197.821 3.52917 7.22291 0
M  V30 1986 H 197.553 -0.030077 0.675331 0
M  V30 1987 H 200.107 0.560708 1.97599 0
M  V30 1988 H 198.337 -1.411 3.60038 0
M  V30 1989 H 200.026 -1.11981 3.90148 0
M  V30 1990 H 200.792 1.23509 4.6901 0
M  V30 1991 H 196.671 0.0114913 4.60999 0
M  V30 1992 H 200.215 3.03113 6.28306 0
M  V30 1993 H 196.112 1.79933 6.19915 0
M  V30 1994 H 196.88 3.48996 7.40367 0
M  V30 1995 N 199.544 -1.57102 0.125237 0
M  V30 1996 C 200.769 -2.0019 -0.542101 0
M  V30 1997 C 201.194 -1.00449 -1.59034 0
M  V30 1998 O 200.552 0.0229423 -1.81285 0
M  V30 1999 C 200.6 -3.42129 -1.13929 0
M  V30 2000 O 199.704 -3.45307 -2.2547 0
M  V30 2001 H 199.045 -0.650171 -0.134812 0
M  V30 2002 H 201.575 -2.03461 0.215553 0
M  V30 2003 H 201.585 -3.80471 -1.4733 0
M  V30 2004 H 200.26 -4.14237 -0.371531 0
M  V30 2005 H 198.837 -3.1879 -1.93462 0
M  V30 2006 N 201.022 0.148545 -1.56898 0
M  V30 2007 C 202.269 0.861418 -1.83264 0
M  V30 2008 C 202.597 1.81239 -0.705883 0
M  V30 2009 O 201.852 1.93305 0.305212 0
M  V30 2010 C 202.151 1.67064 -3.1595 0
M  V30 2011 C 201.817 0.866591 -4.42494 0
M  V30 2012 C 200.479 0.644762 -4.76861 0
M  V30 2013 C 202.831 0.30418 -5.20312 0
M  V30 2014 C 200.159 -0.15021 -5.86508 0
M  V30 2015 C 202.511 -0.477824 -6.30793 0
M  V30 2016 C 201.175 -0.710244 -6.63711 0
M  V30 2017 H 200.445 0.315215 -0.670612 0
M  V30 2018 H 203.092 0.125142 -1.91091 0
M  V30 2019 H 201.397 2.47698 -3.03567 0
M  V30 2020 H 203.094 2.22566 -3.33565 0
M  V30 2021 H 199.684 1.04955 -4.15551 0
M  V30 2022 H 203.868 0.462844 -4.94137 0
M  V30 2023 H 199.124 -0.339796 -6.10455 0
M  V30 2024 H 203.298 -0.92076 -6.90286 0
M  V30 2025 H 200.925 -1.3281 -7.48509 0
M  V30 2026 N 202.5 1.5196 0.417844 0
M  V30 2027 C 203.43 1.77634 1.51554 0
M  V30 2028 C 204.411 0.626918 1.58126 0
M  V30 2029 O 205.596 0.871632 1.7354 0
M  V30 2030 C 202.726 1.91911 2.8946 0
M  V30 2031 C 201.68 3.07463 2.97743 0
M  V30 2032 C 201.006 3.06951 4.37819 0
M  V30 2033 C 202.306 4.47082 2.70027 0
M  V30 2034 H 204 2.6955 1.3032 0
M  V30 2035 H 201.546 1.29706 0.625492 0
M  V30 2036 H 203.499 2.08455 3.6623 0
M  V30 2037 H 202.223 0.966598 3.11969 0
M  V30 2038 H 200.882 2.90656 2.23416 0
M  V30 2039 H 200.53 2.09438 4.57323 0
M  V30 2040 H 200.23 3.84556 4.44286 0
M  V30 2041 H 201.754 3.25613 5.16535 0
M  V30 2042 H 203.168 4.6414 3.36522 0
M  V30 2043 H 201.565 5.2654 2.87881 0
M  V30 2044 H 202.635 4.55777 1.65514 0
M  V30 2045 N 203.978 -0.674533 1.42435 0
M  V30 2046 C 205.389 -1.25514 1.38214 0
M  V30 2047 C 205.74 -1.96055 0.0755464 0
M  V30 2048 O 204.865 -2.00028 -0.8257 0
M  V30 2049 C 205.46 -2.28269 2.50357 0
M  V30 2050 C 204.019 -2.81856 2.49467 0
M  V30 2051 C 203.166 -1.56182 2.29134 0
M  V30 2052 H 206.117 -0.467902 1.51646 0
M  V30 2053 H 206.138 -3.10009 2.20624 0
M  V30 2054 H 205.65 -1.769 3.45439 0
M  V30 2055 H 203.751 -3.37346 1.58204 0
M  V30 2056 H 203.864 -3.30854 3.46515 0
M  V30 2057 H 202.228 -1.82761 1.774 0
M  V30 2058 H 203.011 -1.06778 3.26272 0
M  V30 2059 N 205.456 -1.28612 -0.910864 0
M  V30 2060 C 206.388 -1.08589 -2.01844 0
M  V30 2061 C 207.401 -0.0367419 -1.62759 0
M  V30 2062 O 208.59 -0.280101 -1.76289 0
M  V30 2063 C 205.69 -0.628626 -3.33019 0
M  V30 2064 C 204.863 -1.75382 -4.00699 0
M  V30 2065 C 203.922 -1.28945 -5.10156 0
M  V30 2066 O 202.948 -1.9922 -5.33198 0
M  V30 2067 N 204.15 -0.154224 -5.80295 0
M  V30 2068 H 206.915 -2.03973 -2.19579 0
M  V30 2069 H 204.476 -1.20403 -1.08234 0
M  V30 2070 H 206.468 -0.301508 -4.03575 0
M  V30 2071 H 205.038 0.232451 -3.11735 0
M  V30 2072 H 204.258 -2.25039 -3.23653 0
M  V30 2073 H 205.546 -2.50854 -4.42662 0
M  V30 2074 H 204.944 0.43194 -5.64049 0
M  V30 2075 H 203.501 0.113599 -6.51701 0
M  V30 2076 N 206.934 1.1197 -1.10907 0
M  V30 2077 C 207.864 2.19928 -0.784473 0
M  V30 2078 C 208.845 1.6833 0.244726 0
M  V30 2079 O 210.03 1.93892 0.109418 0
M  V30 2080 C 207.16 3.46597 -0.220827 0
M  V30 2081 C 206.114 4.11376 -1.18127 0
M  V30 2082 C 205.44 5.32554 -0.478594 0
M  V30 2083 C 206.74 4.56945 -2.52979 0
M  V30 2084 H 208.434 2.47337 -1.68715 0
M  V30 2085 H 205.98 1.18879 -0.812642 0
M  V30 2086 H 207.933 4.21396 0.0184278 0
M  V30 2087 H 206.657 3.1863 0.717113 0
M  V30 2088 H 205.316 3.38564 -1.40606 0
M  V30 2089 H 204.964 5.00856 0.463976 0
M  V30 2090 H 204.664 5.76844 -1.11912 0
M  V30 2091 H 206.188 6.10096 -0.248 0
M  V30 2092 H 207.602 5.23093 -2.3462 0
M  V30 2093 H 205.999 5.1203 -3.12962 0
M  V30 2094 H 207.069 3.70676 -3.12614 0
M  V30 2095 N 208.412 0.89855 1.29475 0
M  V30 2096 C 209.36 0.365253 2.29714 0
M  V30 2097 C 210.354 -0.534993 1.6073 0
M  V30 2098 O 211.56 -0.417921 1.75081 0
M  V30 2099 H 207.935 0.0994853 0.74539 0
M  V30 2100 H 209.906 1.22406 2.72138 0
M  V30 2101 C 208.655 -0.393159 3.4547 0
M  V30 2102 H 207.978 0.290332 3.98744 0
M  V30 2103 H 209.418 -0.731189 4.17648 0
M  V30 2104 C 207.877 -1.59539 2.9673 0
M  V30 2105 O 208.407 -2.69469 2.97908 0
M  V30 2106 N 206.613 -1.43716 2.52575 0
M  V30 2107 H 206.16 -0.542828 2.51816 0
M  V30 2108 H 206.118 -2.24288 2.20323 0
M  V30 2109 N 209.89 -1.43072 0.660911 0
M  V30 2110 C 211.301 -1.84932 0.256348 0
M  V30 2111 C 211.652 -1.55325 -1.19868 0
M  V30 2112 O 210.777 -1.00607 -1.91591 0
M  V30 2113 C 211.372 -3.35684 0.458475 0
M  V30 2114 C 209.931 -3.76245 0.108161 0
M  V30 2115 C 209.078 -2.66749 0.757641 0
M  V30 2116 H 212.029 -1.33116 0.864051 0
M  V30 2117 H 212.05 -3.79365 -0.293683 0
M  V30 2118 H 211.562 -3.572 1.51755 0
M  V30 2119 H 209.663 -3.60338 -0.948014 0
M  V30 2120 H 209.776 -4.76058 0.538992 0
M  V30 2121 H 208.14 -2.53989 0.190185 0
M  V30 2122 H 208.923 -2.91092 1.81989 0
M  V30 2123 N 211.368 -0.403325 -1.52352 0
M  V30 2124 C 212.616 0.174003 -2.0135 0
M  V30 2125 C 212.937 1.46139 -1.29106 0
M  V30 2126 O 212.207 1.91448 -0.415253 0
M  V30 2127 H 210.787 0.0672911 -0.743963 0
M  V30 2128 H 213.449 -0.538235 -1.87321 0
M  V30 2129 H 212.545 0.374254 -3.09848 0
M  V30 2130 N 212.846 1.57033 -0.133567 0
M  V30 2131 C 214.123 1.87256 0.56522 0
M  V30 2132 C 214.503 1.03726 1.83859 0
M  V30 2133 O 213.851 0.120247 2.28183 0
M  V30 2134 C 214.061 3.3865 0.843636 0
M  V30 2135 C 215.409 4.07574 1.19032 0
M  V30 2136 O 216.433 3.43752 0.933429 0
M  V30 2137 O 215.292 5.20259 1.67312 0
M  V30 2138 H 212.386 0.775678 0.286796 0
M  V30 2139 H 214.932 1.68855 -0.169168 0
M  V30 2140 H 213.704 3.91257 -0.0581149 0
M  V30 2141 H 213.327 3.62532 1.63268 0
M  V30 2142 N 214.325 -0.140222 1.56975 0
M  V30 2143 C 215.574 -0.850152 1.82908 0
M  V30 2144 C 215.887 -1.82028 0.715892 0
M  V30 2145 O 217.093 -2.57485 0.861016 0
M  V30 2146 C 215.549 -1.5625 3.24213 0
M  V30 2147 C 215.157 -0.63443 4.43485 0
M  V30 2148 C 216.901 -2.25881 3.59413 0
M  V30 2149 C 214.808 -1.34879 5.75814 0
M  V30 2150 H 213.738 -0.321221 0.682153 0
M  V30 2151 H 216.389 -0.102874 1.83211 0
M  V30 2152 H 214.771 -2.35565 3.18316 0
M  V30 2153 H 215.945 0.12398 4.60633 0
M  V30 2154 H 214.26 -0.0461836 4.16374 0
M  V30 2155 H 216.857 -2.79978 4.5554 0
M  V30 2156 H 217.2 -3.02693 2.85802 0
M  V30 2157 H 217.733 -1.53477 3.67001 0
M  V30 2158 H 214.472 -0.622385 6.52539 0
M  V30 2159 H 213.992 -2.07974 5.6259 0
M  V30 2160 H 215.671 -1.88784 6.18845 0
M  V30 2161 N 215.803 -1.52179 -0.40978 0
M  V30 2162 C 217.049 -1.66453 -1.15851 0
M  V30 2163 C 217.382 -0.392972 -1.90182 0
M  V30 2164 O 216.657 0.608579 -1.84734 0
M  V30 2165 C 216.94 -2.88612 -2.15349 0
M  V30 2166 C 216.793 -4.25815 -1.44918 0
M  V30 2167 C 218.112 -3.06294 -3.16026 0
M  V30 2168 H 215.231 -0.60575 -0.419805 0
M  V30 2169 H 217.873 -1.84732 -0.444314 0
M  V30 2170 H 216.023 -2.73158 -2.76255 0
M  V30 2171 H 217.695 -4.52995 -0.871365 0
M  V30 2172 H 215.938 -4.27247 -0.751159 0
M  V30 2173 H 216.609 -5.07337 -2.17516 0
M  V30 2174 H 219.085 -3.20641 -2.65195 0
M  V30 2175 H 217.961 -3.93283 -3.8291 0
M  V30 2176 H 218.222 -2.19579 -3.83715 0
M  V30 2177 N 217.281 0.66697 -1.42791 0
M  V30 2178 C 218.244 1.76211 -1.46568 0
M  V30 2179 C 219.244 1.56896 -0.352196 0
M  V30 2180 O 220.434 1.63044 -0.613364 0
M  V30 2181 C 217.566 3.14935 -1.30494 0
M  V30 2182 H 218.759 1.74247 -2.44086 0
M  V30 2183 H 216.312 0.877342 -1.29354 0
M  V30 2184 H 217.047 3.2252 -0.339301 0
M  V30 2185 H 216.832 3.30359 -2.11199 0
M  V30 2186 H 218.322 3.94821 -1.36038 0
M  V30 2187 N 218.759 1.29093 0.90403 0
M  V30 2188 C 220.007 1.16583 1.65085 0
M  V30 2189 C 220.328 -0.283933 1.92922 0
M  V30 2190 O 219.598 -1.19509 1.55224 0
M  V30 2191 H 218.178 0.428467 0.611903 0
M  V30 2192 H 220.84 1.61959 1.08422 0
M  V30 2193 H 219.936 1.71266 2.6091 0
M  V30 2194 N 220.237 -1.11381 1.11499 0
M  V30 2195 C 221.169 -2.17207 0.731704 0
M  V30 2196 C 222.182 -1.61066 -0.236957 0
M  V30 2197 O 223.371 -1.78489 -0.0197591 0
M  V30 2198 C 220.471 -3.38846 0.0607624 0
M  V30 2199 C 219.644 -4.24451 1.0564 0
M  V30 2200 C 218.703 -5.24562 0.4149 0
M  V30 2201 O 217.729 -5.59071 1.069 0
M  V30 2202 N 218.931 -5.74651 -0.821943 0
M  V30 2203 H 221.696 -2.50699 1.64225 0
M  V30 2204 H 219.257 -1.26908 1.00529 0
M  V30 2205 H 221.249 -4.02911 -0.380139 0
M  V30 2206 H 219.819 -3.03411 -0.752376 0
M  V30 2207 H 219.039 -3.56833 1.67524 0
M  V30 2208 H 220.327 -4.78486 1.72998 0
M  V30 2209 H 219.725 -5.48797 -1.37252 0
M  V30 2210 H 218.282 -6.40549 -1.20582 0
M  V30 2211 N 221.715 -0.905404 -1.28997 0
M  V30 2212 C 222.945 -0.549049 -1.99171 0
M  V30 2213 C 223.353 0.87203 -1.67906 0
M  V30 2214 O 222.696 1.58796 -0.923561 0
M  V30 2215 C 222.758 -0.668306 -3.53234 0
M  V30 2216 C 222.422 -2.0574 -4.08069 0
M  V30 2217 C 223.419 -3.0292 -4.22534 0
M  V30 2218 C 221.104 -2.36833 -4.42962 0
M  V30 2219 C 223.098 -4.29314 -4.71135 0
M  V30 2220 C 220.785 -3.63467 -4.91258 0
M  V30 2221 C 221.783 -4.59522 -5.053 0
M  V30 2222 O 221.471 -5.83907 -5.52546 0
M  V30 2223 H 221.203 -0.208784 -0.64295 0
M  V30 2224 H 223.757 -1.21836 -1.65363 0
M  V30 2225 H 221.987 0.0580547 -3.86656 0
M  V30 2226 H 223.676 -0.320273 -4.04634 0
M  V30 2227 H 224.442 -2.80216 -3.95859 0
M  V30 2228 H 220.321 -1.62824 -4.31288 0
M  V30 2229 H 223.865 -5.04293 -4.8201 0
M  V30 2230 H 219.762 -3.86 -5.17372 0
M  V30 2231 H 220.53 -5.86578 -5.70849 0
M  V30 2232 N 223.193 1.4272 -0.668489 0
M  V30 2233 C 224.103 2.34596 0.0139753 0
M  V30 2234 C 225.119 1.5474 0.795703 0
M  V30 2235 O 226.295 1.87334 0.739466 0
M  V30 2236 C 223.36 3.33202 0.957982 0
M  V30 2237 C 222.421 4.28957 0.17149 0
M  V30 2238 C 221.654 5.22853 1.07053 0
M  V30 2239 O 221.877 5.21531 2.31001 0
M  V30 2240 O 220.811 5.9952 0.534727 0
M  V30 2241 H 224.637 2.9448 -0.742661 0
M  V30 2242 H 222.222 1.43117 -0.428705 0
M  V30 2243 H 224.104 3.93796 1.50008 0
M  V30 2244 H 222.779 2.758 1.69458 0
M  V30 2245 H 221.686 3.71796 -0.414558 0
M  V30 2246 H 223.019 4.89383 -0.52586 0
M  V30 2247 N 224.671 0.411399 1.52136 0
M  V30 2248 C 225.917 -0.163888 2.02137 0
M  V30 2249 C 226.25 -1.44597 1.29636 0
M  V30 2250 O 225.525 -1.90272 0.403353 0
M  V30 2251 C 225.808 -0.40927 3.57767 0
M  V30 2252 C 225.661 0.889643 4.40914 0
M  V30 2253 C 226.98 -1.19042 4.23694 0
M  V30 2254 H 224.099 -0.0580896 0.734707 0
M  V30 2255 H 226.741 0.54531 1.82007 0
M  V30 2256 H 224.891 -1.0134 3.7505 0
M  V30 2257 H 226.563 1.52575 4.35337 0
M  V30 2258 H 224.806 1.50011 4.07037 0
M  V30 2259 H 225.477 0.672314 5.4789 0
M  V30 2260 H 227.953 -0.678942 4.10524 0
M  V30 2261 H 226.829 -1.33086 5.32522 0
M  V30 2262 H 227.09 -2.21166 3.82803 0
M  V30 2263 N 226.149 -1.5696 0.141893 0
M  V30 2264 C 227.096 -2.16501 -0.799737 0
M  V30 2265 C 228.066 -1.09643 -1.24771 0
M  V30 2266 O 229.251 -1.3766 -1.32115 0
M  V30 2267 C 226.391 -2.78679 -2.03549 0
M  V30 2268 C 225.504 -3.99914 -1.6338 0
M  V30 2269 C 224.639 -4.50106 -2.82096 0
M  V30 2270 C 223.678 -5.63819 -2.38275 0
M  V30 2271 N 222.815 -6.08651 -3.49983 0
M  V30 2272 H 227.655 -2.96632 -0.285179 0
M  V30 2273 H 225.192 -1.46533 -0.129053 0
M  V30 2274 H 227.15 -3.1287 -2.75986 0
M  V30 2275 H 225.78 -2.012 -2.52425 0
M  V30 2276 H 224.832 -3.71735 -0.807279 0
M  V30 2277 H 226.144 -4.82311 -1.27192 0
M  V30 2278 H 225.298 -4.86325 -3.62729 0
M  V30 2279 H 224.037 -3.66706 -3.21525 0
M  V30 2280 H 223.042 -5.2718 -1.56081 0
M  V30 2281 H 224.267 -6.49 -1.99938 0
M  V30 2282 H 222.213 -5.28188 -3.89042 0
M  V30 2283 H 222.13 -6.85961 -3.17794 0
M  V30 2284 H 223.398 -6.49515 -4.30988 0
M  V30 2285 N 227.627 0.131896 -1.57047 0
M  V30 2286 C 228.875 0.840269 -1.83804 0
M  V30 2287 C 229.196 1.81017 -0.72512 0
M  V30 2288 O 228.466 1.94272 0.251995 0
M  V30 2289 H 227.046 0.313294 -0.678127 0
M  V30 2290 H 229.708 0.122294 -1.94516 0
M  V30 2291 H 228.804 1.39335 -2.79271 0
M  V30 2292 N 229.106 1.52395 0.401703 0
M  V30 2293 C 230.346 1.68498 1.15705 0
M  V30 2294 C 230.71 0.409748 1.87577 0
M  V30 2295 O 231.911 0.446983 2.65058 0
M  V30 2296 C 230.182 2.87789 2.11924 0
M  V30 2297 S 231.741 3.24415 2.95466 0
M  V30 2298 H 228.559 0.593267 0.391862 0
M  V30 2299 H 231.161 1.90408 0.443282 0
M  V30 2300 H 229.865 3.7884 1.57824 0
M  V30 2301 H 229.396 2.68175 2.87829 0
M  V30 2302 H 231.411 2.73614 4.13944 0
M  V30 2303 N 230.584 -0.659388 1.43143 0
M  V30 2304 C 231.833 -1.41518 1.43721 0
M  V30 2305 C 232.146 -1.95499 0.0628176 0
M  V30 2306 O 233.352 -2.71446 -0.0539683 0
M  V30 2307 C 231.808 -2.5608 2.52885 0
M  V30 2308 C 231.416 -2.08733 3.96402 0
M  V30 2309 C 233.16 -3.3349 2.62649 0
M  V30 2310 C 231.067 -3.20469 4.97045 0
M  V30 2311 H 229.997 -0.531705 0.534608 0
M  V30 2312 H 232.648 -0.712343 1.69109 0
M  V30 2313 H 231.03 -3.28805 2.20688 0
M  V30 2314 H 232.204 -1.43059 4.3803 0
M  V30 2315 H 230.519 -1.44219 3.90627 0
M  V30 2316 H 233.116 -4.16734 3.35017 0
M  V30 2317 H 233.459 -3.8111 1.67513 0
M  V30 2318 H 233.992 -2.67842 2.94118 0
M  V30 2319 H 230.731 -2.77824 5.93712 0
M  V30 2320 H 230.251 -3.84874 4.60034 0
M  V30 2321 H 231.93 -3.85698 5.19467 0
M  V30 2322 N 232.062 -1.29571 -0.897171 0
M  V30 2323 C 233.025 -1.14913 -1.98312 0
M  V30 2324 C 234.025 -0.0838629 -1.60581 0
M  V30 2325 O 235.215 -0.331006 -1.71026 0
M  V30 2326 C 232.347 -0.757835 -3.3237 0
M  V30 2327 H 233.54 -2.11377 -2.12743 0
M  V30 2328 H 231.093 -1.12793 -1.08201 0
M  V30 2329 H 231.828 0.206837 -3.2364 0
M  V30 2330 H 231.613 -1.52755 -3.61121 0
M  V30 2331 H 233.103 -0.678408 -4.12053 0
M  V30 2332 N 233.54 1.10788 -1.12088 0
M  V30 2333 C 234.49 2.15158 -0.754401 0
M  V30 2334 C 235.474 1.59026 0.244846 0
M  V30 2335 O 236.666 1.76927 0.0509097 0
M  V30 2336 C 233.795 3.42677 -0.206657 0
M  V30 2337 C 232.881 4.05751 -1.23398 0
M  V30 2338 N 233.272 4.43582 -2.43041 0
M  V30 2339 C 231.57 4.32764 -1.07848 0
M  V30 2340 C 232.271 4.93085 -3.08613 0
M  V30 2341 N 231.247 4.89664 -2.36072 0
M  V30 2342 H 235.049 2.42195 -1.6649 0
M  V30 2343 H 232.563 1.27872 -1.00112 0
M  V30 2344 H 234.56 4.16834 0.0740646 0
M  V30 2345 H 233.22 3.17101 0.698342 0
M  V30 2346 H 234.231 4.35395 -2.80449 0
M  V30 2347 H 230.908 4.16863 -0.230483 0
M  V30 2348 H 232.298 5.31933 -4.10483 0
M  V30 2349 N 235.018 0.912232 1.28515 0
M  V30 2350 C 236.266 0.543523 1.94654 0
M  V30 2351 C 236.587 -0.9155 1.72173 0
M  V30 2352 O 235.857 -1.64708 1.06058 0
M  V30 2353 H 234.437 0.198017 0.720277 0
M  V30 2354 H 237.099 1.16126 1.56527 0
M  V30 2355 H 236.195 0.736684 3.03281 0
M  V30 2356 N 236.496 -1.42363 0.676048 0
M  V30 2357 C 237.744 -2.01123 0.198437 0
M  V30 2358 C 238.065 -1.53731 -1.19966 0
M  V30 2359 O 237.335 -0.759518 -1.80577 0
M  V30 2360 H 235.915 -0.743678 0.0703721 0
M  V30 2361 H 238.577 -1.74263 0.872837 0
M  V30 2362 H 237.673 -3.11454 0.200686 0
M  V30 2363 N 237.974 -0.419461 -1.51915 0
M  V30 2364 C 238.904 0.391813 -2.30189 0
M  V30 2365 C 239.885 1.03699 -1.34836 0
M  V30 2366 O 241.07 1.04403 -1.63748 0
M  V30 2367 C 238.2 1.50312 -3.13087 0
M  V30 2368 C 237.154 0.9824 -4.16573 0
M  V30 2369 C 236.48 2.18809 -4.8788 0
M  V30 2370 C 237.78 0.0292356 -5.22292 0
M  V30 2371 H 239.474 -0.26135 -2.98257 0
M  V30 2372 H 237.02 -0.127134 -1.43438 0
M  V30 2373 H 238.973 2.07773 -3.66617 0
M  V30 2374 H 237.697 2.18431 -2.42807 0
M  V30 2375 H 236.356 0.430119 -3.64068 0
M  V30 2376 H 236.004 2.85507 -4.14119 0
M  V30 2377 H 235.704 1.84615 -5.57845 0
M  V30 2378 H 237.228 2.76858 -5.44226 0
M  V30 2379 H 238.642 0.512976 -5.71 0
M  V30 2380 H 237.039 -0.2244 -5.9968 0
M  V30 2381 H 238.109 -0.912931 -4.76228 0
M  V30 2382 N 239.452 1.56882 -0.150215 0
M  V30 2383 C 240.7 1.9584 0.499105 0
M  V30 2384 C 241.021 1.03623 1.65188 0
M  V30 2385 O 240.291 0.0984084 1.95653 0
M  V30 2386 H 238.871 0.723119 0.187373 0
M  V30 2387 H 241.533 1.9358 -0.226466 0
M  V30 2388 H 240.629 2.99638 0.873122 0
M  V30 2389 N 240.93 -0.123565 1.57115 0
M  V30 2390 C 242.176 -0.828428 1.85765 0
M  V30 2391 C 242.531 -1.77709 0.737371 0
M  V30 2392 O 241.824 -1.89787 -0.262978 0
M  V30 2393 C 242.018 -1.62016 3.18568 0
M  V30 2394 C 241.847 -0.749663 4.43407 0
M  V30 2395 C 240.617 -0.406251 5.03664 0
M  V30 2396 C 242.815 -0.0693505 5.14253 0
M  V30 2397 N 240.797 0.475389 6.12057 0
M  V30 2398 C 242.168 0.671474 6.16353 0
M  V30 2399 C 244.223 0.00754393 4.97899 0
M  V30 2400 C 242.926 1.48197 7.03868 0
M  V30 2401 C 244.952 0.804845 5.85898 0
M  V30 2402 C 244.314 1.53388 6.87497 0
M  V30 2403 H 240.413 -0.280219 0.73007 0
M  V30 2404 H 242.997 -0.0924183 1.94481 0
M  V30 2405 H 241.168 -2.32724 3.10957 0
M  V30 2406 H 242.9 -2.27 3.35042 0
M  V30 2407 H 239.655 -0.747446 4.67665 0
M  V30 2408 H 240.079 0.907924 6.70884 0
M  V30 2409 H 244.721 -0.541741 4.19315 0
M  V30 2410 H 242.439 2.04242 7.81864 0
M  V30 2411 H 246.025 0.866642 5.75309 0
M  V30 2412 H 244.905 2.1409 7.5441 0
M  V30 2413 N 242.408 -1.52605 -0.393616 0
M  V30 2414 C 243.657 -1.66649 -1.13627 0
M  V30 2415 C 243.97 -0.410364 -1.91247 0
M  V30 2416 O 245.176 -0.430854 -2.68059 0
M  V30 2417 C 243.632 -2.9449 -2.06891 0
M  V30 2418 C 243.24 -4.27266 -1.34714 0
M  V30 2419 C 244.984 -3.17899 -2.81319 0
M  V30 2420 C 242.891 -5.46217 -2.26717 0
M  V30 2421 H 241.821 -0.62084 -0.427871 0
M  V30 2422 H 244.472 -1.791 -0.399428 0
M  V30 2423 H 242.854 -2.75774 -2.84191 0
M  V30 2424 H 244.028 -4.56518 -0.626714 0
M  V30 2425 H 242.343 -4.10081 -0.722643 0
M  V30 2426 H 244.94 -4.03949 -3.50328 0
M  V30 2427 H 245.283 -2.32777 -3.45139 0
M  V30 2428 H 245.816 -3.37159 -2.11113 0
M  V30 2429 H 242.555 -6.33733 -1.67521 0
M  V30 2430 H 242.075 -5.21283 -2.96689 0
M  V30 2431 H 243.754 -5.7991 -2.86903 0
M  V30 2432 N 243.887 0.651787 -1.4349 0
M  V30 2433 C 245.117 1.43728 -1.48411 0
M  V30 2434 C 245.525 1.8893 -0.10103 0
M  V30 2435 O 244.868 1.60182 0.899307 0
M  V30 2436 C 244.93 2.70411 -2.36893 0
M  V30 2437 C 244.594 2.4714 -3.8441 0
M  V30 2438 C 245.591 2.10271 -4.75481 0
M  V30 2439 C 243.276 2.6142 -4.28912 0
M  V30 2440 C 245.27 1.87982 -6.0905 0
M  V30 2441 C 242.957 2.38746 -5.62533 0
M  V30 2442 C 243.955 2.02083 -6.5242 0
M  V30 2443 O 243.643 1.79647 -7.8357 0
M  V30 2444 H 243.375 0.447962 -0.506267 0
M  V30 2445 H 245.929 0.80624 -1.88915 0
M  V30 2446 H 244.159 3.36079 -1.91278 0
M  V30 2447 H 245.848 3.32364 -2.33 0
M  V30 2448 H 246.614 1.98814 -4.42378 0
M  V30 2449 H 242.493 2.88931 -3.59222 0
M  V30 2450 H 246.037 1.5929 -6.7917 0
M  V30 2451 H 241.934 2.49806 -5.95203 0
M  V30 2452 H 242.702 1.9406 -7.95162 0
M  V30 2453 N 245.365 1.30045 0.890287 0
M  V30 2454 C 246.295 1.18541 2.01172 0
M  V30 2455 C 247.276 0.0773356 1.69924 0
M  V30 2456 O 248.461 0.25845 1.92473 0
M  V30 2457 C 245.591 0.870941 3.36202 0
M  V30 2458 C 244.545 1.93637 3.81692 0
M  V30 2459 C 243.871 1.475 5.13953 0
M  V30 2460 C 245.171 3.34666 4.00994 0
M  V30 2461 H 246.865 2.12359 2.11054 0
M  V30 2462 H 244.411 1.02238 1.01407 0
M  V30 2463 H 246.364 0.777141 4.14172 0
M  V30 2464 H 245.088 -0.102926 3.26438 0
M  V30 2465 H 243.747 2.01972 3.05946 0
M  V30 2466 H 243.395 0.489551 5.00612 0
M  V30 2467 H 243.095 2.1876 5.4536 0
M  V30 2468 H 244.619 1.39489 5.94454 0
M  V30 2469 H 246.033 3.2912 4.69417 0
M  V30 2470 H 244.43 4.03966 4.43769 0
M  V30 2471 H 245.5 3.76949 3.05021 0
M  V30 2472 N 246.843 -1.10192 1.12674 0
M  V30 2473 C 247.806 -2.14786 0.799979 0
M  V30 2474 C 248.806 -1.59711 -0.18685 0
M  V30 2475 O 249.996 -1.74156 0.0392558 0
M  V30 2476 C 247.128 -3.40374 0.189228 0
M  V30 2477 H 248.321 -2.45203 1.72671 0
M  V30 2478 H 245.874 -1.25597 0.930326 0
M  V30 2479 H 246.609 -3.15577 -0.747107 0
M  V30 2480 H 246.394 -3.81637 0.899766 0
M  V30 2481 H 247.884 -4.17594 -0.0228143 0
M  V30 2482 N 248.321 -0.919034 -1.28029 0
M  V30 2483 C 249.251 -0.428581 -2.29533 0
M  V30 2484 C 250.232 0.50659 -1.62381 0
M  V30 2485 O 251.417 0.413195 -1.89753 0
M  V30 2486 C 248.547 0.327388 -3.45753 0
M  V30 2487 C 247.501 -0.519137 -4.2484 0
M  V30 2488 C 246.827 0.365486 -5.33449 0
M  V30 2489 C 248.127 -1.77914 -4.91064 0
M  V30 2490 H 249.821 -1.27687 -2.70807 0
M  V30 2491 H 247.367 -0.615428 -1.30186 0
M  V30 2492 H 249.32 0.681378 -4.15855 0
M  V30 2493 H 248.044 1.20963 -3.03374 0
M  V30 2494 H 246.703 -0.855717 -3.56473 0
M  V30 2495 H 246.351 1.24642 -4.87312 0
M  V30 2496 H 246.051 -0.197356 -5.87268 0
M  V30 2497 H 247.575 0.715241 -6.06396 0
M  V30 2498 H 248.989 -1.49374 -5.53498 0
M  V30 2499 H 247.386 -2.2848 -5.54903 0
M  V30 2500 H 248.456 -2.50382 -4.15255 0
M  V30 2501 N 249.799 1.42003 -0.683588 0
M  V30 2502 C 251.076 1.95112 -0.138075 0
M  V30 2503 C 251.456 1.62359 1.34918 0
M  V30 2504 O 250.804 0.924311 2.08971 0
M  V30 2505 C 251.014 3.46505 -0.416581 0
M  V30 2506 C 252.362 4.23254 -0.337834 0
M  V30 2507 O 253.386 3.54468 -0.35082 0
M  V30 2508 O 252.245 5.45743 -0.287596 0
M  V30 2509 H 249.339 0.826961 -0.00797996 0
M  V30 2510 H 251.885 1.51784 -0.758924 0
M  V30 2511 H 250.657 3.63582 -1.4465 0
M  V30 2512 H 250.28 3.969 0.235839 0
M  V30 2513 N 251.277 0.427512 1.51691 0
M  V30 2514 C 252.693 0.0792977 1.59403 0
M  V30 2515 C 252.893 -1.41035 1.43914 0
M  V30 2516 O 251.949 -2.17922 1.27539 0
M  V30 2517 C 253.262 0.590636 2.94842 0
M  V30 2518 C 254.81 0.550215 3.08126 0
M  V30 2519 C 255.285 1.03836 4.46074 0
M  V30 2520 N 256.776 0.995943 4.52366 0
M  V30 2521 C 257.511 1.34463 5.57411 0
M  V30 2522 N 257.007 1.76569 6.69922 0
M  V30 2523 N 258.8 1.26343 5.47717 0
M  V30 2524 H 250.951 1.39687 1.60004 0
M  V30 2525 H 253.214 0.575003 0.753708 0
M  V30 2526 H 252.92 1.63251 3.11516 0
M  V30 2527 H 252.794 0.0102061 3.77199 0
M  V30 2528 H 255.181 -0.482654 2.91126 0
M  V30 2529 H 255.262 1.16693 2.27632 0
M  V30 2530 H 254.906 2.06965 4.63819 0
M  V30 2531 H 254.836 0.398286 5.25092 0
M  V30 2532 H 257.327 0.68661 3.7161 0
M  V30 2533 H 257.64 2.01438 7.46085 0
M  V30 2534 H 255.985 1.80488 6.71155 0
M  V30 2535 H 259.176 0.933209 4.58703 0
M  V30 2536 H 259.349 1.53846 6.29472 0
M  V30 2537 N 252.755 -1.56801 0.158532 0
M  V30 2538 C 253.703 -2.18638 -0.793729 0
M  V30 2539 C 254.697 -1.14669 -1.24689 0
M  V30 2540 O 255.903 -1.32895 -1.21403 0
M  V30 2541 H 252.278 -0.700226 -0.274204 0
M  V30 2542 H 254.249 -2.97367 -0.248095 0
M  V30 2543 C 252.998 -2.83139 -2.0181 0
M  V30 2544 H 252.321 -3.62863 -1.67841 0
M  V30 2545 H 253.761 -3.29894 -2.66357 0
M  V30 2546 C 252.22 -1.82244 -2.83353 0
M  V30 2547 O 252.75 -1.3 -3.80083 0
M  V30 2548 N 250.956 -1.51288 -2.48114 0
M  V30 2549 H 250.503 -1.93964 -1.69516 0
M  V30 2550 H 250.461 -0.840296 -3.02963 0
M  V30 2551 N 254.233 0.115231 -1.57178 0
M  V30 2552 C 255.479 0.82357 -1.85325 0
M  V30 2553 C 255.812 1.79349 -0.744814 0
M  V30 2554 O 255.087 1.92899 0.249024 0
M  V30 2555 C 255.37 1.57014 -3.24066 0
M  V30 2556 C 255.223 0.619565 -4.45513 0
M  V30 2557 C 256.542 2.52545 -3.60429 0
M  V30 2558 H 253.661 0.297948 -0.674089 0
M  V30 2559 H 256.303 0.0877138 -1.89797 0
M  V30 2560 H 254.453 2.19742 -3.20383 0
M  V30 2561 H 256.125 0.000837639 -4.613 0
M  V30 2562 H 254.368 -0.0686174 -4.33746 0
M  V30 2563 H 255.039 1.17866 -5.3927 0
M  V30 2564 H 257.515 1.9992 -3.64926 0
M  V30 2565 H 256.391 3.01811 -4.58477 0
M  V30 2566 H 256.652 3.35383 -2.88047 0
M  V30 2567 N 255.711 1.52812 0.385517 0
M  V30 2568 C 256.659 1.78482 1.49155 0
M  V30 2569 C 257.653 0.652914 1.56312 0
M  V30 2570 O 258.859 0.835464 1.59436 0
M  V30 2571 H 255.234 0.5648 0.496493 0
M  V30 2572 H 257.205 2.71095 1.24699 0
M  V30 2573 C 255.954 1.97378 2.86247 0
M  V30 2574 H 255.277 2.83907 2.81491 0
M  V30 2575 H 256.717 2.19327 3.62866 0
M  V30 2576 C 255.176 0.74728 3.28508 0
M  V30 2577 O 255.706 -0.0736232 4.01633 0
M  V30 2578 N 253.912 0.576396 2.84826 0
M  V30 2579 H 253.459 1.24555 2.25486 0
M  V30 2580 H 253.417 -0.24288 3.1346 0
M  V30 2581 N 257.189 -0.644168 1.43834 0
M  V30 2582 C 258.437 -1.40117 1.45642 0
M  V30 2583 C 258.758 -1.94814 0.0852413 0
M  V30 2584 O 258.028 -1.74988 -0.880688 0
M  V30 2585 H 256.608 -0.52005 0.536243 0
M  V30 2586 H 259.27 -0.7591 1.7951 0
M  V30 2587 H 258.366 -2.23902 2.17427 0
M  V30 2588 N 258.668 -1.30515 -0.883378 0
M  V30 2589 C 260.084 -1.08881 -1.16692 0
M  V30 2590 C 260.284 0.149409 -2.00945 0
M  V30 2591 O 259.34 0.84257 -2.38027 0
M  V30 2592 C 260.653 -2.35319 -1.87204 0
M  V30 2593 C 262.201 -2.40799 -1.99962 0
M  V30 2594 C 262.676 -3.67083 -2.73887 0
M  V30 2595 N 264.167 -3.679 -2.81432 0
M  V30 2596 C 264.902 -4.62303 -3.3921 0
M  V30 2597 N 264.398 -5.67052 -3.98025 0
M  V30 2598 N 266.191 -4.49845 -3.3704 0
M  V30 2599 H 258.342 -2.09951 -0.321633 0
M  V30 2600 H 260.605 -0.92556 -0.205043 0
M  V30 2601 H 260.311 -3.25689 -1.3274 0
M  V30 2602 H 260.185 -2.44089 -2.87577 0
M  V30 2603 H 262.572 -1.50907 -2.53597 0
M  V30 2604 H 262.653 -2.36003 -0.98673 0
M  V30 2605 H 262.297 -4.57334 -2.20925 0
M  V30 2606 H 262.227 -3.69141 -3.75556 0
M  V30 2607 H 264.718 -2.92171 -2.39676 0
M  V30 2608 H 265.031 -6.35184 -4.40183 0
M  V30 2609 H 263.376 -5.70842 -3.96439 0
M  V30 2610 H 266.567 -3.67194 -2.90321 0
M  V30 2611 H 266.74 -5.23597 -3.81772 0
M  V30 2612 N 260.146 1.09593 -1.13257 0
M  V30 2613 C 261.557 1.63229 -0.906274 0
M  V30 2614 C 261.908 1.8811 0.557578 0
M  V30 2615 O 261.033 1.62953 1.42391 0
M  V30 2616 C 261.628 2.96535 -1.63867 0
M  V30 2617 C 260.187 3.47003 -1.45828 0
M  V30 2618 C 259.334 2.2145 -1.66898 0
M  V30 2619 H 262.285 0.92978 -1.28611 0
M  V30 2620 H 262.306 3.64411 -1.09476 0
M  V30 2621 H 261.818 2.78394 -2.70404 0
M  V30 2622 H 259.919 3.70272 -0.415848 0
M  V30 2623 H 260.032 4.24551 -2.2202 0
M  V30 2624 H 258.396 2.30022 -1.09371 0
M  V30 2625 H 259.179 2.0583 -2.74752 0
M  V30 2626 N 261.624 0.925811 1.2754 0
M  V30 2627 C 262.87 0.566092 1.94739 0
M  V30 2628 C 263.203 -0.890057 1.72603 0
M  V30 2629 O 262.478 -1.63467 1.05399 0
M  V30 2630 C 262.761 0.89054 3.48915 0
M  V30 2631 C 262.614 2.4003 3.80402 0
M  V30 2632 C 263.933 0.395101 4.38323 0
M  V30 2633 H 261.052 0.20714 0.707292 0
M  V30 2634 H 263.694 1.15725 1.50691 0
M  V30 2635 H 261.844 0.387452 3.86563 0
M  V30 2636 H 263.516 2.97494 3.52555 0
M  V30 2637 H 261.759 2.85028 3.2702 0
M  V30 2638 H 262.43 2.57785 4.8811 0
M  V30 2639 H 264.906 0.826241 4.07814 0
M  V30 2640 H 263.782 0.651086 5.45025 0
M  V30 2641 H 264.043 -0.704798 4.36446 0
M  V30 2642 N 263.102 -1.41638 0.69111 0
M  V30 2643 C 264.348 -2.01598 0.220519 0
M  V30 2644 C 264.681 -1.54594 -1.17535 0
M  V30 2645 O 263.956 -0.755177 -1.79241 0
M  V30 2646 C 264.239 -3.59062 0.273243 0
M  V30 2647 C 264.092 -4.16203 1.70573 0
M  V30 2648 C 265.411 -4.38546 -0.369457 0
M  V30 2649 H 262.53 -0.732468 0.0816045 0
M  V30 2650 H 265.172 -1.68445 0.878986 0
M  V30 2651 H 263.322 -3.87435 -0.287411 0
M  V30 2652 H 264.994 -3.98722 2.31989 0
M  V30 2653 H 263.237 -3.71414 2.2413 0
M  V30 2654 H 263.908 -5.25358 1.69419 0
M  V30 2655 H 266.384 -4.1596 0.107977 0
M  V30 2656 H 265.26 -5.48069 -0.302002 0
M  V30 2657 H 265.521 -4.17662 -1.44951 0
M  V30 2658 N 264.58 -0.43555 -1.51462 0
M  V30 2659 C 265.51 0.367376 -2.30592 0
M  V30 2660 C 266.491 1.02263 -1.35928 0
M  V30 2661 O 267.676 1.02661 -1.64847 0
M  V30 2662 C 264.806 1.46983 -3.14664 0
M  V30 2663 C 263.76 0.938161 -4.17591 0
M  V30 2664 C 263.086 2.13622 -4.90173 0
M  V30 2665 C 264.386 -0.0261621 -5.22293 0
M  V30 2666 H 266.08 -0.292969 -2.97963 0
M  V30 2667 H 263.626 -0.14234 -1.43295 0
M  V30 2668 H 265.579 2.03873 -3.688 0
M  V30 2669 H 264.303 2.15843 -2.4511 0
M  V30 2670 H 262.962 0.391481 -3.64504 0
M  V30 2671 H 262.61 2.81098 -4.17124 0
M  V30 2672 H 262.31 1.78688 -5.59772 0
M  V30 2673 H 263.834 2.7107 -5.47132 0
M  V30 2674 H 265.248 0.452384 -5.71512 0
M  V30 2675 H 263.645 -0.287992 -5.99409 0
M  V30 2676 H 264.715 -0.963391 -4.75233 0
M  V30 2677 N 266.058 1.56714 -0.166846 0
M  V30 2678 C 267.005 2.17746 0.765193 0
M  V30 2679 C 267.975 1.11614 1.23011 0
M  V30 2680 O 269.16 1.39745 1.29908 0
M  V30 2681 C 266.3 2.81882 1.9909 0
M  V30 2682 C 265.413 4.02462 1.56997 0
M  V30 2683 C 264.548 4.54537 2.749 0
M  V30 2684 C 263.587 5.67538 2.29275 0
M  V30 2685 N 262.724 6.14142 3.40255 0
M  V30 2686 H 267.564 2.97048 0.237952 0
M  V30 2687 H 265.101 1.4672 0.105725 0
M  V30 2688 H 267.059 3.17221 2.70974 0
M  V30 2689 H 265.689 2.05191 2.49192 0
M  V30 2690 H 264.741 3.72973 0.748037 0
M  V30 2691 H 266.053 4.84273 1.19503 0
M  V30 2692 H 265.207 4.92035 3.54946 0
M  V30 2693 H 263.946 3.71774 3.1565 0
M  V30 2694 H 262.951 5.29597 1.47674 0
M  V30 2695 H 264.176 6.52099 1.89588 0
M  V30 2696 H 262.122 5.3431 3.8059 0
M  V30 2697 H 262.039 6.9093 3.06841 0
M  V30 2698 H 263.307 6.56289 4.206 0
M  V30 2699 N 267.536 -0.106894 1.57237 0
M  V30 2700 C 268.784 -0.810921 1.85117 0
M  V30 2701 C 269.105 -1.7984 0.753827 0
M  V30 2702 O 268.375 -1.94649 -0.221056 0
M  V30 2703 H 266.955 -0.302466 0.683025 0
M  V30 2704 H 269.617 -0.0913324 1.94686 0
M  V30 2705 H 268.713 -1.34875 2.81452 0
M  V30 2706 N 269.014 -1.53014 -0.377408 0
M  V30 2707 C 269.944 -1.81589 -1.46791 0
M  V30 2708 C 270.925 -0.668622 -1.56408 0
M  V30 2709 O 272.11 -0.917337 -1.71168 0
M  V30 2710 C 269.24 -1.99519 -2.8427 0
M  V30 2711 C 268.194 -3.15249 -2.89486 0
M  V30 2712 C 267.52 -3.18451 -4.29527 0
M  V30 2713 C 268.82 -4.54084 -2.58079 0
M  V30 2714 H 270.514 -2.7291 -1.23127 0
M  V30 2715 H 268.06 -1.31319 -0.590883 0
M  V30 2716 H 270.013 -2.18092 -3.60575 0
M  V30 2717 H 268.737 -1.04897 -3.09296 0
M  V30 2718 H 267.396 -2.96477 -2.15631 0
M  V30 2719 H 267.044 -2.2149 -4.5161 0
M  V30 2720 H 266.744 -3.962 -4.33934 0
M  V30 2721 H 268.268 -3.39193 -5.07721 0
M  V30 2722 H 269.682 -4.72899 -3.24098 0
M  V30 2723 H 268.079 -5.33987 -2.7382 0
M  V30 2724 H 269.149 -4.60006 -1.53372 0
M  V30 2725 N 270.492 0.636531 -1.44174 0
M  V30 2726 C 271.738 1.39826 -1.4689 0
M  V30 2727 C 272.071 1.93947 -0.0990585 0
M  V30 2728 O 271.346 1.73325 0.882544 0
M  V30 2729 C 271.629 2.56751 -2.5249 0
M  V30 2730 C 271.482 2.08014 -3.98811 0
M  V30 2731 C 272.801 3.58946 -2.54649 0
M  V30 2732 H 269.92 0.507075 -0.53483 0
M  V30 2733 H 272.562 0.720188 -1.75822 0
M  V30 2734 H 270.712 3.14597 -2.2795 0
M  V30 2735 H 272.384 1.5504 -4.34466 0
M  V30 2736 H 270.627 1.39242 -4.10846 0
M  V30 2737 H 271.298 2.92169 -4.68339 0
M  V30 2738 H 273.774 3.1089 -2.76563 0
M  V30 2739 H 272.65 4.38286 -3.3045 0
M  V30 2740 H 272.911 4.12655 -1.58646 0
M  V30 2741 N 271.97 1.30982 0.876444 0
M  V30 2742 C 272.92 1.14688 1.97055 0
M  V30 2743 C 273.904 0.0596593 1.60789 0
M  V30 2744 O 275.096 0.283892 1.74708 0
M  V30 2745 C 272.225 0.849627 3.3262 0
M  V30 2746 C 271.311 1.97752 3.75173 0
M  V30 2747 N 271.702 3.22384 3.89746 0
M  V30 2748 C 270 1.8758 4.04635 0
M  V30 2749 C 270.701 3.96121 4.25985 0
M  V30 2750 N 269.677 3.24237 4.36315 0
M  V30 2751 H 273.479 2.09204 2.06424 0
M  V30 2752 H 270.993 1.22445 1.06682 0
M  V30 2753 H 272.99 0.713895 4.10742 0
M  V30 2754 H 271.65 -0.087376 3.24582 0
M  V30 2755 H 272.661 3.57575 3.74647 0
M  V30 2756 H 269.338 1.01303 4.05024 0
M  V30 2757 H 270.728 5.03491 4.44911 0
M  V30 2758 N 273.449 -1.08991 1.13837 0
M  V30 2759 C 274.674 -1.85551 0.926585 0
M  V30 2760 C 275.099 -1.80782 -0.519566 0
M  V30 2761 O 274.457 -1.18855 -1.36906 0
M  V30 2762 C 274.505 -3.31266 1.42462 0
M  V30 2763 O 273.609 -4.07822 0.612789 0
M  V30 2764 H 272.95 -0.575192 0.331738 0
M  V30 2765 H 275.48 -1.37604 1.51414 0
M  V30 2766 H 275.49 -3.82112 1.43019 0
M  V30 2767 H 274.165 -3.34052 2.47754 0
M  V30 2768 H 272.742 -3.66731 0.675463 0
M  V30 2769 N 274.927 -0.932562 -1.27047 0
M  V30 2770 C 276.175 -0.574422 -1.93765 0
M  V30 2771 C 276.496 0.887993 -1.73608 0
M  V30 2772 O 275.766 1.62999 -1.08665 0
M  V30 2773 H 274.346 -0.209451 -0.717035 0
M  V30 2774 H 277.008 -1.18601 -1.5466 0
M  V30 2775 H 276.104 -0.784841 -3.02071 0
M  V30 2776 N 276.405 1.4127 -0.698611 0
M  V30 2777 C 277.682 1.94955 -0.158762 0
M  V30 2778 C 278.062 1.63781 1.33188 0
M  V30 2779 O 277.41 0.946423 2.07979 0
M  V30 2780 C 277.62 3.46044 -0.453309 0
M  V30 2781 C 278.968 4.22872 -0.382707 0
M  V30 2782 O 279.992 3.54076 -0.388396 0
M  V30 2783 O 278.851 5.45407 -0.345463 0
M  V30 2784 H 275.945 0.82683 -0.0167505 0
M  V30 2785 H 278.491 1.50971 -0.77498 0
M  V30 2786 H 277.263 3.62028 -1.48498 0
M  V30 2787 H 276.886 3.97128 0.19373 0
M  V30 2788 N 277.883 0.443576 1.51229 0
M  V30 2789 C 278.846 -0.353132 2.26463 0
M  V30 2790 C 279.846 -0.944338 1.3015 0
M  V30 2791 O 281.036 -0.817813 1.5381 0
M  V30 2792 C 278.168 -1.50023 3.06114 0
M  V30 2793 H 279.361 0.3063 2.98332 0
M  V30 2794 H 276.914 0.196902 1.55055 0
M  V30 2795 H 277.649 -2.19553 2.38677 0
M  V30 2796 H 277.434 -1.08241 3.76864 0
M  V30 2797 H 278.924 -2.06296 3.63087 0
M  V30 2798 N 279.361 -1.56624 0.175154 0
M  V30 2799 C 280.271 -2.21741 -0.766042 0
M  V30 2800 C 281.287 -1.21023 -1.25018 0
M  V30 2801 O 282.463 -1.53697 -1.3015 0
M  V30 2802 C 279.528 -2.84839 -1.97655 0
M  V30 2803 C 278.589 -4.00769 -1.53892 0
M  V30 2804 C 277.822 -4.60849 -2.69173 0
M  V30 2805 O 278.045 -4.19823 -3.86141 0
M  V30 2806 O 276.979 -5.50655 -2.43028 0
M  V30 2807 H 280.805 -3.02738 -0.241585 0
M  V30 2808 H 278.39 -1.49305 -0.053222 0
M  V30 2809 H 280.272 -3.24834 -2.68442 0
M  V30 2810 H 278.947 -2.06836 -2.48999 0
M  V30 2811 H 277.854 -3.65436 -0.80044 0
M  V30 2812 H 279.187 -4.80376 -1.07236 0
M  V30 2813 N 280.839 0.0985539 -1.57292 0
M  V30 2814 C 281.802 1.10402 -2.00858 0
M  V30 2815 C 282.802 1.33146 -0.901593 0
M  V30 2816 O 283.992 1.29318 -1.16716 0
M  V30 2817 C 281.124 2.45394 -2.36632 0
M  V30 2818 H 282.317 0.729099 -2.90902 0
M  V30 2819 H 279.87 0.343495 -1.52479 0
M  V30 2820 H 280.605 2.87769 -1.49531 0
M  V30 2821 H 280.39 2.30235 -3.17387 0
M  V30 2822 H 281.88 3.17718 -2.71007 0
M  V30 2823 N 282.317 1.53212 0.369288 0
M  V30 2824 C 283.249 1.75668 1.47219 0
M  V30 2825 C 284.262 0.637387 1.49804 0
M  V30 2826 O 285.451 0.913561 1.5335 0
M  V30 2827 C 282.551 1.81818 2.85999 0
M  V30 2828 C 281.724 3.11409 3.07153 0
M  V30 2829 C 280.783 3.08849 4.26026 0
M  V30 2830 O 279.809 3.82659 4.2138 0
M  V30 2831 N 281.011 2.29409 5.33246 0
M  V30 2832 H 283.776 2.70832 1.28337 0
M  V30 2833 H 281.337 1.51944 0.55898 0
M  V30 2834 H 283.329 1.77588 3.63655 0
M  V30 2835 H 281.899 0.939544 2.98146 0
M  V30 2836 H 281.119 3.28971 2.1719 0
M  V30 2837 H 282.407 3.97059 3.18154 0
M  V30 2838 H 281.805 1.68946 5.39883 0
M  V30 2839 H 280.362 2.31001 6.09493 0
M  V30 2840 N 283.795 -0.628877 1.44509 0
M  V30 2841 C 284.758 -1.72263 1.51188 0
M  V30 2842 C 285.758 -1.55907 0.39367 0
M  V30 2843 O 286.948 -1.61361 0.656377 0
M  V30 2844 C 284.08 -3.11365 1.38798 0
M  V30 2845 H 285.273 -1.67714 2.4862 0
M  V30 2846 H 282.826 -0.842737 1.31634 0
M  V30 2847 H 283.561 -3.21507 0.424693 0
M  V30 2848 H 283.346 -3.24644 2.19884 0
M  V30 2849 H 284.836 -3.91075 1.46458 0
M  V30 2850 N 285.273 -1.31445 -0.869486 0
M  V30 2851 C 286.206 -1.13465 -1.97992 0
M  V30 2852 C 287.184 -0.0380291 -1.62556 0
M  V30 2853 O 288.368 -0.194544 -1.87493 0
M  V30 2854 C 285.495 -0.733822 -3.30655 0
M  V30 2855 C 284.541 -1.83356 -3.85075 0
M  V30 2856 S 285.374 -3.43909 -4.10472 0
M  V30 2857 C 286.53 -3.05763 -5.46132 0
M  V30 2858 H 286.763 -2.07471 -2.1294 0
M  V30 2859 H 284.296 -1.15936 -1.01972 0
M  V30 2860 H 286.254 -0.509306 -4.07328 0
M  V30 2861 H 284.915 0.187123 -3.13542 0
M  V30 2862 H 284.108 -1.50574 -4.80982 0
M  V30 2863 H 283.71 -2.01315 -3.15195 0
M  V30 2864 H 286.002 -2.54686 -6.27807 0
M  V30 2865 H 286.945 -4.00635 -5.83864 0
M  V30 2866 H 287.353 -2.43192 -5.09429 0
M  V30 2867 N 286.751 1.08385 -1.14413 0
M  V30 2868 C 287.714 2.13486 -0.834048 0
M  V30 2869 C 288.714 1.59988 0.161418 0
M  V30 2870 O 289.904 1.74071 -0.0669575 0
M  V30 2871 C 287.036 3.4003 -0.243354 0
M  V30 2872 H 288.229 2.42425 -1.7655 0
M  V30 2873 H 285.782 1.24101 -0.950189 0
M  V30 2874 H 286.517 3.16726 0.696807 0
M  V30 2875 H 286.302 3.80157 -0.960367 0
M  V30 2876 H 287.792 4.17577 -0.0436242 0
M  V30 2877 N 288.23 0.939286 1.26551 0
M  V30 2878 C 289.163 0.391702 2.24813 0
M  V30 2879 C 290.141 -0.518421 1.54114 0
M  V30 2880 O 291.325 -0.456299 1.82894 0
M  V30 2881 C 288.452 -0.437382 3.35864 0
M  V30 2882 C 287.498 0.410946 4.24516 0
M  V30 2883 S 288.331 1.83372 5.03125 0
M  V30 2884 C 289.487 1.01264 6.17654 0
M  V30 2885 H 289.72 1.22448 2.70913 0
M  V30 2886 H 287.253 0.742269 1.35387 0
M  V30 2887 H 289.211 -0.909837 4.0029 0
M  V30 2888 H 287.872 -1.24482 2.8838 0
M  V30 2889 H 287.065 -0.224191 5.03501 0
M  V30 2890 H 286.667 0.818014 3.64945 0
M  V30 2891 H 288.959 0.254023 6.77024 0
M  V30 2892 H 289.902 1.77589 6.85469 0
M  V30 2893 H 290.31 0.549532 5.61819 0
M  V30 2894 N 289.708 -1.40897 0.706093 0
M  V30 2895 C 290.671 -2.29131 0.0562841 0
M  V30 2896 C 291.671 -1.44901 -0.697166 0
M  V30 2897 O 292.861 -1.65926 -0.530484 0
M  V30 2898 C 289.993 -3.27957 -0.93043 0
M  V30 2899 H 291.186 -2.88091 0.833284 0
M  V30 2900 H 288.739 -1.4906 0.470192 0
M  V30 2901 H 289.474 -2.73997 -1.73482 0
M  V30 2902 H 289.259 -3.90124 -0.393166 0
M  V30 2903 H 290.749 -3.94049 -1.38256 0
M  V30 2904 N 291.186 -0.45159 -1.50991 0
M  V30 2905 C 292.096 0.358431 -2.31846 0
M  V30 2906 C 293.112 1.01438 -1.41373 0
M  V30 2907 O 294.288 1.00663 -1.74439 0
M  V30 2908 C 291.353 1.43704 -3.15515 0
M  V30 2909 C 290.414 0.799742 -4.21785 0
M  V30 2910 C 289.647 1.82696 -5.01456 0
M  V30 2911 O 289.87 3.05105 -4.81941 0
M  V30 2912 O 288.804 1.40958 -5.85162 0
M  V30 2913 H 292.63 -0.302032 -3.02194 0
M  V30 2914 H 290.215 -0.213825 -1.47862 0
M  V30 2915 H 292.097 2.06227 -3.67489 0
M  V30 2916 H 290.772 2.08133 -2.47916 0
M  V30 2917 H 289.679 0.136084 -3.73852 0
M  V30 2918 H 291.012 0.198718 -4.91799 0
M  V30 2919 N 292.664 1.56529 -0.183458 0
M  V30 2920 C 294.08 1.58664 0.172554 0
M  V30 2921 C 294.28 1.19925 1.61926 0
M  V30 2922 O 293.336 0.916534 2.35278 0
M  V30 2923 C 294.649 3.00463 -0.119262 0
M  V30 2924 C 296.197 3.12945 -0.0584396 0
M  V30 2925 C 296.672 4.56857 -0.323408 0
M  V30 2926 N 298.163 4.62403 -0.271612 0
M  V30 2927 C 298.898 5.71626 -0.450639 0
M  V30 2928 N 298.394 6.89362 -0.689384 0
M  V30 2929 N 300.187 5.60775 -0.385701 0
M  V30 2930 H 292.338 1.79994 -1.12765 0
M  V30 2931 H 294.601 0.834808 -0.449222 0
M  V30 2932 H 294.307 3.33326 -1.12192 0
M  V30 2933 H 294.181 3.72659 0.583544 0
M  V30 2934 H 296.568 2.79902 0.934805 0
M  V30 2935 H 296.649 2.4316 -0.794144 0
M  V30 2936 H 296.293 4.9061 -1.31392 0
M  V30 2937 H 296.223 5.24816 0.43305 0
M  V30 2938 H 298.714 3.77785 -0.0932256 0
M  V30 2939 H 299.027 7.68489 -0.815113 0
M  V30 2940 H 297.372 6.91196 -0.726142 0
M  V30 2941 H 300.563 4.67674 -0.199687 0
M  V30 2942 H 300.736 6.4584 -0.528646 0
M  V30 2943 N 294.142 -0.090211 1.57342 0
M  V30 2944 C 295.074 -1.13541 1.99101 0
M  V30 2945 C 296.087 -1.3604 0.894258 0
M  V30 2946 O 297.276 -1.34606 1.17233 0
M  V30 2947 C 294.376 -2.49001 2.29895 0
M  V30 2948 C 293.549 -2.46712 3.61182 0
M  V30 2949 C 292.608 -3.64136 3.79857 0
M  V30 2950 O 291.634 -3.46405 4.51655 0
M  V30 2951 N 292.836 -4.83802 3.20806 0
M  V30 2952 H 295.601 -0.779942 2.89373 0
M  V30 2953 H 293.162 -0.279125 1.59476 0
M  V30 2954 H 295.154 -3.26166 2.39578 0
M  V30 2955 H 293.724 -2.76619 1.45605 0
M  V30 2956 H 292.944 -1.55058 3.62423 0
M  V30 2957 H 294.232 -2.42265 4.4742 0
M  V30 2958 H 293.63 -5.01112 2.62494 0
M  V30 2959 H 292.187 -5.58543 3.35966 0
M  V30 2960 N 295.62 -1.53406 -0.361157 0
M  V30 2961 C 296.867 -1.69802 -1.10333 0
M  V30 2962 C 297.195 -0.452087 -1.89173 0
M  V30 2963 O 296.45 0.566017 -1.87336 0
M  V30 2964 C 296.749 -2.90211 -2.08596 0
M  V30 2965 C 296.415 -4.26539 -1.46203 0
M  V30 2966 C 295.077 -4.6361 -1.28915 0
M  V30 2967 C 297.429 -5.113 -1.01101 0
M  V30 2968 C 294.757 -5.83075 -0.651157 0
M  V30 2969 C 297.109 -6.31415 -0.387007 0
M  V30 2970 C 295.773 -6.67195 -0.201657 0
M  V30 2971 H 295.043 -0.621351 -0.403737 0
M  V30 2972 H 297.69 -1.87598 -0.384609 0
M  V30 2973 H 295.995 -2.66946 -2.86788 0
M  V30 2974 H 297.692 -3.00091 -2.65982 0
M  V30 2975 H 294.282 -3.97352 -1.60653 0
M  V30 2976 H 298.466 -4.83206 -1.13249 0
M  V30 2977 H 293.722 -6.09385 -0.496006 0
M  V30 2978 H 297.896 -6.96394 -0.0293563 0
M  V30 2979 H 295.523 -7.59628 0.294766 0
M  V30 2980 N 297.098 0.621204 -1.44841 0
M  V30 2981 C 298.028 1.74366 -1.55303 0
M  V30 2982 C 299.009 1.65199 -0.405385 0
M  V30 2983 O 300.194 1.83807 -0.626787 0
M  V30 2984 C 297.324 3.12931 -1.50637 0
M  V30 2985 C 296.278 3.36896 -2.63979 0
M  V30 2986 C 295.604 4.75594 -2.44366 0
M  V30 2987 C 296.904 3.28483 -4.06074 0
M  V30 2988 H 298.598 1.65867 -2.49256 0
M  V30 2989 H 296.144 0.796558 -1.19962 0
M  V30 2990 H 298.097 3.9124 -1.56555 0
M  V30 2991 H 296.821 3.22237 -0.532057 0
M  V30 2992 H 295.48 2.60972 -2.57467 0
M  V30 2993 H 295.128 4.81616 -1.45105 0
M  V30 2994 H 294.828 4.92586 -3.20364 0
M  V30 2995 H 296.352 5.5612 -2.52117 0
M  V30 2996 H 297.766 3.96684 -4.13902 0
M  V30 2997 H 296.163 3.57008 -4.82354 0
M  V30 2998 H 297.233 2.26133 -4.28943 0
M  V30 2999 N 298.576 1.31904 0.862503 0
M  V30 3000 C 299.539 1.20131 1.95195 0
M  V30 3001 C 300.539 0.126409 1.60302 0
M  V30 3002 O 301.729 0.376234 1.70089 0
M  V30 3003 C 298.861 0.845691 3.30244 0
M  V30 3004 H 300.054 2.16943 2.07064 0
M  V30 3005 H 297.607 1.15622 1.05172 0
M  V30 3006 H 298.342 -0.120957 3.24074 0
M  V30 3007 H 298.127 1.62276 3.56944 0
M  V30 3008 H 299.617 0.787418 4.10109 0
M  V30 3009 N 300.054 -1.07777 1.14986 0
M  V30 3010 C 300.964 -2.18404 0.856546 0
M  V30 3011 C 301.98 -1.73211 -0.165485 0
M  V30 3012 O 303.156 -2.01399 0.00755219 0
M  V30 3013 C 300.221 -3.44977 0.34526 0
M  V30 3014 C 299.282 -4.0476 1.43065 0
M  V30 3015 C 298.515 -5.25291 0.943663 0
M  V30 3016 O 298.738 -5.70004 -0.212426 0
M  V30 3017 O 297.672 -5.76638 1.72547 0
M  V30 3018 H 301.498 -2.45978 1.78125 0
M  V30 3019 H 299.083 -1.17033 0.928631 0
M  V30 3020 H 300.965 -4.21348 0.0663671 0
M  V30 3021 H 299.64 -3.18965 -0.551631 0
M  V30 3022 H 298.547 -3.29949 1.76309 0
M  V30 3023 H 299.88 -4.35035 2.30229 0
M  V30 3024 N 301.532 -0.945985 -1.26051 0
M  V30 3025 C 302.778 -0.597002 -1.93814 0
M  V30 3026 C 303.111 0.862484 -1.73997 0
M  V30 3027 O 302.386 1.61769 -1.07986 0
M  V30 3028 C 302.669 -0.945937 -3.47454 0
M  V30 3029 C 302.522 -2.46052 -3.76535 0
M  V30 3030 C 303.841 -0.464785 -4.37639 0
M  V30 3031 H 300.96 -0.218366 -0.703907 0
M  V30 3032 H 303.602 -1.18107 -1.48831 0
M  V30 3033 H 301.752 -0.448902 -3.85898 0
M  V30 3034 H 303.424 -3.03065 -3.47778 0
M  V30 3035 H 301.667 -2.90194 -3.22444 0
M  V30 3036 H 302.338 -2.65517 -4.83947 0
M  V30 3037 H 304.814 -0.891016 -4.06448 0
M  V30 3038 H 303.69 -0.737712 -5.4392 0
M  V30 3039 H 303.951 0.635274 -4.37512 0
M  V30 3040 N 303.011 1.40521 -0.713556 0
M  V30 3041 C 304.257 2.01221 -0.252564 0
M  V30 3042 C 304.59 1.56444 1.1506 0
M  V30 3043 O 303.865 0.783597 1.78017 0
M  V30 3044 C 304.148 3.58582 -0.330332 0
M  V30 3045 C 304.001 4.13437 -1.77173 0
M  V30 3046 C 305.32 4.39079 0.299641 0
M  V30 3047 H 302.439 0.731077 -0.0932471 0
M  V30 3048 H 305.081 1.67026 -0.905673 0
M  V30 3049 H 303.231 3.87844 0.225737 0
M  V30 3050 H 304.903 3.9498 -2.38303 0
M  V30 3051 H 303.146 3.67801 -2.3001 0
M  V30 3052 H 303.817 5.22597 -1.77755 0
M  V30 3053 H 306.293 4.15735 -0.174139 0
M  V30 3054 H 305.169 5.4848 0.214771 0
M  V30 3055 H 305.43 4.19915 1.38288 0
M  V30 3056 N 304.489 0.459591 1.5075 0
M  V30 3057 C 305.439 -0.358926 2.25157 0
M  V30 3058 C 306.423 -0.971285 1.28276 0
M  V30 3059 O 307.615 -0.885739 1.53244 0
M  V30 3060 C 304.744 -1.44695 3.11317 0
M  V30 3061 C 303.83 -0.842894 4.15639 0
M  V30 3062 N 304.221 0.0299373 5.05791 0
M  V30 3063 C 302.519 -1.10809 4.32015 0
M  V30 3064 C 303.22 0.371563 5.80512 0
M  V30 3065 N 302.196 -0.250409 5.43023 0
M  V30 3066 H 305.998 0.313636 2.92222 0
M  V30 3067 H 303.512 0.273021 1.60089 0
M  V30 3068 H 305.509 -2.04641 3.63218 0
M  V30 3069 H 304.169 -2.12162 2.45799 0
M  V30 3070 H 305.18 0.39797 5.16369 0
M  V30 3071 H 301.857 -1.7786 3.77719 0
M  V30 3072 H 303.247 1.08319 6.63111 0
M  V30 3073 N 305.967 -1.56429 0.191757 0
M  V30 3074 C 307.378 -1.83912 -0.321428 0
M  V30 3075 C 307.729 -1.11231 -1.61623 0
M  V30 3076 O 306.854 -0.37202 -2.13178 0
M  V30 3077 C 307.449 -3.33624 -0.589961 0
M  V30 3078 C 306.008 -3.6153 -1.04753 0
M  V30 3079 C 305.155 -2.7714 -0.0943327 0
M  V30 3080 H 308.106 -1.53161 0.415612 0
M  V30 3081 H 308.127 -3.52213 -1.43966 0
M  V30 3082 H 307.639 -3.86495 0.352588 0
M  V30 3083 H 305.74 -3.14089 -2.00447 0
M  V30 3084 H 305.853 -4.69737 -0.942549 0
M  V30 3085 H 304.217 -2.47638 -0.595589 0
M  V30 3086 H 305 -3.32799 0.842601 0
M  V30 3087 N 307.445 0.0818655 -1.57387 0
M  V30 3088 C 308.67 0.799946 -1.91352 0
M  V30 3089 C 309.095 1.70833 -0.787258 0
M  V30 3090 O 308.453 1.79419 0.26048 0
M  V30 3091 C 308.501 1.57812 -3.24234 0
M  V30 3092 O 307.605 2.68806 -3.12757 0
M  V30 3093 H 306.946 0.21891 -0.626877 0
M  V30 3094 H 309.476 0.0531256 -2.04531 0
M  V30 3095 H 309.486 1.95952 -3.57864 0
M  V30 3096 H 308.161 0.911548 -4.05788 0
M  V30 3097 H 306.738 2.33597 -2.90666 0
M  V30 3098 N 308.923 1.53595 0.353017 0
M  V30 3099 C 310.172 1.69603 1.09168 0
M  V30 3100 C 310.485 0.460925 1.90092 0
M  V30 3101 O 311.691 0.501774 2.66823 0
M  V30 3102 C 310.147 2.99872 1.9901 0
M  V30 3103 C 309.755 4.30687 1.23339 0
M  V30 3104 C 311.499 3.25246 2.72792 0
M  V30 3105 C 309.406 5.52036 2.12156 0
M  V30 3106 H 308.336 0.631966 0.411261 0
M  V30 3107 H 310.987 1.80096 0.351802 0
M  V30 3108 H 309.369 2.83212 2.7678 0
M  V30 3109 H 310.543 4.58019 0.505456 0
M  V30 3110 H 308.858 4.11853 0.613663 0
M  V30 3111 H 311.455 4.13095 3.39495 0
M  V30 3112 H 311.798 2.41846 3.38846 0
M  V30 3113 H 312.331 3.42638 2.021 0
M  V30 3114 H 309.07 6.37951 1.50659 0
M  V30 3115 H 308.59 5.28966 2.82764 0
M  V30 3116 H 310.269 5.87313 2.71427 0
M  V30 3117 N 310.401 -0.613514 1.45168 0
M  V30 3118 C 311.647 -1.37471 1.49096 0
M  V30 3119 C 311.98 -1.93765 0.129901 0
M  V30 3120 O 311.255 -1.74707 -0.854858 0
M  V30 3121 C 311.538 -2.52701 2.56542 0
M  V30 3122 C 311.391 -2.01643 4.0207 0
M  V30 3123 C 312.71 -3.54849 2.60327 0
M  V30 3124 H 309.829 -0.498502 0.54283 0
M  V30 3125 H 312.471 -0.692125 1.76945 0
M  V30 3126 H 310.621 -3.10931 2.32926 0
M  V30 3127 H 312.293 -1.48108 4.36877 0
M  V30 3128 H 310.536 -1.32688 4.13009 0
M  V30 3129 H 311.207 -2.84681 4.72928 0
M  V30 3130 H 313.683 -3.0645 2.81474 0
M  V30 3131 H 312.559 -4.32973 3.37381 0
M  V30 3132 H 312.82 -4.10079 1.6519 0
M  V30 3133 N 311.879 -1.3236 -0.855495 0
M  V30 3134 C 312.811 -1.17052 -1.97057 0
M  V30 3135 C 313.824 -0.10574 -1.62456 0
M  V30 3136 O 315.013 -0.354619 -1.74942 0
M  V30 3137 C 312.113 -0.769305 -3.30053 0
M  V30 3138 C 311.286 -1.9222 -3.929 0
M  V30 3139 C 310.345 -1.50466 -5.04228 0
M  V30 3140 O 309.371 -2.21655 -5.24269 0
M  V30 3141 N 310.573 -0.400209 -5.79119 0
M  V30 3142 H 313.338 -2.13103 -2.1073 0
M  V30 3143 H 310.899 -1.24885 -1.0303 0
M  V30 3144 H 312.891 -0.472407 -4.01933 0
M  V30 3145 H 311.461 0.100025 -3.1244 0
M  V30 3146 H 310.681 -2.38563 -3.13817 0
M  V30 3147 H 311.969 -2.69403 -4.31624 0
M  V30 3148 H 311.367 0.192319 -5.65373 0
M  V30 3149 H 309.924 -0.162912 -6.51596 0
M  V30 3150 N 313.357 1.07166 -1.15556 0
M  V30 3151 C 314.606 1.79181 -0.926132 0
M  V30 3152 C 314.919 1.87768 0.547967 0
M  V30 3153 O 316.125 2.56323 0.895036 0
M  V30 3154 C 314.581 3.22 -1.60761 0
M  V30 3155 C 314.189 3.21607 -3.11886 0
M  V30 3156 C 315.933 3.9861 -1.4598 0
M  V30 3157 C 313.84 4.59092 -3.72812 0
M  V30 3158 H 312.77 0.67154 -0.342856 0
M  V30 3159 H 315.421 1.2027 -1.3859 0
M  V30 3160 H 313.803 3.81115 -1.07553 0
M  V30 3161 H 314.977 2.72127 -3.71865 0
M  V30 3162 H 313.292 2.58495 -3.2645 0
M  V30 3163 H 315.889 5.00225 -1.88888 0
M  V30 3164 H 316.232 4.143 -0.407541 0
M  V30 3165 H 316.765 3.45996 -1.96295 0
M  V30 3166 H 313.504 4.48606 -4.77946 0
M  V30 3167 H 313.024 5.08803 -3.17616 0
M  V30 3168 H 314.703 5.28059 -3.73848 0
M  V30 3169 N 314.835 0.952656 1.25548 0
M  V30 3170 C 316.082 0.606373 1.93208 0
M  V30 3171 C 316.41 -0.85631 1.74636 0
M  V30 3172 O 315.665 -1.62951 1.08376 0
M  V30 3173 C 315.964 0.908818 3.45652 0
M  V30 3174 C 315.63 2.35722 3.84378 0
M  V30 3175 C 314.292 2.75312 3.9466 0
M  V30 3176 C 316.644 3.29793 4.03591 0
M  V30 3177 C 313.972 4.08047 4.21562 0
M  V30 3178 C 316.324 4.62138 4.31985 0
M  V30 3179 C 314.988 5.01528 4.40484 0
M  V30 3180 H 314.258 0.221888 0.706998 0
M  V30 3181 H 316.905 1.20132 1.49133 0
M  V30 3182 H 315.21 0.231456 3.91116 0
M  V30 3183 H 316.907 0.619498 3.96186 0
M  V30 3184 H 313.497 2.04017 3.76928 0
M  V30 3185 H 317.681 3.00397 3.95064 0
M  V30 3186 H 312.937 4.38212 4.26357 0
M  V30 3187 H 317.111 5.35012 4.45797 0
M  V30 3188 H 314.738 6.04406 4.61083 0
M  V30 3189 N 316.313 -1.40141 0.720998 0
M  V30 3190 C 317.261 -2.3252 0.0608547 0
M  V30 3191 C 318.255 -1.52326 -0.741152 0
M  V30 3192 O 319.461 -1.68089 -0.643911 0
M  V30 3193 H 315.836 -0.751999 0.000876664 0
M  V30 3194 H 317.807 -2.8584 0.856614 0
M  V30 3195 C 316.556 -3.37331 -0.842809 0
M  V30 3196 H 315.879 -3.99108 -0.235084 0
M  V30 3197 H 317.319 -4.04452 -1.27257 0
M  V30 3198 C 315.778 -2.73246 -1.97074 0
M  V30 3199 O 316.308 -2.59998 -3.06209 0
M  V30 3200 N 314.514 -2.31547 -1.75597 0
M  V30 3201 H 314.061 -2.42522 -0.868368 0
M  V30 3202 H 314.019 -1.89007 -2.51244 0
M  V30 3203 N 317.792 -0.46758 -1.50504 0
M  V30 3204 C 319.039 0.0886219 -2.02306 0
M  V30 3205 C 319.367 1.40037 -1.34981 0
M  V30 3206 O 318.622 1.90136 -0.463318 0
M  V30 3207 C 318.921 0.323995 -3.55928 0
M  V30 3208 C 318.587 -0.905618 -4.41712 0
M  V30 3209 C 317.249 -1.24275 -4.64875 0
M  V30 3210 C 319.601 -1.72448 -4.91845 0
M  V30 3211 C 316.929 -2.39888 -5.35417 0
M  V30 3212 C 319.281 -2.87185 -5.63656 0
M  V30 3213 C 317.945 -3.21317 -5.85074 0
M  V30 3214 H 317.215 0.0324291 -0.74029 0
M  V30 3215 H 319.862 -0.620945 -1.81153 0
M  V30 3216 H 318.167 1.11577 -3.75577 0
M  V30 3217 H 319.864 0.76826 -3.93572 0
M  V30 3218 H 316.454 -0.632956 -4.239 0
M  V30 3219 H 320.638 -1.4772 -4.73806 0
M  V30 3220 H 315.894 -2.66611 -5.50208 0
M  V30 3221 H 320.068 -3.50985 -6.01484 0
M  V30 3222 H 317.695 -4.1101 -6.39511 0
M  V30 3223 N 319.27 1.56325 -0.20005 0
M  V30 3224 C 320.516 1.98012 0.438059 0
M  V30 3225 C 320.849 1.08702 1.60927 0
M  V30 3226 O 320.124 0.140064 1.93995 0
M  V30 3227 C 320.407 3.48841 0.893419 0
M  V30 3228 C 320.26 4.48928 -0.279947 0
M  V30 3229 C 321.579 4.03498 1.75719 0
M  V30 3230 H 318.698 0.719918 0.157757 0
M  V30 3231 H 321.34 1.87743 -0.291968 0
M  V30 3232 H 319.49 3.57723 1.51547 0
M  V30 3233 H 321.162 4.52079 -0.91772 0
M  V30 3234 H 319.405 4.23694 -0.930919 0
M  V30 3235 H 320.076 5.5194 0.0812601 0
M  V30 3236 H 322.552 3.97427 1.23253 0
M  V30 3237 H 321.428 5.09393 2.04476 0
M  V30 3238 H 321.689 3.4906 2.71311 0
M  V30 3239 N 320.748 -0.0735177 1.57428 0
M  V30 3240 C 321.658 -1.10547 2.06922 0
M  V30 3241 C 322.674 -1.42506 0.998402 0
M  V30 3242 O 323.85 -1.52717 1.31299 0
M  V30 3243 C 320.915 -2.40019 2.50184 0
M  V30 3244 C 319.976 -2.15046 3.71556 0
M  V30 3245 C 319.209 -3.38345 4.12745 0
M  V30 3246 O 319.432 -4.47399 3.53822 0
M  V30 3247 O 318.366 -3.2666 5.05546 0
M  V30 3248 H 322.192 -0.715013 2.95163 0
M  V30 3249 H 319.777 -0.287531 1.46607 0
M  V30 3250 H 321.659 -3.16218 2.78539 0
M  V30 3251 H 320.334 -2.78447 1.65072 0
M  V30 3252 H 319.241 -1.36558 3.48285 0
M  V30 3253 H 320.574 -1.81499 4.57514 0
M  V30 3254 N 322.226 -1.5378 -0.344866 0
M  V30 3255 C 323.176 -1.78057 -1.42407 0
M  V30 3256 C 324.16 -0.635732 -1.47808 0
M  V30 3257 O 325.352 -0.89508 -1.527 0
M  V30 3258 C 322.481 -1.99242 -2.79566 0
M  V30 3259 C 321.567 -3.19787 -2.78562 0
M  V30 3260 N 321.958 -4.41284 -2.47189 0
M  V30 3261 C 320.256 -3.2093 -3.0971 0
M  V30 3262 C 320.957 -5.23128 -2.54385 0
M  V30 3263 N 319.933 -4.59813 -2.89953 0
M  V30 3264 H 323.735 -2.69588 -1.17046 0
M  V30 3265 H 321.249 -1.52687 -0.553217 0
M  V30 3266 H 323.246 -2.14768 -3.57324 0
M  V30 3267 H 321.906 -1.08953 -3.05875 0
M  V30 3268 H 322.917 -4.68657 -2.20411 0
M  V30 3269 H 319.594 -2.40603 -3.41199 0
M  V30 3270 H 320.984 -6.30096 -2.333 0
M  V30 3271 N 323.704 0.605807 -1.45491 0
M  V30 3272 C 324.932 1.39136 -1.5313 0
M  V30 3273 C 325.347 1.88082 -0.164507 0
M  V30 3274 O 324.704 1.62316 0.834247 0
M  V30 3275 C 324.755 2.59463 -2.51716 0
M  V30 3276 O 324.476 2.12551 -3.83084 0
M  V30 3277 C 325.977 3.52301 -2.6907 0
M  V30 3278 H 323.197 0.425849 -0.51855 0
M  V30 3279 H 325.741 0.73865 -1.90694 0
M  V30 3280 H 323.896 3.20772 -2.17219 0
M  V30 3281 H 324.31 2.90744 -4.36541 0
M  V30 3282 H 325.784 4.33271 -3.42024 0
M  V30 3283 H 326.261 4.02757 -1.75167 0
M  V30 3284 H 326.867 2.96845 -3.04571 0
M  V30 3285 N 325.182 1.32811 0.848464 0
M  V30 3286 C 326.459 1.14334 1.58704 0
M  V30 3287 C 326.839 -0.293948 2.09043 0
M  V30 3288 O 326.187 -1.29153 1.88499 0
M  V30 3289 C 326.397 2.17626 2.72837 0
M  V30 3290 C 327.745 2.51282 3.42261 0
M  V30 3291 O 328.769 2.16219 2.83068 0
M  V30 3292 O 327.628 3.11413 4.49093 0
M  V30 3293 H 324.722 0.441601 0.699226 0
M  V30 3294 H 327.268 1.44362 0.892053 0
M  V30 3295 H 326.04 3.14211 2.3321 0
M  V30 3296 H 325.663 1.88628 3.50008 0
M  V30 3297 N 326.66 -1.06551 1.16123 0
M  V30 3298 C 328.076 -1.3142 0.905585 0
M  V30 3299 C 328.276 -1.96571 -0.442964 0
M  V30 3300 O 327.332 -2.23068 -1.18308 0
M  V30 3301 C 328.645 -2.19741 2.05267 0
M  V30 3302 C 330.193 -2.33165 2.08813 0
M  V30 3303 C 330.668 -3.24838 3.22868 0
M  V30 3304 N 332.159 -3.32421 3.22568 0
M  V30 3305 C 332.894 -4.0344 4.0746 0
M  V30 3306 N 332.39 -4.77003 5.02434 0
M  V30 3307 N 334.183 -3.99464 3.95456 0
M  V30 3308 H 326.334 -0.626548 2.02949 0
M  V30 3309 H 328.597 -0.338777 0.8854 0
M  V30 3310 H 328.303 -1.79142 3.02657 0
M  V30 3311 H 328.177 -3.20313 1.99198 0
M  V30 3312 H 330.564 -2.73013 1.12018 0
M  V30 3313 H 330.645 -1.3227 2.18948 0
M  V30 3314 H 330.289 -2.85708 4.19921 0
M  V30 3315 H 330.219 -4.25707 3.0997 0
M  V30 3316 H 332.71 -2.79994 2.53795 0
M  V30 3317 H 333.023 -5.28712 5.63634 0
M  V30 3318 H 331.368 -4.75992 5.06415 0
M  V30 3319 H 334.559 -3.4111 3.20564 0
M  V30 3320 H 334.732 -4.54544 4.61837 0
M  V30 3321 N 328.138 -0.959301 -1.25041 0
M  V30 3322 C 329.088 -0.453888 -2.23436 0
M  V30 3323 C 330.072 0.459461 -1.542 0
M  V30 3324 O 331.264 0.291752 -1.74579 0
M  V30 3325 C 328.393 0.262667 -3.42294 0
M  V30 3326 C 327.479 -0.669022 -4.1879 0
M  V30 3327 N 327.87 -1.80267 -4.72586 0
M  V30 3328 C 326.168 -0.47814 -4.4343 0
M  V30 3329 C 326.869 -2.38475 -5.3057 0
M  V30 3330 N 325.845 -1.67078 -5.17287 0
M  V30 3331 H 329.647 -1.319 -2.6264 0
M  V30 3332 H 327.161 -0.817358 -1.40332 0
M  V30 3333 H 329.158 0.641911 -4.11929 0
M  V30 3334 H 327.818 1.12432 -3.04613 0
M  V30 3335 H 328.829 -2.18442 -4.69578 0
M  V30 3336 H 325.506 0.340249 -4.16111 0
M  V30 3337 H 326.896 -3.34094 -5.8295 0
M  V30 3338 N 329.616 1.39756 -0.72842 0
M  V30 3339 C 330.864 2.00248 -0.272946 0
M  V30 3340 C 331.185 1.58077 1.14178 0
M  V30 3341 O 330.455 0.826014 1.77634 0
M  V30 3342 H 329.035 0.740554 -0.0979247 0
M  V30 3343 H 331.697 1.70903 -0.936912 0
M  V30 3344 H 330.793 3.10495 -0.316142 0
M  V30 3345 N 331.094 0.475555 1.50254 0
M  V30 3346 C 332.371 -0.139685 1.95101 0
M  V30 3347 C 332.751 -1.56555 1.41611 0
M  V30 3348 O 332.099 -2.19956 0.618993 0
M  V30 3349 C 332.309 -0.0784298 3.48912 0
M  V30 3350 C 333.657 -0.265095 4.23772 0
M  V30 3351 O 334.681 -0.154808 3.55863 0
M  V30 3352 O 333.54 -0.488327 5.44314 0
M  V30 3353 H 330.634 -0.109236 0.819754 0
M  V30 3354 H 333.18 0.536276 1.61004 0
M  V30 3355 H 331.952 0.916918 3.80405 0
M  V30 3356 H 331.575 -0.795655 3.89558 0
M  V30 3357 N 332.573 -1.56217 0.208337 0
M  V30 3358 C 333.984 -1.84243 -0.301904 0
M  V30 3359 C 334.335 -1.12939 -1.60434 0
M  V30 3360 O 333.46 -0.39461 -2.12772 0
M  V30 3361 C 334.055 -3.34231 -0.554543 0
M  V30 3362 C 332.614 -3.62621 -1.00912 0
M  V30 3363 C 331.761 -2.77224 -0.064933 0
M  V30 3364 H 334.712 -1.52712 0.431833 0
M  V30 3365 H 334.733 -3.5372 -1.40223 0
M  V30 3366 H 334.245 -3.86099 0.393561 0
M  V30 3367 H 332.346 -3.16197 -1.97104 0
M  V30 3368 H 332.459 -4.7071 -0.892674 0
M  V30 3369 H 330.823 -2.48256 -0.56929 0
M  V30 3370 H 331.606 -3.31887 0.877851 0
M  V30 3371 N 334.051 0.0651679 -1.57465 0
M  V30 3372 C 335.297 0.764193 -1.87851 0
M  V30 3373 C 335.63 1.76889 -0.801495 0
M  V30 3374 O 334.905 1.93594 0.187528 0
M  V30 3375 C 335.188 1.46625 -3.28897 0
M  V30 3376 C 335.041 0.477515 -4.47258 0
M  V30 3377 C 336.36 2.4095 -3.68281 0
M  V30 3378 H 333.479 0.276351 -0.683227 0
M  V30 3379 H 336.121 0.0272868 -1.8998 0
M  V30 3380 H 334.271 2.09438 -3.27212 0
M  V30 3381 H 335.943 -0.145922 -4.61069 0
M  V30 3382 H 334.186 -0.206576 -4.33308 0
M  V30 3383 H 334.857 1.0065 -5.42746 0
M  V30 3384 H 337.333 1.88209 -3.71102 0
M  V30 3385 H 336.209 2.87072 -4.67847 0
M  V30 3386 H 336.47 3.26049 -2.98571 0
M  V30 3387 N 335.529 1.53961 0.336706 0
M  V30 3388 C 336.777 1.71197 1.07405 0
M  V30 3389 C 337.098 0.481475 1.88962 0
M  V30 3390 O 336.368 -0.504585 1.8929 0
M  V30 3391 H 334.948 0.631185 0.399517 0
M  V30 3392 H 337.61 1.91232 0.376323 0
M  V30 3393 H 336.706 2.58587 1.74755 0
M  V30 3394 N 337.007 -0.598083 1.45811 0
M  V30 3395 C 338.237 -1.38121 1.53643 0
M  V30 3396 C 338.645 -1.88425 0.171081 0
M  V30 3397 O 337.988 -1.63409 -0.839237 0
M  V30 3398 C 338.05 -2.61432 2.46766 0
M  V30 3399 C 337.714 -2.32702 3.93318 0
M  V30 3400 C 338.711 -1.92479 4.82957 0
M  V30 3401 C 336.396 -2.45321 4.38318 0
M  V30 3402 C 338.39 -1.65248 6.15607 0
M  V30 3403 C 336.077 -2.17703 5.71007 0
M  V30 3404 C 337.075 -1.7773 6.5947 0
M  V30 3405 O 336.763 -1.50441 7.89698 0
M  V30 3406 H 336.495 -0.428863 0.522544 0
M  V30 3407 H 339.049 -0.73557 1.91777 0
M  V30 3408 H 337.279 -3.28749 2.0362 0
M  V30 3409 H 338.968 -3.23487 2.45175 0
M  V30 3410 H 339.734 -1.82258 4.49452 0
M  V30 3411 H 335.613 -2.75399 3.69697 0
M  V30 3412 H 339.157 -1.33973 6.84614 0
M  V30 3413 H 335.054 -2.27544 6.04065 0
M  V30 3414 H 335.822 -1.64415 8.01817 0
M  V30 3415 N 338.485 -1.33259 -0.841409 0
M  V30 3416 C 339.734 -1.23921 -1.59143 0
M  V30 3417 C 340.047 0.1941 -1.94635 0
M  V30 3418 O 341.253 0.409474 -2.68394 0
M  V30 3419 C 339.709 -2.17119 -2.87032 0
M  V30 3420 C 339.317 -3.65606 -2.58914 0
M  V30 3421 C 341.061 -2.16648 -3.65053 0
M  V30 3422 C 338.968 -4.50726 -3.82884 0
M  V30 3423 H 337.898 -0.460264 -0.597221 0
M  V30 3424 H 340.549 -1.58307 -0.927959 0
M  V30 3425 H 338.931 -1.75663 -3.54906 0
M  V30 3426 H 340.105 -4.15487 -1.99267 0
M  V30 3427 H 338.42 -3.68341 -1.942 0
M  V30 3428 H 341.017 -2.77474 -4.57069 0
M  V30 3429 H 341.36 -1.16088 -3.99787 0
M  V30 3430 H 341.893 -2.56453 -3.041 0
M  V30 3431 H 338.632 -5.52151 -3.53283 0
M  V30 3432 H 338.152 -4.0559 -4.41879 0
M  V30 3433 H 339.831 -4.64401 -4.50489 0
M  V30 3434 N 339.963 1.05934 -1.16686 0
M  V30 3435 C 341.209 1.79065 -0.95203 0
M  V30 3436 C 341.542 1.87147 0.518629 0
M  V30 3437 O 340.817 1.36574 1.38484 0
M  V30 3438 C 341.1 3.23359 -1.58464 0
M  V30 3439 C 340.953 3.23336 -3.12689 0
M  V30 3440 C 342.272 4.21004 -1.28232 0
M  V30 3441 H 339.391 0.65005 -0.34728 0
M  V30 3442 H 342.033 1.23868 -1.44072 0
M  V30 3443 H 340.183 3.70493 -1.16908 0
M  V30 3444 H 341.855 2.84336 -3.6325 0
M  V30 3445 H 340.098 2.61886 -3.4583 0
M  V30 3446 H 340.769 4.25144 -3.52075 0
M  V30 3447 H 343.245 3.8233 -1.64203 0
M  V30 3448 H 342.121 5.20225 -1.75092 0
M  V30 3449 H 342.382 4.41639 -0.201791 0
M  V30 3450 N 341.441 0.965919 1.2453 0
M  V30 3451 C 342.374 0.4393 2.23932 0
M  V30 3452 C 343.352 -0.485615 1.55179 0
M  V30 3453 O 344.536 -0.417402 1.83821 0
M  V30 3454 C 341.663 -0.366042 3.36716 0
M  V30 3455 C 340.709 0.5009 4.23548 0
M  V30 3456 S 341.542 1.94002 4.99123 0
M  V30 3457 C 342.698 1.14342 6.15367 0
M  V30 3458 H 342.931 1.28167 2.68254 0
M  V30 3459 H 340.464 0.770819 1.33782 0
M  V30 3460 H 342.422 -0.824724 4.0213 0
M  V30 3461 H 341.083 -1.18337 2.90956 0
M  V30 3462 H 340.276 -0.117341 5.03863 0
M  V30 3463 H 339.878 0.89524 3.63127 0
M  V30 3464 H 342.17 0.397572 6.76332 0
M  V30 3465 H 343.113 1.92089 6.81548 0
M  V30 3466 H 343.521 0.668579 5.60527 0
M  V30 3467 N 342.919 -1.39368 0.735821 0
M  V30 3468 C 343.829 -2.34395 0.0979693 0
M  V30 3469 C 344.845 -1.58361 -0.720968 0
M  V30 3470 O 346.021 -1.90648 -0.649245 0
M  V30 3471 C 343.086 -3.37393 -0.797916 0
M  V30 3472 C 342.147 -4.29287 0.0333662 0
M  V30 3473 C 341.38 -5.27365 -0.819854 0
M  V30 3474 O 341.603 -5.31959 -2.05855 0
M  V30 3475 O 340.537 -6.01389 -0.248079 0
M  V30 3476 H 344.363 -2.90601 0.882315 0
M  V30 3477 H 341.948 -1.40909 0.4965 0
M  V30 3478 H 343.83 -4.00505 -1.31048 0
M  V30 3479 H 342.505 -2.83571 -1.56106 0
M  V30 3480 H 341.412 -3.69395 0.591475 0
M  V30 3481 H 342.745 -4.86317 0.758752 0
M  V30 3482 N 344.397 -0.483516 -1.5 0
M  V30 3483 C 345.627 0.0643896 -2.065 0
M  V30 3484 C 346.035 1.32949 -1.34615 0
M  V30 3485 O 345.378 1.79003 -0.412756 0
M  V30 3486 C 345.44 0.405983 -3.572 0
M  V30 3487 C 345.104 -0.758875 -4.50655 0
M  V30 3488 C 346.101 -1.64445 -4.93208 0
M  V30 3489 C 343.786 -0.952725 -4.93182 0
M  V30 3490 C 345.78 -2.70818 -5.77006 0
M  V30 3491 C 343.467 -2.01966 -5.76761 0
M  V30 3492 C 344.465 -2.89574 -6.18576 0
M  V30 3493 O 344.153 -3.94429 -7.00486 0
M  V30 3494 H 343.885 -0.00934786 -0.675935 0
M  V30 3495 H 346.439 -0.674959 -1.93993 0
M  V30 3496 H 344.669 1.19869 -3.67652 0
M  V30 3497 H 346.358 0.890433 -3.96013 0
M  V30 3498 H 347.124 -1.50643 -4.61012 0
M  V30 3499 H 343.003 -0.280247 -4.60147 0
M  V30 3500 H 346.547 -3.3923 -6.09565 0
M  V30 3501 H 342.444 -2.1577 -6.0837 0
M  V30 3502 H 343.212 -3.91568 -7.1876 0
M  V30 3503 N 345.875 1.56104 -0.216619 0
M  V30 3504 C 347.121 1.98466 0.417033 0
M  V30 3505 C 347.454 1.10403 1.59765 0
M  V30 3506 O 346.729 0.160632 1.93836 0
M  V30 3507 C 347.012 3.49769 0.85637 0
M  V30 3508 C 346.865 4.48606 -0.327546 0
M  V30 3509 C 348.184 4.05339 1.7143 0
M  V30 3510 H 345.303 0.721551 0.150112 0
M  V30 3511 H 347.945 1.87423 -0.311864 0
M  V30 3512 H 346.095 3.5931 1.47745 0
M  V30 3513 H 347.767 4.5108 -0.965618 0
M  V30 3514 H 346.01 4.22682 -0.975805 0
M  V30 3515 H 346.681 5.51995 0.0227149 0
M  V30 3516 H 349.157 3.98712 1.19031 0
M  V30 3517 H 348.033 5.11533 1.99061 0
M  V30 3518 H 348.294 3.51918 2.67593 0
M  V30 3519 N 347.353 -0.0568162 1.57498 0
M  V30 3520 C 348.601 -0.751617 1.87604 0
M  V30 3521 C 348.922 -1.77351 0.81066 0
M  V30 3522 O 348.192 -1.95254 -0.159018 0
M  V30 3523 H 346.772 -0.280583 0.692302 0
M  V30 3524 H 349.434 -0.0293483 1.94878 0
M  V30 3525 H 348.53 -1.25852 2.856 0
M  V30 3526 N 348.832 -1.54138 -0.328536 0
M  V30 3527 C 350.08 -1.71765 -1.06496 0
M  V30 3528 C 350.401 -0.49149 -1.88704 0
M  V30 3529 O 349.671 0.494539 -1.89555 0
M  V30 3530 H 348.251 -0.633295 -0.396164 0
M  V30 3531 H 350.913 -1.91429 -0.366176 0
M  V30 3532 H 350.009 -2.5951 -1.73381 0
M  V30 3533 N 350.31 0.590341 -1.46126 0
M  V30 3534 C 351.242 1.71427 -1.52136 0
M  V30 3535 C 352.255 1.57542 -0.41042 0
M  V30 3536 O 353.444 1.65106 -0.678389 0
M  V30 3537 C 350.544 3.09605 -1.37834 0
M  V30 3538 C 349.717 3.49566 -2.62912 0
M  V30 3539 C 348.776 4.66773 -2.42918 0
M  V30 3540 O 347.802 4.73019 -3.1661 0
M  V30 3541 N 349.004 5.61161 -1.4859 0
M  V30 3542 H 351.769 1.66728 -2.49042 0
M  V30 3543 H 349.33 0.776113 -1.42085 0
M  V30 3544 H 351.322 3.85796 -1.22243 0
M  V30 3545 H 349.892 3.08714 -0.491393 0
M  V30 3546 H 349.112 2.63158 -2.93499 0
M  V30 3547 H 350.4 3.73028 -3.46017 0
M  V30 3548 H 349.798 5.58844 -0.87808 0
M  V30 3549 H 348.355 6.36814 -1.38965 0
M  V30 3550 N 351.788 1.33704 0.83433 0
M  V30 3551 C 353.013 1.28615 1.62705 0
M  V30 3552 C 353.438 -0.139242 1.87584 0
M  V30 3553 O 352.796 -1.09734 1.4432 0
M  V30 3554 C 352.844 2.07139 2.95171 0
M  V30 3555 O 351.948 1.4331 3.86699 0
M  V30 3556 H 351.289 0.44226 0.49528 0
M  V30 3557 H 353.819 1.76335 1.03766 0
M  V30 3558 H 353.829 2.18073 3.44831 0
M  V30 3559 H 352.504 3.10779 2.76386 0
M  V30 3560 H 351.081 1.4105 3.45195 0
M  V30 3561 N 353.266 -1.05314 1.17247 0
M  V30 3562 C 354.196 -2.1498 0.911362 0
M  V30 3563 C 355.177 -1.69471 -0.146169 0
M  V30 3564 O 356.362 -1.942 0.003812 0
M  V30 3565 C 353.492 -3.4472 0.422528 0
M  V30 3566 C 352.446 -4.03789 1.4191 0
M  V30 3567 C 351.772 -5.28858 0.788274 0
M  V30 3568 C 353.072 -4.41418 2.7919 0
M  V30 3569 H 354.766 -2.3708 1.82848 0
M  V30 3570 H 352.312 -1.13938 0.880569 0
M  V30 3571 H 354.265 -4.20787 0.227289 0
M  V30 3572 H 352.989 -3.22269 -0.530123 0
M  V30 3573 H 351.648 -3.2979 1.60106 0
M  V30 3574 H 351.296 -5.02709 -0.171173 0
M  V30 3575 H 350.996 -5.69338 1.45353 0
M  V30 3576 H 352.52 -6.07612 0.603282 0
M  V30 3577 H 353.934 -5.08524 2.64719 0
M  V30 3578 H 352.331 -4.92913 3.42282 0
M  V30 3579 H 353.401 -3.51819 3.33693 0
M  V30 3580 N 354.744 -0.972509 -1.24016 0
M  V30 3581 C 355.691 -0.505969 -2.25186 0
M  V30 3582 C 356.661 0.451009 -1.5986 0
M  V30 3583 O 357.846 0.360307 -1.87367 0
M  V30 3584 C 354.986 0.193089 -3.44559 0
M  V30 3585 C 354.099 -0.803222 -4.24467 0
M  V30 3586 C 353.234 -0.0797793 -5.3114 0
M  V30 3587 C 352.273 -1.06583 -6.02749 0
M  V30 3588 N 351.41 -0.372074 -7.01113 0
M  V30 3589 H 356.25 -1.37351 -2.64459 0
M  V30 3590 H 353.787 -0.688419 -1.29997 0
M  V30 3591 H 355.745 0.615125 -4.1264 0
M  V30 3592 H 354.375 1.02455 -3.06109 0
M  V30 3593 H 353.427 -1.34368 -3.55878 0
M  V30 3594 H 354.739 -1.55494 -4.73944 0
M  V30 3595 H 353.893 0.400015 -6.0538 0
M  V30 3596 H 352.632 0.704597 -4.82583 0
M  V30 3597 H 351.637 -1.55645 -5.27309 0
M  V30 3598 H 352.862 -1.85074 -6.53395 0
M  V30 3599 H 350.808 0.393238 -6.5482 0
M  V30 3600 H 350.725 -1.06258 -7.48495 0
M  V30 3601 H 351.993 0.0855932 -7.79453 0
M  V30 3602 N 356.222 1.38976 -0.743202 0
M  V30 3603 C 357.638 1.53984 -0.419664 0
M  V30 3604 C 357.838 1.70837 1.0685 0
M  V30 3605 O 356.894 1.7135 1.8546 0
M  V30 3606 C 358.207 2.75287 -1.20985 0
M  V30 3607 C 359.755 2.89129 -1.19889 0
M  V30 3608 C 360.23 4.13381 -1.97181 0
M  V30 3609 N 361.721 4.20437 -1.94389 0
M  V30 3610 C 362.456 5.15547 -2.50996 0
M  V30 3611 N 361.952 6.16395 -3.16274 0
M  V30 3612 N 363.745 5.07822 -2.40984 0
M  V30 3613 H 355.896 1.26285 -1.7078 0
M  V30 3614 H 358.159 0.612689 -0.723406 0
M  V30 3615 H 357.865 2.69204 -2.26323 0
M  V30 3616 H 357.739 3.68184 -0.819759 0
M  V30 3617 H 360.126 2.947 -0.153606 0
M  V30 3618 H 360.207 1.97272 -1.62841 0
M  V30 3619 H 359.851 4.08572 -3.01714 0
M  V30 3620 H 359.781 5.04298 -1.51629 0
M  V30 3621 H 362.272 3.48205 -1.46839 0
M  V30 3622 H 362.585 6.85443 -3.56915 0
M  V30 3623 H 360.93 6.16758 -3.20367 0
M  V30 3624 H 364.121 4.27973 -1.89622 0
M  V30 3625 H 364.294 5.81767 -2.85397 0
M  V30 3626 N 357.7 0.491464 1.49741 0
M  V30 3627 C 358.925 -0.0557177 2.07325 0
M  V30 3628 C 359.35 -1.30925 1.35056 0
M  V30 3629 O 358.708 -1.76733 0.404365 0
M  V30 3630 C 358.756 -0.302074 3.59333 0
M  V30 3631 O 357.86 -1.37868 3.88672 0
M  V30 3632 H 357.201 0.0219956 0.663636 0
M  V30 3633 H 359.731 0.688352 1.92673 0
M  V30 3634 H 359.741 -0.536464 4.04458 0
M  V30 3635 H 358.416 0.61383 4.11345 0
M  V30 3636 H 356.993 -1.12999 3.55367 0
M  V30 3637 N 359.178 -1.55987 0.224894 0
M  V30 3638 C 360.125 -2.20436 -0.68385 0
M  V30 3639 C 361.095 -1.16102 -1.18783 0
M  V30 3640 O 362.28 -1.4447 -1.24632 0
M  V30 3641 C 359.42 -2.89076 -1.88491 0
M  V30 3642 C 358.533 -4.08012 -1.41951 0
M  V30 3643 C 357.668 -4.64426 -2.5784 0
M  V30 3644 C 356.707 -5.75656 -2.08053 0
M  V30 3645 N 355.844 -6.26347 -3.17227 0
M  V30 3646 H 360.684 -2.97727 -0.12754 0
M  V30 3647 H 358.221 -1.47011 -0.0511978 0
M  V30 3648 H 360.179 -3.27059 -2.59014 0
M  V30 3649 H 358.809 -2.14298 -2.41405 0
M  V30 3650 H 357.861 -3.75492 -0.609095 0
M  V30 3651 H 359.173 -4.88375 -1.01447 0
M  V30 3652 H 358.327 -5.04869 -3.3644 0
M  V30 3653 H 357.066 -3.83233 -3.01635 0
M  V30 3654 H 356.071 -5.34712 -1.27916 0
M  V30 3655 H 357.296 -6.58686 -1.65255 0
M  V30 3656 H 355.242 -5.48067 -3.60497 0
M  V30 3657 H 355.159 -7.01843 -2.80986 0
M  V30 3658 H 356.427 -6.71447 -3.95953 0
M  V30 3659 N 360.656 0.0484629 -1.57525 0
M  V30 3660 C 361.904 0.741657 -1.88 0
M  V30 3661 C 362.225 1.76918 -0.820054 0
M  V30 3662 O 361.495 1.95335 0.148661 0
M  V30 3663 H 360.075 0.276908 -0.69378 0
M  V30 3664 H 362.737 0.019013 -1.94891 0
M  V30 3665 H 361.833 1.24336 -2.86264 0
M  V30 3666 N 362.134 1.5431 0.320358 0
M  V30 3667 C 363.066 1.80262 1.41556 0
M  V30 3668 C 364.079 0.684723 1.477 0
M  V30 3669 O 365.268 0.961886 1.50366 0
M  V30 3670 C 362.368 1.90825 2.8007 0
M  V30 3671 C 361.541 3.21023 2.97091 0
M  V30 3672 C 360.6 3.22247 4.15985 0
M  V30 3673 O 359.626 3.95871 4.08992 0
M  V30 3674 N 360.828 2.46258 5.25678 0
M  V30 3675 H 363.593 2.74778 1.19655 0
M  V30 3676 H 361.154 1.53646 0.510358 0
M  V30 3677 H 363.146 1.89067 3.57821 0
M  V30 3678 H 361.716 1.03392 2.95006 0
M  V30 3679 H 360.936 3.35715 2.06614 0
M  V30 3680 H 362.224 4.0698 3.05361 0
M  V30 3681 H 361.622 1.86037 5.34235 0
M  V30 3682 H 360.179 2.50275 6.01835 0
M  V30 3683 N 363.613 -0.582584 1.46437 0
M  V30 3684 C 364.56 -1.69164 1.5701 0
M  V30 3685 C 365.53 -1.60847 0.414403 0
M  V30 3686 O 366.715 -1.80058 0.631171 0
M  V30 3687 C 363.855 -3.075 1.56646 0
M  V30 3688 C 362.968 -3.2644 2.82951 0
M  V30 3689 C 362.103 -4.55026 2.7409 0
M  V30 3690 C 361.142 -4.6731 3.95333 0
M  V30 3691 N 360.279 -5.87221 3.84858 0
M  V30 3692 H 365.119 -1.59464 2.51744 0
M  V30 3693 H 362.656 -0.777186 1.24893 0
M  V30 3694 H 364.614 -3.8757 1.5442 0
M  V30 3695 H 363.244 -3.16096 0.654439 0
M  V30 3696 H 362.296 -2.39974 2.95155 0
M  V30 3697 H 363.608 -3.31385 3.72808 0
M  V30 3698 H 362.762 -5.43324 2.6997 0
M  V30 3699 H 361.501 -4.52519 1.81873 0
M  V30 3700 H 360.506 -3.77429 3.99784 0
M  V30 3701 H 361.731 -4.71595 4.88646 0
M  V30 3702 H 359.677 -5.85712 2.95427 0
M  V30 3703 H 359.594 -5.93435 4.6837 0
M  V30 3704 H 360.862 -6.7795 3.84713 0
M  V30 3705 N 365.091 -1.34144 -0.827227 0
M  V30 3706 C 366.021 -1.28005 -1.95287 0
M  V30 3707 C 367.002 -0.158321 -1.69362 0
M  V30 3708 O 368.187 -0.349987 -1.9102 0
M  V30 3709 C 365.317 -1.03036 -3.31664 0
M  V30 3710 C 364.271 -2.11628 -3.72019 0
M  V30 3711 C 363.597 -1.71854 -5.0633 0
M  V30 3712 C 364.897 -3.53417 -3.8457 0
M  V30 3713 H 366.591 -2.22187 -2.00682 0
M  V30 3714 H 364.137 -1.0696 -0.964135 0
M  V30 3715 H 366.09 -0.973863 -4.09993 0
M  V30 3716 H 364.814 -0.0529391 -3.26557 0
M  V30 3717 H 363.473 -2.16339 -2.95961 0
M  V30 3718 H 363.121 -0.727841 -4.97706 0
M  V30 3719 H 362.821 -2.44531 -5.34302 0
M  V30 3720 H 364.345 -1.67692 -5.87122 0
M  V30 3721 H 365.759 -3.51142 -4.5318 0
M  V30 3722 H 364.156 -4.24679 -4.2399 0
M  V30 3723 H 365.226 -3.91072 -2.86689 0
M  V30 3724 N 366.569 1.04691 -1.17803 0
M  V30 3725 C 367.98 1.59238 -0.974689 0
M  V30 3726 C 368.331 1.90306 0.477292 0
M  V30 3727 O 367.456 1.68846 1.35352 0
M  V30 3728 C 368.051 2.89318 -1.76296 0
M  V30 3729 C 366.61 3.40506 -1.60414 0
M  V30 3730 C 365.757 2.14172 -1.76141 0
M  V30 3731 H 368.708 0.874395 -1.32439 0
M  V30 3732 H 368.729 3.5944 -1.24833 0
M  V30 3733 H 368.241 2.66675 -2.81968 0
M  V30 3734 H 366.342 3.68175 -0.572519 0
M  V30 3735 H 366.455 4.14753 -2.39827 0
M  V30 3736 H 364.819 2.25176 -1.19028 0
M  V30 3737 H 365.602 1.93992 -2.83235 0
M  V30 3738 N 368.047 0.979072 1.23499 0
M  V30 3739 C 369.293 0.648178 1.92163 0
M  V30 3740 C 369.626 -0.816049 1.76222 0
M  V30 3741 O 368.901 -1.58849 1.12237 0
M  V30 3742 C 369.184 1.03773 3.44824 0
M  V30 3743 C 369.037 2.55948 3.69879 0
M  V30 3744 C 370.356 0.580653 4.36253 0
M  V30 3745 H 367.475 0.236952 0.69787 0
M  V30 3746 H 370.117 1.22012 1.45647 0
M  V30 3747 H 368.267 0.551058 3.84572 0
M  V30 3748 H 369.939 3.12179 3.3962 0
M  V30 3749 H 368.182 2.98641 3.14636 0
M  V30 3750 H 368.853 2.78255 4.76737 0
M  V30 3751 H 371.329 0.998465 4.03943 0
M  V30 3752 H 370.205 0.881663 5.41773 0
M  V30 3753 H 370.466 -0.519052 4.39042 0
M  V30 3754 N 369.525 -1.3858 0.750561 0
M  V30 3755 C 370.488 -2.28836 0.129152 0
M  V30 3756 C 371.488 -1.47045 -0.650714 0
M  V30 3757 O 372.678 -1.6753 -0.477428 0
M  V30 3758 C 369.81 -3.30751 -0.825622 0
M  V30 3759 H 371.003 -2.85294 0.924516 0
M  V30 3760 H 368.556 -1.47489 0.517376 0
M  V30 3761 H 369.291 -2.79378 -1.64677 0
M  V30 3762 H 369.076 -3.91177 -0.268852 0
M  V30 3763 H 370.566 -3.98249 -1.2565 0
M  V30 3764 N 371.003 -0.499398 -1.49478 0
M  V30 3765 C 371.913 0.284489 -2.32869 0
M  V30 3766 C 372.929 0.968885 -1.44529 0
M  V30 3767 O 374.105 0.95062 -1.77553 0
M  V30 3768 C 371.17 1.33594 -3.19928 0
M  V30 3769 C 370.231 0.665149 -4.24116 0
M  V30 3770 C 369.464 1.6665 -5.07014 0
M  V30 3771 O 369.687 2.89618 -4.91404 0
M  V30 3772 O 368.621 1.22271 -5.8935 0
M  V30 3773 H 372.447 -0.39802 -3.01081 0
M  V30 3774 H 370.032 -0.260758 -1.47107 0
M  V30 3775 H 371.914 1.94431 -3.73864 0
M  V30 3776 H 370.589 2.0014 -2.54412 0
M  V30 3777 H 369.496 0.0170769 -3.74096 0
M  V30 3778 H 370.829 0.0421555 -4.92182 0
M  V30 3779 N 372.481 1.55866 -0.233164 0
M  V30 3780 C 373.444 2.1953 0.658715 0
M  V30 3781 C 374.444 1.16053 1.11303 0
M  V30 3782 O 375.634 1.41218 1.01996 0
M  V30 3783 C 372.766 2.82791 1.90373 0
M  V30 3784 H 373.959 2.99721 0.10347 0
M  V30 3785 H 371.512 1.56291 0.0164245 0
M  V30 3786 H 372.247 2.06501 2.50056 0
M  V30 3787 H 372.032 3.58578 1.58632 0
M  V30 3788 H 373.522 3.31556 2.53891 0
M  V30 3789 N 373.959 -0.0401083 1.57549 0
M  V30 3790 C 375.208 -0.732108 1.87944 0
M  V30 3791 C 375.521 -1.77107 0.830206 0
M  V30 3792 O 376.727 -2.51488 1.02302 0
M  V30 3793 C 375.183 -1.35315 3.33494 0
M  V30 3794 C 374.791 -0.351105 4.46622 0
M  V30 3795 C 376.535 -2.02566 3.73051 0
M  V30 3796 C 374.442 -0.979859 5.83226 0
M  V30 3797 H 373.372 -0.277188 0.701201 0
M  V30 3798 H 376.023 0.0138501 1.83495 0
M  V30 3799 H 374.405 -2.14844 3.32653 0
M  V30 3800 H 375.579 0.416674 4.58912 0
M  V30 3801 H 373.894 0.218708 4.15825 0
M  V30 3802 H 376.491 -2.50441 4.72423 0
M  V30 3803 H 376.834 -2.83904 3.04474 0
M  V30 3804 H 377.367 -1.29827 3.76018 0
M  V30 3805 H 374.106 -0.206135 6.55176 0
M  V30 3806 H 373.626 -1.71774 5.74677 0
M  V30 3807 H 375.305 -1.49046 6.29599 0
M  V30 3808 N 375.437 -1.54477 -0.31217 0
M  V30 3809 C 376.4 -1.83923 -1.36766 0
M  V30 3810 C 377.4 -0.711563 -1.44199 0
M  V30 3811 O 378.59 -0.979866 -1.44029 0
M  V30 3812 C 375.722 -2.0095 -2.75376 0
M  V30 3813 H 376.915 -2.78239 -1.11906 0
M  V30 3814 H 374.468 -1.46369 -0.548257 0
M  V30 3815 H 375.203 -1.08883 -3.05475 0
M  V30 3816 H 374.988 -2.83018 -2.71373 0
M  V30 3817 H 376.478 -2.2514 -3.51713 0
M  V30 3818 N 376.915 0.57481 -1.46744 0
M  V30 3819 C 378.145 1.35659 -1.55821 0
M  V30 3820 C 378.553 1.88129 -0.201036 0
M  V30 3821 O 377.896 1.64723 0.813134 0
M  V30 3822 C 377.958 2.57473 -2.50894 0
M  V30 3823 C 377.622 2.26415 -3.9697 0
M  V30 3824 C 378.619 1.84771 -4.85958 0
M  V30 3825 C 376.304 2.38316 -4.42166 0
M  V30 3826 C 378.298 1.55434 -6.18158 0
M  V30 3827 C 375.985 2.08591 -5.74398 0
M  V30 3828 C 376.983 1.67216 -6.62214 0
M  V30 3829 O 376.671 1.37859 -7.91991 0
M  V30 3830 H 376.403 0.420496 -0.529301 0
M  V30 3831 H 378.957 0.704967 -1.92923 0
M  V30 3832 H 377.187 3.25468 -2.08824 0
M  V30 3833 H 378.876 3.19546 -2.50291 0
M  V30 3834 H 379.642 1.75085 -4.52295 0
M  V30 3835 H 375.521 2.69483 -3.74032 0
M  V30 3836 H 379.065 1.23065 -6.86659 0
M  V30 3837 H 374.962 2.17905 -6.07608 0
M  V30 3838 H 375.73 1.51638 -8.04331 0
M  V30 3839 N 378.394 1.34581 0.820102 0
M  V30 3840 C 379.324 1.29038 1.94606 0
M  V30 3841 C 380.305 0.1673 1.69275 0
M  V30 3842 O 381.49 0.360112 1.90832 0
M  V30 3843 C 378.62 1.04793 3.31113 0
M  V30 3844 C 377.574 2.13597 3.70891 0
M  V30 3845 C 376.9 1.74537 5.05412 0
M  V30 3846 C 378.2 3.55451 3.8269 0
M  V30 3847 H 379.894 2.23248 1.99501 0
M  V30 3848 H 377.44 1.0747 0.958449 0
M  V30 3849 H 379.393 0.995592 4.0947 0
M  V30 3850 H 378.117 0.0702565 3.26524 0
M  V30 3851 H 376.776 2.17905 2.9481 0
M  V30 3852 H 376.424 0.754226 4.97313 0
M  V30 3853 H 376.124 2.47361 5.32997 0
M  V30 3854 H 377.648 1.70803 5.86224 0
M  V30 3855 H 379.062 3.5354 4.51312 0
M  V30 3856 H 377.459 4.26922 4.21732 0
M  V30 3857 H 378.529 3.92587 2.84611 0
M  V30 3858 N 379.872 -1.04064 1.18357 0
M  V30 3859 C 380.802 -2.14001 0.934113 0
M  V30 3860 C 381.783 -1.69616 -0.128186 0
M  V30 3861 O 382.968 -1.94185 0.0244093 0
M  V30 3862 C 380.098 -3.44253 0.459066 0
M  V30 3863 C 379.052 -4.02261 1.46185 0
M  V30 3864 C 378.378 -5.27992 0.844322 0
M  V30 3865 C 379.678 -4.38432 2.83856 0
M  V30 3866 H 381.372 -2.35127 1.85352 0
M  V30 3867 H 378.918 -1.12998 0.892604 0
M  V30 3868 H 380.871 -4.20522 0.271907 0
M  V30 3869 H 379.595 -3.22813 -0.495912 0
M  V30 3870 H 378.254 -3.28074 1.63595 0
M  V30 3871 H 377.902 -5.02862 -0.117845 0
M  V30 3872 H 377.602 -5.67765 1.51384 0
M  V30 3873 H 379.126 -6.06938 0.667693 0
M  V30 3874 H 380.54 -5.05688 2.70098 0
M  V30 3875 H 378.937 -4.89254 3.47491 0
M  V30 3876 H 380.007 -3.4826 3.37406 0
M  V30 3877 N 381.35 -0.985608 -1.22978 0
M  V30 3878 C 382.26 -0.538548 -2.28335 0
M  V30 3879 C 383.276 0.409163 -1.69121 0
M  V30 3880 O 384.452 0.277797 -1.99475 0
M  V30 3881 C 381.517 0.146867 -3.46389 0
M  V30 3882 C 380.578 -0.842896 -4.20944 0
M  V30 3883 C 379.811 -0.190095 -5.33361 0
M  V30 3884 O 380.034 1.01767 -5.61248 0
M  V30 3885 O 378.968 -0.891289 -5.95264 0
M  V30 3886 H 382.794 -1.41487 -2.68729 0
M  V30 3887 H 380.379 -0.753495 -1.29007 0
M  V30 3888 H 382.261 0.531125 -4.1804 0
M  V30 3889 H 380.936 0.997871 -3.07935 0
M  V30 3890 H 379.843 -1.27795 -3.51595 0
M  V30 3891 H 381.176 -1.66287 -4.6326 0
M  V30 3892 N 382.828 1.3818 -0.7579 0
M  V30 3893 C 384.077 1.99261 -0.312744 0
M  V30 3894 C 384.39 1.60846 1.11301 0
M  V30 3895 O 385.596 2.14929 1.65885 0
M  V30 3896 C 384.052 3.56294 -0.50821 0
M  V30 3897 C 383.66 4.03657 -1.94333 0
M  V30 3898 C 385.404 4.24313 -0.125982 0
M  V30 3899 C 383.311 5.53347 -2.08712 0
M  V30 3900 H 382.241 0.745456 -0.113185 0
M  V30 3901 H 384.892 1.57889 -0.935056 0
M  V30 3902 H 383.274 3.95575 0.183353 0
M  V30 3903 H 384.448 3.75655 -2.66871 0
M  V30 3904 H 382.763 3.48376 -2.28086 0
M  V30 3905 H 385.36 5.34279 -0.212125 0
M  V30 3906 H 385.703 4.05962 0.921964 0
M  V30 3907 H 386.236 3.90285 -0.769563 0
M  V30 3908 H 382.975 5.76607 -3.11777 0
M  V30 3909 H 382.495 5.83078 -1.4064 0
M  V30 3910 H 384.174 6.19111 -1.87912 0
M  V30 3911 N 384.306 0.507319 1.49211 0
M  V30 3912 C 385.236 -0.256939 2.32082 0
M  V30 3913 C 386.217 -0.956609 1.40652 0
M  V30 3914 O 387.402 -0.946788 1.69557 0
M  V30 3915 C 384.532 -1.31802 3.21318 0
M  V30 3916 C 383.486 -0.737855 4.21592 0
M  V30 3917 C 382.812 -1.89992 4.99807 0
M  V30 3918 C 384.112 0.275325 5.21574 0
M  V30 3919 H 385.806 0.434798 2.96226 0
M  V30 3920 H 383.352 0.210546 1.42452 0
M  V30 3921 H 385.305 -1.86045 3.78107 0
M  V30 3922 H 384.029 -2.03903 2.5513 0
M  V30 3923 H 382.688 -0.217126 3.65956 0
M  V30 3924 H 382.336 -2.60877 4.30061 0
M  V30 3925 H 382.036 -1.51777 5.6766 0
M  V30 3926 H 383.56 -2.44657 5.59442 0
M  V30 3927 H 384.974 -0.179193 5.7302 0
M  V30 3928 H 383.371 0.573649 5.97352 0
M  V30 3929 H 384.441 1.18903 4.70096 0
M  V30 3930 N 385.784 -1.5574 0.241426 0
M  V30 3931 C 387.195 -1.84842 -0.262755 0
M  V30 3932 C 387.546 -1.16317 -1.58003 0
M  V30 3933 O 386.671 -0.439653 -2.11887 0
M  V30 3934 C 387.266 -3.35332 -0.483523 0
M  V30 3935 C 385.825 -3.6468 -0.931977 0
M  V30 3936 C 384.972 -2.77299 -0.0061151 0
M  V30 3937 H 387.923 -1.51761 0.464129 0
M  V30 3938 H 387.944 -3.56615 -1.32688 0
M  V30 3939 H 387.456 -3.85178 0.47537 0
M  V30 3940 H 385.557 -3.20307 -1.90353 0
M  V30 3941 H 385.67 -4.72498 -0.792628 0
M  V30 3942 H 384.034 -2.49408 -0.516503 0
M  V30 3943 H 384.817 -3.2995 0.948052 0
M  V30 3944 N 387.262 0.0317525 -1.57568 0
M  V30 3945 C 388.225 1.01783 -2.0536 0
M  V30 3946 C 389.225 1.29203 -0.957253 0
M  V30 3947 O 390.415 1.24251 -1.22095 0
M  V30 3948 C 387.547 2.35137 -2.46827 0
M  V30 3949 H 388.74 0.605062 -2.93733 0
M  V30 3950 H 386.293 0.278514 -1.53799 0
M  V30 3951 H 387.028 2.81168 -1.61602 0
M  V30 3952 H 386.813 2.16566 -3.26866 0
M  V30 3953 H 388.303 3.05938 -2.84239 0
M  V30 3954 N 388.74 1.54641 0.303973 0
M  V30 3955 C 389.67 1.88386 1.3796 0
M  V30 3956 C 390.651 0.742485 1.5304 0
M  V30 3957 O 391.836 0.997959 1.66597 0
M  V30 3958 C 388.966 2.12854 2.74427 0
M  V30 3959 C 387.92 3.28702 2.74115 0
M  V30 3960 C 387.246 3.38582 4.13844 0
M  V30 3961 C 388.546 4.65881 2.3612 0
M  V30 3962 H 390.24 2.78474 1.09966 0
M  V30 3963 H 387.786 1.33988 0.527556 0
M  V30 3964 H 389.739 2.35047 3.49758 0
M  V30 3965 H 388.463 1.19535 3.03939 0
M  V30 3966 H 387.122 3.06428 2.0124 0
M  V30 3967 H 386.77 2.42784 4.40528 0
M  V30 3968 H 386.47 4.16453 4.14537 0
M  V30 3969 H 387.994 3.63031 4.90959 0
M  V30 3970 H 389.408 4.87823 3.01167 0
M  V30 3971 H 387.805 5.46444 2.48031 0
M  V30 3972 H 388.875 4.66799 1.3125 0
M  V30 3973 N 390.218 -0.567019 1.47046 0
M  V30 3974 C 391.443 -1.3551 1.57009 0
M  V30 3975 C 391.868 -1.86841 0.217259 0
M  V30 3976 O 391.226 -1.62435 -0.805268 0
M  V30 3977 C 391.274 -2.50777 2.5912 0
M  V30 3978 O 390.378 -3.52706 2.13711 0
M  V30 3979 H 389.719 -0.402919 0.52778 0
M  V30 3980 H 392.249 -0.686241 1.92748 0
M  V30 3981 H 392.259 -2.97481 2.79229 0
M  V30 3982 H 390.934 -2.12771 3.57353 0
M  V30 3983 H 389.511 -3.12374 2.03659 0
M  V30 3984 N 391.696 -1.35014 -0.812953 0
M  V30 3985 C 392.926 -1.30841 -1.59888 0
M  V30 3986 C 393.334 0.117576 -1.88834 0
M  V30 3987 O 392.677 1.07807 -1.48739 0
M  V30 3988 C 392.739 -2.0412 -2.95931 0
M  V30 3989 C 392.403 -3.53336 -2.89832 0
M  V30 3990 C 393.4 -4.48052 -2.63714 0
M  V30 3991 C 391.085 -3.95894 -3.0915 0
M  V30 3992 C 393.079 -5.833 -2.56982 0
M  V30 3993 C 390.766 -5.31239 -3.0204 0
M  V30 3994 C 391.764 -6.24754 -2.75991 0
M  V30 3995 O 391.452 -7.57617 -2.68833 0
M  V30 3996 H 391.184 -0.451215 -0.50337 0
M  V30 3997 H 393.738 -1.78354 -1.01877 0
M  V30 3998 H 391.968 -1.51235 -3.559 0
M  V30 3999 H 393.657 -1.93107 -3.57022 0
M  V30 4000 H 394.423 -4.16492 -2.48515 0
M  V30 4001 H 390.302 -3.23495 -3.28438 0
M  V30 4002 H 393.846 -6.56263 -2.36569 0
M  V30 4003 H 389.743 -5.62415 -3.16796 0
M  V30 4004 H 390.511 -7.67469 -2.84487 0
M  V30 4005 N 393.175 1.03435 -1.18907 0
M  V30 4006 C 394.105 2.13503 -0.945448 0
M  V30 4007 C 395.086 1.69682 0.119189 0
M  V30 4008 O 396.271 1.94169 -0.034707 0
M  V30 4009 C 393.401 3.44004 -0.477316 0
M  V30 4010 C 392.355 4.0148 -1.48316 0
M  V30 4011 C 391.681 5.27537 -0.872311 0
M  V30 4012 C 392.981 4.36921 -2.86177 0
M  V30 4013 H 394.675 2.34141 -1.86597 0
M  V30 4014 H 392.221 1.12523 -0.898584 0
M  V30 4015 H 394.174 4.20372 -0.294204 0
M  V30 4016 H 392.898 3.23072 0.478786 0
M  V30 4017 H 391.557 3.27201 -1.65332 0
M  V30 4018 H 391.205 5.02917 0.0911752 0
M  V30 4019 H 390.905 5.66954 -1.54393 0
M  V30 4020 H 392.429 6.06576 -0.699871 0
M  V30 4021 H 393.843 5.04248 -2.72776 0
M  V30 4022 H 392.24 4.87405 -3.50081 0
M  V30 4023 H 393.31 3.46466 -3.39248 0
M  V30 4024 N 394.653 0.992116 1.22453 0
M  V30 4025 C 395.603 0.512969 2.22155 0
M  V30 4026 C 396.587 -0.418416 1.55364 0
M  V30 4027 O 397.779 -0.245363 1.75291 0
M  V30 4028 C 394.908 -0.171822 3.4287 0
M  V30 4029 C 393.994 0.779822 4.16869 0
M  V30 4030 N 394.385 1.92734 4.6764 0
M  V30 4031 C 392.683 0.59554 4.42006 0
M  V30 4032 C 393.384 2.52458 5.24061 0
M  V30 4033 N 392.36 1.80735 5.12675 0
M  V30 4034 H 396.162 1.38817 2.5905 0
M  V30 4035 H 393.676 0.854277 1.38115 0
M  V30 4036 H 395.673 -0.532469 4.13486 0
M  V30 4037 H 394.333 -1.04317 3.07487 0
M  V30 4038 H 395.344 2.30816 4.63621 0
M  V30 4039 H 392.021 -0.229805 4.16867 0
M  V30 4040 H 393.411 3.49433 5.73887 0
M  V30 4041 N 396.131 -1.37776 0.765217 0
M  V30 4042 C 397.356 -2.04651 0.336537 0
M  V30 4043 C 397.781 -1.57337 -1.03086 0
M  V30 4044 O 397.139 -0.730621 -1.65927 0
M  V30 4045 C 397.187 -3.58577 0.381468 0
M  V30 4046 O 396.291 -4.07706 -0.62042 0
M  V30 4047 H 395.632 -0.64756 0.146838 0
M  V30 4048 H 398.162 -1.76221 1.03959 0
M  V30 4049 H 398.172 -4.07314 0.236448 0
M  V30 4050 H 396.847 -3.9237 1.37907 0
M  V30 4051 H 395.424 -3.70306 -0.439056 0
M  V30 4052 N 397.609 -0.515225 -1.4894 0
M  V30 4053 C 398.858 0.0261361 -2.01683 0
M  V30 4054 C 399.171 1.36719 -1.39883 0
M  V30 4055 O 400.377 1.99606 -1.84037 0
M  V30 4056 C 398.833 0.0970111 -3.59769 0
M  V30 4057 C 398.441 -1.23825 -4.30548 0
M  V30 4058 C 400.185 0.587981 -4.20408 0
M  V30 4059 C 398.092 -1.12877 -5.80528 0
M  V30 4060 H 397.022 0.0135398 -0.753878 0
M  V30 4061 H 399.673 -0.656787 -1.71343 0
M  V30 4062 H 398.055 0.844694 -3.86886 0
M  V30 4063 H 399.229 -2.00034 -4.15118 0
M  V30 4064 H 397.544 -1.66379 -3.81716 0
M  V30 4065 H 400.141 0.68763 -5.3026 0
M  V30 4066 H 400.484 1.59026 -3.84729 0
M  V30 4067 H 401.017 -0.103582 -3.97665 0
M  V30 4068 H 397.756 -2.10575 -6.20756 0
M  V30 4069 H 397.276 -0.407799 -5.98412 0
M  V30 4070 H 398.955 -0.813332 -6.41868 0
M  V30 4071 N 399.087 1.5561 -0.249682 0
M  V30 4072 C 400.335 1.98618 0.373548 0
M  V30 4073 C 400.656 1.13919 1.58264 0
M  V30 4074 O 399.926 0.222637 1.94631 0
M  V30 4075 H 398.506 0.733571 0.141006 0
M  V30 4076 H 401.168 1.91748 -0.349117 0
M  V30 4077 H 400.264 3.04584 0.680796 0
M  V30 4078 N 400.565 -0.0233959 1.57583 0
M  V30 4079 C 401.495 -1.02162 2.09965 0
M  V30 4080 C 402.476 -1.3735 1.00344 0
M  V30 4081 O 403.661 -1.46135 1.27899 0
M  V30 4082 C 400.791 -2.32081 2.58371 0
M  V30 4083 C 399.745 -2.1112 3.72307 0
M  V30 4084 C 399.071 -3.46848 4.06941 0
M  V30 4085 C 400.371 -1.49276 5.00514 0
M  V30 4086 H 402.065 -0.585557 2.93618 0
M  V30 4087 H 399.611 -0.280218 1.41247 0
M  V30 4088 H 401.564 -3.02249 2.93639 0
M  V30 4089 H 400.288 -2.77758 1.71808 0
M  V30 4090 H 398.947 -1.43384 3.37397 0
M  V30 4091 H 398.595 -3.90184 3.17436 0
M  V30 4092 H 398.295 -3.33646 4.83688 0
M  V30 4093 H 399.819 -4.18369 4.44747 0
M  V30 4094 H 401.233 -2.09368 5.33702 0
M  V30 4095 H 399.63 -1.46632 5.8191 0
M  V30 4096 H 400.7 -0.459217 4.82721 0
M  V30 4097 N 402.043 -1.548 -0.295768 0
M  V30 4098 C 403.289 -1.74588 -1.03184 0
M  V30 4099 C 403.622 -0.532962 -1.86744 0
M  V30 4100 O 402.897 0.469872 -1.88739 0
M  V30 4101 C 403.18 -3.03791 -1.93347 0
M  V30 4102 C 403.033 -4.35392 -1.12933 0
M  V30 4103 C 404.352 -3.28892 -2.92435 0
M  V30 4104 H 401.471 -0.635221 -0.373715 0
M  V30 4105 H 404.113 -1.87519 -0.30606 0
M  V30 4106 H 402.263 -2.92898 -2.55232 0
M  V30 4107 H 403.935 -4.58211 -0.532943 0
M  V30 4108 H 402.178 -4.31642 -0.432168 0
M  V30 4109 H 402.849 -5.22074 -1.79284 0
M  V30 4110 H 405.325 -3.39429 -2.4068 0
M  V30 4111 H 404.201 -4.20603 -3.52682 0
M  V30 4112 H 404.462 -2.47437 -3.6637 0
M  V30 4113 N 403.521 0.559213 -1.47345 0
M  V30 4114 C 404.751 1.33999 -1.57251 0
M  V30 4115 C 405.159 1.87905 -0.220978 0
M  V30 4116 O 404.502 1.65577 0.795617 0
M  V30 4117 C 404.564 2.54798 -2.53611 0
M  V30 4118 C 404.228 2.22192 -3.99349 0
M  V30 4119 C 405.225 1.79607 -4.87891 0
M  V30 4120 C 402.91 2.33613 -4.44669 0
M  V30 4121 C 404.904 1.48868 -6.19772 0
M  V30 4122 C 402.591 2.02487 -5.76578 0
M  V30 4123 C 403.589 1.60183 -6.63951 0
M  V30 4124 O 403.277 1.29451 -7.93409 0
M  V30 4125 H 403.009 0.414858 -0.533731 0
M  V30 4126 H 405.563 0.684465 -1.9366 0
M  V30 4127 H 403.793 3.23235 -2.12265 0
M  V30 4128 H 405.482 3.16873 -2.53666 0
M  V30 4129 H 406.248 1.70278 -4.54126 0
M  V30 4130 H 402.127 2.65501 -3.76869 0
M  V30 4131 H 405.671 1.15775 -6.87926 0
M  V30 4132 H 401.568 2.11448 -6.09885 0
M  V30 4133 H 402.336 1.43098 -8.05894 0
M  V30 4134 N 404.999 1.35443 0.805782 0
M  V30 4135 C 405.947 1.28465 1.93906 0
M  V30 4136 C 406.941 0.17943 1.68447 0
M  V30 4137 O 408.147 0.345459 1.76654 0
M  V30 4138 H 404.522 0.399528 0.637088 0
M  V30 4139 H 406.493 2.24206 1.96912 0
M  V30 4140 C 405.242 1.07432 3.30687 0
M  V30 4141 H 404.565 1.91716 3.50835 0
M  V30 4142 H 406.005 1.06591 4.10383 0
M  V30 4143 C 404.464 -0.22179 3.36169 0
M  V30 4144 O 404.994 -1.21731 3.82811 0
M  V30 4145 N 403.2 -0.260841 2.89427 0
M  V30 4146 H 402.747 0.549884 2.51663 0
M  V30 4147 H 402.705 -1.12777 2.93477 0
M  V30 4148 N 406.477 -1.02803 1.19454 0
M  V30 4149 C 407.754 -1.73299 0.907013 0
M  V30 4150 C 408.134 -2.02772 -0.587086 0
M  V30 4151 O 407.482 -1.68304 -1.54551 0
M  V30 4152 C 407.692 -3.00912 1.76785 0
M  V30 4153 C 409.04 -3.74403 2.00268 0
M  V30 4154 O 410.064 -3.10841 1.73943 0
M  V30 4155 O 408.923 -4.88675 2.4466 0
M  V30 4156 H 406.017 -0.754727 0.338106 0
M  V30 4157 H 408.563 -1.08754 1.30271 0
M  V30 4158 H 407.335 -2.75366 2.7801 0
M  V30 4159 H 406.958 -3.73197 1.37149 0
M  V30 4160 N 407.956 -0.998596 -1.21925 0
M  V30 4161 C 408.886 -0.573688 -2.26343 0
M  V30 4162 C 409.867 0.402296 -1.65274 0
M  V30 4163 O 411.052 0.291683 -1.91997 0
M  V30 4164 C 408.182 0.106839 -3.47136 0
M  V30 4165 C 407.136 -0.788269 -4.20678 0
M  V30 4166 C 406.462 0.0254927 -5.34694 0
M  V30 4167 C 407.762 -2.08784 -4.78755 0
M  V30 4168 H 409.456 -1.44651 -2.62138 0
M  V30 4169 H 407.002 -0.696975 -1.26009 0
M  V30 4170 H 408.955 0.415531 -4.19346 0
M  V30 4171 H 407.679 1.01424 -3.10452 0
M  V30 4172 H 406.338 -1.08069 -3.50309 0
M  V30 4173 H 405.986 0.933989 -4.94253 0
M  V30 4174 H 405.686 -0.570437 -5.84825 0
M  V30 4175 H 407.21 0.328147 -6.09718 0
M  V30 4176 H 408.624 -1.84272 -5.42878 0
M  V30 4177 H 407.021 -2.63307 -5.39249 0
M  V30 4178 H 408.091 -2.76284 -3.98491 0
M  V30 4179 N 409.434 1.37368 -0.772513 0
M  V30 4180 C 410.381 2.30262 -0.157488 0
M  V30 4181 C 411.351 1.51137 0.688965 0
M  V30 4182 O 412.536 1.79704 0.641168 0
M  V30 4183 C 409.676 3.37611 0.715045 0
M  V30 4184 C 408.789 4.31746 -0.148098 0
M  V30 4185 C 407.924 5.26171 0.729213 0
M  V30 4186 C 406.963 6.11948 -0.136418 0
M  V30 4187 N 406.1 6.98613 0.698914 0
M  V30 4188 H 410.94 2.82277 -0.955179 0
M  V30 4189 H 408.477 1.38957 -0.482631 0
M  V30 4190 H 410.435 3.98479 1.23575 0
M  V30 4191 H 409.065 2.86959 1.47833 0
M  V30 4192 H 408.117 3.72178 -0.786613 0
M  V30 4193 H 409.429 4.92084 -0.81579 0
M  V30 4194 H 408.583 5.92247 1.31637 0
M  V30 4195 H 407.322 4.66246 1.43059 0
M  V30 4196 H 406.327 5.4485 -0.736102 0
M  V30 4197 H 407.552 6.73945 -0.835134 0
M  V30 4198 H 405.498 6.41215 1.38489 0
M  V30 4199 H 405.415 7.55948 0.0885358 0
M  V30 4200 H 406.683 7.69077 1.27044 0
M  V30 4201 N 410.912 0.523116 1.48665 0
M  V30 4202 C 412.323 0.0808997 1.86525 0
M  V30 4203 C 412.674 -1.33975 1.43336 0
M  V30 4204 O 411.799 -2.00221 0.821009 0
M  V30 4205 C 412.394 0.140037 3.3851 0
M  V30 4206 C 410.953 -0.246948 3.75589 0
M  V30 4207 C 410.1 0.502845 2.72703 0
M  V30 4208 H 413.051 0.734736 1.40667 0
M  V30 4209 H 413.072 -0.649945 3.74908 0
M  V30 4210 H 412.584 1.17412 3.69914 0
M  V30 4211 H 410.685 -1.28343 3.49798 0
M  V30 4212 H 410.798 0.0878859 4.79019 0
M  V30 4213 H 409.162 -0.0500581 2.54651 0
M  V30 4214 H 409.945 1.53743 3.0695 0
M  V30 4215 N 412.39 -1.55475 0.257931 0
M  V30 4216 C 413.3 -2.2549 -0.647425 0
M  V30 4217 C 414.316 -1.2748 -1.18427 0
M  V30 4218 O 415.492 -1.6038 -1.2182 0
M  V30 4219 C 412.557 -2.94916 -1.82278 0
M  V30 4220 C 411.618 -4.08363 -1.32432 0
M  V30 4221 C 410.851 -4.74469 -2.44366 0
M  V30 4222 O 411.074 -4.39701 -3.63344 0
M  V30 4223 O 410.008 -5.62763 -2.13497 0
M  V30 4224 H 413.834 -3.03593 -0.0807707 0
M  V30 4225 H 411.419 -1.49377 0.0259962 0
M  V30 4226 H 413.301 -3.38606 -2.50846 0
M  V30 4227 H 411.976 -2.19744 -2.37685 0
M  V30 4228 H 410.883 -3.69166 -0.605605 0
M  V30 4229 H 412.216 -4.85385 -0.816211 0
M  V30 4230 N 413.868 0.0150385 -1.57593 0
M  V30 4231 C 414.816 1.02958 -2.08572 0
M  V30 4232 C 415.81 1.36554 -1.00246 0
M  V30 4233 O 417.016 1.35295 -1.18724 0
M  V30 4234 H 413.391 0.349619 -0.665786 0
M  V30 4235 H 415.362 0.573932 -2.92829 0
M  V30 4236 C 414.111 2.31752 -2.59203 0
M  V30 4237 H 413.434 2.06765 -3.42182 0
M  V30 4238 H 414.874 3.01053 -2.98568 0
M  V30 4239 C 413.333 3.01692 -1.49945 0
M  V30 4240 O 413.863 3.92083 -0.873704 0
M  V30 4241 N 412.069 2.6326 -1.23056 0
M  V30 4242 H 411.616 1.89838 -1.74125 0
M  V30 4243 H 411.574 3.10372 -0.501685 0
M  V30 4244 N 415.346 1.54954 0.287554 0
M  V30 4245 C 416.595 1.74081 1.01877 0
M  V30 4246 C 416.908 0.541135 1.87966 0
M  V30 4247 O 418.114 0.614491 2.64455 0
M  V30 4248 C 416.57 3.08042 1.86113 0
M  V30 4249 C 416.178 4.35531 1.04961 0
M  V30 4250 C 417.922 3.36523 2.58752 0
M  V30 4251 C 415.829 5.60538 1.88551 0
M  V30 4252 H 414.759 0.64884 0.384087 0
M  V30 4253 H 417.41 1.81426 0.275101 0
M  V30 4254 H 415.792 2.94696 2.64519 0
M  V30 4255 H 416.966 4.59751 0.31074 0
M  V30 4256 H 415.281 4.14085 0.43843 0
M  V30 4257 H 417.878 4.27122 3.21668 0
M  V30 4258 H 418.221 2.56 3.28283 0
M  V30 4259 H 418.754 3.50901 1.87386 0
M  V30 4260 H 415.493 6.43767 1.23466 0
M  V30 4261 H 415.013 5.40483 2.60074 0
M  V30 4262 H 416.692 5.98297 2.46273 0
M  V30 4263 N 416.824 -0.551391 1.4764 0
M  V30 4264 C 417.757 -1.6738 1.5511 0
M  V30 4265 C 418.735 -1.5753 0.402856 0
M  V30 4266 O 419.919 -1.78307 0.611475 0
M  V30 4267 C 417.046 -3.05661 1.45908 0
M  V30 4268 C 416.092 -3.33938 2.65307 0
M  V30 4269 S 416.925 -3.22553 4.27457 0
M  V30 4270 C 418.081 -4.63317 4.20818 0
M  V30 4271 H 418.314 -1.6079 2.50068 0
M  V30 4272 H 415.847 -0.732674 1.35909 0
M  V30 4273 H 417.805 -3.8542 1.41286 0
M  V30 4274 H 416.466 -3.09711 0.523248 0
M  V30 4275 H 415.659 -4.34761 2.54948 0
M  V30 4276 H 415.261 -2.61809 2.67081 0
M  V30 4277 H 417.553 -5.54391 3.89431 0
M  V30 4278 H 418.496 -4.78732 5.21748 0
M  V30 4279 H 418.904 -4.41636 3.51593 0
M  V30 4280 N 418.302 -1.35869 -0.798587 0
M  V30 4281 C 419.232 -1.32118 -1.92528 0
M  V30 4282 C 420.213 -0.194209 -1.68988 0
M  V30 4283 O 421.398 -0.390426 -1.90235 0
M  V30 4284 C 418.528 -1.10047 -3.29404 0
M  V30 4285 C 417.482 -2.19471 -3.67446 0
M  V30 4286 C 416.808 -1.82555 -5.02571 0
M  V30 4287 C 418.108 -3.61495 -3.76987 0
M  V30 4288 H 419.802 -2.26394 -1.95924 0
M  V30 4289 H 417.348 -1.08981 -0.94123 0
M  V30 4290 H 419.301 -1.06061 -4.07835 0
M  V30 4291 H 418.025 -0.122195 -3.26371 0
M  V30 4292 H 416.684 -2.22568 -2.91306 0
M  V30 4293 H 416.332 -0.833249 -4.9605 0
M  V30 4294 H 416.032 -2.5581 -5.28995 0
M  V30 4295 H 417.556 -1.80108 -5.83432 0
M  V30 4296 H 418.97 -3.60676 -4.4563 0
M  V30 4297 H 417.367 -4.33577 -4.14887 0
M  V30 4298 H 418.437 -3.97065 -2.78329 0
M  V30 4299 N 419.78 1.02168 -1.19998 0
M  V30 4300 C 421.008 1.79296 -1.03249 0
M  V30 4301 C 421.423 1.84103 0.418502 0
M  V30 4302 O 420.78 1.29031 1.29063 0
M  V30 4303 C 420.831 3.24007 -1.60319 0
M  V30 4304 O 420.552 3.19512 -2.99739 0
M  V30 4305 C 422.053 4.17704 -1.48453 0
M  V30 4306 H 419.273 0.564016 -0.363493 0
M  V30 4307 H 421.817 1.28639 -1.58973 0
M  V30 4308 H 419.972 3.7183 -1.08727 0
M  V30 4309 H 420.386 4.10306 -3.26725 0
M  V30 4310 H 421.86 5.17104 -1.93153 0
M  V30 4311 H 422.337 4.37029 -0.436193 0
M  V30 4312 H 422.943 3.7576 -1.99211 0
M  V30 4313 N 421.258 1.00505 1.21394 0
M  V30 4314 C 422.168 0.574806 2.27449 0
M  V30 4315 C 423.184 -0.382206 1.6975 0
M  V30 4316 O 424.36 -0.246027 1.99892 0
M  V30 4317 C 421.425 -0.0917414 3.46579 0
M  V30 4318 C 420.486 0.909758 4.1955 0
M  V30 4319 C 419.719 0.274924 5.32991 0
M  V30 4320 O 419.942 -0.928254 5.62796 0
M  V30 4321 O 418.876 0.985877 5.93771 0
M  V30 4322 H 422.702 1.45744 2.66444 0
M  V30 4323 H 420.287 0.773923 1.27792 0
M  V30 4324 H 422.169 -0.464551 4.18832 0
M  V30 4325 H 420.844 -0.948755 3.09484 0
M  V30 4326 H 419.751 1.33372 3.49518 0
M  V30 4327 H 421.084 1.73636 4.60555 0
M  V30 4328 N 422.737 -1.36956 0.779787 0
M  V30 4329 C 423.647 -2.33965 0.172491 0
M  V30 4330 C 424.663 -1.60574 -0.670222 0
M  V30 4331 O 425.839 -1.92617 -0.588263 0
M  V30 4332 C 422.904 -3.39761 -0.690173 0
M  V30 4333 C 421.965 -4.28964 0.169924 0
M  V30 4334 C 421.198 -5.29707 -0.651662 0
M  V30 4335 O 421.421 -5.38238 -1.88827 0
M  V30 4336 O 420.355 -6.01873 -0.0566264 0
M  V30 4337 H 424.181 -2.87647 0.974321 0
M  V30 4338 H 421.766 -1.39258 0.541078 0
M  V30 4339 H 423.648 -4.04471 -1.1824 0
M  V30 4340 H 422.323 -2.88394 -1.47006 0
M  V30 4341 H 421.23 -3.67326 0.708696 0
M  V30 4342 H 422.563 -4.83656 0.913085 0
M  V30 4343 N 424.215 -0.530993 -1.48385 0
M  V30 4344 C 425.147 0.268353 -2.27624 0
M  V30 4345 C 426.16 0.903525 -1.35426 0
M  V30 4346 O 427.349 0.781796 -1.60469 0
M  V30 4347 C 424.449 1.39535 -3.08842 0
M  V30 4348 C 423.622 0.861913 -4.28824 0
M  V30 4349 C 422.681 1.87016 -4.91845 0
M  V30 4350 O 421.707 1.4267 -5.5103 0
M  V30 4351 N 422.909 3.20238 -4.84178 0
M  V30 4352 H 425.674 -0.41123 -2.96865 0
M  V30 4353 H 423.235 -0.365387 -1.57723 0
M  V30 4354 H 425.227 2.06803 -3.47871 0
M  V30 4355 H 423.797 1.97859 -2.42014 0
M  V30 4356 H 423.017 0.0132126 -3.94198 0
M  V30 4357 H 424.305 0.484415 -5.06489 0
M  V30 4358 H 423.703 3.58932 -4.37246 0
M  V30 4359 H 422.26 3.83136 -5.27305 0
M  V30 4360 N 425.693 1.55336 -0.266172 0
M  V30 4361 C 426.623 2.25146 0.618981 0
M  V30 4362 C 427.604 1.23845 1.16604 0
M  V30 4363 O 428.789 1.52544 1.20183 0
M  V30 4364 C 425.919 2.96572 1.80728 0
M  V30 4365 C 424.873 4.04726 1.39215 0
M  V30 4366 C 424.199 4.63678 2.66283 0
M  V30 4367 C 425.499 5.19407 0.548942 0
M  V30 4368 H 427.193 2.99377 0.0368116 0
M  V30 4369 H 424.739 1.43991 0.0162651 0
M  V30 4370 H 426.692 3.44116 2.43232 0
M  V30 4371 H 425.416 2.19861 2.41514 0
M  V30 4372 H 424.075 3.57979 0.790351 0
M  V30 4373 H 423.723 3.83646 3.25308 0
M  V30 4374 H 423.423 5.367 2.39222 0
M  V30 4375 H 424.947 5.13967 3.29651 0
M  V30 4376 H 426.361 5.63059 1.07876 0
M  V30 4377 H 424.758 5.98936 0.373593 0
M  V30 4378 H 425.828 4.8295 -0.434394 0
M  V30 4379 N 427.171 -0.0066808 1.57599 0
M  V30 4380 C 428.118 -1.00024 2.08 0
M  V30 4381 C 429.088 -1.34549 0.973943 0
M  V30 4382 O 430.273 -1.44502 1.24595 0
M  V30 4383 C 427.413 -2.2891 2.58252 0
M  V30 4384 C 426.526 -2.00346 3.82734 0
M  V30 4385 C 425.661 -3.23265 4.21513 0
M  V30 4386 C 424.7 -2.90357 5.3885 0
M  V30 4387 N 423.837 -4.05793 5.72954 0
M  V30 4388 H 428.677 -0.563499 2.92624 0
M  V30 4389 H 426.214 -0.266592 1.44664 0
M  V30 4390 H 428.172 -3.04247 2.85464 0
M  V30 4391 H 426.802 -2.70265 1.76512 0
M  V30 4392 H 425.854 -1.15406 3.62471 0
M  V30 4393 H 427.166 -1.72086 4.68175 0
M  V30 4394 H 426.32 -4.06953 4.49971 0
M  V30 4395 H 425.059 -3.54657 3.34768 0
M  V30 4396 H 424.064 -2.05075 5.10122 0
M  V30 4397 H 425.289 -2.60219 6.27266 0
M  V30 4398 H 423.235 -4.37094 4.89167 0
M  V30 4399 H 423.152 -3.81034 6.52954 0
M  V30 4400 H 424.42 -4.90289 6.06001 0
M  V30 4401 N 428.649 -1.55105 -0.279332 0
M  V30 4402 C 429.579 -1.90557 -1.34945 0
M  V30 4403 C 430.56 -0.766738 -1.51839 0
M  V30 4404 O 431.745 -1.02434 -1.64988 0
M  V30 4405 C 428.875 -2.17193 -2.71006 0
M  V30 4406 C 427.829 -3.33021 -2.68851 0
M  V30 4407 C 427.155 -3.45123 -4.08405 0
M  V30 4408 C 428.455 -4.69578 -2.28678 0
M  V30 4409 H 430.149 -2.80188 -1.05522 0
M  V30 4410 H 427.695 -1.34811 -0.506173 0
M  V30 4411 H 429.648 -2.40581 -3.45975 0
M  V30 4412 H 428.372 -1.24355 -3.01999 0
M  V30 4413 H 427.031 -3.0959 -1.9634 0
M  V30 4414 H 426.679 -2.49762 -4.3661 0
M  V30 4415 H 426.379 -4.22995 -4.07859 0
M  V30 4416 H 427.903 -3.70796 -4.85121 0
M  V30 4417 H 429.317 -4.92553 -2.93368 0
M  V30 4418 H 427.714 -5.5032 -2.39306 0
M  V30 4419 H 428.784 -4.68828 -1.23807 0
M  V30 4420 N 430.127 0.543554 -1.4793 0
M  V30 4421 C 431.376 1.29649 -1.54512 0
M  V30 4422 C 431.689 1.94382 -0.217973 0
M  V30 4423 O 432.895 2.71017 -0.161908 0
M  V30 4424 C 431.351 2.35175 -2.72435 0
M  V30 4425 C 430.959 1.76572 -4.11736 0
M  V30 4426 C 432.703 3.11564 -2.8832 0
M  V30 4427 C 430.61 2.79958 -5.20939 0
M  V30 4428 H 429.54 0.487541 -0.57517 0
M  V30 4429 H 432.191 0.575708 -1.74235 0
M  V30 4430 H 430.573 3.10229 -2.46118 0
M  V30 4431 H 431.747 1.07799 -4.48013 0
M  V30 4432 H 430.062 1.12722 -4.00852 0
M  V30 4433 H 432.659 3.88794 -3.67074 0
M  V30 4434 H 433.002 3.66594 -1.97268 0
M  V30 4435 H 433.535 2.43623 -3.14472 0
M  V30 4436 H 430.274 2.29766 -6.13912 0
M  V30 4437 H 429.794 3.47101 -4.89164 0
M  V30 4438 H 431.473 3.43198 -5.48474 0
M  V30 4439 N 431.605 1.3629 0.791371 0
M  V30 4440 C 432.882 1.20962 1.53712 0
M  V30 4441 C 433.262 -0.205021 2.10102 0
M  V30 4442 O 432.61 -1.21042 1.93807 0
M  V30 4443 C 432.82 2.29002 2.63361 0
M  V30 4444 C 434.168 2.65572 3.31295 0
M  V30 4445 O 435.192 2.2803 2.73643 0
M  V30 4446 O 434.051 3.3018 4.35481 0
M  V30 4447 H 431.145 0.47086 0.679867 0
M  V30 4448 H 433.691 1.48016 0.830021 0
M  V30 4449 H 432.463 3.2382 2.19674 0
M  V30 4450 H 432.086 2.03303 3.41692 0
M  V30 4451 N 433.083 -1.0153 1.20538 0
M  V30 4452 C 434.013 -2.11972 0.979295 0
M  V30 4453 C 434.994 -1.6985 -0.0921787 0
M  V30 4454 O 436.179 -1.94089 0.0655932 0
M  V30 4455 C 433.309 -3.43201 0.531984 0
M  V30 4456 C 432.263 -3.9907 1.54685 0
M  V30 4457 C 431.589 -5.26082 0.956127 0
M  V30 4458 C 432.889 -4.32313 2.93092 0
M  V30 4459 H 434.583 -2.31143 1.90298 0
M  V30 4460 H 432.129 -1.11079 0.916372 0
M  V30 4461 H 434.082 -4.1985 0.361044 0
M  V30 4462 H 432.806 -3.23792 -0.427327 0
M  V30 4463 H 431.465 -3.2453 1.70517 0
M  V30 4464 H 431.113 -5.02999 -0.0111538 0
M  V30 4465 H 430.813 -5.64426 1.63393 0
M  V30 4466 H 432.337 -6.05386 0.796284 0
M  V30 4467 H 433.751 -4.99845 2.80763 0
M  V30 4468 H 432.148 -4.81774 3.57791 0
M  V30 4469 H 433.218 -3.41025 3.44717 0
M  V30 4470 N 434.561 -1.01147 -1.20859 0
M  V30 4471 C 435.809 -0.696486 -1.89719 0
M  V30 4472 C 436.13 0.775788 -1.78904 0
M  V30 4473 O 435.4 1.55759 -1.18811 0
M  V30 4474 H 433.98 -0.254628 -0.702263 0
M  V30 4475 H 436.642 -1.28197 -1.46804 0
M  V30 4476 H 435.738 -0.975357 -2.96468 0
M  V30 4477 N 436.039 1.36541 -0.78704 0
M  V30 4478 C 437.002 2.28413 -0.189778 0
M  V30 4479 C 438.002 1.48719 0.611499 0
M  V30 4480 O 439.192 1.68737 0.432842 0
M  V30 4481 C 436.324 3.32824 0.737638 0
M  V30 4482 H 437.517 2.82743 -0.999831 0
M  V30 4483 H 435.07 1.46065 -0.556298 0
M  V30 4484 H 435.805 2.83646 1.57212 0
M  V30 4485 H 435.59 3.91752 0.165044 0
M  V30 4486 H 437.08 4.0144 1.15047 0
M  V30 4487 N 437.518 0.538854 1.48102 0
M  V30 4488 C 438.764 0.00801365 2.02798 0
M  V30 4489 C 439.097 -1.3309 1.41424 0
M  V30 4490 O 438.372 -1.86169 0.563158 0
M  V30 4491 C 438.655 -0.104589 3.59948 0
M  V30 4492 C 438.508 1.26012 4.31788 0
M  V30 4493 C 439.827 -0.827055 4.32259 0
M  V30 4494 H 436.946 0.00438624 0.736987 0
M  V30 4495 H 439.588 0.6976 1.7673 0
M  V30 4496 H 437.738 -0.691893 3.82289 0
M  V30 4497 H 439.41 1.88922 4.2084 0
M  V30 4498 H 437.653 1.83968 3.92859 0
M  V30 4499 H 438.324 1.13424 5.40221 0
M  V30 4500 H 440.8 -0.328578 4.14801 0
M  V30 4501 H 439.676 -0.87476 5.41885 0
M  V30 4502 H 439.937 -1.87927 4.0017 0
M  V30 4503 N 438.996 -1.55193 0.274407 0
M  V30 4504 C 440.221 -2.04446 -0.348824 0
M  V30 4505 C 440.646 -1.15149 -1.48735 0
M  V30 4506 O 440.004 -0.149952 -1.80679 0
M  V30 4507 C 440.052 -3.51431 -0.808009 0
M  V30 4508 O 439.156 -3.65225 -1.91531 0
M  V30 4509 H 438.497 -0.66006 -0.0722276 0
M  V30 4510 H 441.027 -2.00481 0.408498 0
M  V30 4511 H 441.037 -3.92781 -1.10395 0
M  V30 4512 H 439.712 -4.15892 0.0249865 0
M  V30 4513 H 438.289 -3.35778 -1.62196 0
M  V30 4514 N 440.474 -0.00167713 -1.576 0
M  V30 4515 C 441.89 0.354422 -1.55615 0
M  V30 4516 C 442.09 1.74679 -1.00447 0
M  V30 4517 O 441.146 2.4428 -0.639022 0
M  V30 4518 C 442.459 0.22812 -2.99833 0
M  V30 4519 C 444.007 0.302934 -3.11531 0
M  V30 4520 C 444.482 0.205737 -4.57538 0
M  V30 4521 N 445.973 0.263584 -4.62449 0
M  V30 4522 C 446.708 0.211742 -5.73009 0
M  V30 4523 N 446.204 0.110399 -6.92712 0
M  V30 4524 N 447.997 0.263729 -5.61481 0
M  V30 4525 H 440.148 -0.912498 -1.918 0
M  V30 4526 H 442.411 -0.349928 -0.881053 0
M  V30 4527 H 442.117 -0.729934 -3.44042 0
M  V30 4528 H 441.991 1.00951 -3.6344 0
M  V30 4529 H 444.378 1.25143 -2.67251 0
M  V30 4530 H 444.459 -0.508357 -2.50698 0
M  V30 4531 H 444.103 -0.739225 -5.02492 0
M  V30 4532 H 444.033 1.03554 -5.16318 0
M  V30 4533 H 446.524 0.343173 -3.76339 0
M  V30 4534 H 446.837 0.0767828 -7.72762 0
M  V30 4535 H 445.182 0.0760025 -6.94958 0
M  V30 4536 H 448.373 0.34111 -4.66855 0
M  V30 4537 H 448.546 0.219862 -6.47627 0
M  V30 4538 N 441.952 1.55251 0.271103 0
M  V30 4539 C 443.201 1.75151 1.00025 0
M  V30 4540 C 443.514 0.561041 1.87381 0
M  V30 4541 O 444.72 0.642506 2.63788 0
M  V30 4542 C 443.176 3.09999 1.82835 0
M  V30 4543 C 442.784 4.3662 1.00336 0
M  V30 4544 C 444.528 3.39249 2.55168 0
M  V30 4545 C 442.435 5.62506 1.82595 0
M  V30 4546 H 441.365 0.652877 0.377183 0
M  V30 4547 H 444.016 1.81708 0.255843 0
M  V30 4548 H 442.398 2.97485 2.61378 0
M  V30 4549 H 443.572 4.60055 0.261959 0
M  V30 4550 H 441.887 4.14527 0.394486 0
M  V30 4551 H 444.484 4.3051 3.1712 0
M  V30 4552 H 444.827 2.59467 3.2555 0
M  V30 4553 H 445.36 3.52869 1.83653 0
M  V30 4554 H 442.099 6.45041 1.16631 0
M  V30 4555 H 441.619 5.43211 2.54327 0
M  V30 4556 H 443.298 6.00875 2.39913 0
M  V30 4557 N 443.43 -0.535701 1.48216 0
M  V30 4558 C 444.378 -1.66179 1.62749 0
M  V30 4559 C 445.372 -1.62034 0.49409 0
M  V30 4560 O 446.578 -1.6696 0.672624 0
M  V30 4561 H 442.953 -0.550244 0.512578 0
M  V30 4562 H 444.924 -1.51063 2.57337 0
M  V30 4563 C 443.673 -3.04471 1.67907 0
M  V30 4564 H 442.996 -3.08351 2.54479 0
M  V30 4565 H 444.436 -3.82894 1.82121 0
M  V30 4566 C 442.895 -3.34314 0.416596 0
M  V30 4567 O 443.425 -3.98905 -0.473014 0
M  V30 4568 N 441.631 -2.89149 0.290038 0
M  V30 4569 H 441.178 -2.36764 1.01493 0
M  V30 4570 H 441.136 -3.09486 -0.55367 0
M  V30 4571 N 444.908 -1.36708 -0.784132 0
M  V30 4572 C 446.133 -1.34565 -1.5782 0
M  V30 4573 C 446.558 0.0695257 -1.87971 0
M  V30 4574 O 445.916 1.04302 -1.48293 0
M  V30 4575 C 445.964 -2.17952 -2.87279 0
M  V30 4576 O 445.068 -1.57563 -3.81114 0
M  V30 4577 H 444.409 -0.460337 -0.478524 0
M  V30 4578 H 446.939 -1.80064 -0.971495 0
M  V30 4579 H 446.949 -2.30721 -3.365 0
M  V30 4580 H 445.624 -3.20823 -2.64661 0
M  V30 4581 H 444.201 -1.53764 -3.39722 0
M  V30 4582 N 446.386 1.0089 -1.21074 0
M  V30 4583 C 447.633 1.74607 -1.0256 0
M  V30 4584 C 447.961 1.89426 0.44136 0
M  V30 4585 O 447.216 1.42266 1.34384 0
M  V30 4586 C 447.515 3.16335 -1.66334 0
M  V30 4587 C 447.181 3.21474 -3.16173 0
M  V30 4588 C 445.843 3.22583 -3.57062 0
M  V30 4589 C 448.195 3.19025 -4.12156 0
M  V30 4590 C 445.523 3.18925 -4.92446 0
M  V30 4591 C 447.875 3.16909 -5.47496 0
M  V30 4592 C 446.539 3.16326 -5.87787 0
M  V30 4593 H 445.809 0.638933 -0.375294 0
M  V30 4594 H 448.456 1.18274 -1.50611 0
M  V30 4595 H 446.761 3.75876 -1.10566 0
M  V30 4596 H 448.458 3.72083 -1.49516 0
M  V30 4597 H 445.048 3.2135 -2.83605 0
M  V30 4598 H 449.232 3.17332 -3.81595 0
M  V30 4599 H 444.488 3.16809 -5.22917 0
M  V30 4600 H 448.662 3.13968 -6.21609 0
M  V30 4601 H 446.289 3.13246 -6.92662 0
M  V30 4602 N 447.864 1.01787 1.20321 0
M  V30 4603 C 449.112 0.706538 1.89347 0
M  V30 4604 C 449.433 -0.766289 1.79313 0
M  V30 4605 O 448.703 -1.55126 1.19635 0
M  V30 4606 H 447.283 0.258348 0.700903 0
M  V30 4607 H 449.945 1.28974 1.46122 0
M  V30 4608 H 449.041 0.991066 2.95946 0
M  V30 4609 N 449.342 -1.36122 0.79427 0
M  V30 4610 C 450.572 -2.03067 0.380437 0
M  V30 4611 C 450.98 -1.60018 -1.00949 0
M  V30 4612 O 450.323 -0.787425 -1.65968 0
M  V30 4613 C 450.385 -3.57587 0.37034 0
M  V30 4614 C 450.049 -4.23855 1.70867 0
M  V30 4615 C 451.046 -4.46404 2.66496 0
M  V30 4616 C 448.731 -4.61229 1.9893 0
M  V30 4617 C 450.725 -5.05412 3.88378 0
M  V30 4618 C 448.412 -5.19953 3.21079 0
M  V30 4619 C 449.41 -5.41985 4.15621 0
M  V30 4620 O 449.098 -5.99475 5.35616 0
M  V30 4621 H 448.83 -0.658168 0.154243 0
M  V30 4622 H 451.384 -1.7498 1.0757 0
M  V30 4623 H 449.614 -3.84814 -0.381444 0
M  V30 4624 H 451.303 -4.05895 -0.0194894 0
M  V30 4625 H 452.069 -4.17921 2.46103 0
M  V30 4626 H 447.948 -4.43402 1.26158 0
M  V30 4627 H 451.492 -5.22524 4.62185 0
M  V30 4628 H 447.389 -5.47862 3.41347 0
M  V30 4629 H 448.157 -6.17937 5.36745 0
M  V30 4630 N 450.82 -0.546701 -1.47814 0
M  V30 4631 C 451.75 0.195317 -2.32682 0
M  V30 4632 C 452.731 0.918981 -1.43139 0
M  V30 4633 O 453.916 0.901501 -1.72008 0
M  V30 4634 C 451.046 1.23237 -3.247 0
M  V30 4635 C 450 0.625818 -4.234 0
M  V30 4636 C 449.326 1.76674 -5.04669 0
M  V30 4637 C 450.626 -0.413515 -5.2066 0
M  V30 4638 H 452.32 -0.513184 -2.94969 0
M  V30 4639 H 449.866 -0.248241 -1.41844 0
M  V30 4640 H 451.819 1.75955 -3.82907 0
M  V30 4641 H 450.543 1.97067 -2.60446 0
M  V30 4642 H 449.202 0.120023 -3.66403 0
M  V30 4643 H 448.85 2.49383 -4.36826 0
M  V30 4644 H 448.55 1.36673 -5.71484 0
M  V30 4645 H 450.074 2.29738 -5.65732 0
M  V30 4646 H 451.488 0.0272042 -5.73294 0
M  V30 4647 H 449.885 -0.731825 -5.95621 0
M  V30 4648 H 450.955 -1.31325 -4.66778 0
M  V30 4649 N 452.299 1.55045 -0.282633 0
M  V30 4650 C 453.529 2.03872 0.334635 0
M  V30 4651 C 453.937 1.16018 1.49454 0
M  V30 4652 O 453.28 0.174449 1.8287 0
M  V30 4653 C 453.342 3.48791 0.870905 0
M  V30 4654 C 453.006 4.56715 -0.161338 0
M  V30 4655 C 454.003 5.10513 -0.983466 0
M  V30 4656 C 451.688 5.01417 -0.297745 0
M  V30 4657 C 453.682 6.07538 -1.92811 0
M  V30 4658 C 451.369 5.98265 -1.24586 0
M  V30 4659 C 452.367 6.51208 -2.05954 0
M  V30 4660 O 452.055 7.46162 -2.99162 0
M  V30 4661 H 451.787 0.671324 0.0793742 0
M  V30 4662 H 454.341 2.01169 -0.41473 0
M  V30 4663 H 452.571 3.48758 1.67047 0
M  V30 4664 H 454.26 3.80916 1.40207 0
M  V30 4665 H 455.026 4.76785 -0.888856 0
M  V30 4666 H 450.905 4.59849 0.325604 0
M  V30 4667 H 454.449 6.48787 -2.56363 0
M  V30 4668 H 450.346 6.31412 -1.34126 0
M  V30 4669 H 451.114 7.63903 -2.93929 0
M  V30 4670 N 453.777 0.010035 1.57597 0
M  V30 4671 C 455.025 -0.671371 1.90623 0
M  V30 4672 C 455.346 -1.73753 0.885151 0
M  V30 4673 O 454.616 -1.95752 -0.0760611 0
M  V30 4674 H 453.196 -0.250968 0.703579 0
M  V30 4675 H 455.858 0.0533325 1.94827 0
M  V30 4676 H 454.954 -1.13626 2.90681 0
M  V30 4677 N 455.255 -1.55392 -0.262866 0
M  V30 4678 C 456.483 -1.80513 -1.01108 0
M  V30 4679 C 456.898 -0.583533 -1.79556 0
M  V30 4680 O 456.255 0.447585 -1.76926 0
M  V30 4681 C 456.306 -3.03648 -1.96164 0
M  V30 4682 O 456.027 -4.2109 -1.20893 0
M  V30 4683 C 457.528 -3.41448 -2.82715 0
M  V30 4684 H 454.748 -0.601079 -0.298236 0
M  V30 4685 H 457.292 -2.02425 -0.290582 0
M  V30 4686 H 455.447 -2.83832 -2.63663 0
M  V30 4687 H 455.861 -4.90771 -1.85051 0
M  V30 4688 H 457.335 -4.30751 -3.45192 0
M  V30 4689 H 457.812 -2.61308 -3.53008 0
M  V30 4690 H 458.418 -3.63559 -2.20693 0
M  V30 4691 N 456.733 0.527833 -1.48498 0
M  V30 4692 C 458.144 1.10975 -1.50138 0
M  V30 4693 C 458.495 1.943 -0.272378 0
M  V30 4694 O 457.62 2.07319 0.620301 0
M  V30 4695 C 458.215 2.01927 -2.72049 0
M  V30 4696 C 456.774 2.55332 -2.76554 0
M  V30 4697 C 455.921 1.32341 -2.43683 0
M  V30 4698 H 458.872 0.312986 -1.55583 0
M  V30 4699 H 458.893 2.86244 -2.50689 0
M  V30 4700 H 458.405 1.41254 -3.61481 0
M  V30 4701 H 456.506 3.19721 -1.91336 0
M  V30 4702 H 456.619 2.94319 -3.78038 0
M  V30 4703 H 454.983 1.63989 -1.94884 0
M  V30 4704 H 455.766 0.734165 -3.35358 0
M  V30 4705 N 458.211 1.37122 0.776871 0
M  V30 4706 C 459.459 1.31787 1.53221 0
M  V30 4707 C 459.78 -0.0987589 1.9475 0
M  V30 4708 O 459.05 -1.0417 1.65908 0
M  V30 4709 H 457.63 0.484839 0.568278 0
M  V30 4710 H 460.292 1.71556 0.924917 0
M  V30 4711 H 459.388 1.95355 2.43398 0
M  V30 4712 N 459.689 -1.00246 1.21608 0
M  V30 4713 C 460.936 -1.74061 1.03485 0
M  V30 4714 C 461.264 -1.89658 -0.431308 0
M  V30 4715 O 460.519 -1.42976 -1.33627 0
M  V30 4716 C 460.818 -3.15448 1.68009 0
M  V30 4717 C 460.484 -3.19792 3.17874 0
M  V30 4718 C 459.146 -3.20685 3.58768 0
M  V30 4719 C 461.498 -3.16835 4.13842 0
M  V30 4720 C 458.826 -3.16309 4.94131 0
M  V30 4721 C 461.178 -3.14001 5.49169 0
M  V30 4722 C 459.842 -3.13204 5.89457 0
M  V30 4723 H 459.112 -0.636934 0.378677 0
M  V30 4724 H 461.759 -1.17473 1.51236 0
M  V30 4725 H 460.064 -3.75284 1.12557 0
M  V30 4726 H 461.761 -3.71285 1.51487 0
M  V30 4727 H 458.351 -3.19842 2.85305 0
M  V30 4728 H 462.535 -3.15303 3.83272 0
M  V30 4729 H 457.791 -3.14032 5.24589 0
M  V30 4730 H 461.965 -3.10667 6.23265 0
M  V30 4731 H 459.592 -3.09568 6.94314 0
M  V30 4732 N 461.167 -1.02423 -1.1978 0
M  V30 4733 C 462.099 -0.559152 -2.22275 0
M  V30 4734 C 463.112 0.36251 -1.58713 0
M  V30 4735 O 464.301 0.159641 -1.77785 0
M  V30 4736 C 461.401 0.205094 -3.38279 0
M  V30 4737 C 460.574 -0.720361 -4.31427 0
M  V30 4738 C 459.633 -0.00234368 -5.262 0
M  V30 4739 O 458.659 -0.627378 -5.65732 0
M  V30 4740 N 459.861 1.26996 -5.66438 0
M  V30 4741 H 462.626 -1.44064 -2.62804 0
M  V30 4742 H 460.187 -0.902692 -1.34399 0
M  V30 4743 H 462.179 0.694868 -3.9869 0
M  V30 4744 H 460.749 0.987947 -2.96578 0
M  V30 4745 H 459.969 -1.39031 -3.68869 0
M  V30 4746 H 461.257 -1.3495 -4.90577 0
M  V30 4747 H 460.655 1.79858 -5.36347 0
M  V30 4748 H 459.212 1.70432 -6.29123 0
M  V30 4749 N 462.645 1.35699 -0.801477 0
M  V30 4750 C 463.608 2.28199 -0.213994 0
M  V30 4751 C 464.608 1.49359 0.595691 0
M  V30 4752 O 465.798 1.69186 0.414921 0
M  V30 4753 C 462.93 3.33587 0.702297 0
M  V30 4754 H 464.123 2.81666 -1.02976 0
M  V30 4755 H 461.676 1.45467 -0.571759 0
M  V30 4756 H 462.411 2.85297 1.54195 0
M  V30 4757 H 462.196 3.91906 0.123484 0
M  V30 4758 H 463.686 4.02638 1.10783 0
M  V30 4759 N 464.123 0.554532 1.47522 0
M  V30 4760 C 465.534 0.120446 1.86311 0
M  V30 4761 C 465.885 -1.30904 1.46145 0
M  V30 4762 O 465.01 -1.98434 0.863294 0
M  V30 4763 C 465.605 0.211808 3.38137 0
M  V30 4764 C 464.164 -0.167224 3.76028 0
M  V30 4765 C 463.311 0.560576 2.71575 0
M  V30 4766 H 466.262 0.764408 1.39077 0
M  V30 4767 H 466.283 -0.570275 3.76202 0
M  V30 4768 H 465.795 1.25232 3.6734 0
M  V30 4769 H 463.896 -1.20894 3.52442 0
M  V30 4770 H 464.009 0.189473 4.78725 0
M  V30 4771 H 462.373 0.00396836 2.547 0
M  V30 4772 H 463.156 1.60219 3.0362 0
M  V30 4773 N 465.601 -1.54893 0.290851 0
M  V30 4774 C 466.511 -2.26812 -0.59945 0
M  V30 4775 C 467.527 -1.29963 -1.15696 0
M  V30 4776 O 468.703 -1.62928 -1.18391 0
M  V30 4777 C 465.768 -2.98716 -1.75982 0
M  V30 4778 C 464.829 -4.1108 -1.2374 0
M  V30 4779 C 464.062 -4.79546 -2.34246 0
M  V30 4780 O 464.285 -4.47309 -3.53936 0
M  V30 4781 O 463.219 -5.67165 -2.01512 0
M  V30 4782 H 467.045 -3.03696 -0.0163561 0
M  V30 4783 H 464.63 -1.49289 0.0576755 0
M  V30 4784 H 466.512 -3.43851 -2.43607 0
M  V30 4785 H 465.187 -2.24737 -2.3297 0
M  V30 4786 H 464.094 -3.70367 -0.527163 0
M  V30 4787 H 465.427 -4.87007 -0.71307 0
M  V30 4788 N 467.08 -0.0183926 -1.57589 0
M  V30 4789 C 468.329 0.66185 -1.90532 0
M  V30 4790 C 468.642 1.73904 -0.895366 0
M  V30 4791 O 469.848 2.47518 -1.11566 0
M  V30 4792 C 468.304 1.22844 -3.38286 0
M  V30 4793 C 467.912 0.185103 -4.47617 0
M  V30 4794 C 469.656 1.88581 -3.80312 0
M  V30 4795 C 467.563 0.762723 -5.86461 0
M  V30 4796 H 466.493 0.250972 -0.711006 0
M  V30 4797 H 469.144 -0.0819435 -1.83317 0
M  V30 4798 H 467.526 2.0235 -3.40398 0
M  V30 4799 H 468.7 -0.58671 -4.5705 0
M  V30 4800 H 467.015 -0.372889 -4.14727 0
M  V30 4801 H 469.612 2.32735 -4.81392 0
M  V30 4802 H 469.955 2.72408 -3.14801 0
M  V30 4803 H 470.488 1.15782 -3.80578 0
M  V30 4804 H 467.227 -0.0371713 -6.55489 0
M  V30 4805 H 466.747 1.50327 -5.80656 0
M  V30 4806 H 468.426 1.25576 -6.34697 0
M  V30 4807 N 468.558 1.5553 0.254621 0
M  V30 4808 C 469.804 1.77262 0.985193 0
M  V30 4809 C 470.137 0.582286 1.85265 0
M  V30 4810 O 469.412 -0.419666 1.89919 0
M  V30 4811 C 469.695 3.0881 1.85225 0
M  V30 4812 C 469.548 4.38233 1.0135 0
M  V30 4813 C 470.867 3.3653 2.83612 0
M  V30 4814 H 467.986 0.644906 0.356742 0
M  V30 4815 H 470.628 1.88264 0.256236 0
M  V30 4816 H 468.778 2.99562 2.47376 0
M  V30 4817 H 470.45 4.59463 0.411269 0
M  V30 4818 H 468.693 4.32636 0.317574 0
M  V30 4819 H 469.364 5.26644 1.65379 0
M  V30 4820 H 471.84 3.45691 2.31596 0
M  V30 4821 H 470.716 4.29805 3.41407 0
M  V30 4822 H 470.977 2.57064 3.59681 0
M  V30 4823 N 470.036 -0.519951 1.48776 0
M  V30 4824 C 471.452 -0.849418 1.35119 0
M  V30 4825 C 471.652 -1.98077 0.36982 0
M  V30 4826 O 470.708 -2.51664 -0.205359 0
M  V30 4827 C 472.021 -1.20748 2.75391 0
M  V30 4828 C 473.569 -1.31679 2.83954 0
M  V30 4829 C 474.044 -1.70824 4.24951 0
M  V30 4830 N 475.535 -1.77908 4.27672 0
M  V30 4831 C 476.27 -2.09603 5.33717 0
M  V30 4832 N 475.766 -2.39652 6.5003 0
M  V30 4833 N 477.559 -2.10694 5.21119 0
M  V30 4834 H 469.71 0.226377 2.1119 0
M  V30 4835 H 471.973 0.0386519 0.947212 0
M  V30 4836 H 471.679 -0.449703 3.48813 0
M  V30 4837 H 471.553 -2.15534 3.09556 0
M  V30 4838 H 473.94 -2.06532 2.10781 0
M  V30 4839 H 474.021 -0.3499 2.53396 0
M  V30 4840 H 473.665 -0.965282 4.98643 0
M  V30 4841 H 473.595 -2.6858 4.52959 0
M  V30 4842 H 476.086 -1.56923 3.43779 0
M  V30 4843 H 476.399 -2.6297 7.26682 0
M  V30 4844 H 474.744 -2.37149 6.53288 0
M  V30 4845 H 477.935 -1.86682 4.29264 0
M  V30 4846 H 478.108 -2.35062 6.03863 0
M  V30 4847 N 471.514 -1.37532 -0.769588 0
M  V30 4848 C 472.742 -1.36059 -1.55871 0
M  V30 4849 C 473.157 0.053544 -1.88724 0
M  V30 4850 O 472.514 1.01591 -1.5161 0
M  V30 4851 C 472.565 -2.20107 -2.86767 0
M  V30 4852 O 472.286 -3.56009 -2.55321 0
M  V30 4853 C 473.787 -2.26636 -3.80987 0
M  V30 4854 H 471.007 -0.465967 -0.482821 0
M  V30 4855 H 473.551 -1.80901 -0.953686 0
M  V30 4856 H 471.706 -1.78768 -3.43687 0
M  V30 4857 H 472.12 -4.0009 -3.39158 0
M  V30 4858 H 473.594 -2.89763 -4.69831 0
M  V30 4859 H 474.071 -1.2754 -4.20274 0
M  V30 4860 H 474.677 -2.68296 -3.29996 0
M  V30 4861 N 472.992 0.995999 -1.22138 0
M  V30 4862 C 474.24 1.73167 -1.042 0
M  V30 4863 C 474.561 1.90329 0.42423 0
M  V30 4864 O 473.831 1.4607 1.30539 0
M  V30 4865 H 472.411 0.641593 -0.38258 0
M  V30 4866 H 475.073 1.19974 -1.53598 0
M  V30 4867 H 474.169 2.72734 -1.51731 0
M  V30 4868 N 474.47 1.03057 1.19235 0
M  V30 4869 C 475.881 0.757449 1.70645 0
M  V30 4870 C 476.232 -0.722735 1.82403 0
M  V30 4871 O 475.357 -1.56325 1.49638 0
M  V30 4872 C 475.952 1.36833 3.09939 0
M  V30 4873 C 474.511 1.14375 3.58602 0
M  V30 4874 C 473.658 1.46533 2.35422 0
M  V30 4875 H 476.609 1.19828 1.04052 0
M  V30 4876 H 476.63 0.766184 3.72706 0
M  V30 4877 H 476.142 2.44562 3.01349 0
M  V30 4878 H 474.243 0.0847542 3.72504 0
M  V30 4879 H 474.356 1.83366 4.42622 0
M  V30 4880 H 472.72 0.884712 2.38841 0
M  V30 4881 H 473.503 2.55349 2.2946 0
M  V30 4882 N 475.948 -1.35272 0.808662 0
M  V30 4883 C 477.176 -2.02946 0.402537 0
M  V30 4884 C 477.591 -1.60937 -0.987147 0
M  V30 4885 O 476.948 -0.807917 -1.63643 0
M  V30 4886 C 476.999 -3.58317 0.47868 0
M  V30 4887 O 476.72 -3.98799 1.81358 0
M  V30 4888 C 478.221 -4.43251 0.0656281 0
M  V30 4889 H 475.441 -0.650831 0.163279 0
M  V30 4890 H 477.985 -1.72849 1.09286 0
M  V30 4891 H 476.14 -3.87055 -0.163415 0
M  V30 4892 H 476.554 -4.93451 1.77781 0
M  V30 4893 H 478.028 -5.51738 0.170017 0
M  V30 4894 H 478.505 -4.27913 -0.989278 0
M  V30 4895 H 479.111 -4.19813 0.68096 0
M  V30 4896 N 477.426 -0.562348 -1.47226 0
M  V30 4897 C 478.672 -0.0402761 -2.0276 0
M  V30 4898 C 479.005 1.30823 -1.43523 0
M  V30 4899 O 478.28 1.85249 -0.592705 0
M  V30 4900 C 478.563 0.047311 -3.60069 0
M  V30 4901 C 478.416 -1.32865 -4.29729 0
M  V30 4902 C 479.735 0.758182 -4.3352 0
M  V30 4903 H 476.854 -0.0161105 -0.736824 0
M  V30 4904 H 479.496 -0.725628 -1.75598 0
M  V30 4905 H 477.646 0.630986 -3.83342 0
M  V30 4906 H 479.318 -1.95593 -4.17781 0
M  V30 4907 H 477.561 -1.90195 -3.89882 0
M  V30 4908 H 478.232 -1.22004 -5.38349 0
M  V30 4909 H 480.708 0.262546 -4.15271 0
M  V30 4910 H 479.584 0.78844 -5.43208 0
M  V30 4911 H 479.845 1.81537 -4.03109 0
M  V30 4912 N 478.904 1.54736 -0.299062 0
M  V30 4913 C 479.867 2.22127 0.565012 0
M  V30 4914 C 480.867 1.20669 1.06281 0
M  V30 4915 O 482.057 1.45417 0.959145 0
M  V30 4916 C 479.189 2.90611 1.78208 0
M  V30 4917 H 480.382 2.99891 -0.0237448 0
M  V30 4918 H 477.935 1.5622 -0.0498788 0
M  V30 4919 H 478.67 2.16921 2.41072 0
M  V30 4920 H 478.455 3.64984 1.43281 0
M  V30 4921 H 479.945 3.42026 2.396 0
M  V30 4922 N 480.382 0.0267497 1.57577 0
M  V30 4923 C 481.61 -0.662661 1.96001 0
M  V30 4924 C 482.025 -1.65799 0.903117 0
M  V30 4925 O 481.382 -1.82135 -0.115317 0
M  V30 4926 C 481.433 -1.37112 3.34488 0
M  V30 4927 O 481.154 -0.415683 4.36123 0
M  V30 4928 C 482.655 -2.15257 3.8753 0
M  V30 4929 H 479.875 -0.18287 0.6456 0
M  V30 4930 H 482.419 0.0858116 2.0432 0
M  V30 4931 H 480.574 -2.07101 3.27395 0
M  V30 4932 H 480.988 -0.918496 5.16395 0
M  V30 4933 H 482.462 -2.60285 4.86781 0
M  V30 4934 H 482.939 -2.99063 3.21649 0
M  V30 4935 H 483.545 -1.50231 3.97883 0
M  V30 4936 N 481.861 -1.55662 -0.24637 0
M  V30 4937 C 483.138 -1.68272 -0.997198 0
M  V30 4938 C 483.518 -0.566785 -2.03349 0
M  V30 4939 O 482.866 0.429688 -2.24424 0
M  V30 4940 C 483.076 -3.08594 -1.63006 0
M  V30 4941 C 484.424 -3.6721 -2.13171 0
M  V30 4942 O 485.448 -3.11397 -1.72946 0
M  V30 4943 O 484.307 -4.65054 -2.87031 0
M  V30 4944 H 481.401 -0.684429 -0.464205 0
M  V30 4945 H 483.947 -1.67993 -0.240114 0
M  V30 4946 H 482.719 -3.81264 -0.880527 0
M  V30 4947 H 482.342 -3.12886 -2.45333 0
M  V30 4948 N 483.339 0.512053 -1.4905 0
M  V30 4949 C 484.588 1.26343 -1.57227 0
M  V30 4950 C 484.901 1.93876 -0.259155 0
M  V30 4951 O 486.107 2.70612 -0.219358 0
M  V30 4952 C 484.563 2.29343 -2.77362 0
M  V30 4953 C 484.171 1.67799 -4.15388 0
M  V30 4954 C 485.915 3.05378 -2.94864 0
M  V30 4955 C 483.822 2.68845 -5.2676 0
M  V30 4956 H 482.752 0.475231 -0.585382 0
M  V30 4957 H 485.403 0.53862 -1.75417 0
M  V30 4958 H 483.785 3.04938 -2.52643 0
M  V30 4959 H 484.959 0.982715 -4.50199 0
M  V30 4960 H 483.274 1.04194 -4.03153 0
M  V30 4961 H 485.871 3.80921 -3.75238 0
M  V30 4962 H 486.214 3.62327 -2.05 0
M  V30 4963 H 486.747 2.36898 -3.19569 0
M  V30 4964 H 483.486 2.16692 -6.18647 0
M  V30 4965 H 483.006 3.36647 -4.96416 0
M  V30 4966 H 484.685 3.31487 -5.5563 0
M  V30 4967 N 484.817 1.37938 0.762283 0
M  V30 4968 C 486.047 1.36685 1.54922 0
M  V30 4969 C 486.455 -0.0474099 1.89141 0
M  V30 4970 O 485.798 -1.02213 1.52638 0
M  V30 4971 C 485.86 2.14963 2.88152 0
M  V30 4972 C 485.524 3.6385 2.76518 0
M  V30 4973 C 486.521 4.57531 2.46904 0
M  V30 4974 C 484.206 4.07095 2.94243 0
M  V30 4975 C 486.2 5.92436 2.35156 0
M  V30 4976 C 483.887 5.42083 2.82116 0
M  V30 4977 C 484.885 6.34567 2.52614 0
M  V30 4978 O 484.573 7.67073 2.40529 0
M  V30 4979 H 484.305 0.469586 0.486276 0
M  V30 4980 H 486.859 1.82012 0.951876 0
M  V30 4981 H 485.089 1.6434 3.50042 0
M  V30 4982 H 486.778 2.06224 3.49609 0
M  V30 4983 H 487.544 4.25428 2.32886 0
M  V30 4984 H 483.423 3.35462 3.16206 0
M  V30 4985 H 486.967 6.64591 2.12049 0
M  V30 4986 H 482.864 5.73785 2.95704 0
M  V30 4987 H 483.632 7.77499 2.55807 0
M  V30 4988 N 486.295 -0.989507 1.22664 0
M  V30 4989 C 487.523 -1.76496 1.07967 0
M  V30 4990 C 487.938 -1.85148 -0.369543 0
M  V30 4991 O 487.295 -1.32408 -1.25596 0
M  V30 4992 C 487.346 -3.19642 1.68853 0
M  V30 4993 O 487.067 -3.11453 3.08105 0
M  V30 4994 C 488.568 -4.13621 1.59475 0
M  V30 4995 H 485.788 -0.55418 0.378319 0
M  V30 4996 H 488.332 -1.24378 1.62328 0
M  V30 4997 H 486.487 -3.68816 1.18547 0
M  V30 4998 H 486.901 -4.01499 3.37489 0
M  V30 4999 H 488.375 -5.11801 2.06795 0
M  V30 5000 H 488.852 -4.35718 0.55191 0
M  V30 5001 H 489.458 -3.70346 2.09103 0
M  V30 5002 N 487.773 -1.03688 -1.18687 0
M  V30 5003 C 489.019 -0.739123 -1.88851 0
M  V30 5004 C 489.352 0.731042 -1.79915 0
M  V30 5005 O 488.627 1.53313 -1.19688 0
M  V30 5006 C 488.91 -1.20106 -3.3948 0
M  V30 5007 C 488.763 -2.73304 -3.57246 0
M  V30 5008 C 490.082 -0.788134 -4.32986 0
M  V30 5009 H 487.201 -0.269978 -0.68577 0
M  V30 5010 H 489.843 -1.28822 -1.3966 0
M  V30 5011 H 487.993 -0.733915 -3.81505 0
M  V30 5012 H 489.665 -3.28027 -3.24339 0
M  V30 5013 H 487.908 -3.13313 -3.00029 0
M  V30 5014 H 488.579 -3.00684 -4.62918 0
M  V30 5015 H 491.055 -1.19005 -3.98719 0
M  V30 5016 H 489.931 -1.13915 -5.36949 0
M  V30 5017 H 490.192 0.308988 -4.41019 0
M  V30 5018 N 489.251 1.34841 -0.815825 0
M  V30 5019 C 490.499 1.98107 -0.399744 0
M  V30 5020 C 490.82 1.65019 1.03894 0
M  V30 5021 O 490.09 0.937311 1.72021 0
M  V30 5022 H 488.67 0.732827 -0.144823 0
M  V30 5023 H 491.332 1.64599 -1.0437 0
M  V30 5024 H 490.428 3.07856 -0.512965 0
M  V30 5025 N 490.729 0.570148 1.46925 0
M  V30 5026 C 492.145 0.23087 1.57921 0
M  V30 5027 C 492.345 -1.26676 1.56702 0
M  V30 5028 O 491.401 -2.04774 1.47729 0
M  V30 5029 C 492.714 0.868973 2.8787 0
M  V30 5030 C 494.262 0.841397 3.01479 0
M  V30 5031 C 494.737 1.45881 4.34146 0
M  V30 5032 N 496.228 1.42258 4.40814 0
M  V30 5033 C 496.963 1.8698 5.42057 0
M  V30 5034 N 496.459 2.39618 6.50042 0
M  V30 5035 N 498.252 1.77972 5.33181 0
M  V30 5036 H 490.403 1.54301 1.45962 0
M  V30 5037 H 492.666 0.644224 0.69547 0
M  V30 5038 H 492.372 1.922 2.94537 0
M  V30 5039 H 492.246 0.369682 3.75384 0
M  V30 5040 H 494.633 -0.202973 2.94401 0
M  V30 5041 H 494.714 1.37858 2.15474 0
M  V30 5042 H 494.358 2.50231 4.4198 0
M  V30 5043 H 494.288 0.896958 5.18905 0
M  V30 5044 H 496.779 1.03768 3.63374 0
M  V30 5045 H 497.092 2.71633 7.23488 0
M  V30 5046 H 495.437 2.43636 6.50897 0
M  V30 5047 H 498.628 1.36617 4.4772 0
M  V30 5048 H 498.801 2.13143 6.11943 0
M  V30 5049 N 492.207 -1.54576 0.307264 0
M  V30 5050 C 493.435 -2.04675 -0.302597 0
M  V30 5051 C 493.85 -1.18425 -1.47041 0
M  V30 5052 O 493.207 -0.211257 -1.81273 0
M  V30 5053 C 493.258 -3.53575 -0.752801 0
M  V30 5054 O 492.979 -4.36547 0.368536 0
M  V30 5055 C 494.48 -4.19699 -1.42717 0
M  V30 5056 H 491.7 -0.66786 -0.0648374 0
M  V30 5057 H 494.244 -1.99516 0.448716 0
M  V30 5058 H 492.399 -3.59074 -1.45412 0
M  V30 5059 H 492.813 -5.24497 0.0168937 0
M  V30 5060 H 494.287 -5.25388 -1.69327 0
M  V30 5061 H 494.764 -3.69815 -2.36925 0
M  V30 5062 H 495.37 -4.18293 -0.768856 0
M  V30 5063 N 493.685 -0.035106 -1.57561 0
M  V30 5064 C 494.615 0.942993 -2.13612 0
M  V30 5065 C 495.596 1.33531 -1.05373 0
M  V30 5066 O 496.781 1.41287 -1.33235 0
M  V30 5067 C 493.911 2.22332 -2.66807 0
M  V30 5068 C 492.865 1.97156 -3.79886 0
M  V30 5069 C 492.191 3.31506 -4.19533 0
M  V30 5070 C 493.491 1.30596 -5.05709 0
M  V30 5071 H 495.185 0.476179 -2.95589 0
M  V30 5072 H 492.731 0.227602 -1.4219 0
M  V30 5073 H 494.684 2.91142 -3.04654 0
M  V30 5074 H 493.408 2.7119 -1.81999 0
M  V30 5075 H 492.067 1.30763 -3.42486 0
M  V30 5076 H 491.715 3.78134 -3.31698 0
M  V30 5077 H 491.415 3.15465 -4.95738 0
M  V30 5078 H 492.939 4.01574 -4.59968 0
M  V30 5079 H 494.353 1.89416 -5.41105 0
M  V30 5080 H 492.75 1.24934 -5.86951 0
M  V30 5081 H 493.82 0.279742 -4.84092 0
M  V30 5082 N 495.163 1.55791 0.238111 0
M  V30 5083 C 496.126 1.90239 1.27835 0
M  V30 5084 C 497.126 0.779552 1.4064 0
M  V30 5085 O 498.316 1.04747 1.3919 0
M  V30 5086 C 495.448 2.13859 2.65475 0
M  V30 5087 H 496.641 2.83262 0.985034 0
M  V30 5088 H 494.194 1.48818 0.477799 0
M  V30 5089 H 494.929 1.23334 2.99932 0
M  V30 5090 H 494.714 2.95643 2.57561 0
M  V30 5091 H 496.204 2.41664 3.40571 0
M  V30 5092 N 496.642 -0.504142 1.49319 0
M  V30 5093 C 497.605 -1.5883 1.65244 0
M  V30 5094 C 498.605 -1.52009 0.524386 0
M  V30 5095 O 499.795 -1.55218 0.79077 0
M  V30 5096 C 496.927 -2.98481 1.64687 0
M  V30 5097 H 498.12 -1.4604 2.61939 0
M  V30 5098 H 495.673 -0.728144 1.38303 0
M  V30 5099 H 496.408 -3.16751 0.695644 0
M  V30 5100 H 496.193 -3.0484 2.46607 0
M  V30 5101 H 497.683 -3.77256 1.79075 0
M  V30 5102 N 498.12 -1.38341 -0.754957 0
M  V30 5103 C 499.05 -1.38176 -1.88227 0
M  V30 5104 C 500.031 -0.247873 -1.68284 0
M  V30 5105 O 501.216 -0.45075 -1.88896 0
M  V30 5106 C 498.346 -1.20471 -3.25736 0
M  V30 5107 C 497.3 -2.3105 -3.60278 0
M  V30 5108 C 496.626 -1.98452 -4.96509 0
M  V30 5109 C 497.926 -3.73305 -3.65295 0
M  V30 5110 H 499.62 -2.32512 -1.88622 0
M  V30 5111 H 497.166 -1.1192 -0.906082 0
M  V30 5112 H 499.119 -1.18982 -4.04254 0
M  V30 5113 H 497.843 -0.225965 -3.25817 0
M  V30 5114 H 496.502 -2.31723 -2.84078 0
M  V30 5115 H 496.15 -0.990641 -4.93148 0
M  V30 5116 H 495.85 -2.7251 -5.20588 0
M  V30 5117 H 497.374 -1.98578 -5.77407 0
M  V30 5118 H 498.788 -3.7467 -4.3393 0
M  V30 5119 H 497.185 -4.46557 -4.00883 0
M  V30 5120 H 498.255 -4.05719 -2.65556 0
M  V30 5121 N 499.598 0.982988 -1.23187 0
M  V30 5122 C 500.826 1.75921 -1.08901 0
M  V30 5123 C 501.241 1.85341 0.359719 0
M  V30 5124 O 500.598 1.33072 1.24892 0
M  V30 5125 C 500.649 3.18742 -1.70545 0
M  V30 5126 O 500.37 3.09814 -3.09753 0
M  V30 5127 C 501.871 4.1277 -1.61667 0
M  V30 5128 H 499.091 0.552166 -0.381252 0
M  V30 5129 H 501.635 1.23516 -1.62985 0
M  V30 5130 H 499.79 3.68182 -1.20501 0
M  V30 5131 H 500.204 3.99703 -3.39614 0
M  V30 5132 H 501.678 5.10697 -2.09506 0
M  V30 5133 H 502.155 4.3542 -0.575009 0
M  V30 5134 H 502.761 3.69232 -2.11064 0
M  V30 5135 N 501.076 1.04316 1.18135 0
M  V30 5136 C 502.006 0.657299 2.24058 0
M  V30 5137 C 502.987 -0.340678 1.66654 0
M  V30 5138 O 504.172 -0.220223 1.92947 0
M  V30 5139 C 501.302 0.0220715 3.47293 0
M  V30 5140 C 500.256 0.943857 4.17463 0
M  V30 5141 C 499.582 0.172973 5.3442 0
M  V30 5142 C 500.882 2.26409 4.70677 0
M  V30 5143 H 502.576 1.5428 2.56589 0
M  V30 5144 H 500.122 0.743263 1.23335 0
M  V30 5145 H 502.075 -0.259607 4.206 0
M  V30 5146 H 500.799 -0.898323 3.14003 0
M  V30 5147 H 499.458 1.20996 3.46057 0
M  V30 5148 H 499.106 -0.749907 4.97379 0
M  V30 5149 H 498.806 0.787098 5.82304 0
M  V30 5150 H 500.33 -0.101628 6.10515 0
M  V30 5151 H 501.744 2.04294 5.35665 0
M  V30 5152 H 500.141 2.8314 5.29105 0
M  V30 5153 H 501.211 2.90883 3.87962 0
M  V30 5154 N 502.554 -1.34406 0.822964 0
M  V30 5155 C 503.831 -1.92733 0.333641 0
M  V30 5156 C 504.211 -1.75107 -1.17901 0
M  V30 5157 O 503.559 -1.12983 -1.98613 0
M  V30 5158 C 503.769 -3.40557 0.763023 0
M  V30 5159 C 505.117 -4.17709 0.761879 0
M  V30 5160 O 506.141 -3.49141 0.705606 0
M  V30 5161 O 505 -5.40082 0.835109 0
M  V30 5162 H 502.094 -0.821964 0.0911249 0
M  V30 5163 H 504.64 -1.4338 0.907757 0
M  V30 5164 H 503.412 -3.47187 1.8049 0
M  V30 5165 H 503.035 -3.97259 0.164605 0
M  V30 5166 N 504.032 -0.577932 -1.46621 0
M  V30 5167 C 504.962 0.145917 -2.33044 0
M  V30 5168 C 505.943 0.888412 -1.45056 0
M  V30 5169 O 507.128 0.864812 -1.73881 0
M  V30 5170 C 504.258 1.16322 -3.27241 0
M  V30 5171 C 503.212 0.535868 -4.24632 0
M  V30 5172 C 502.538 1.65929 -5.08303 0
M  V30 5173 C 503.838 -0.523861 -5.19666 0
M  V30 5174 H 505.532 -0.575636 -2.93814 0
M  V30 5175 H 503.078 -0.278272 -1.41286 0
M  V30 5176 H 505.031 1.67793 -3.86553 0
M  V30 5177 H 503.755 1.91498 -2.64567 0
M  V30 5178 H 502.414 0.0422759 -3.66576 0
M  V30 5179 H 502.062 2.40061 -4.42018 0
M  V30 5180 H 501.762 1.2452 -5.74255 0
M  V30 5181 H 503.286 2.17686 -5.70478 0
M  V30 5182 H 504.7 -0.0944059 -5.73222 0
M  V30 5183 H 503.097 -0.858 -5.93935 0
M  V30 5184 H 504.167 -1.41197 -4.63887 0
M  V30 5185 N 505.51 1.54411 -0.315457 0
M  V30 5186 C 506.921 1.85885 0.174265 0
M  V30 5187 C 507.272 1.23723 1.52273 0
M  V30 5188 O 506.397 0.540246 2.09548 0
M  V30 5189 C 506.992 3.37257 0.322981 0
M  V30 5190 C 505.551 3.68711 0.756922 0
M  V30 5191 C 504.698 2.77013 -0.126195 0
M  V30 5192 H 507.649 1.49374 -0.536007 0
M  V30 5193 H 507.67 3.62539 1.15522 0
M  V30 5194 H 507.182 3.82471 -0.658602 0
M  V30 5195 H 505.283 3.29024 1.74854 0
M  V30 5196 H 505.396 4.75741 0.566291 0
M  V30 5197 H 503.76 2.51588 0.39692 0
M  V30 5198 H 504.543 3.25051 -1.1044 0
M  V30 5199 N 506.988 0.0434614 1.5754 0
M  V30 5200 C 508.216 -0.641835 1.96693 0
M  V30 5201 C 508.631 -1.64832 0.920652 0
M  V30 5202 O 507.988 -1.82247 -0.095993 0
M  V30 5203 C 508.039 -1.33557 3.35924 0
M  V30 5204 O 507.76 -0.369403 4.3654 0
M  V30 5205 C 509.261 -2.11135 3.89791 0
M  V30 5206 H 506.481 -0.176013 0.647503 0
M  V30 5207 H 509.025 0.107478 2.04217 0
M  V30 5208 H 507.18 -2.03617 3.29574 0
M  V30 5209 H 507.594 -0.863674 5.1734 0
M  V30 5210 H 509.068 -2.55107 4.89514 0
M  V30 5211 H 509.545 -2.95634 3.24803 0
M  V30 5212 H 510.151 -1.46002 3.99454 0
M  V30 5213 N 508.466 -1.55915 -0.229846 0
M  V30 5214 C 509.882 -1.48721 -0.579166 0
M  V30 5215 C 510.082 -0.736976 -1.87539 0
M  V30 5216 O 509.138 -0.273258 -2.51017 0
M  V30 5217 C 510.451 -2.9323 -0.666082 0
M  V30 5218 C 511.999 -3.03701 -0.757267 0
M  V30 5219 C 512.474 -4.49552 -0.8756 0
M  V30 5220 N 513.965 -4.53561 -0.940035 0
M  V30 5221 C 514.7 -5.63683 -1.05116 0
M  V30 5222 N 514.196 -6.83576 -1.12675 0
M  V30 5223 N 515.989 -5.51516 -1.08565 0
M  V30 5224 H 508.14 -2.03123 0.620857 0
M  V30 5225 H 510.403 -0.922898 0.21671 0
M  V30 5226 H 510.109 -3.51032 0.21664 0
M  V30 5227 H 509.983 -3.44668 -1.53243 0
M  V30 5228 H 512.37 -2.45969 -1.63043 0
M  V30 5229 H 512.451 -2.55446 0.134583 0
M  V30 5230 H 512.095 -5.079 -0.00692351 0
M  V30 5231 H 512.025 -4.95506 -1.78274 0
M  V30 5232 H 514.516 -3.67215 -0.892269 0
M  V30 5233 H 514.829 -7.63251 -1.21109 0
M  V30 5234 H 513.174 -6.86303 -1.09603 0
M  V30 5235 H 516.365 -4.5678 -1.02319 0
M  V30 5236 H 516.538 -6.37372 -1.1688 0
M  V30 5237 N 509.944 0.496216 -1.49584 0
M  V30 5238 C 510.892 1.61805 -1.67098 0
M  V30 5239 C 511.886 1.60667 -0.536877 0
M  V30 5240 O 513.092 1.65118 -0.716654 0
M  V30 5241 H 509.467 0.53646 -0.526986 0
M  V30 5242 H 511.438 1.44187 -2.61252 0
M  V30 5243 C 510.187 2.99912 -1.75921 0
M  V30 5244 H 509.51 3.01496 -2.62565 0
M  V30 5245 H 510.95 3.77931 -1.92209 0
M  V30 5246 C 509.409 3.33092 -0.505088 0
M  V30 5247 O 509.939 4.00019 0.367085 0
M  V30 5248 N 508.145 2.88278 -0.366599 0
M  V30 5249 H 507.692 2.33989 -1.07735 0
M  V30 5250 H 507.65 3.10846 0.47142 0
M  V30 5251 N 511.423 1.38739 0.74761 0
M  V30 5252 C 512.671 1.35007 1.50391 0
M  V30 5253 C 512.992 -0.0574274 1.94915 0
M  V30 5254 O 512.262 -1.00628 1.6808 0
M  V30 5255 H 510.842 0.496784 0.557866 0
M  V30 5256 H 513.504 1.73479 0.888319 0
M  V30 5257 H 512.6 2.00474 2.392 0
M  V30 5258 N 512.901 -0.976442 1.23707 0
M  V30 5259 C 514.317 -1.24341 1.00058 0
M  V30 5260 C 514.517 -1.99315 -0.295932 0
M  V30 5261 O 513.573 -2.3123 -1.01435 0
M  V30 5262 C 514.886 -2.03909 2.21001 0
M  V30 5263 C 516.434 -2.17034 2.25534 0
M  V30 5264 C 516.909 -2.99994 3.46075 0
M  V30 5265 N 518.4 -3.07578 3.46338 0
M  V30 5266 C 519.135 -3.72104 4.36264 0
M  V30 5267 N 518.631 -4.3842 5.36432 0
M  V30 5268 N 520.424 -3.69029 4.23998 0
M  V30 5269 H 512.575 -0.47428 2.07037 0
M  V30 5270 H 514.838 -0.272167 0.908091 0
M  V30 5271 H 514.544 -1.56198 3.15111 0
M  V30 5272 H 514.418 -3.04654 2.22409 0
M  V30 5273 H 516.805 -2.63951 1.31961 0
M  V30 5274 H 516.886 -1.15664 2.28156 0
M  V30 5275 H 516.53 -2.53772 4.39957 0
M  V30 5276 H 516.46 -4.01541 3.40694 0
M  V30 5277 H 518.951 -2.60397 2.73865 0
M  V30 5278 H 519.264 -4.85447 6.013 0
M  V30 5279 H 517.609 -4.37116 5.40328 0
M  V30 5280 H 520.8 -3.16392 3.44984 0
M  V30 5281 H 520.973 -4.19034 4.94282 0
M  V30 5282 N 514.379 -1.04941 -1.1758 0
M  V30 5283 C 515.609 -0.777166 -1.91425 0
M  V30 5284 C 516.017 0.670647 -1.76915 0
M  V30 5285 O 515.36 1.46965 -1.10213 0
M  V30 5286 C 515.422 -1.07495 -3.43052 0
M  V30 5287 C 515.086 -2.51844 -3.81345 0
M  V30 5288 C 516.083 -3.50047 -3.844 0
M  V30 5289 C 513.768 -2.86787 -4.12382 0
M  V30 5290 C 515.762 -4.81239 -4.17957 0
M  V30 5291 C 513.449 -4.18182 -4.45608 0
M  V30 5292 C 514.447 -5.15219 -4.48373 0
M  V30 5293 O 514.135 -6.44258 -4.80819 0
M  V30 5294 H 513.867 -0.282209 -0.614275 0
M  V30 5295 H 516.421 -1.40258 -1.50056 0
M  V30 5296 H 514.651 -0.392437 -3.84704 0
M  V30 5297 H 516.34 -0.78912 -3.98155 0
M  V30 5298 H 517.106 -3.24391 -3.60548 0
M  V30 5299 H 512.985 -2.11922 -4.09402 0
M  V30 5300 H 516.529 -5.56974 -4.2003 0
M  V30 5301 H 512.426 -4.43602 -4.68922 0
M  V30 5302 H 513.194 -6.49041 -4.98686 0
M  V30 5303 N 515.857 1.33968 -0.830081 0
M  V30 5304 C 517.103 1.98357 -0.422191 0
M  V30 5305 C 517.436 1.65633 1.01387 0
M  V30 5306 O 516.711 0.931648 1.70735 0
M  V30 5307 C 516.994 3.54492 -0.633043 0
M  V30 5308 C 516.847 3.96934 -2.11574 0
M  V30 5309 C 518.166 4.40039 -0.0735584 0
M  V30 5310 H 515.285 0.720544 -0.154871 0
M  V30 5311 H 517.927 1.58749 -1.04397 0
M  V30 5312 H 516.077 3.88361 -0.103775 0
M  V30 5313 H 517.749 3.73363 -2.7092 0
M  V30 5314 H 515.992 3.46984 -2.60354 0
M  V30 5315 H 516.663 5.05651 -2.21406 0
M  V30 5316 H 519.139 4.12764 -0.52585 0
M  V30 5317 H 518.015 5.48327 -0.250841 0
M  V30 5318 H 518.276 4.30124 1.02202 0
M  V30 5319 N 517.335 0.585699 1.46312 0
M  V30 5320 C 518.612 0.00542031 1.95599 0
M  V30 5321 C 518.992 -1.45619 1.52834 0
M  V30 5322 O 518.34 -2.14759 0.780446 0
M  V30 5323 C 518.55 0.180601 3.48532 0
M  V30 5324 C 519.898 0.049979 4.24571 0
M  V30 5325 O 520.922 0.109589 3.56031 0
M  V30 5326 O 519.781 -0.0832226 5.46437 0
M  V30 5327 H 516.875 -0.0481281 0.825598 0
M  V30 5328 H 519.421 0.654227 1.56582 0
M  V30 5329 H 518.193 1.19657 3.72556 0
M  V30 5330 H 517.816 -0.504498 3.94386 0
M  V30 5331 N 518.813 -1.54241 0.323641 0
M  V30 5332 C 520.061 -2.00174 -0.278359 0
M  V30 5333 C 520.382 -1.2134 -1.52648 0
M  V30 5334 O 519.652 -0.315244 -1.93347 0
M  V30 5335 H 518.232 -0.739463 -0.105845 0
M  V30 5336 H 520.894 -1.89864 0.440204 0
M  V30 5337 H 519.99 -3.07486 -0.5347 0
M  V30 5338 N 520.291 -0.0518155 -1.57515 0
M  V30 5339 C 521.221 0.920283 -2.146 0
M  V30 5340 C 522.202 1.32406 -1.06783 0
M  V30 5341 O 523.387 1.39866 -1.34726 0
M  V30 5342 C 520.517 2.1949 -2.6915 0
M  V30 5343 C 519.471 1.93116 -3.81956 0
M  V30 5344 C 518.797 3.27037 -4.23026 0
M  V30 5345 C 520.097 1.25225 -5.07066 0
M  V30 5346 H 521.791 0.444801 -2.96077 0
M  V30 5347 H 519.337 0.212508 -1.42423 0
M  V30 5348 H 521.29 2.87894 -3.07725 0
M  V30 5349 H 520.014 2.69244 -1.84865 0
M  V30 5350 H 518.673 1.27123 -3.43854 0
M  V30 5351 H 518.321 3.74595 -3.3569 0
M  V30 5352 H 518.021 3.10189 -4.99056 0
M  V30 5353 H 519.545 3.96673 -4.64202 0
M  V30 5354 H 520.959 1.83666 -5.43083 0
M  V30 5355 H 519.356 1.18702 -5.88243 0
M  V30 5356 H 520.426 0.228382 -4.84362 0
M  V30 5357 N 521.769 1.56035 0.221574 0
M  V30 5358 C 523.18 1.69229 0.788567 0
M  V30 5359 C 523.531 0.653814 1.84986 0
M  V30 5360 O 522.656 -0.195065 2.15519 0
M  V30 5361 C 523.251 3.06809 1.43713 0
M  V30 5362 C 521.81 3.21858 1.95152 0
M  V30 5363 C 520.957 2.65155 0.811685 0
M  V30 5364 H 523.908 1.587 -0.00307894 0
M  V30 5365 H 523.929 3.02666 2.30594 0
M  V30 5366 H 523.441 3.82369 0.664475 0
M  V30 5367 H 521.542 2.51167 2.7522 0
M  V30 5368 H 521.655 4.29073 2.1315 0
M  V30 5369 H 520.019 2.23635 1.21899 0
M  V30 5370 H 520.802 3.43261 0.0516987 0
M  V30 5371 N 523.247 -0.488276 1.49845 0
M  V30 5372 C 524.157 -1.61451 1.70207 0
M  V30 5373 C 525.173 -1.63877 0.584846 0
M  V30 5374 O 526.349 -1.82063 0.861107 0
M  V30 5375 C 523.414 -2.9776 1.77594 0
M  V30 5376 C 522.475 -3.05861 3.01243 0
M  V30 5377 C 521.708 -4.35668 3.08268 0
M  V30 5378 O 521.931 -5.25197 2.22541 0
M  V30 5379 O 520.865 -4.49005 4.00847 0
M  V30 5380 H 524.691 -1.47199 2.65643 0
M  V30 5381 H 522.276 -0.665939 1.33737 0
M  V30 5382 H 524.158 -3.7875 1.84732 0
M  V30 5383 H 522.833 -3.12248 0.8534 0
M  V30 5384 H 521.74 -2.24012 2.99616 0
M  V30 5385 H 523.073 -2.96304 3.9302 0
M  V30 5386 N 524.725 -1.39134 -0.740242 0
M  V30 5387 C 526.002 -1.26584 -1.49117 0
M  V30 5388 C 526.382 0.126902 -2.10718 0
M  V30 5389 O 525.73 1.13765 -1.98166 0
M  V30 5390 C 525.94 -2.38619 -2.54681 0
M  V30 5391 C 527.288 -2.77685 -3.21211 0
M  V30 5392 O 528.312 -2.38029 -2.64991 0
M  V30 5393 O 527.171 -3.46115 -4.22926 0
M  V30 5394 H 524.265 -0.495769 -0.661923 0
M  V30 5395 H 526.811 -1.50995 -0.774514 0
M  V30 5396 H 525.583 -3.3175 -2.07504 0
M  V30 5397 H 525.206 -2.15845 -3.33911 0
M  V30 5398 N 526.204 0.969867 -1.24223 0
M  V30 5399 C 527.481 1.68774 -0.988664 0
M  V30 5400 C 527.861 2.05342 0.489673 0
M  V30 5401 O 527.209 1.75486 1.46345 0
M  V30 5402 C 527.419 2.92135 -1.90941 0
M  V30 5403 C 528.767 3.64422 -2.17903 0
M  V30 5404 O 529.791 3.02188 -1.88576 0
M  V30 5405 O 528.65 4.76446 -2.67697 0
M  V30 5406 H 525.744 0.737736 -0.37373 0
M  V30 5407 H 528.29 1.02415 -1.35312 0
M  V30 5408 H 527.062 2.61788 -2.90831 0
M  V30 5409 H 526.685 3.66228 -1.54798 0
M  V30 5410 N 527.682 1.05563 1.17022 0
M  V30 5411 C 529.093 0.793475 1.69 0
M  V30 5412 C 529.444 -0.683882 1.83895 0
M  V30 5413 O 528.569 -1.53116 1.5292 0
M  V30 5414 C 529.164 1.43376 3.06967 0
M  V30 5415 C 527.723 1.21956 3.56095 0
M  V30 5416 C 526.87 1.51494 2.3226 0
M  V30 5417 H 529.821 1.22008 1.01487 0
M  V30 5418 H 529.842 0.845068 3.70997 0
M  V30 5419 H 529.354 2.50899 2.96093 0
M  V30 5420 H 527.455 0.163749 3.7224 0
M  V30 5421 H 527.568 1.92713 4.38633 0
M  V30 5422 H 525.932 0.935175 2.3691 0
M  V30 5423 H 526.715 2.60159 2.23992 0
M  V30 5424 N 529.16 -1.33526 0.837174 0
M  V30 5425 C 530.406 -1.9813 0.432704 0
M  V30 5426 C 530.739 -1.66168 -1.00508 0
M  V30 5427 O 530.014 -0.94069 -1.70239 0
M  V30 5428 C 530.297 -3.54151 0.651834 0
M  V30 5429 C 530.15 -3.95806 2.13676 0
M  V30 5430 C 531.469 -4.39993 0.0968937 0
M  V30 5431 H 528.588 -0.719713 0.15869 0
M  V30 5432 H 531.23 -1.58193 1.05237 0
M  V30 5433 H 529.38 -3.88301 0.124369 0
M  V30 5434 H 531.052 -3.71921 2.72896 0
M  V30 5435 H 529.295 -3.45599 2.62191 0
M  V30 5436 H 529.966 -5.0447 2.24084 0
M  V30 5437 H 532.442 -4.12479 0.547733 0
M  V30 5438 H 531.318 -5.48186 0.279917 0
M  V30 5439 H 531.579 -4.3066 -0.9992 0
M  V30 5440 N 530.638 -0.59345 -1.46 0
M  V30 5441 C 531.568 0.121192 -2.33185 0
M  V30 5442 C 532.549 0.872977 -1.4599 0
M  V30 5443 O 533.734 0.846321 -1.74789 0
M  V30 5444 C 530.864 1.12844 -3.28456 0
M  V30 5445 C 529.818 0.4908 -4.25177 0
M  V30 5446 C 529.144 1.60529 -5.10034 0
M  V30 5447 C 530.444 -0.578949 -5.19081 0
M  V30 5448 H 532.138 -0.606767 -2.93187 0
M  V30 5449 H 529.684 -0.293242 -1.40983 0
M  V30 5450 H 531.637 1.63684 -3.88311 0
M  V30 5451 H 530.361 1.88681 -2.66584 0
M  V30 5452 H 529.02 0.00339328 -3.666 0
M  V30 5453 H 528.668 2.35359 -4.44539 0
M  V30 5454 H 528.368 1.18422 -5.75543 0
M  V30 5455 H 529.892 2.11623 -5.72755 0
M  V30 5456 H 531.306 -0.155199 -5.7309 0
M  V30 5457 H 529.703 -0.920947 -5.92991 0
M  V30 5458 H 530.773 -1.46109 -4.62364 0
M  V30 5459 N 532.116 1.54067 -0.331816 0
M  V30 5460 C 533.063 2.24623 0.530372 0
M  V30 5461 C 534.033 1.24009 1.10503 0
M  V30 5462 O 535.218 1.52712 1.14384 0
M  V30 5463 C 532.358 3.01374 1.68129 0
M  V30 5464 C 531.471 4.16821 1.13507 0
M  V30 5465 C 530.606 4.81085 2.25234 0
M  V30 5466 C 529.645 5.88621 1.67903 0
M  V30 5467 N 528.782 6.46713 2.73326 0
M  V30 5468 H 533.622 2.97898 -0.0778607 0
M  V30 5469 H 531.159 1.47014 -0.0501965 0
M  V30 5470 H 533.117 3.44125 2.35868 0
M  V30 5471 H 531.747 2.30419 2.26069 0
M  V30 5472 H 530.799 3.78796 0.348979 0
M  V30 5473 H 532.111 4.94203 0.675633 0
M  V30 5474 H 531.265 5.26846 3.00862 0
M  V30 5475 H 530.004 4.03102 2.74518 0
M  V30 5476 H 529.009 5.42254 0.907773 0
M  V30 5477 H 530.234 6.68506 1.19487 0
M  V30 5478 H 528.18 5.71599 3.21886 0
M  V30 5479 H 528.097 7.19532 2.3197 0
M  V30 5480 H 529.365 6.97129 3.48758 0
M  V30 5481 N 533.594 0.0601682 1.57485 0
M  V30 5482 C 534.822 -0.620937 1.97363 0
M  V30 5483 C 535.237 -1.63846 0.938082 0
M  V30 5484 O 534.594 -1.82339 -0.0766578 0
M  V30 5485 C 534.645 -1.29987 3.37321 0
M  V30 5486 O 534.366 -0.323081 4.36907 0
M  V30 5487 C 535.867 -2.06989 3.92008 0
M  V30 5488 H 533.087 -0.169135 0.649334 0
M  V30 5489 H 535.631 0.129132 2.04092 0
M  V30 5490 H 533.786 -2.0011 3.31715 0
M  V30 5491 H 534.2 -0.808754 5.18227 0
M  V30 5492 H 535.674 -2.49901 4.92192 0
M  V30 5493 H 536.151 -2.92173 3.2792 0
M  V30 5494 H 536.757 -1.41757 4.0098 0
M  V30 5495 N 535.072 -1.5615 -0.213296 0
M  V30 5496 C 536.302 -1.83372 -0.951757 0
M  V30 5497 C 536.71 -0.638158 -1.78113 0
M  V30 5498 O 536.053 0.402609 -1.79234 0
M  V30 5499 C 536.115 -3.04444 -1.91192 0
M  V30 5500 C 535.779 -4.39107 -1.26627 0
M  V30 5501 C 536.776 -5.15794 -0.652087 0
M  V30 5502 C 534.461 -4.85834 -1.27556 0
M  V30 5503 C 536.455 -6.37376 -0.055814 0
M  V30 5504 C 534.142 -6.07356 -0.675451 0
M  V30 5505 C 535.14 -6.82967 -0.0666367 0
M  V30 5506 O 534.828 -8.0219 0.524119 0
M  V30 5507 H 534.56 -0.613398 -0.284111 0
M  V30 5508 H 537.114 -2.04096 -0.231112 0
M  V30 5509 H 535.344 -2.79559 -2.67178 0
M  V30 5510 H 537.033 -3.18466 -2.51662 0
M  V30 5511 H 537.799 -4.80796 -0.637172 0
M  V30 5512 H 533.678 -4.26949 -1.73883 0
M  V30 5513 H 537.222 -6.96334 0.420004 0
M  V30 5514 H 533.119 -6.41825 -0.687806 0
M  V30 5515 H 533.887 -8.17426 0.419243 0
M  V30 5516 N 536.55 0.480323 -1.50102 0
M  V30 5517 C 537.827 1.24159 -1.51142 0
M  V30 5518 C 538.207 2.09605 -0.250818 0
M  V30 5519 O 537.555 2.15274 0.766118 0
M  V30 5520 C 537.765 2.08057 -2.80202 0
M  V30 5521 C 539.113 2.66556 -3.30504 0
M  V30 5522 O 540.137 2.18308 -2.81461 0
M  V30 5523 O 538.996 3.54442 -4.15973 0
M  V30 5524 H 536.09 0.562928 -0.605839 0
M  V30 5525 H 538.636 0.492899 -1.62384 0
M  V30 5526 H 537.408 1.45032 -3.6343 0
M  V30 5527 H 537.031 2.90079 -2.71919 0
M  V30 5528 N 538.028 1.39524 0.732853 0
M  V30 5529 C 539.253 1.40329 1.52717 0
M  V30 5530 C 539.678 0.000286574 1.881 0
M  V30 5531 O 539.036 -0.987262 1.52062 0
M  V30 5532 C 539.084 2.28464 2.78992 0
M  V30 5533 O 538.188 1.716 3.75003 0
M  V30 5534 H 537.529 0.47778 0.461109 0
M  V30 5535 H 540.059 1.83546 0.903996 0
M  V30 5536 H 540.069 2.43051 3.27705 0
M  V30 5537 H 538.744 3.30425 2.52572 0
M  V30 5538 H 537.321 1.66267 3.33781 0
M  V30 5539 N 539.506 -0.963266 1.24736 0
M  V30 5540 C 540.736 -1.73913 1.11524 0
M  V30 5541 C 541.144 -1.86218 -0.334612 0
M  V30 5542 O 540.487 -1.3531 -1.24245 0
M  V30 5543 C 540.549 -3.17501 1.68622 0
M  V30 5544 C 540.213 -3.28655 3.17546 0
M  V30 5545 C 541.21 -3.13637 4.14642 0
M  V30 5546 C 538.895 -3.52753 3.5759 0
M  V30 5547 C 540.889 -3.2255 5.49764 0
M  V30 5548 C 538.576 -3.61303 4.92852 0
M  V30 5549 C 539.574 -3.46214 5.88748 0
M  V30 5550 O 539.262 -3.5443 7.2155 0
M  V30 5551 H 538.994 -0.552057 0.390139 0
M  V30 5552 H 541.548 -1.2177 1.65412 0
M  V30 5553 H 539.778 -3.70969 1.09172 0
M  V30 5554 H 541.467 -3.76914 1.50635 0
M  V30 5555 H 542.233 -2.94899 3.85045 0
M  V30 5556 H 538.112 -3.63561 2.83451 0
M  V30 5557 H 541.656 -3.1069 6.24594 0
M  V30 5558 H 537.553 -3.79556 5.22118 0
M  V30 5559 H 538.321 -3.71116 7.29531 0
M  V30 5560 N 540.985 -1.06182 -1.16461 0
M  V30 5561 C 542.233 -0.776326 -1.86595 0
M  V30 5562 C 542.554 0.69921 -1.82033 0
M  V30 5563 O 541.824 1.50579 -1.2531 0
M  V30 5564 H 540.404 -0.284184 -0.690832 0
M  V30 5565 H 543.066 -1.34308 -1.41235 0
M  V30 5566 H 542.162 -1.10022 -2.92064 0
M  V30 5567 N 542.463 1.3308 -0.844243 0
M  V30 5568 C 543.879 1.50447 -0.532729 0
M  V30 5569 C 544.079 1.78292 0.938837 0
M  V30 5570 O 543.135 1.84635 1.72239 0
M  V30 5571 C 544.448 2.65555 -1.41072 0
M  V30 5572 C 545.996 2.7944 -1.41005 0
M  V30 5573 C 546.471 3.97616 -2.27301 0
M  V30 5574 N 547.962 4.0486 -2.2504 0
M  V30 5575 C 548.697 4.95508 -2.88547 0
M  V30 5576 N 548.193 5.91236 -3.61126 0
M  V30 5577 N 549.986 4.88548 -2.77989 0
M  V30 5578 H 542.137 1.13269 -1.79677 0
M  V30 5579 H 544.4 0.55734 -0.766861 0
M  V30 5580 H 544.106 2.51675 -2.45668 0
M  V30 5581 H 543.98 3.61089 -1.09061 0
M  V30 5582 H 546.367 2.92749 -0.371784 0
M  V30 5583 H 546.448 1.8465 -1.77026 0
M  V30 5584 H 546.092 3.85066 -3.3119 0
M  V30 5585 H 546.022 4.91661 -1.88619 0
M  V30 5586 H 548.513 3.36353 -1.72264 0
M  V30 5587 H 548.826 6.57079 -4.06776 0
M  V30 5588 H 547.171 5.91295 -3.65234 0
M  V30 5589 H 550.362 4.12729 -2.20846 0
M  V30 5590 H 550.535 5.58994 -3.27765 0
M  V30 5591 N 543.941 0.601185 1.45683 0
M  V30 5592 C 544.871 -0.108824 2.33246 0
M  V30 5593 C 545.852 -0.865223 1.46451 0
M  V30 5594 O 547.037 -0.83704 1.75235 0
M  V30 5595 C 544.167 -1.11101 3.2905 0
M  V30 5596 C 543.121 -0.468244 4.25431 0
M  V30 5597 C 542.447 -1.57822 5.10878 0
M  V30 5598 C 543.747 0.606469 5.18767 0
M  V30 5599 H 545.441 0.622306 2.92861 0
M  V30 5600 H 542.987 0.300714 1.40825 0
M  V30 5601 H 544.94 -1.61622 3.89174 0
M  V30 5602 H 543.664 -1.87265 2.67581 0
M  V30 5603 H 542.323 0.0160484 3.66596 0
M  V30 5604 H 541.971 -2.32998 4.45781 0
M  V30 5605 H 541.671 -1.15369 5.76163 0
M  V30 5606 H 543.195 -2.08583 5.73869 0
M  V30 5607 H 544.609 0.185589 5.73 0
M  V30 5608 H 543.006 0.952381 5.92494 0
M  V30 5609 H 544.076 1.48559 4.61582 0
M  V30 5610 N 545.419 -1.53889 0.339982 0
M  V30 5611 C 546.349 -2.27843 -0.510856 0
M  V30 5612 C 547.33 -1.29267 -1.10563 0
M  V30 5613 O 548.515 -1.58104 -1.12768 0
M  V30 5614 C 545.645 -3.04857 -1.66372 0
M  V30 5615 C 544.599 -4.10907 -1.19746 0
M  V30 5616 C 543.925 -4.75855 -2.43857 0
M  V30 5617 C 545.225 -5.21435 -0.300501 0
M  V30 5618 H 546.919 -2.99212 0.106067 0
M  V30 5619 H 544.465 -1.43904 0.0524533 0
M  V30 5620 H 546.418 -3.5533 -2.26537 0
M  V30 5621 H 545.142 -2.31133 -2.30749 0
M  V30 5622 H 543.801 -3.61342 -0.618654 0
M  V30 5623 H 543.449 -3.9873 -3.06633 0
M  V30 5624 H 543.149 -5.47502 -2.13343 0
M  V30 5625 H 544.673 -5.2911 -3.04754 0
M  V30 5626 H 546.087 -5.67565 -0.80889 0
M  V30 5627 H 544.484 -6.00036 -0.0874076 0
M  V30 5628 H 545.554 -4.80328 0.664321 0
M  V30 5629 N 546.897 -0.0685191 -1.57451 0
M  V30 5630 C 548.313 0.288101 -1.56978 0
M  V30 5631 C 548.513 1.70262 -1.07765 0
M  V30 5632 O 547.569 2.4135 -0.742054 0
M  V30 5633 C 548.882 0.100745 -3.00531 0
M  V30 5634 C 550.43 0.170531 -3.12535 0
M  V30 5635 C 550.905 0.0114944 -4.57999 0
M  V30 5636 N 552.396 0.0672065 -4.63151 0
M  V30 5637 C 553.131 -0.0314813 -5.73391 0
M  V30 5638 N 552.627 -0.183503 -6.92557 0
M  V30 5639 N 554.42 0.0253489 -5.62094 0
M  V30 5640 H 546.571 -0.993026 -1.87757 0
M  V30 5641 H 548.834 -0.386981 -0.865419 0
M  V30 5642 H 548.54 -0.875197 -3.40636 0
M  V30 5643 H 548.414 0.854457 -3.67395 0
M  V30 5644 H 550.801 1.13696 -2.72318 0
M  V30 5645 H 550.882 -0.614229 -2.48316 0
M  V30 5646 H 550.526 -0.951684 -4.98904 0
M  V30 5647 H 550.456 0.815617 -5.20245 0
M  V30 5648 H 552.947 0.183246 -3.77455 0
M  V30 5649 H 553.26 -0.251041 -7.72392 0
M  V30 5650 H 551.605 -0.218822 -6.94655 0
M  V30 5651 H 554.796 0.142794 -4.67882 0
M  V30 5652 H 554.969 -0.0550166 -6.47977 0
M  V30 5653 N 548.375 1.56261 0.205012 0
M  V30 5654 C 549.791 1.49623 0.555433 0
M  V30 5655 C 549.991 0.766719 1.86343 0
M  V30 5656 O 549.047 0.313158 2.50551 0
M  V30 5657 C 550.36 2.94253 0.619347 0
M  V30 5658 C 551.908 3.04868 0.708855 0
M  V30 5659 C 552.383 4.50888 0.803969 0
M  V30 5660 N 553.874 4.54999 0.867758 0
M  V30 5661 C 554.609 5.65284 0.96135 0
M  V30 5662 N 554.105 6.85282 1.01786 0
M  V30 5663 N 555.898 5.53174 0.997771 0
M  V30 5664 H 548.049 2.0211 -0.653094 0
M  V30 5665 H 550.312 0.919333 -0.231366 0
M  V30 5666 H 550.018 3.50643 -0.272458 0
M  V30 5667 H 549.892 3.47063 1.47741 0
M  V30 5668 H 552.279 2.48532 1.5911 0
M  V30 5669 H 552.36 2.55199 -0.175205 0
M  V30 5670 H 552.004 5.07846 -0.0738798 0
M  V30 5671 H 551.934 4.98279 1.70369 0
M  V30 5672 H 554.425 3.68588 0.833735 0
M  V30 5673 H 554.738 7.65081 1.08951 0
M  V30 5674 H 553.083 6.8796 0.986706 0
M  V30 5675 H 556.274 4.5835 0.950392 0
M  V30 5676 H 556.447 6.39151 1.06725 0
M  V30 5677 N 549.853 -0.472356 1.50355 0
M  V30 5678 C 550.816 -1.5529 1.68576 0
M  V30 5679 C 551.816 -1.50863 0.556511 0
M  V30 5680 O 553.006 -1.53505 0.823516 0
M  V30 5681 C 550.138 -2.94921 1.70981 0
M  V30 5682 H 551.331 -1.40451 2.64978 0
M  V30 5683 H 548.884 -0.698645 1.39816 0
M  V30 5684 H 549.619 -3.15204 0.762675 0
M  V30 5685 H 549.404 -2.99541 2.53017 0
M  V30 5686 H 550.894 -3.73372 1.87037 0
M  V30 5687 N 551.331 -1.39911 -0.725443 0
M  V30 5688 C 552.58 -1.36963 -1.48068 0
M  V30 5689 C 552.893 0.0284478 -1.95579 0
M  V30 5690 O 554.099 0.180535 -2.70899 0
M  V30 5691 C 552.555 -2.40664 -2.67598 0
M  V30 5692 C 552.163 -3.86234 -2.26997 0
M  V30 5693 C 553.907 -2.46807 -3.45379 0
M  V30 5694 C 551.814 -4.81554 -3.43307 0
M  V30 5695 H 550.744 -0.509223 -0.556065 0
M  V30 5696 H 553.395 -1.65602 -0.790454 0
M  V30 5697 H 551.777 -2.05109 -3.38742 0
M  V30 5698 H 552.951 -4.3088 -1.63337 0
M  V30 5699 H 551.266 -3.83475 -1.62284 0
M  V30 5700 H 553.863 -3.15213 -4.31909 0
M  V30 5701 H 554.206 -1.49552 -3.8851 0
M  V30 5702 H 554.739 -2.81303 -2.81271 0
M  V30 5703 H 551.478 -5.80106 -3.05217 0
M  V30 5704 H 550.998 -4.4158 -4.05915 0
M  V30 5705 H 552.677 -5.0091 -4.0951 0
M  V30 5706 N 552.809 0.956637 -1.25245 0
M  V30 5707 C 554.086 1.67716 -1.00651 0
M  V30 5708 C 554.466 2.0585 0.467866 0
M  V30 5709 O 553.814 1.77029 1.44475 0
M  V30 5710 C 554.024 2.90093 -1.94028 0
M  V30 5711 C 555.372 3.6209 -2.21756 0
M  V30 5712 O 556.396 3.00171 -1.9177 0
M  V30 5713 O 555.255 4.7358 -2.72735 0
M  V30 5714 H 552.349 0.733731 -0.381533 0
M  V30 5715 H 554.895 1.00974 -1.3639 0
M  V30 5716 H 553.667 2.58689 -2.93591 0
M  V30 5717 H 553.29 3.64566 -1.58674 0
M  V30 5718 N 554.287 1.06798 1.15896 0
M  V30 5719 C 555.698 0.811355 1.68149 0
M  V30 5720 C 556.049 -0.664339 1.8461 0
M  V30 5721 O 555.174 -1.51485 1.54535 0
M  V30 5722 C 555.769 1.46624 3.05429 0
M  V30 5723 C 554.328 1.25726 3.54781 0
M  V30 5724 C 553.475 1.53949 2.3064 0
M  V30 5725 H 556.426 1.23078 1.00187 0
M  V30 5726 H 556.447 0.88437 3.7008 0
M  V30 5727 H 555.959 2.54025 2.93416 0
M  V30 5728 H 554.06 0.20322 3.72045 0
M  V30 5729 H 554.173 1.97354 4.36564 0
M  V30 5730 H 552.537 0.96025 2.35905 0
M  V30 5731 H 553.32 2.6252 2.2122 0
M  V30 5732 N 555.766 -1.3263 0.851289 0
M  V30 5733 C 557.043 -1.91982 0.374448 0
M  V30 5734 C 557.423 -1.77568 -1.14161 0
M  V30 5735 O 556.771 -1.1717 -1.96172 0
M  V30 5736 C 556.981 -3.38862 0.835088 0
M  V30 5737 C 558.329 -4.15999 0.850309 0
M  V30 5738 O 559.353 -3.47566 0.779505 0
M  V30 5739 O 558.212 -5.38189 0.949481 0
M  V30 5740 H 555.306 -0.819846 0.10854 0
M  V30 5741 H 557.852 -1.41422 0.937966 0
M  V30 5742 H 556.624 -3.43281 1.87814 0
M  V30 5743 H 556.247 -3.96821 0.248833 0
M  V30 5744 N 557.244 -0.608902 -1.45362 0
M  V30 5745 C 558.655 -0.189511 -1.85736 0
M  V30 5746 C 559.006 1.2539 -1.50903 0
M  V30 5747 O 558.131 1.95094 -0.936347 0
M  V30 5748 C 558.726 -0.33716 -3.37118 0
M  V30 5749 C 557.285 0.0275487 -3.7639 0
M  V30 5750 C 556.432 -0.660983 -2.69307 0
M  V30 5751 H 559.383 -0.815499 -1.36144 0
M  V30 5752 H 559.404 0.430257 -3.7806 0
M  V30 5753 H 558.916 -1.38779 -3.62439 0
M  V30 5754 H 557.017 1.0773 -3.56686 0
M  V30 5755 H 557.13 -0.367018 -4.77692 0
M  V30 5756 H 555.494 -0.0984958 -2.54509 0
M  V30 5757 H 556.277 -1.71377 -2.97464 0
M  V30 5758 N 558.722 1.53707 -0.348139 0
M  V30 5759 C 560.138 1.596 0.00361134 0
M  V30 5760 C 560.338 1.36394 1.4832 0
M  V30 5761 O 559.394 1.16046 2.24253 0
M  V30 5762 C 560.707 2.97512 -0.436682 0
M  V30 5763 C 562.255 3.10568 -0.389416 0
M  V30 5764 C 562.73 4.50866 -0.805249 0
M  V30 5765 N 564.221 4.56929 -0.759616 0
M  V30 5766 C 564.956 5.63643 -1.05327 0
M  V30 5767 N 564.452 6.78189 -1.41531 0
M  V30 5768 N 566.245 5.5354 -0.977207 0
M  V30 5769 H 558.396 1.67044 -1.31187 0
M  V30 5770 H 560.659 0.782559 -0.535075 0
M  V30 5771 H 560.365 3.19575 -1.46849 0
M  V30 5772 H 560.239 3.76742 0.185744 0
M  V30 5773 H 562.626 2.88226 0.633228 0
M  V30 5774 H 562.707 2.33387 -1.04711 0
M  V30 5775 H 562.351 4.73943 -1.82593 0
M  V30 5776 H 562.281 5.26452 -0.124989 0
M  V30 5777 H 564.772 3.74675 -0.49265 0
M  V30 5778 H 565.085 7.55541 -1.62411 0
M  V30 5779 H 563.43 6.79624 -1.45381 0
M  V30 5780 H 566.621 4.62932 -0.693675 0
M  V30 5781 H 566.794 6.36614 -1.2094 0
M  V30 5782 N 560.2 0.0768682 1.57412 0
M  V30 5783 C 561.132 -0.918248 2.10002 0
M  V30 5784 C 562.145 -1.25808 1.03325 0
M  V30 5785 O 563.334 -1.21438 1.30824 0
M  V30 5786 C 560.434 -2.23263 2.54964 0
M  V30 5787 C 559.607 -2.07088 3.8527 0
M  V30 5788 C 558.666 -3.21876 4.16272 0
M  V30 5789 O 557.692 -2.96643 4.8579 0
M  V30 5790 N 558.894 -4.4712 3.70221 0
M  V30 5791 H 561.659 -0.469209 2.96004 0
M  V30 5792 H 559.22 -0.108725 1.61535 0
M  V30 5793 H 561.212 -2.9897 2.72762 0
M  V30 5794 H 559.782 -2.59649 1.74072 0
M  V30 5795 H 559.002 -1.15818 3.76802 0
M  V30 5796 H 560.29 -1.93537 4.70554 0
M  V30 5797 H 559.688 -4.70506 3.1407 0
M  V30 5798 H 558.245 -5.19837 3.93209 0
M  V30 5799 N 561.678 -1.56367 -0.196722 0
M  V30 5800 C 563.094 -1.49916 -0.54749 0
M  V30 5801 C 563.294 -0.77659 -1.85934 0
M  V30 5802 O 562.35 -0.32644 -2.50381 0
M  V30 5803 C 563.663 -2.94577 -0.603734 0
M  V30 5804 C 565.211 -3.05239 -0.692677 0
M  V30 5805 C 565.686 -4.51308 -0.780046 0
M  V30 5806 N 567.177 -4.55453 -0.843616 0
M  V30 5807 C 567.912 -5.65786 -0.931358 0
M  V30 5808 N 567.408 -6.85812 -0.981503 0
M  V30 5809 N 569.201 -5.53695 -0.968421 0
M  V30 5810 H 561.352 -2.01761 0.663803 0
M  V30 5811 H 563.615 -0.918094 0.236238 0
M  V30 5812 H 563.321 -3.50494 0.29105 0
M  V30 5813 H 563.195 -3.47841 -1.45898 0
M  V30 5814 H 565.582 -2.49372 -1.57789 0
M  V30 5815 H 565.663 -2.55103 0.188736 0
M  V30 5816 H 565.307 -5.078 0.100811 0
M  V30 5817 H 565.237 -4.99176 -1.67724 0
M  V30 5818 H 567.728 -3.69025 -0.814176 0
M  V30 5819 H 568.041 -7.65648 -1.04892 0
M  V30 5820 H 566.386 -6.88474 -0.950208 0
M  V30 5821 H 569.577 -4.58848 -0.926072 0
M  V30 5822 H 569.75 -6.39708 -1.03334 0
M  V30 5823 N 563.156 0.464375 -1.50603 0
M  V30 5824 C 564.403 1.21596 -1.61928 0
M  V30 5825 C 564.731 1.91804 -0.322737 0
M  V30 5826 O 563.986 1.83065 0.691776 0
M  V30 5827 C 564.285 2.278 -2.75394 0
M  V30 5828 C 563.951 1.74797 -4.1564 0
M  V30 5829 C 562.613 1.60063 -4.53799 0
M  V30 5830 C 564.965 1.35548 -5.03266 0
M  V30 5831 C 562.293 1.04514 -5.77316 0
M  V30 5832 C 564.645 0.814381 -6.27336 0
M  V30 5833 C 563.309 0.653726 -6.64291 0
M  V30 5834 H 562.579 0.444951 -0.592536 0
M  V30 5835 H 565.226 0.510964 -1.84557 0
M  V30 5836 H 563.531 3.04233 -2.46879 0
M  V30 5837 H 565.228 2.85723 -2.81359 0
M  V30 5838 H 561.818 1.87234 -3.8554 0
M  V30 5839 H 566.002 1.45763 -4.74412 0
M  V30 5840 H 561.258 0.908186 -6.04617 0
M  V30 5841 H 565.432 0.501626 -6.94591 0
M  V30 5842 H 563.059 0.22114 -7.59878 0
M  V30 5843 N 564.634 1.40294 0.718013 0
M  V30 5844 C 565.862 1.4175 1.50714 0
M  V30 5845 C 566.277 0.0165366 1.88793 0
M  V30 5846 O 565.634 -0.958942 1.55276 0
M  V30 5847 C 565.685 2.30598 2.784 0
M  V30 5848 O 565.406 3.6524 2.41932 0
M  V30 5849 C 566.907 2.4062 3.72313 0
M  V30 5850 H 564.127 0.483565 0.465194 0
M  V30 5851 H 566.671 1.84316 0.885889 0
M  V30 5852 H 564.826 1.91401 3.36815 0
M  V30 5853 H 565.24 4.12402 3.24076 0
M  V30 5854 H 566.714 3.07001 4.58753 0
M  V30 5855 H 567.191 1.4305 4.15251 0
M  V30 5856 H 567.797 2.80359 3.19811 0
M  V30 5857 N 566.112 -0.949982 1.2575 0
M  V30 5858 C 567.34 -1.72972 1.13527 0
M  V30 5859 C 567.755 -1.8623 -0.310453 0
M  V30 5860 O 567.112 -1.36336 -1.2132 0
M  V30 5861 C 567.163 -3.14108 1.78936 0
M  V30 5862 O 566.884 -3.01493 3.17858 0
M  V30 5863 C 568.385 -4.08338 1.72554 0
M  V30 5864 H 565.605 -0.541864 0.395758 0
M  V30 5865 H 568.149 -1.19151 1.66202 0
M  V30 5866 H 566.304 -3.64858 1.30221 0
M  V30 5867 H 566.718 -3.90559 3.50092 0
M  V30 5868 H 568.192 -5.04963 2.22973 0
M  V30 5869 H 568.669 -4.33742 0.690251 0
M  V30 5870 H 569.275 -3.63506 2.2078 0
M  V30 5871 N 567.59 -1.07411 -1.15328 0
M  V30 5872 C 568.553 -0.698914 -2.18284 0
M  V30 5873 C 569.553 0.261149 -1.58665 0
M  V30 5874 O 570.743 0.0420277 -1.74149 0
M  V30 5875 C 567.875 -0.0302427 -3.40887 0
M  V30 5876 H 569.068 -1.61045 -2.52991 0
M  V30 5877 H 566.621 -0.870724 -1.298 0
M  V30 5878 H 567.356 0.893505 -3.11748 0
M  V30 5879 H 567.141 -0.720759 -3.85419 0
M  V30 5880 H 568.631 0.21759 -4.17033 0
M  V30 5881 N 569.068 1.32177 -0.85831 0
M  V30 5882 C 569.978 2.32561 -0.308606 0
M  V30 5883 C 570.994 1.64209 0.575462 0
M  V30 5884 O 572.17 1.95719 0.474961 0
M  V30 5885 C 569.235 3.43207 0.490909 0
M  V30 5886 C 568.296 4.27243 -0.419733 0
M  V30 5887 C 567.529 5.32605 0.341719 0
M  V30 5888 O 567.752 5.48332 1.57125 0
M  V30 5889 O 566.686 6.0118 -0.294379 0
M  V30 5890 H 570.512 2.81477 -1.14037 0
M  V30 5891 H 568.097 1.35866 -0.621349 0
M  V30 5892 H 569.979 4.10677 0.944574 0
M  V30 5893 H 568.654 2.96474 1.29941 0
M  V30 5894 H 567.561 3.62569 -0.921652 0
M  V30 5895 H 568.894 4.7751 -1.19352 0
M  V30 5896 N 570.547 0.616602 1.45037 0
M  V30 5897 C 571.457 -0.0985401 2.34393 0
M  V30 5898 C 572.473 -0.850971 1.51771 0
M  V30 5899 O 573.649 -0.806521 1.84546 0
M  V30 5900 C 570.714 -1.07748 3.29532 0
M  V30 5901 C 569.775 -0.326022 4.2806 0
M  V30 5902 C 569.008 -1.25833 5.18654 0
M  V30 5903 O 569.231 -2.49652 5.12864 0
M  V30 5904 O 568.165 -0.750512 5.97203 0
M  V30 5905 H 571.991 0.636016 2.96966 0
M  V30 5906 H 569.576 0.376832 1.44569 0
M  V30 5907 H 571.458 -1.64107 3.88133 0
M  V30 5908 H 570.133 -1.79291 2.69512 0
M  V30 5909 H 569.04 0.280253 3.73049 0
M  V30 5910 H 570.373 0.349091 4.9096 0
M  V30 5911 N 572.025 -1.5352 0.356285 0
M  V30 5912 C 572.958 -2.2177 -0.537913 0
M  V30 5913 C 573.936 -1.20626 -1.09033 0
M  V30 5914 O 575.12 -1.49494 -1.1482 0
M  V30 5915 C 572.247 -2.90513 -1.74126 0
M  V30 5916 C 571.293 -4.05652 -1.31715 0
M  V30 5917 S 572.126 -5.34505 -0.326236 0
M  V30 5918 C 573.282 -6.06757 -1.53612 0
M  V30 5919 H 573.515 -2.97271 0.0417411 0
M  V30 5920 H 571.048 -1.53761 0.140372 0
M  V30 5921 H 573.006 -3.30735 -2.43155 0
M  V30 5922 H 571.667 -2.14754 -2.29215 0
M  V30 5923 H 570.86 -4.52733 -2.21471 0
M  V30 5924 H 570.462 -3.67272 -0.706183 0
M  V30 5925 H 572.754 -6.30924 -2.46863 0
M  V30 5926 H 573.697 -6.99395 -1.10687 0
M  V30 5927 H 574.105 -5.3708 -1.73796 0
M  V30 5928 N 573.503 -0.0852151 -1.57369 0
M  V30 5929 C 574.728 0.592872 -1.98746 0
M  V30 5930 C 575.153 1.61538 -0.963689 0
M  V30 5931 O 574.511 1.81168 0.069071 0
M  V30 5932 C 574.559 1.22599 -3.39119 0
M  V30 5933 O 573.663 2.34185 -3.39457 0
M  V30 5934 H 573.004 0.151314 -0.646529 0
M  V30 5935 H 575.534 -0.163703 -2.03944 0
M  V30 5936 H 575.544 1.56965 -3.76598 0
M  V30 5937 H 574.219 0.476831 -4.13158 0
M  V30 5938 H 572.796 2.01512 -3.13763 0
M  V30 5939 N 574.981 1.5647 0.188427 0
M  V30 5940 C 575.944 1.9421 1.21718 0
M  V30 5941 C 576.944 0.823901 1.38089 0
M  V30 5942 O 578.134 1.09122 1.35787 0
M  V30 5943 C 575.266 2.22197 2.58537 0
M  V30 5944 H 576.459 2.86252 0.894418 0
M  V30 5945 H 574.012 1.50263 0.430211 0
M  V30 5946 H 574.747 1.32814 2.95856 0
M  V30 5947 H 574.532 3.03688 2.48025 0
M  V30 5948 H 576.022 2.52376 3.3271 0
M  V30 5949 N 576.459 -0.456382 1.50847 0
M  V30 5950 C 577.391 -1.57033 1.66953 0
M  V30 5951 C 578.404 -1.53207 0.550593 0
M  V30 5952 O 579.593 -1.58328 0.824285 0
M  V30 5953 C 576.693 -2.95937 1.65149 0
M  V30 5954 C 575.866 -3.24475 2.93317 0
M  V30 5955 C 574.925 -4.43007 2.83957 0
M  V30 5956 O 573.951 -4.42592 3.57912 0
M  V30 5957 N 575.153 -5.45503 1.9851 0
M  V30 5958 H 577.918 -1.43629 2.63042 0
M  V30 5959 H 575.479 -0.645037 1.48495 0
M  V30 5960 H 577.471 -3.73224 1.56481 0
M  V30 5961 H 576.041 -3.03036 0.767343 0
M  V30 5962 H 575.261 -2.35664 3.16 0
M  V30 5963 H 576.549 -3.4036 3.78196 0
M  V30 5964 H 575.947 -5.48668 1.37766 0
M  V30 5965 H 574.504 -6.21716 1.95735 0
M  V30 5966 N 577.937 -1.40673 -0.710563 0
M  V30 5967 C 578.867 -1.44095 -1.83736 0
M  V30 5968 C 579.848 -0.301286 -1.67411 0
M  V30 5969 O 581.033 -0.510618 -1.87367 0
M  V30 5970 C 578.163 -1.30773 -3.21738 0
M  V30 5971 C 577.117 -2.42395 -3.52745 0
M  V30 5972 C 576.443 -2.14147 -4.89944 0
M  V30 5973 C 577.743 -3.84738 -3.53234 0
M  V30 5974 H 579.437 -2.38396 -1.81129 0
M  V30 5975 H 576.983 -1.14746 -0.870017 0
M  V30 5976 H 578.936 -1.31783 -4.00264 0
M  V30 5977 H 577.66 -0.329507 -3.24934 0
M  V30 5978 H 576.319 -2.40643 -2.76562 0
M  V30 5979 H 575.967 -1.14703 -4.89747 0
M  V30 5980 H 575.667 -2.88934 -5.11655 0
M  V30 5981 H 577.191 -2.16848 -5.70797 0
M  V30 5982 H 578.605 -3.88286 -4.2179 0
M  V30 5983 H 577.002 -4.59085 -3.86473 0
M  V30 5984 H 578.072 -4.13962 -2.52514 0
M  V30 5985 N 579.415 0.9433 -1.26252 0
M  V30 5986 C 580.643 1.72367 -1.14443 0
M  V30 5987 C 581.058 1.86392 0.300572 0
M  V30 5988 O 580.415 1.36978 1.20596 0
M  V30 5989 C 580.466 3.13155 -1.806 0
M  V30 5990 O 580.187 2.99803 -3.19452 0
M  V30 5991 C 581.688 4.07417 -1.74717 0
M  V30 5992 H 578.908 0.539758 -0.398626 0
M  V30 5993 H 581.452 1.18268 -1.66832 0
M  V30 5994 H 579.607 3.64162 -1.32154 0
M  V30 5995 H 580.021 3.88697 -3.52158 0
M  V30 5996 H 581.495 5.03773 -2.25647 0
M  V30 5997 H 581.972 4.3337 -0.713244 0
M  V30 5998 H 582.578 3.6233 -2.22704 0
M  V30 5999 N 580.893 1.08022 1.14757 0
M  V30 6000 C 582.141 0.805913 1.85336 0
M  V30 6001 C 582.462 -0.670162 1.83122 0
M  V30 6002 O 581.732 -1.48567 1.2769 0
M  V30 6003 H 580.312 0.295138 0.686223 0
M  V30 6004 H 582.974 1.36538 1.3908 0
M  V30 6005 H 582.07 1.14655 2.90277 0
M  V30 6006 N 582.371 -1.3172 0.865308 0
M  V30 6007 C 583.617 -1.97168 0.474633 0
M  V30 6008 C 583.95 -1.68263 -0.969604 0
M  V30 6009 O 583.225 -0.976588 -1.68205 0
M  V30 6010 C 583.508 -3.52689 0.726808 0
M  V30 6011 C 583.361 -3.91185 2.22024 0
M  V30 6012 C 584.68 -4.39689 0.190201 0
M  V30 6013 H 581.799 -0.716185 0.17392 0
M  V30 6014 H 584.441 -1.55925 1.08569 0
M  V30 6015 H 582.591 -3.8795 0.206705 0
M  V30 6016 H 584.263 -3.66049 2.80724 0
M  V30 6017 H 582.506 -3.3996 2.69462 0
M  V30 6018 H 583.177 -4.99604 2.34735 0
M  V30 6019 H 585.653 -4.11225 0.635103 0
M  V30 6020 H 584.529 -5.47469 0.396132 0
M  V30 6021 H 584.79 -4.32683 -0.907625 0
M  V30 6022 N 583.85 -0.624285 -1.44708 0
M  V30 6023 C 584.779 0.0717025 -2.3339 0
M  V30 6024 C 585.76 0.841814 -1.47809 0
M  V30 6025 O 586.946 0.809056 -1.76544 0
M  V30 6026 C 584.076 1.05852 -3.30776 0
M  V30 6027 C 583.029 0.400503 -4.26122 0
M  V30 6028 C 582.356 1.49674 -5.13324 0
M  V30 6029 C 583.656 -0.688924 -5.17737 0
M  V30 6030 H 585.35 -0.668819 -2.91834 0
M  V30 6031 H 582.896 -0.32308 -1.40329 0
M  V30 6032 H 584.849 1.5541 -3.91696 0
M  V30 6033 H 583.572 1.82984 -2.70526 0
M  V30 6034 H 582.231 -0.0743687 -3.66525 0
M  V30 6035 H 581.88 2.25877 -4.49431 0
M  V30 6036 H 581.58 1.06188 -5.77926 0
M  V30 6037 H 583.104 1.99427 -5.77115 0
M  V30 6038 H 584.518 -0.276724 -5.72632 0
M  V30 6039 H 582.915 -1.04652 -5.90904 0
M  V30 6040 H 583.985 -1.55884 -4.5916 0
M  V30 6041 N 585.328 1.53329 -0.364422 0
M  V30 6042 C 586.744 1.59594 -0.0133165 0
M  V30 6043 C 586.944 1.37959 1.46865 0
M  V30 6044 O 586 1.18418 2.2301 0
M  V30 6045 C 587.313 2.97032 -0.468213 0
M  V30 6046 C 588.861 3.10138 -0.422334 0
M  V30 6047 C 589.336 4.49986 -0.853024 0
M  V30 6048 N 590.827 4.56098 -0.808037 0
M  V30 6049 C 591.562 5.62495 -1.11299 0
M  V30 6050 N 591.058 6.7665 -1.48717 0
M  V30 6051 N 592.851 5.52473 -1.03586 0
M  V30 6052 H 585.002 1.65644 -1.32951 0
M  V30 6053 H 587.265 0.77684 -0.543345 0
M  V30 6054 H 586.971 3.18 -1.5023 0
M  V30 6055 H 586.845 3.76918 0.145775 0
M  V30 6056 H 589.232 2.88881 0.602622 0
M  V30 6057 H 589.313 2.32263 -1.0718 0
M  V30 6058 H 588.957 4.7198 -1.87609 0
M  V30 6059 H 588.887 5.26289 -0.180819 0
M  V30 6060 H 591.378 3.74131 -0.532361 0
M  V30 6061 H 591.691 7.53776 -1.70415 0
M  V30 6062 H 590.036 6.78044 -1.52581 0
M  V30 6063 H 593.227 4.6217 -0.742736 0
M  V30 6064 H 593.4 6.35295 -1.27686 0
M  V30 6065 N 586.806 0.0935595 1.57322 0
M  V30 6066 C 587.716 -0.880192 2.17462 0
M  V30 6067 C 588.732 -1.31135 1.14366 0
M  V30 6068 O 589.908 -1.37958 1.46729 0
M  V30 6069 C 586.973 -2.12184 2.74188 0
M  V30 6070 C 586.034 -1.74503 3.92234 0
M  V30 6071 C 585.267 -2.92748 4.46245 0
M  V30 6072 O 585.49 -4.07427 3.99198 0
M  V30 6073 O 584.424 -2.71303 5.37288 0
M  V30 6074 H 588.25 -0.398516 3.01074 0
M  V30 6075 H 585.835 -0.130707 1.48827 0
M  V30 6076 H 587.717 -2.84953 3.10451 0
M  V30 6077 H 586.392 -2.59407 1.93623 0
M  V30 6078 H 585.299 -0.989186 3.60785 0
M  V30 6079 H 586.632 -1.32044 4.74157 0
M  V30 6080 N 588.284 -1.56567 -0.180126 0
M  V30 6081 C 589.53 -1.81761 -0.899497 0
M  V30 6082 C 589.863 -0.670015 -1.82276 0
M  V30 6083 O 589.138 0.328575 -1.91705 0
M  V30 6084 C 589.421 -3.17296 -1.7028 0
M  V30 6085 C 589.274 -4.4257 -0.803255 0
M  V30 6086 C 590.593 -3.49678 -2.67233 0
M  V30 6087 H 587.712 -0.661192 -0.325567 0
M  V30 6088 H 590.354 -1.89272 -0.16612 0
M  V30 6089 H 588.504 -3.11023 -2.32802 0
M  V30 6090 H 590.176 -4.60902 -0.191585 0
M  V30 6091 H 588.419 -4.33658 -0.110796 0
M  V30 6092 H 589.09 -5.33935 -1.40064 0
M  V30 6093 H 591.566 -3.56347 -2.14839 0
M  V30 6094 H 590.442 -4.45605 -3.20511 0
M  V30 6095 H 590.703 -2.73932 -3.47007 0
M  V30 6096 N 589.762 0.448376 -1.51087 0
M  V30 6097 C 591.008 1.20049 -1.6345 0
M  V30 6098 C 591.341 1.91121 -0.344444 0
M  V30 6099 O 590.616 1.83125 0.655396 0
M  V30 6100 C 590.899 2.22624 -2.83038 0
M  V30 6101 C 590.752 1.55708 -4.21989 0
M  V30 6102 C 592.071 3.23718 -2.98152 0
M  V30 6103 H 589.19 0.435085 -0.59487 0
M  V30 6104 H 591.832 0.491183 -1.83541 0
M  V30 6105 H 589.982 2.83117 -2.66039 0
M  V30 6106 H 591.654 0.986367 -4.50631 0
M  V30 6107 H 589.897 0.859647 -4.25197 0
M  V30 6108 H 590.568 2.30357 -5.01637 0
M  V30 6109 H 593.044 2.73269 -3.13788 0
M  V30 6110 H 591.92 3.92795 -3.83411 0
M  V30 6111 H 592.181 3.89179 -2.09743 0
M  V30 6112 N 591.24 1.41047 0.703093 0
M  V30 6113 C 592.203 1.42036 1.79884 0
M  V30 6114 C 593.203 0.312153 1.57741 0
M  V30 6115 O 594.393 0.571672 1.64553 0
M  V30 6116 C 591.525 1.22437 3.18154 0
M  V30 6117 H 592.718 2.39572 1.80403 0
M  V30 6118 H 590.271 1.27079 0.909977 0
M  V30 6119 H 591.006 0.257112 3.23279 0
M  V30 6120 H 590.791 2.02723 3.35627 0
M  V30 6121 H 592.281 1.25946 3.98155 0
M  V30 6122 N 592.718 -0.936591 1.26751 0
M  V30 6123 C 593.65 -2.03991 1.045 0
M  V30 6124 C 594.663 -1.628 0.00394261 0
M  V30 6125 O 595.852 -1.76817 0.244526 0
M  V30 6126 C 592.952 -3.34218 0.561403 0
M  V30 6127 C 592.125 -4.04151 1.67274 0
M  V30 6128 C 591.184 -5.12651 1.1864 0
M  V30 6129 O 590.21 -5.37104 1.88437 0
M  V30 6130 N 591.412 -5.80488 0.037278 0
M  V30 6131 H 594.177 -2.23644 1.99508 0
M  V30 6132 H 591.738 -1.10638 1.18198 0
M  V30 6133 H 593.73 -4.04101 0.220136 0
M  V30 6134 H 592.3 -3.11203 -0.295211 0
M  V30 6135 H 591.52 -3.28121 2.18472 0
M  V30 6136 H 592.808 -4.47626 2.41885 0
M  V30 6137 H 592.206 -5.63064 -0.545494 0
M  V30 6138 H 590.763 -6.5134 -0.244877 0
M  V30 6139 N 594.196 -1.08629 -1.14182 0
M  V30 6140 C 595.473 -0.73002 -1.81466 0
M  V30 6141 C 595.853 0.785996 -1.95922 0
M  V30 6142 O 595.201 1.70535 -1.52086 0
M  V30 6143 C 595.411 -1.45957 -3.17014 0
M  V30 6144 C 596.759 -1.62008 -3.92477 0
M  V30 6145 O 597.783 -1.42141 -3.26611 0
M  V30 6146 O 596.642 -1.94806 -5.106 0
M  V30 6147 H 593.736 -0.261307 -0.784632 0
M  V30 6148 H 596.282 -1.188 -1.2118 0
M  V30 6149 H 595.054 -2.49221 -3.01669 0
M  V30 6150 H 594.677 -0.993222 -3.84995 0
M  V30 6151 N 595.674 1.31259 -0.872281 0
M  V30 6152 C 596.902 2.00795 -0.498907 0
M  V30 6153 C 597.317 1.65464 0.909238 0
M  V30 6154 O 596.674 0.885073 1.59602 0
M  V30 6155 C 596.725 3.55625 -0.649092 0
M  V30 6156 O 596.446 3.89692 -2.00179 0
M  V30 6157 C 597.947 4.42434 -0.277034 0
M  V30 6158 H 595.167 0.642299 -0.194145 0
M  V30 6159 H 597.711 1.67438 -1.17408 0
M  V30 6160 H 595.866 3.87394 -0.0214402 0
M  V30 6161 H 596.28 4.84407 -2.01122 0
M  V30 6162 H 597.754 5.50299 -0.433064 0
M  V30 6163 H 598.231 4.32146 0.783989 0
M  V30 6164 H 598.837 4.16086 -0.880483 0
M  V30 6165 N 597.152 0.631951 1.44375 0
M  V30 6166 C 598.4 0.136497 2.01639 0
M  V30 6167 C 598.721 -1.24637 1.49969 0
M  V30 6168 O 597.991 -1.82827 0.70363 0
M  V30 6169 H 596.571 0.0474703 0.74549 0
M  V30 6170 H 599.233 0.818837 1.76865 0
M  V30 6171 H 598.329 0.104817 3.11924 0
M  V30 6172 N 598.631 -1.53133 0.372548 0
M  V30 6173 C 599.877 -2.01654 -0.215277 0
M  V30 6174 C 600.21 -1.25914 -1.47849 0
M  V30 6175 O 599.485 -0.3548 -1.91237 0
M  V30 6176 C 599.768 -3.56609 -0.500187 0
M  V30 6177 C 599.621 -4.43036 0.777145 0
M  V30 6178 C 600.94 -4.20528 -1.29786 0
M  V30 6179 H 598.059 -0.732991 -0.0767686 0
M  V30 6180 H 600.701 -1.83335 0.498814 0
M  V30 6181 H 598.851 -3.7235 -1.10852 0
M  V30 6182 H 600.523 -4.39079 1.41447 0
M  V30 6183 H 598.766 -4.10723 1.39604 0
M  V30 6184 H 599.437 -5.49424 0.532662 0
M  V30 6185 H 601.913 -4.08663 -0.783198 0
M  V30 6186 H 600.789 -5.28962 -1.46596 0
M  V30 6187 H 601.05 -3.77051 -2.30836 0
M  V30 6188 N 600.109 -0.101901 -1.5727 0
M  V30 6189 C 601.52 0.426173 -1.81771 0
M  V30 6190 C 601.871 1.67725 -1.01797 0
M  V30 6191 O 600.996 2.14958 -0.249386 0
M  V30 6192 C 601.591 0.779962 -3.297 0
M  V30 6193 C 600.15 1.25275 -3.54941 0
M  V30 6194 C 599.297 0.252814 -2.76145 0
M  V30 6195 H 602.248 -0.32726 -1.55289 0
M  V30 6196 H 602.269 1.63891 -3.43395 0
M  V30 6197 H 601.781 -0.130778 -3.8788 0
M  V30 6198 H 599.882 2.18097 -3.021 0
M  V30 6199 H 599.995 1.20988 -4.63572 0
M  V30 6200 H 598.359 0.736362 -2.43823 0
M  V30 6201 H 599.142 -0.650724 -3.37076 0
M  V30 6202 N 601.587 1.56661 0.17182 0
M  V30 6203 C 603.003 1.50768 0.52357 0
M  V30 6204 C 603.203 0.806072 1.84675 0
M  V30 6205 O 602.259 0.366233 2.4983 0
M  V30 6206 C 603.572 2.955 0.556793 0
M  V30 6207 C 605.12 3.06303 0.644029 0
M  V30 6208 C 605.595 4.52492 0.708148 0
M  V30 6209 N 607.086 4.56737 0.771051 0
M  V30 6210 C 607.821 5.67196 0.841229 0
M  V30 6211 N 607.317 6.87287 0.872272 0
M  V30 6212 N 609.11 5.55165 0.88021 0
M  V30 6213 H 601.261 2.00679 -0.695817 0
M  V30 6214 H 603.524 0.914219 -0.250814 0
M  V30 6215 H 603.23 3.49986 -0.346774 0
M  V30 6216 H 603.104 3.50119 1.40346 0
M  V30 6217 H 605.491 2.51851 1.53802 0
M  V30 6218 H 605.572 2.5477 -0.229297 0
M  V30 6219 H 605.216 5.07575 -0.181585 0
M  V30 6220 H 605.146 5.01781 1.59761 0
M  V30 6221 H 607.637 3.70274 0.755364 0
M  V30 6222 H 607.95 7.6722 0.92698 0
M  V30 6223 H 606.295 6.89898 0.840557 0
M  V30 6224 H 609.486 4.60263 0.852956 0
M  V30 6225 H 609.659 6.41271 0.931439 0
M  V30 6226 N 603.065 -0.440357 1.51323 0
M  V30 6227 C 604.476 -1.02032 1.56353 0
M  V30 6228 C 604.827 -1.92382 0.385197 0
M  V30 6229 O 603.952 -2.10583 -0.498373 0
M  V30 6230 C 604.547 -1.85723 2.83359 0
M  V30 6231 C 603.106 -2.38774 2.90971 0
M  V30 6232 C 602.253 -1.17908 2.50984 0
M  V30 6233 H 605.204 -0.221744 1.57143 0
M  V30 6234 H 605.225 -2.71141 2.66951 0
M  V30 6235 H 604.737 -1.19939 3.69102 0
M  V30 6236 H 602.838 -3.08021 2.09651 0
M  V30 6237 H 602.951 -2.71778 3.94555 0
M  V30 6238 H 601.315 -1.52347 2.04114 0
M  V30 6239 H 602.098 -0.537393 3.39068 0
M  V30 6240 N 604.543 -1.41418 -0.695603 0
M  V30 6241 C 605.791 -1.40496 -1.45277 0
M  V30 6242 C 606.112 -0.0149538 -1.94994 0
M  V30 6243 O 605.382 0.9432 -1.71699 0
M  V30 6244 H 603.962 -0.517147 -0.539044 0
M  V30 6245 H 606.624 -1.76656 -0.823321 0
M  V30 6246 H 605.72 -2.09214 -2.31595 0
M  V30 6247 N 606.021 0.929856 -1.27246 0
M  V30 6248 C 606.951 2.04722 -1.12299 0
M  V30 6249 C 607.932 1.70082 -0.0250464 0
M  V30 6250 O 609.117 1.93176 -0.199141 0
M  V30 6251 C 606.247 3.38721 -0.767145 0
M  V30 6252 C 605.201 3.87466 -1.81808 0
M  V30 6253 C 604.527 5.18246 -1.31626 0
M  V30 6254 C 605.827 4.11095 -3.22177 0
M  V30 6255 H 607.521 2.17485 -2.05769 0
M  V30 6256 H 605.067 1.04503 -0.990715 0
M  V30 6257 H 607.02 4.16366 -0.649413 0
M  V30 6258 H 605.744 3.25967 0.203259 0
M  V30 6259 H 604.403 3.12012 -1.92468 0
M  V30 6260 H 604.051 5.01881 -0.335378 0
M  V30 6261 H 603.751 5.51829 -2.01887 0
M  V30 6262 H 605.275 5.98462 -1.21143 0
M  V30 6263 H 606.689 4.79316 -3.1453 0
M  V30 6264 H 605.086 4.55982 -3.90129 0
M  V30 6265 H 606.156 3.16468 -3.67391 0
M  V30 6266 N 607.499 1.09233 1.13605 0
M  V30 6267 C 608.724 0.849067 1.89224 0
M  V30 6268 C 609.149 -0.593875 1.78479 0
M  V30 6269 O 608.507 -1.41703 1.13092 0
M  V30 6270 C 608.555 1.28642 3.36873 0
M  V30 6271 O 607.659 0.44363 4.10007 0
M  V30 6272 H 607 0.30767 0.588417 0
M  V30 6273 H 609.53 1.45595 1.43748 0
M  V30 6274 H 609.54 1.27096 3.87699 0
M  V30 6275 H 608.215 2.33729 3.44011 0
M  V30 6276 H 606.792 0.523241 3.69211 0
M  V30 6277 N 608.977 -1.30795 0.87923 0
M  V30 6278 C 610.205 -2.00527 0.509548 0
M  V30 6279 C 610.62 -1.65944 -0.90045 0
M  V30 6280 O 609.977 -0.893525 -1.5913 0
M  V30 6281 C 610.028 -3.55276 0.667943 0
M  V30 6282 O 609.749 -3.88625 2.02242 0
M  V30 6283 C 611.25 -4.4228 0.300494 0
M  V30 6284 H 608.47 -0.641261 0.197549 0
M  V30 6285 H 611.014 -1.66813 1.18295 0
M  V30 6286 H 609.169 -3.87377 0.0419843 0
M  V30 6287 H 609.583 -4.83334 2.03688 0
M  V30 6288 H 611.057 -5.50061 0.462242 0
M  V30 6289 H 611.534 -4.32556 -0.76106 0
M  V30 6290 H 612.14 -4.15613 0.902536 0
M  V30 6291 N 610.455 -0.639598 -1.44038 0
M  V30 6292 C 611.704 -0.144885 -2.01179 0
M  V30 6293 C 612.017 1.24372 -1.50967 0
M  V30 6294 O 613.223 1.83291 -2.00292 0
M  V30 6295 C 611.679 -0.208244 -3.59297 0
M  V30 6296 C 611.287 -1.59869 -4.18504 0
M  V30 6297 C 613.031 0.229568 -4.23879 0
M  V30 6298 C 610.938 -1.61671 -5.68873 0
M  V30 6299 H 609.868 -0.0504005 -0.752314 0
M  V30 6300 H 612.519 -0.799639 -1.65161 0
M  V30 6301 H 610.901 0.513767 -3.92653 0
M  V30 6302 H 612.075 -2.34496 -3.96671 0
M  V30 6303 H 610.39 -1.98131 -3.66242 0
M  V30 6304 H 612.987 0.235758 -5.3418 0
M  V30 6305 H 613.33 1.25848 -3.96822 0
M  V30 6306 H 613.863 -0.440233 -3.95357 0
M  V30 6307 H 610.602 -2.62427 -6.00677 0
M  V30 6308 H 610.122 -0.913489 -5.92803 0
M  V30 6309 H 611.801 -1.35439 -6.32665 0
M  V30 6310 N 611.933 1.52934 -0.380664 0
M  V30 6311 C 613.18 2.01467 0.204278 0
M  V30 6312 C 613.508 1.26744 1.47533 0
M  V30 6313 O 612.763 0.353723 1.92477 0
M  V30 6314 C 613.062 3.5349 0.527199 0
M  V30 6315 C 612.728 4.46171 -0.651295 0
M  V30 6316 C 611.39 4.71227 -0.974619 0
M  V30 6317 C 613.742 5.00909 -1.44012 0
M  V30 6318 C 611.07 5.4827 -2.08847 0
M  V30 6319 C 613.422 5.7917 -2.5445 0
M  V30 6320 C 612.086 6.02507 -2.87301 0
M  V30 6321 H 611.356 0.73722 0.0747504 0
M  V30 6322 H 614.003 1.84411 -0.516234 0
M  V30 6323 H 612.308 3.68574 1.32892 0
M  V30 6324 H 614.005 3.88529 0.992283 0
M  V30 6325 H 610.595 4.26829 -0.389276 0
M  V30 6326 H 614.779 4.81485 -1.20357 0
M  V30 6327 H 610.035 5.64567 -2.34679 0
M  V30 6328 H 614.209 6.20588 -3.1598 0
M  V30 6329 H 611.836 6.61989 -3.7373 0
M  V30 6330 N 613.412 0.11024 1.57214 0
M  V30 6331 C 614.637 -0.561179 1.99664 0
M  V30 6332 C 615.062 -1.59985 0.989266 0
M  V30 6333 O 614.42 -1.81255 -0.0402399 0
M  V30 6334 C 614.468 -1.17189 3.41027 0
M  V30 6335 O 613.572 -2.28755 3.4314 0
M  V30 6336 H 612.913 -0.14101 0.648855 0
M  V30 6337 H 615.443 0.196128 2.03658 0
M  V30 6338 H 615.453 -1.50954 3.79047 0
M  V30 6339 H 614.128 -0.411041 4.13864 0
M  V30 6340 H 612.705 -1.96495 3.16929 0
M  V30 6341 N 614.89 -1.56749 -0.16351 0
M  V30 6342 C 616.301 -1.72039 -0.725216 0
M  V30 6343 C 616.652 -0.72202 -1.82432 0
M  V30 6344 O 615.777 0.114942 -2.16095 0
M  V30 6345 C 616.372 -3.11932 -1.32227 0
M  V30 6346 C 614.931 -3.28879 -1.83072 0
M  V30 6347 C 614.078 -2.67984 -0.712716 0
M  V30 6348 H 617.029 -1.58579 0.0619772 0
M  V30 6349 H 617.05 -3.11015 -2.19202 0
M  V30 6350 H 616.562 -3.84572 -0.522103 0
M  V30 6351 H 614.663 -2.61209 -2.65708 0
M  V30 6352 H 614.776 -4.36688 -1.97079 0
M  V30 6353 H 613.14 -2.28005 -1.13515 0
M  V30 6354 H 613.923 -3.43216 0.0757361 0
M  V30 6355 N 616.368 0.432326 -1.51554 0
M  V30 6356 C 617.593 1.20824 -1.68571 0
M  V30 6357 C 618.018 1.84126 -0.384596 0
M  V30 6358 O 617.376 1.69025 0.655751 0
M  V30 6359 C 617.424 2.26429 -2.80646 0
M  V30 6360 O 616.528 3.32032 -2.44598 0
M  V30 6361 H 615.869 0.353765 -0.561913 0
M  V30 6362 H 618.399 0.509916 -1.98144 0
M  V30 6363 H 618.409 2.71133 -3.04878 0
M  V30 6364 H 617.084 1.79733 -3.75058 0
M  V30 6365 H 615.661 2.92769 -2.30956 0
M  V30 6366 N 617.846 1.41785 0.688094 0
M  V30 6367 C 619.262 1.24419 0.999608 0
M  V30 6368 C 619.462 0.138868 2.01021 0
M  V30 6369 O 618.518 -0.494283 2.47615 0
M  V30 6370 C 619.831 2.59625 1.51709 0
M  V30 6371 C 621.379 2.66869 1.63554 0
M  V30 6372 C 621.854 4.0241 2.18702 0
M  V30 6373 N 623.345 4.04295 2.26053 0
M  V30 6374 C 624.08 5.05977 2.69768 0
M  V30 6375 N 623.576 6.18047 3.13033 0
M  V30 6376 N 625.369 4.93336 2.69398 0
M  V30 6377 H 617.52 2.12392 0.0187427 0
M  V30 6378 H 619.783 0.945347 0.0708673 0
M  V30 6379 H 619.489 3.41297 0.849059 0
M  V30 6380 H 619.363 2.82628 2.49803 0
M  V30 6381 H 621.75 1.8555 2.29467 0
M  V30 6382 H 621.831 2.47668 0.639857 0
M  V30 6383 H 621.475 4.8418 1.53402 0
M  V30 6384 H 621.405 4.18955 3.19037 0
M  V30 6385 H 623.896 3.23383 1.9553 0
M  V30 6386 H 624.209 6.91498 3.45038 0
M  V30 6387 H 622.554 6.21572 3.10923 0
M  V30 6388 H 625.745 4.04865 2.34952 0
M  V30 6389 H 625.918 5.72717 3.03148 0
M  V30 6390 N 619.324 -0.923095 1.27737 0
M  V30 6391 C 620.549 -1.71054 1.17283 0
M  V30 6392 C 620.974 -1.86208 -0.266153 0
M  V30 6393 O 620.332 -1.36545 -1.1927 0
M  V30 6394 C 620.38 -3.0854 1.86642 0
M  V30 6395 O 619.484 -3.95528 1.16752 0
M  V30 6396 H 618.825 -0.524136 0.407649 0
M  V30 6397 H 621.355 -1.15487 1.6889 0
M  V30 6398 H 621.365 -3.58828 1.94182 0
M  V30 6399 H 620.04 -2.96828 2.91317 0
M  V30 6400 H 618.617 -3.53967 1.17312 0
M  V30 6401 N 620.802 -1.09834 -1.13024 0
M  V30 6402 C 622.03 -0.858902 -1.8823 0
M  V30 6403 C 622.445 0.590164 -1.79339 0
M  V30 6404 O 621.802 1.4065 -1.16292 0
M  V30 6405 C 621.853 -1.29066 -3.37675 0
M  V30 6406 O 621.574 -2.6829 -3.46341 0
M  V30 6407 C 623.075 -1.08421 -4.29837 0
M  V30 6408 H 620.295 -0.308713 -0.595766 0
M  V30 6409 H 622.839 -1.4614 -1.4305 0
M  V30 6410 H 620.994 -0.731961 -3.80422 0
M  V30 6411 H 621.408 -2.86598 -4.39274 0
M  V30 6412 H 622.882 -1.43553 -5.33007 0
M  V30 6413 H 623.359 -0.0223315 -4.39194 0
M  V30 6414 H 623.965 -1.62907 -3.92863 0
M  V30 6415 N 622.28 1.30327 -0.886154 0
M  V30 6416 C 623.527 1.96097 -0.505192 0
M  V30 6417 C 623.855 1.69952 0.945868 0
M  V30 6418 O 623.11 0.997653 1.68361 0
M  V30 6419 C 623.409 3.49906 -0.728042 0
M  V30 6420 C 623.075 3.96103 -2.15437 0
M  V30 6421 C 621.737 4.08428 -2.5444 0
M  V30 6422 C 624.089 4.20177 -3.08384 0
M  V30 6423 C 621.417 4.42189 -3.85598 0
M  V30 6424 C 623.769 4.55407 -4.39075 0
M  V30 6425 C 622.433 4.65941 -4.7797 0
M  V30 6426 H 621.703 0.71757 -0.184863 0
M  V30 6427 H 624.35 1.55171 -1.12223 0
M  V30 6428 H 622.655 3.9179 -0.027978 0
M  V30 6429 H 624.352 3.98869 -0.412862 0
M  V30 6430 H 620.942 3.87017 -1.84162 0
M  V30 6431 H 625.126 4.10134 -2.7947 0
M  V30 6432 H 620.382 4.48544 -4.15473 0
M  V30 6433 H 624.556 4.72986 -5.11133 0
M  V30 6434 H 622.183 4.91856 -5.79639 0
M  V30 6435 N 623.758 0.647228 1.43697 0
M  V30 6436 C 625.006 0.157876 2.01482 0
M  V30 6437 C 625.327 -1.23039 1.51282 0
M  V30 6438 O 624.597 -1.82071 0.722982 0
M  V30 6439 H 623.177 0.0553745 0.744945 0
M  V30 6440 H 625.839 0.83755 1.75986 0
M  V30 6441 H 624.935 0.137895 3.11795 0
M  V30 6442 N 625.236 -1.5273 0.388769 0
M  V30 6443 C 626.482 -2.01871 -0.193877 0
M  V30 6444 C 626.815 -1.27475 -1.46505 0
M  V30 6445 O 626.09 -0.375063 -1.90849 0
M  V30 6446 C 626.373 -3.5712 -0.462336 0
M  V30 6447 C 626.226 -4.42186 0.824091 0
M  V30 6448 C 627.545 -4.21881 -1.25319 0
M  V30 6449 H 624.664 -0.733764 -0.0689899 0
M  V30 6450 H 627.306 -1.82796 0.518231 0
M  V30 6451 H 625.456 -3.73504 -1.06896 0
M  V30 6452 H 627.128 -4.37554 1.46096 0
M  V30 6453 H 625.371 -4.09219 1.43952 0
M  V30 6454 H 626.042 -5.48828 0.590905 0
M  V30 6455 H 628.518 -4.0947 -0.73981 0
M  V30 6456 H 627.394 -5.30487 -1.40977 0
M  V30 6457 H 627.655 -3.79478 -2.26824 0
M  V30 6458 N 626.714 -0.118576 -1.57153 0
M  V30 6459 C 627.991 0.583062 -1.86708 0
M  V30 6460 C 628.371 1.84841 -1.01967 0
M  V30 6461 O 627.719 2.28288 -0.0984673 0
M  V30 6462 C 627.929 0.875912 -3.3783 0
M  V30 6463 C 629.277 1.22916 -4.0642 0
M  V30 6464 O 630.301 0.966188 -3.42846 0
M  V30 6465 O 629.16 1.72269 -5.18638 0
M  V30 6466 H 626.254 0.294185 -0.772906 0
M  V30 6467 H 628.8 -0.153048 -1.69008 0
M  V30 6468 H 627.572 -0.0207776 -3.91294 0
M  V30 6469 H 627.195 1.66719 -3.60958 0
M  V30 6470 N 628.193 1.56834 0.155195 0
M  V30 6471 C 629.123 2.00678 1.19376 0
M  V30 6472 C 630.104 0.884973 1.45266 0
M  V30 6473 O 631.289 1.1522 1.56326 0
M  V30 6474 C 628.419 2.38042 2.5289 0
M  V30 6475 C 627.373 3.53332 2.41538 0
M  V30 6476 C 626.699 3.76485 3.79688 0
M  V30 6477 C 627.999 4.86265 1.9064 0
M  V30 6478 H 629.693 2.87688 0.829232 0
M  V30 6479 H 627.239 1.38407 0.397445 0
M  V30 6480 H 629.192 2.67314 3.25763 0
M  V30 6481 H 627.916 1.4796 2.91162 0
M  V30 6482 H 626.575 3.24213 1.71117 0
M  V30 6483 H 626.223 2.83667 4.15382 0
M  V30 6484 H 625.923 4.54068 3.72956 0
M  V30 6485 H 627.447 4.08174 4.54122 0
M  V30 6486 H 628.861 5.14308 2.53299 0
M  V30 6487 H 627.258 5.67597 1.94818 0
M  V30 6488 H 628.328 4.77184 0.861596 0
M  V30 6489 N 629.671 -0.424282 1.51781 0
M  V30 6490 C 630.601 -1.52305 1.7699 0
M  V30 6491 C 631.582 -1.5839 0.620209 0
M  V30 6492 O 632.767 -1.73908 0.864268 0
M  V30 6493 C 629.897 -2.90271 1.90683 0
M  V30 6494 C 628.851 -2.99043 3.06198 0
M  V30 6495 C 628.177 -4.39116 3.05092 0
M  V30 6496 C 629.477 -2.7192 4.45934 0
M  V30 6497 H 631.171 -1.31461 2.68995 0
M  V30 6498 H 628.717 -0.630985 1.29439 0
M  V30 6499 H 630.67 -3.6711 2.06901 0
M  V30 6500 H 629.394 -3.12376 0.953365 0
M  V30 6501 H 628.053 -2.24646 2.89706 0
M  V30 6502 H 627.701 -4.58207 2.07498 0
M  V30 6503 H 627.401 -4.45912 3.82669 0
M  V30 6504 H 628.925 -5.17911 3.2342 0
M  V30 6505 H 630.339 -3.38487 4.62709 0
M  V30 6506 H 628.736 -2.90111 5.25315 0
M  V30 6507 H 629.806 -1.67445 4.55072 0
M  V30 6508 N 631.149 -1.42148 -0.680565 0
M  V30 6509 C 632.395 -1.42521 -1.44277 0
M  V30 6510 C 632.728 -0.0393718 -1.9416 0
M  V30 6511 O 632.003 0.935425 -1.70529 0
M  V30 6512 C 632.286 -2.44475 -2.64394 0
M  V30 6513 C 632.139 -3.92226 -2.20179 0
M  V30 6514 C 633.458 -2.43491 -3.66606 0
M  V30 6515 H 630.577 -0.518985 -0.523282 0
M  V30 6516 H 633.219 -1.73524 -0.773914 0
M  V30 6517 H 631.369 -2.18168 -3.21458 0
M  V30 6518 H 633.041 -4.29493 -1.68327 0
M  V30 6519 H 631.284 -4.0637 -1.5181 0
M  V30 6520 H 631.955 -4.59133 -3.06433 0
M  V30 6521 H 634.431 -2.66872 -3.19247 0
M  V30 6522 H 633.307 -3.16816 -4.4824 0
M  V30 6523 H 633.568 -1.45881 -4.17338 0
M  V30 6524 N 632.627 0.916307 -1.28225 0
M  V30 6525 C 633.59 1.99996 -1.11957 0
M  V30 6526 C 634.59 1.60688 -0.0600152 0
M  V30 6527 O 635.78 1.71499 -0.30558 0
M  V30 6528 C 632.912 3.33458 -0.708411 0
M  V30 6529 H 634.105 2.15858 -2.08196 0
M  V30 6530 H 631.658 1.09863 -1.11175 0
M  V30 6531 H 632.393 3.23297 0.254859 0
M  V30 6532 H 632.178 3.63349 -1.47377 0
M  V30 6533 H 633.668 4.13014 -0.617164 0
M  V30 6534 N 634.105 1.10431 1.1244 0
M  V30 6535 C 635.055 0.722378 2.16254 0
M  V30 6536 C 636.039 -0.268427 1.58645 0
M  V30 6537 O 637.231 -0.077169 1.76832 0
M  V30 6538 C 634.36 0.155763 3.42946 0
M  V30 6539 C 633.446 1.17361 4.07538 0
M  V30 6540 N 633.837 2.36429 4.47141 0
M  V30 6541 C 632.135 1.01412 4.34317 0
M  V30 6542 C 632.836 3.01259 4.97612 0
M  V30 6543 N 631.812 2.28777 4.93115 0
M  V30 6544 H 635.614 1.62876 2.4464 0
M  V30 6545 H 633.128 0.982031 1.29344 0
M  V30 6546 H 635.125 -0.135936 4.16678 0
M  V30 6547 H 633.785 -0.745339 3.1603 0
M  V30 6548 H 634.796 2.73954 4.39511 0
M  V30 6549 H 631.473 0.168574 4.1716 0
M  V30 6550 H 632.863 4.02541 5.37968 0
M  V30 6551 N 635.583 -1.29855 0.893053 0
M  V30 6552 C 636.811 -1.99976 0.530788 0
M  V30 6553 C 637.226 -1.66889 -0.882799 0
M  V30 6554 O 636.583 -0.910352 -1.58173 0
M  V30 6555 C 636.634 -3.54547 0.705587 0
M  V30 6556 O 636.355 -3.86458 2.06353 0
M  V30 6557 C 637.856 -4.41937 0.347387 0
M  V30 6558 H 635.076 -0.639129 0.204339 0
M  V30 6559 H 637.62 -1.65549 1.20057 0
M  V30 6560 H 635.775 -3.87311 0.0830685 0
M  V30 6561 H 636.189 -4.81146 2.08803 0
M  V30 6562 H 637.663 -5.4954 0.520557 0
M  V30 6563 H 638.14 -4.33339 -0.715139 0
M  V30 6564 H 638.746 -4.14633 0.946567 0
M  V30 6565 N 637.061 -0.65484 -1.43351 0
M  V30 6566 C 638.338 -0.0987371 -1.95351 0
M  V30 6567 C 638.718 1.38161 -1.59608 0
M  V30 6568 O 638.066 2.10791 -0.882021 0
M  V30 6569 C 638.276 -0.346684 -3.47274 0
M  V30 6570 C 639.624 -0.25249 -4.23849 0
M  V30 6571 O 640.648 -0.279332 -3.55103 0
M  V30 6572 O 639.507 -0.177584 -5.46211 0
M  V30 6573 H 636.601 0.0086829 -0.826954 0
M  V30 6574 H 639.147 -0.728189 -1.53282 0
M  V30 6575 H 637.919 -1.37296 -3.66423 0
M  V30 6576 H 637.542 0.315757 -3.96344 0
M  V30 6577 N 638.539 1.52521 -0.396863 0
M  V30 6578 C 639.785 2.01971 0.183169 0
M  V30 6579 C 640.118 1.2825 1.45827 0
M  V30 6580 O 639.393 0.385179 1.90648 0
M  V30 6581 C 639.676 3.5736 0.443391 0
M  V30 6582 C 639.529 4.41743 -0.84753 0
M  V30 6583 C 640.848 4.22539 1.2308 0
M  V30 6584 H 637.967 0.734119 0.0650976 0
M  V30 6585 H 640.609 1.82519 -0.527918 0
M  V30 6586 H 638.759 3.74066 1.04914 0
M  V30 6587 H 640.431 4.36773 -1.48414 0
M  V30 6588 H 638.674 4.0845 -1.4612 0
M  V30 6589 H 639.345 5.48507 -0.620003 0
M  V30 6590 H 641.821 4.09857 0.718084 0
M  V30 6591 H 640.697 5.31227 1.38162 0
M  V30 6592 H 640.958 3.80675 2.24808 0
M  V30 6593 N 640.017 0.126909 1.57088 0
M  V30 6594 C 641.247 -0.535892 1.99529 0
M  V30 6595 C 641.655 -1.60259 1.00566 0
M  V30 6596 O 640.998 -1.83698 -0.00843269 0
M  V30 6597 C 641.06 -1.21374 3.38391 0
M  V30 6598 C 640.724 -0.294044 4.56053 0
M  V30 6599 C 641.721 0.470454 5.17767 0
M  V30 6600 C 639.406 -0.202808 5.0189 0
M  V30 6601 C 641.4 1.31384 6.23712 0
M  V30 6602 C 639.087 0.644203 6.07695 0
M  V30 6603 C 640.085 1.40115 6.68473 0
M  V30 6604 O 639.773 2.23408 7.72233 0
M  V30 6605 H 639.505 -0.145799 0.66009 0
M  V30 6606 H 642.059 0.212441 2.04298 0
M  V30 6607 H 640.289 -2.00931 3.30399 0
M  V30 6608 H 641.978 -1.77424 3.65069 0
M  V30 6609 H 642.744 0.409884 4.83265 0
M  V30 6610 H 638.623 -0.781688 4.54324 0
M  V30 6611 H 642.167 1.90514 6.71081 0
M  V30 6612 H 638.064 0.706137 6.41626 0
M  V30 6613 H 638.832 2.16436 7.89365 0
M  V30 6614 N 641.495 -1.56914 -0.146875 0
M  V30 6615 C 642.425 -2.01308 -1.1831 0
M  V30 6616 C 643.406 -0.892664 -1.44795 0
M  V30 6617 O 644.591 -1.16048 -1.55713 0
M  V30 6618 C 641.721 -2.3938 -2.51624 0
M  V30 6619 C 640.675 -3.54608 -2.3966 0
M  V30 6620 C 640.001 -3.78493 -3.77686 0
M  V30 6621 C 641.301 -4.87269 -1.88058 0
M  V30 6622 H 642.995 -2.88123 -0.813964 0
M  V30 6623 H 640.541 -1.38615 -0.3901 0
M  V30 6624 H 642.494 -2.69037 -3.24341 0
M  V30 6625 H 641.218 -1.49502 -2.90373 0
M  V30 6626 H 639.877 -3.25116 -1.69396 0
M  V30 6627 H 639.525 -2.85866 -4.13871 0
M  V30 6628 H 639.225 -4.56039 -3.70543 0
M  V30 6629 H 640.749 -4.10576 -4.51951 0
M  V30 6630 H 642.163 -5.15644 -2.50568 0
M  V30 6631 H 640.56 -5.68622 -1.91805 0
M  V30 6632 H 641.63 -4.77634 -0.836277 0
M  V30 6633 N 642.974 0.416227 -1.52004 0
M  V30 6634 C 644.251 1.17637 -1.56272 0
M  V30 6635 C 644.631 2.08352 -0.339493 0
M  V30 6636 O 643.979 2.1833 0.674124 0
M  V30 6637 C 644.189 1.95986 -2.88774 0
M  V30 6638 C 645.537 2.52299 -3.41512 0
M  V30 6639 O 646.561 2.06174 -2.90467 0
M  V30 6640 O 645.42 3.3648 -4.30631 0
M  V30 6641 H 642.514 0.536726 -0.629169 0
M  V30 6642 H 645.06 0.423583 -1.64329 0
M  V30 6643 H 643.832 1.29487 -3.69254 0
M  V30 6644 H 643.455 2.78285 -2.83978 0
M  V30 6645 N 644.452 1.42507 0.673017 0
M  V30 6646 C 645.7 1.42789 1.43023 0
M  V30 6647 C 646.021 0.0459738 1.94946 0
M  V30 6648 O 645.291 -0.915765 1.73178 0
M  V30 6649 H 643.871 0.525657 0.530748 0
M  V30 6650 H 646.533 1.77944 0.795113 0
M  V30 6651 H 645.629 2.12872 2.28237 0
M  V30 6652 N 645.93 -0.909495 1.28709 0
M  V30 6653 C 646.862 -2.01729 1.08804 0
M  V30 6654 C 647.875 -1.62755 0.0384739 0
M  V30 6655 O 649.064 -1.76259 0.281977 0
M  V30 6656 C 646.164 -3.32952 0.63217 0
M  V30 6657 C 645.337 -4.00512 1.75809 0
M  V30 6658 C 644.396 -5.10019 1.29488 0
M  V30 6659 O 643.422 -5.32986 1.99787 0
M  V30 6660 N 644.624 -5.80278 0.1604 0
M  V30 6661 H 647.389 -2.19362 2.04207 0
M  V30 6662 H 644.95 -1.08106 1.20518 0
M  V30 6663 H 646.942 -4.03543 0.305802 0
M  V30 6664 H 645.512 -3.11759 -0.229134 0
M  V30 6665 H 644.732 -3.23413 2.25383 0
M  V30 6666 H 646.02 -4.42395 2.51325 0
M  V30 6667 H 645.418 -5.64094 -0.425937 0
M  V30 6668 H 643.975 -6.51713 -0.106663 0
M  V30 6669 N 647.408 -1.11026 -1.11852 0
M  V30 6670 C 648.654 -0.857729 -1.83768 0
M  V30 6671 C 648.987 0.615143 -1.842 0
M  V30 6672 O 648.262 1.45391 -1.29196 0
M  V30 6673 C 648.545 -1.41453 -3.31154 0
M  V30 6674 C 648.398 -2.95471 -3.39142 0
M  V30 6675 C 649.717 -1.0619 -4.27097 0
M  V30 6676 H 646.836 -0.313044 -0.667212 0
M  V30 6677 H 649.478 -1.37443 -1.31185 0
M  V30 6678 H 647.628 -0.975052 -3.76065 0
M  V30 6679 H 649.3 -3.4799 -3.02821 0
M  V30 6680 H 647.543 -3.31759 -2.79497 0
M  V30 6681 H 648.214 -3.29515 -4.42859 0
M  V30 6682 H 650.69 -1.44122 -3.90344 0
M  V30 6683 H 649.566 -1.47832 -5.28618 0
M  V30 6684 H 649.827 0.0278912 -4.42091 0
M  V30 6685 N 648.886 1.2938 -0.899927 0
M  V30 6686 C 649.836 2.25311 -0.349165 0
M  V30 6687 C 650.82 1.51889 0.530892 0
M  V30 6688 O 652.012 1.73028 0.372872 0
M  V30 6689 C 649.141 3.40696 0.422055 0
M  V30 6690 C 648.227 4.21455 -0.472935 0
M  V30 6691 N 648.618 4.8048 -1.58026 0
M  V30 6692 C 646.916 4.45177 -0.270767 0
M  V30 6693 C 647.617 5.41117 -2.13465 0
M  V30 6694 N 646.593 5.24518 -1.42766 0
M  V30 6695 H 650.395 2.68507 -1.19505 0
M  V30 6696 H 647.909 1.43992 -0.751006 0
M  V30 6697 H 649.906 4.08486 0.833369 0
M  V30 6698 H 648.566 2.99037 1.2652 0
M  V30 6699 H 649.577 4.79257 -1.96299 0
M  V30 6700 H 646.254 4.14071 0.533988 0
M  V30 6701 H 647.644 5.979 -3.06537 0
M  V30 6702 N 650.364 0.662433 1.43002 0
M  V30 6703 C 651.327 -0.0142016 2.29196 0
M  V30 6704 C 652.327 -0.741394 1.42688 0
M  V30 6705 O 653.517 -0.581257 1.64216 0
M  V30 6706 C 650.649 -1.03084 3.24941 0
M  V30 6707 H 651.842 0.7443 2.90517 0
M  V30 6708 H 649.395 0.424133 1.50435 0
M  V30 6709 H 650.13 -1.81826 2.68533 0
M  V30 6710 H 649.915 -0.512946 3.8873 0
M  V30 6711 H 651.405 -1.50308 3.89612 0
M  V30 6712 N 651.842 -1.52309 0.404946 0
M  V30 6713 C 652.752 -2.30634 -0.429555 0
M  V30 6714 C 653.768 -1.38187 -1.05737 0
M  V30 6715 O 654.944 -1.71261 -1.05979 0
M  V30 6716 C 652.009 -3.10947 -1.53339 0
M  V30 6717 C 651.07 -4.19126 -0.929065 0
M  V30 6718 C 650.303 -4.95601 -1.9803 0
M  V30 6719 O 650.526 -4.72331 -3.1978 0
M  V30 6720 O 649.46 -5.80551 -1.58886 0
M  V30 6721 H 653.286 -3.0298 0.208963 0
M  V30 6722 H 650.871 -1.4845 0.168255 0
M  V30 6723 H 652.753 -3.60974 -2.1743 0
M  V30 6724 H 651.428 -2.41399 -2.15658 0
M  V30 6725 H 650.335 -3.73257 -0.250982 0
M  V30 6726 H 651.668 -4.90955 -0.349855 0
M  V30 6727 N 653.32 -0.135238 -1.57019 0
M  V30 6728 C 654.267 0.808908 -2.1616 0
M  V30 6729 C 655.237 1.25234 -1.09113 0
M  V30 6730 O 656.422 1.32697 -1.37099 0
M  V30 6731 C 653.562 2.04729 -2.77813 0
M  V30 6732 C 652.675 1.65074 -3.99218 0
M  V30 6733 C 651.81 2.84002 -4.48906 0
M  V30 6734 C 650.849 2.40663 -5.62803 0
M  V30 6735 N 649.986 3.5256 -6.07162 0
M  V30 6736 H 654.826 0.297751 -2.96509 0
M  V30 6737 H 652.363 0.135264 -1.46477 0
M  V30 6738 H 654.321 2.7731 -3.11697 0
M  V30 6739 H 652.951 2.53275 -2.00128 0
M  V30 6740 H 652.003 0.823029 -3.7139 0
M  V30 6741 H 653.315 1.29236 -4.81767 0
M  V30 6742 H 652.469 3.64788 -4.84783 0
M  V30 6743 H 651.208 3.23076 -3.65339 0
M  V30 6744 H 650.213 1.58314 -5.26514 0
M  V30 6745 H 651.438 2.02687 -6.48147 0
M  V30 6746 H 649.384 3.91278 -5.26534 0
M  V30 6747 H 649.301 3.20699 -6.84608 0
M  V30 6748 H 650.569 4.33738 -6.47682 0
M  V30 6749 N 654.798 1.5699 0.138552 0
M  V30 6750 C 655.728 2.01933 1.17241 0
M  V30 6751 C 656.709 0.90033 1.44319 0
M  V30 6752 O 657.894 1.16872 1.55095 0
M  V30 6753 C 655.024 2.40711 2.50351 0
M  V30 6754 C 653.978 3.55874 2.37776 0
M  V30 6755 C 653.304 3.80491 3.75674 0
M  V30 6756 C 654.604 4.8826 1.85472 0
M  V30 6757 H 656.298 2.88551 0.798672 0
M  V30 6758 H 653.844 1.3882 0.382743 0
M  V30 6759 H 655.797 2.70754 3.22909 0
M  V30 6760 H 654.521 1.5104 2.89576 0
M  V30 6761 H 653.18 3.2601 1.67669 0
M  V30 6762 H 652.828 2.88057 4.12349 0
M  V30 6763 H 652.528 4.57998 3.68119 0
M  V30 6764 H 654.052 4.12967 4.49767 0
M  V30 6765 H 655.466 5.16965 2.4783 0
M  V30 6766 H 653.863 5.69631 1.88787 0
M  V30 6767 H 654.933 4.78071 0.810935 0
M  V30 6768 N 656.276 -0.40816 1.52223 0
M  V30 6769 C 657.504 -1.17672 1.70179 0
M  V30 6770 C 657.919 -1.84257 0.411696 0
M  V30 6771 O 657.276 -1.7192 -0.612354 0
M  V30 6772 C 657.327 -2.23911 2.83806 0
M  V30 6773 O 657.048 -1.60044 4.0782 0
M  V30 6774 C 658.549 -3.1364 3.13281 0
M  V30 6775 H 655.769 -0.353562 0.570293 0
M  V30 6776 H 658.313 -0.480083 1.98785 0
M  V30 6777 H 656.468 -2.89242 2.57717 0
M  V30 6778 H 656.882 -2.30484 4.71145 0
M  V30 6779 H 658.356 -3.84255 3.96298 0
M  V30 6780 H 658.833 -3.76066 2.26872 0
M  V30 6781 H 659.439 -2.53977 3.41139 0
M  V30 6782 N 657.755 -1.42862 -0.66545 0
M  V30 6783 C 658.718 -1.46756 -1.76055 0
M  V30 6784 C 659.718 -0.353866 -1.56858 0
M  V30 6785 O 660.908 -0.615099 -1.62979 0
M  V30 6786 C 658.04 -1.30829 -3.14796 0
M  V30 6787 H 659.233 -2.44271 -1.73987 0
M  V30 6788 H 656.786 -1.29447 -0.875965 0
M  V30 6789 H 657.521 -0.342733 -3.22484 0
M  V30 6790 H 657.306 -2.11551 -3.30134 0
M  V30 6791 H 658.796 -1.36458 -3.94676 0
M  V30 6792 N 659.233 0.902656 -1.29189 0
M  V30 6793 C 660.181 2.0278 -1.13943 0
M  V30 6794 C 661.175 1.69308 -0.055787 0
M  V30 6795 O 662.381 1.78707 -0.215371 0
M  V30 6796 H 658.756 0.664595 -0.351877 0
M  V30 6797 H 660.727 2.12778 -2.09208 0
M  V30 6798 C 659.476 3.37657 -0.82966 0
M  V30 6799 H 658.799 3.63913 -1.65551 0
M  V30 6800 H 660.239 4.17078 -0.762998 0
M  V30 6801 C 658.698 3.33648 0.466991 0
M  V30 6802 O 659.228 3.72886 1.49395 0
M  V30 6803 N 657.434 2.86745 0.471761 0
M  V30 6804 H 656.981 2.55009 -0.364406 0
M  V30 6805 H 656.939 2.84446 1.33933 0
M  V30 6806 N 660.711 1.11618 1.11262 0
M  V30 6807 C 661.621 0.78898 2.20935 0
M  V30 6808 C 662.637 -0.21867 1.7262 0
M  V30 6809 O 663.813 -0.0543826 2.01327 0
M  V30 6810 C 660.878 0.239014 3.45875 0
M  V30 6811 C 659.939 1.3055 4.08968 0
M  V30 6812 C 659.172 0.781687 5.27944 0
M  V30 6813 O 659.395 -0.387605 5.69082 0
M  V30 6814 O 658.329 1.54734 5.81671 0
M  V30 6815 H 662.155 1.70477 2.51339 0
M  V30 6816 H 659.74 0.892203 1.19834 0
M  V30 6817 H 661.622 -0.0632312 4.21353 0
M  V30 6818 H 660.297 -0.649454 3.17118 0
M  V30 6819 H 659.204 1.66079 3.35214 0
M  V30 6820 H 660.537 2.16743 4.41909 0
M  V30 6821 N 662.189 -1.289 0.906776 0
M  V30 6822 C 663.438 -1.9455 0.532262 0
M  V30 6823 C 663.751 -1.72219 -0.927353 0
M  V30 6824 O 664.957 -2.32033 -1.40971 0
M  V30 6825 C 663.413 -3.48438 0.901041 0
M  V30 6826 C 663.021 -3.79558 2.37991 0
M  V30 6827 C 664.765 -4.20284 0.596777 0
M  V30 6828 C 662.672 -5.26723 2.68918 0
M  V30 6829 H 661.602 -0.728259 0.195333 0
M  V30 6830 H 664.253 -1.46519 1.10474 0
M  V30 6831 H 662.635 -3.95162 0.257419 0
M  V30 6832 H 663.809 -3.43668 3.06967 0
M  V30 6833 H 662.124 -3.20868 2.65391 0
M  V30 6834 H 664.721 -5.28612 0.8046 0
M  V30 6835 H 665.064 -4.13694 -0.465072 0
M  V30 6836 H 665.597 -3.79315 1.19855 0
M  V30 6837 H 662.336 -5.38384 3.73928 0
M  V30 6838 H 661.856 -5.63836 2.04571 0
M  V30 6839 H 663.535 -5.94391 2.55555 0
M  V30 6840 N 663.667 -0.670007 -1.42649 0
M  V30 6841 C 664.913 -0.190568 -2.01903 0
M  V30 6842 C 665.246 1.19817 -1.52832 0
M  V30 6843 O 664.521 1.80342 -0.728485 0
M  V30 6844 C 664.804 -0.21991 -3.59428 0
M  V30 6845 C 664.657 -1.64376 -4.18689 0
M  V30 6846 C 665.976 0.434519 -4.3795 0
M  V30 6847 H 663.095 -0.0707219 -0.733599 0
M  V30 6848 H 665.737 -0.853883 -1.69732 0
M  V30 6849 H 663.887 0.344894 -3.86966 0
M  V30 6850 H 665.559 -2.26044 -4.02122 0
M  V30 6851 H 663.802 -2.18591 -3.747 0
M  V30 6852 H 664.473 -1.61601 -5.27815 0
M  V30 6853 H 666.949 -0.0462156 -4.16074 0
M  V30 6854 H 665.825 0.38333 -5.4756 0
M  V30 6855 H 666.086 1.51135 -4.15464 0
M  V30 6856 N 665.145 1.52092 -0.413018 0
M  V30 6857 C 666.373 2.06274 0.160881 0
M  V30 6858 C 666.788 1.28273 1.38533 0
M  V30 6859 O 666.145 0.33563 1.79387 0
M  V30 6860 C 666.196 3.57921 0.507443 0
M  V30 6861 O 665.917 4.32971 -0.668388 0
M  V30 6862 C 667.418 4.28533 1.13465 0
M  V30 6863 H 664.638 0.67074 0.0186759 0
M  V30 6864 H 667.182 1.95951 -0.585092 0
M  V30 6865 H 665.337 3.68238 1.20331 0
M  V30 6866 H 665.751 5.23135 -0.378169 0
M  V30 6867 H 667.225 5.35804 1.32732 0
M  V30 6868 H 667.702 3.85258 2.10886 0
M  V30 6869 H 668.308 4.22595 0.478876 0
M  V30 6870 N 666.623 0.143563 1.56945 0
M  V30 6871 C 667.586 -0.783295 2.154 0
M  V30 6872 C 668.586 -1.17763 1.09492 0
M  V30 6873 O 669.776 -1.09912 1.35148 0
M  V30 6874 C 666.908 -2.06248 2.7143 0
M  V30 6875 H 668.101 -0.274863 2.98638 0
M  V30 6876 H 665.654 -0.105859 1.55941 0
M  V30 6877 H 666.389 -2.61466 1.91849 0
M  V30 6878 H 666.174 -1.78897 3.4891 0
M  V30 6879 H 667.664 -2.72453 3.16479 0
M  V30 6880 N 668.101 -1.57061 -0.130224 0
M  V30 6881 C 669.031 -2.02552 -1.16168 0
M  V30 6882 C 670.012 -0.907971 -1.4384 0
M  V30 6883 O 671.197 -1.17693 -1.54473 0
M  V30 6884 C 668.327 -2.42035 -2.49071 0
M  V30 6885 C 667.281 -3.5713 -2.35886 0
M  V30 6886 C 666.607 -3.82478 -3.7365 0
M  V30 6887 C 667.907 -4.89236 -1.8288 0
M  V30 6888 H 669.601 -2.8897 -0.783359 0
M  V30 6889 H 667.147 -1.39021 -0.375376 0
M  V30 6890 H 669.1 -2.72462 -3.21469 0
M  V30 6891 H 667.824 -1.52573 -2.88771 0
M  V30 6892 H 666.483 -3.26895 -1.65938 0
M  V30 6893 H 666.131 -2.9024 -4.10816 0
M  V30 6894 H 665.831 -4.59944 -3.65685 0
M  V30 6895 H 667.355 -4.15347 -4.47571 0
M  V30 6896 H 668.769 -5.18272 -2.45085 0
M  V30 6897 H 667.166 -5.70624 -1.85763 0
M  V30 6898 H 668.236 -4.78494 -0.785571 0
M  V30 6899 N 669.579 0.400081 -1.52437 0
M  V30 6900 C 670.804 1.17221 -1.71096 0
M  V30 6901 C 671.229 1.83269 -0.423565 0
M  V30 6902 O 670.587 1.70378 0.619751 0
M  V30 6903 C 670.635 2.20425 -2.85386 0
M  V30 6904 O 669.739 3.26769 -2.51586 0
M  V30 6905 H 669.08 0.341766 -0.569291 0
M  V30 6906 H 671.61 0.467772 -1.99181 0
M  V30 6907 H 671.62 2.64605 -3.10561 0
M  V30 6908 H 670.295 1.71737 -3.78786 0
M  V30 6909 H 668.872 2.87804 -2.37114 0
M  V30 6910 N 671.057 1.43213 0.657864 0
M  V30 6911 C 672.303 1.44798 1.41991 0
M  V30 6912 C 672.636 0.070256 1.94073 0
M  V30 6913 O 671.911 -0.908177 1.71995 0
M  V30 6914 C 672.194 2.4865 2.60471 0
M  V30 6915 C 672.047 3.95679 2.13911 0
M  V30 6916 C 673.366 2.49292 3.62686 0
M  V30 6917 H 670.485 0.527244 0.514959 0
M  V30 6918 H 673.127 1.74733 0.74621 0
M  V30 6919 H 671.277 2.23254 3.17946 0
M  V30 6920 H 672.949 4.32116 1.61472 0
M  V30 6921 H 671.192 4.08733 1.45325 0
M  V30 6922 H 671.863 4.6395 2.99089 0
M  V30 6923 H 674.339 2.71917 3.14961 0
M  V30 6924 H 673.215 3.23907 4.43143 0
M  V30 6925 H 673.476 1.52502 4.14964 0
M  V30 6926 N 672.536 -0.895792 1.29666 0
M  V30 6927 C 673.947 -1.46195 1.1612 0
M  V30 6928 C 674.298 -1.94699 -0.242195 0
M  V30 6929 O 673.423 -1.8406 -1.13802 0
M  V30 6930 C 674.018 -2.65718 2.10189 0
M  V30 6931 C 672.577 -3.18458 2.00653 0
M  V30 6932 C 671.724 -1.91149 2.00891 0
M  V30 6933 H 674.675 -0.706756 1.42094 0
M  V30 6934 H 674.696 -3.4158 1.6764 0
M  V30 6935 H 674.208 -2.30386 3.12321 0
M  V30 6936 H 672.309 -3.58474 1.01623 0
M  V30 6937 H 672.422 -3.82491 2.88509 0
M  V30 6938 H 670.786 -2.09021 1.45542 0
M  V30 6939 H 671.569 -1.58089 3.04734 0
M  V30 6940 N 674.014 -1.12206 -1.10668 0
M  V30 6941 C 674.944 -0.810086 -2.18997 0
M  V30 6942 C 675.925 0.225065 -1.68604 0
M  V30 6943 O 677.11 0.086783 -1.94006 0
M  V30 6944 C 674.24 -0.261262 -3.46316 0
M  V30 6945 C 673.194 -1.2292 -4.09969 0
M  V30 6946 C 672.52 -0.540713 -5.31959 0
M  V30 6947 C 673.82 -2.58295 -4.53962 0
M  V30 6948 H 675.514 -1.7159 -2.45352 0
M  V30 6949 H 673.06 -0.82646 -1.17922 0
M  V30 6950 H 675.013 -0.0307522 -4.21389 0
M  V30 6951 H 673.737 0.679879 -3.19445 0
M  V30 6952 H 672.396 -1.44548 -3.369 0
M  V30 6953 H 672.044 0.405492 -5.01363 0
M  V30 6954 H 671.744 -1.18637 -5.75499 0
M  V30 6955 H 673.268 -0.319184 -6.09765 0
M  V30 6956 H 674.682 -2.40709 -5.20319 0
M  V30 6957 H 673.079 -3.18916 -5.08343 0
M  V30 6958 H 674.149 -3.16918 -3.67002 0
M  V30 6959 N 675.492 1.28418 -0.913599 0
M  V30 6960 C 676.738 1.9527 -0.547484 0
M  V30 6961 C 677.071 1.71745 0.906486 0
M  V30 6962 O 676.346 1.03834 1.64465 0
M  V30 6963 C 676.629 3.49748 -0.857205 0
M  V30 6964 C 676.482 3.82675 -2.3639 0
M  V30 6965 C 677.801 4.3868 -0.353258 0
M  V30 6966 H 674.92 0.709236 -0.200381 0
M  V30 6967 H 677.562 1.51789 -1.14281 0
M  V30 6968 H 675.712 3.86915 -0.350548 0
M  V30 6969 H 677.384 3.55378 -2.94116 0
M  V30 6970 H 675.627 3.29724 -2.81894 0
M  V30 6971 H 676.298 4.90547 -2.53115 0
M  V30 6972 H 678.774 4.08584 -0.787288 0
M  V30 6973 H 677.65 5.45621 -0.599049 0
M  V30 6974 H 677.911 4.35753 0.746413 0
M  V30 6975 N 676.97 0.677563 1.42291 0
M  V30 6976 C 678.247 0.129803 1.95169 0
M  V30 6977 C 678.627 -1.35605 1.61786 0
M  V30 6978 O 677.975 -2.09361 0.915444 0
M  V30 6979 C 678.185 0.401889 3.46678 0
M  V30 6980 C 679.533 0.319889 4.23393 0
M  V30 6981 O 680.557 0.33579 3.54614 0
M  V30 6982 O 679.416 0.264459 5.4586 0
M  V30 6983 H 676.51 0.00447433 0.826988 0
M  V30 6984 H 679.056 0.752483 1.52105 0
M  V30 6985 H 677.828 1.43108 3.64192 0
M  V30 6986 H 677.451 -0.252662 3.96796 0
M  V30 6987 N 678.448 -1.51871 0.421078 0
M  V30 6988 C 679.859 -1.86644 -0.0457991 0
M  V30 6989 C 680.21 -1.33919 -1.43388 0
M  V30 6990 O 679.335 -0.683316 -2.05328 0
M  V30 6991 C 679.93 -3.38681 -0.0898844 0
M  V30 6992 C 678.489 -3.73049 -0.501127 0
M  V30 6993 C 677.636 -2.75485 0.316723 0
M  V30 6994 H 680.587 -1.45327 0.637635 0
M  V30 6995 H 680.608 -3.69636 -0.902734 0
M  V30 6996 H 680.12 -3.77025 0.920513 0
M  V30 6997 H 678.221 -3.40288 -1.51773 0
M  V30 6998 H 678.334 -4.78512 -0.237217 0
M  V30 6999 H 676.698 -2.53725 -0.222663 0
M  V30 7000 H 677.481 -3.16671 1.32569 0
M  V30 7001 N 679.926 -0.151884 -1.56866 0
M  V30 7002 C 681.154 0.504813 -2.00647 0
M  V30 7003 C 681.569 1.58098 -1.03201 0
M  V30 7004 O 680.926 1.82476 -0.0297814 0
M  V30 7005 C 680.977 1.10099 -3.44326 0
M  V30 7006 O 680.698 0.0678021 -4.38048 0
M  V30 7007 C 682.199 1.83782 -4.03409 0
M  V30 7008 H 679.419 0.130989 -0.65809 0
M  V30 7009 H 681.963 -0.247903 -2.02992 0
M  V30 7010 H 680.118 1.8043 -3.42817 0
M  V30 7011 H 680.532 0.505237 -5.22061 0
M  V30 7012 H 682.006 2.2078 -5.05925 0
M  V30 7013 H 682.483 2.72557 -3.44397 0
M  V30 7014 H 683.089 1.18138 -4.08563 0
M  V30 7015 N 681.404 1.57128 0.121893 0
M  V30 7016 C 682.681 1.75664 0.860327 0
M  V30 7017 C 683.061 0.726585 1.98202 0
M  V30 7018 O 682.409 -0.24999 2.27128 0
M  V30 7019 C 682.619 3.20571 1.37968 0
M  V30 7020 C 683.967 3.82988 1.83317 0
M  V30 7021 O 684.991 3.24156 1.47654 0
M  V30 7022 O 683.85 4.86393 2.49168 0
M  V30 7023 H 680.944 0.719153 0.408348 0
M  V30 7024 H 683.49 1.6937 0.105859 0
M  V30 7025 H 682.262 3.87056 0.57477 0
M  V30 7026 H 681.885 3.31392 2.19694 0
M  V30 7027 N 682.882 -0.391992 1.52647 0
M  V30 7028 C 684.128 -1.139 1.67793 0
M  V30 7029 C 684.461 -1.89711 0.41514 0
M  V30 7030 O 683.736 -1.85431 -0.586979 0
M  V30 7031 C 684.019 -2.11966 2.91105 0
M  V30 7032 C 683.872 -1.39939 4.27478 0
M  V30 7033 C 685.191 -3.1243 3.09961 0
M  V30 7034 H 682.31 -0.412707 0.610608 0
M  V30 7035 H 684.952 -0.422725 1.85238 0
M  V30 7036 H 683.102 -2.73048 2.76364 0
M  V30 7037 H 684.774 -0.818439 4.53982 0
M  V30 7038 H 683.017 -0.701246 4.28095 0
M  V30 7039 H 683.688 -2.1158 5.09841 0
M  V30 7040 H 686.164 -2.61435 3.23714 0
M  V30 7041 H 685.04 -3.78294 3.97725 0
M  V30 7042 H 685.301 -3.81127 2.24042 0
M  V30 7043 N 684.36 -1.4356 -0.65026 0
M  V30 7044 C 685.323 -1.48615 -1.74489 0
M  V30 7045 C 686.323 -0.370483 -1.56474 0
M  V30 7046 O 687.513 -0.632351 -1.62317 0
M  V30 7047 C 684.645 -1.34161 -3.13391 0
M  V30 7048 H 685.838 -2.46103 -1.71387 0
M  V30 7049 H 683.391 -1.30369 -0.862186 0
M  V30 7050 H 684.126 -0.376918 -3.22102 0
M  V30 7051 H 683.911 -2.1504 -3.27872 0
M  V30 7052 H 685.401 -1.40637 -3.93206 0
M  V30 7053 N 685.838 0.888903 -1.30139 0
M  V30 7054 C 686.801 1.97576 -1.16174 0
M  V30 7055 C 687.801 1.60525 -0.094086 0
M  V30 7056 O 688.991 1.70812 -0.341889 0
M  V30 7057 C 686.123 3.3188 -0.778983 0
M  V30 7058 H 687.316 2.11393 -2.12728 0
M  V30 7059 H 684.869 1.0748 -1.1348 0
M  V30 7060 H 685.604 3.23765 0.186225 0
M  V30 7061 H 685.389 3.60141 -1.55051 0
M  V30 7062 H 686.879 4.11612 -0.704631 0
M  V30 7063 N 687.317 1.12792 1.10072 0
M  V30 7064 C 688.542 0.908838 1.86427 0
M  V30 7065 C 688.967 -0.536793 1.80278 0
M  V30 7066 O 688.325 -1.38033 1.17543 0
M  V30 7067 C 688.373 1.39295 3.3261 0
M  V30 7068 O 687.477 0.573846 4.08388 0
M  V30 7069 H 686.818 0.326234 0.578331 0
M  V30 7070 H 689.348 1.50094 1.39043 0
M  V30 7071 H 689.358 1.39366 3.83459 0
M  V30 7072 H 688.033 2.44555 3.36401 0
M  V30 7073 H 686.61 0.640438 3.67359 0
M  V30 7074 N 688.795 -1.27931 0.920396 0
M  V30 7075 C 690.041 -1.94977 0.557832 0
M  V30 7076 C 690.374 -1.72224 -0.897365 0
M  V30 7077 O 689.649 -1.04705 -1.63912 0
M  V30 7078 C 689.932 -3.49289 0.875741 0
M  V30 7079 C 689.785 -3.81416 2.38416 0
M  V30 7080 C 691.104 -4.38486 0.376517 0
M  V30 7081 H 688.223 -0.708164 0.20414 0
M  V30 7082 H 690.865 -1.5118 1.15085 0
M  V30 7083 H 689.015 -3.86724 0.371062 0
M  V30 7084 H 690.687 -3.53813 2.95997 0
M  V30 7085 H 688.93 -3.28225 2.83639 0
M  V30 7086 H 689.601 -4.89198 2.55713 0
M  V30 7087 H 692.077 -4.08161 0.808945 0
M  V30 7088 H 690.953 -5.45296 0.627976 0
M  V30 7089 H 691.214 -4.36143 -0.723293 0
M  V30 7090 N 690.273 -0.685099 -1.4193 0
M  V30 7091 C 691.203 -0.0273506 -2.33484 0
M  V30 7092 C 692.184 0.778366 -1.51246 0
M  V30 7093 O 693.369 0.733449 -1.79817 0
M  V30 7094 C 690.499 0.917272 -3.34968 0
M  V30 7095 C 689.453 0.21941 -4.27437 0
M  V30 7096 C 688.779 1.27768 -5.1921 0
M  V30 7097 C 690.079 -0.907894 -5.14349 0
M  V30 7098 H 691.773 -0.791994 -2.88735 0
M  V30 7099 H 689.319 -0.382308 -1.38832 0
M  V30 7100 H 691.272 1.38657 -3.97935 0
M  V30 7101 H 689.996 1.71346 -2.78043 0
M  V30 7102 H 688.655 -0.229757 -3.65879 0
M  V30 7103 H 688.303 2.06612 -4.58607 0
M  V30 7104 H 688.003 0.815803 -5.81909 0
M  V30 7105 H 689.527 1.7477 -5.85054 0
M  V30 7106 H 690.941 -0.519348 -5.70943 0
M  V30 7107 H 689.338 -1.2962 -5.85934 0
M  V30 7108 H 690.408 -1.75218 -4.52136 0
M  V30 7109 N 691.751 1.51645 -0.429126 0
M  V30 7110 C 692.683 2.25279 0.422124 0
M  V30 7111 C 693.696 1.28986 0.993299 0
M  V30 7112 O 694.885 1.54797 0.888836 0
M  V30 7113 C 691.985 2.98666 1.60162 0
M  V30 7114 C 691.158 4.2199 1.15078 0
M  V30 7115 C 690.217 4.78028 2.19946 0
M  V30 7116 O 689.243 5.40084 1.79716 0
M  V30 7117 N 690.445 4.61342 3.5234 0
M  V30 7118 H 693.21 2.98971 -0.208931 0
M  V30 7119 H 690.771 1.59838 -0.257568 0
M  V30 7120 H 692.763 3.33044 2.29922 0
M  V30 7121 H 691.333 2.28036 2.13818 0
M  V30 7122 H 690.553 3.932 0.280552 0
M  V30 7123 H 691.841 5.02037 0.826831 0
M  V30 7124 H 691.239 4.11894 3.87763 0
M  V30 7125 H 689.796 5.00104 4.18019 0
M  V30 7126 N 693.229 0.160201 1.56784 0
M  V30 7127 C 694.192 -0.760405 2.16219 0
M  V30 7128 C 695.192 -1.16595 1.10735 0
M  V30 7129 O 696.382 -1.08472 1.36306 0
M  V30 7130 C 693.514 -2.03358 2.73603 0
M  V30 7131 H 694.707 -0.243173 2.98912 0
M  V30 7132 H 692.26 -0.0893139 1.56045 0
M  V30 7133 H 692.995 -2.59416 1.94612 0
M  V30 7134 H 692.78 -1.75186 3.50788 0
M  V30 7135 H 694.27 -2.69081 3.19351 0
M  V30 7136 N 694.707 -1.5719 -0.113559 0
M  V30 7137 C 695.935 -1.89328 -0.834422 0
M  V30 7138 C 696.35 -0.752018 -1.73177 0
M  V30 7139 O 695.707 0.276912 -1.80387 0
M  V30 7140 C 695.758 -3.20962 -1.66329 0
M  V30 7141 O 695.479 -4.30695 -0.802069 0
M  V30 7142 C 696.98 -3.6684 -2.48884 0
M  V30 7143 H 694.2 -0.626769 -0.239587 0
M  V30 7144 H 696.744 -2.04273 -0.0963195 0
M  V30 7145 H 694.899 -3.0767 -2.35409 0
M  V30 7146 H 695.313 -5.06175 -1.37431 0
M  V30 7147 H 696.787 -4.61692 -3.02563 0
M  V30 7148 H 697.264 -2.93765 -3.26495 0
M  V30 7149 H 697.87 -3.82938 -1.85036 0
M  V30 7150 N 696.185 0.383891 -1.52853 0
M  V30 7151 C 697.431 1.13009 -1.68395 0
M  V30 7152 C 697.764 1.89488 -0.425195 0
M  V30 7153 O 697.039 1.8574 0.577136 0
M  V30 7154 C 697.322 2.10419 -2.92226 0
M  V30 7155 C 697.175 1.3767 -4.28214 0
M  V30 7156 C 698.494 3.10781 -3.11614 0
M  V30 7157 H 695.613 0.409463 -0.612788 0
M  V30 7158 H 698.255 0.412895 -1.85459 0
M  V30 7159 H 696.405 2.71579 -2.77808 0
M  V30 7160 H 698.077 0.794352 -4.54409 0
M  V30 7161 H 696.32 0.678533 -4.2846 0
M  V30 7162 H 696.991 2.08874 -5.10956 0
M  V30 7163 H 699.467 2.59715 -3.25096 0
M  V30 7164 H 698.343 3.76179 -3.99725 0
M  V30 7165 H 698.604 3.79933 -2.2606 0
M  V30 7166 N 697.663 1.43903 0.642637 0
M  V30 7167 C 698.593 1.52697 1.76652 0
M  V30 7168 C 699.574 0.380816 1.65782 0
M  V30 7169 O 700.759 0.599432 1.84717 0
M  V30 7170 C 697.889 1.45975 3.15133 0
M  V30 7171 C 696.843 2.58949 3.40778 0
M  V30 7172 C 696.169 2.37279 4.79169 0
M  V30 7173 C 697.469 4.01153 3.34475 0
M  V30 7174 H 699.163 2.46766 1.69549 0
M  V30 7175 H 696.709 1.18767 0.814279 0
M  V30 7176 H 698.662 1.5073 3.93521 0
M  V30 7177 H 697.386 0.484162 3.22991 0
M  V30 7178 H 696.045 2.53564 2.64765 0
M  V30 7179 H 695.693 1.37939 4.83717 0
M  V30 7180 H 695.393 3.13016 4.97287 0
M  V30 7181 H 696.917 2.43834 5.59801 0
M  V30 7182 H 698.331 4.07968 4.02784 0
M  V30 7183 H 696.728 4.77001 3.64129 0
M  V30 7184 H 697.798 4.25539 2.32475 0
M  V30 7185 N 699.141 -0.881989 1.30609 0
M  V30 7186 C 700.366 -1.67236 1.22665 0
M  V30 7187 C 700.791 -1.8696 -0.206777 0
M  V30 7188 O 700.149 -1.4027 -1.14865 0
M  V30 7189 C 700.197 -3.02446 1.96363 0
M  V30 7190 O 699.301 -3.91614 1.29276 0
M  V30 7191 H 698.642 -0.510902 0.424117 0
M  V30 7192 H 701.172 -1.10055 1.72479 0
M  V30 7193 H 701.182 -3.52468 2.055 0
M  V30 7194 H 699.857 -2.8741 3.00613 0
M  V30 7195 H 698.434 -3.50055 1.28514 0
M  V30 7196 N 700.619 -1.13374 -1.09472 0
M  V30 7197 C 701.551 -0.768466 -2.15933 0
M  V30 7198 C 702.564 0.209585 -1.61445 0
M  V30 7199 O 703.753 -0.010539 -1.78497 0
M  V30 7200 C 700.853 -0.118266 -3.38694 0
M  V30 7201 C 700.026 -1.12829 -4.22597 0
M  V30 7202 C 699.085 -0.503875 -5.23782 0
M  V30 7203 O 698.111 -1.16374 -5.57177 0
M  V30 7204 N 699.313 0.724288 -5.75964 0
M  V30 7205 H 702.078 -1.68457 -2.47876 0
M  V30 7206 H 699.639 -1.02668 -1.25183 0
M  V30 7207 H 701.631 0.311698 -4.03498 0
M  V30 7208 H 700.201 0.700769 -3.04644 0
M  V30 7209 H 699.421 -1.73556 -3.53938 0
M  V30 7210 H 700.709 -1.81095 -4.75481 0
M  V30 7211 H 700.107 1.27918 -5.51048 0
M  V30 7212 H 698.664 1.09692 -6.42504 0
M  V30 7213 N 702.098 1.27442 -0.927168 0
M  V30 7214 C 703.509 1.76385 -0.611979 0
M  V30 7215 C 703.86 1.75715 0.872853 0
M  V30 7216 O 702.985 1.3603 1.683 0
M  V30 7217 C 703.58 3.20303 -1.10414 0
M  V30 7218 C 702.139 3.66916 -0.839628 0
M  V30 7219 C 701.286 2.46859 -1.26317 0
M  V30 7220 H 704.237 1.13716 -1.107 0
M  V30 7221 H 704.258 3.77811 -0.451578 0
M  V30 7222 H 703.77 3.20759 -2.18484 0
M  V30 7223 H 701.871 3.71906 0.227292 0
M  V30 7224 H 701.984 4.56415 -1.45679 0
M  V30 7225 H 700.348 2.45407 -0.681723 0
M  V30 7226 H 701.131 2.50025 -2.3525 0
M  V30 7227 N 703.576 0.692616 1.41565 0
M  V30 7228 C 704.822 0.222664 2.01574 0
M  V30 7229 C 705.155 -1.1737 1.54719 0
M  V30 7230 O 704.43 -1.79161 0.757084 0
M  V30 7231 C 704.713 0.277064 3.59033 0
M  V30 7232 C 704.566 1.71016 4.16021 0
M  V30 7233 C 705.885 -0.36479 4.38586 0
M  V30 7234 H 703.004 0.0823839 0.732381 0
M  V30 7235 H 705.646 0.880778 1.68352 0
M  V30 7236 H 703.796 -0.283288 3.87466 0
M  V30 7237 H 705.468 2.32413 3.98475 0
M  V30 7238 H 703.711 2.24525 3.71175 0
M  V30 7239 H 704.382 1.69978 5.25178 0
M  V30 7240 H 706.858 0.112404 4.15948 0
M  V30 7241 H 705.734 -0.296169 5.481 0
M  V30 7242 H 705.995 -1.44506 4.17816 0
M  V30 7243 N 705.054 -1.51416 0.437162 0
M  V30 7244 C 705.986 -2.255 -0.410171 0
M  V30 7245 C 706.999 -1.29511 -0.986444 0
M  V30 7246 O 708.188 -1.55266 -0.880614 0
M  V30 7247 C 705.288 -2.99511 -1.58575 0
M  V30 7248 C 704.461 -4.22595 -1.12839 0
M  V30 7249 C 703.52 -4.79187 -2.17407 0
M  V30 7250 O 702.546 -5.4103 -1.76849 0
M  V30 7251 N 703.748 -4.63204 -3.49889 0
M  V30 7252 H 706.513 -2.98856 0.224783 0
M  V30 7253 H 704.074 -1.59699 0.266041 0
M  V30 7254 H 706.066 -3.34258 -2.28152 0
M  V30 7255 H 704.636 -2.29167 -2.12606 0
M  V30 7256 H 703.856 -3.93344 -0.259695 0
M  V30 7257 H 705.144 -5.02468 -0.800196 0
M  V30 7258 H 704.542 -4.13945 -3.85573 0
M  V30 7259 H 703.099 -5.02313 -4.15361 0
M  V30 7260 N 706.532 -0.168513 -1.56696 0
M  V30 7261 C 707.76 0.483503 -2.01171 0
M  V30 7262 C 708.175 1.56994 -1.04872 0
M  V30 7263 O 707.532 1.82434 -0.0491337 0
M  V30 7264 C 707.583 1.0644 -3.45475 0
M  V30 7265 O 707.304 0.0213375 -4.38095 0
M  V30 7266 C 708.805 1.79493 -4.05336 0
M  V30 7267 H 706.025 0.124002 -0.659443 0
M  V30 7268 H 708.569 -0.269419 -2.02717 0
M  V30 7269 H 706.724 1.76784 -3.44712 0
M  V30 7270 H 707.138 0.449837 -5.22567 0
M  V30 7271 H 708.612 2.15401 -5.08238 0
M  V30 7272 H 709.089 2.68889 -3.47269 0
M  V30 7273 H 709.695 1.13798 -4.09793 0
M  V30 7274 N 708.01 1.57248 0.105221 0
M  V30 7275 C 708.94 2.04374 1.12931 0
M  V30 7276 C 709.921 0.93074 1.42377 0
M  V30 7277 O 711.106 1.20136 1.52581 0
M  V30 7278 C 708.236 2.45967 2.45189 0
M  V30 7279 C 707.19 3.60838 2.30174 0
M  V30 7280 C 706.516 3.88374 3.67518 0
M  V30 7281 C 707.816 4.92084 1.75073 0
M  V30 7282 H 709.51 2.9018 0.737287 0
M  V30 7283 H 707.056 1.39601 0.353211 0
M  V30 7284 H 709.009 2.77542 3.17094 0
M  V30 7285 H 707.733 1.57148 2.86308 0
M  V30 7286 H 706.392 3.29493 1.60716 0
M  V30 7287 H 706.04 2.96739 4.06147 0
M  V30 7288 H 705.74 4.65703 3.58321 0
M  V30 7289 H 707.264 4.22415 4.40906 0
M  V30 7290 H 708.678 5.22106 2.36809 0
M  V30 7291 H 707.075 5.73507 1.76662 0
M  V30 7292 H 708.145 4.79684 0.709347 0
M  V30 7293 N 709.488 -0.375779 1.53054 0
M  V30 7294 C 710.765 -1.13453 1.59336 0
M  V30 7295 C 711.145 -2.07379 0.394614 0
M  V30 7296 O 710.493 -2.2004 -0.616 0
M  V30 7297 C 710.703 -1.8826 2.93869 0
M  V30 7298 C 712.051 -2.43155 3.48081 0
M  V30 7299 O 713.075 -1.984 2.95831 0
M  V30 7300 O 711.934 -3.24944 4.39401 0
M  V30 7301 H 709.028 -0.519856 0.643179 0
M  V30 7302 H 711.574 -0.379865 1.65394 0
M  V30 7303 H 710.346 -1.19652 3.72558 0
M  V30 7304 H 709.969 -2.70658 2.91256 0
M  V30 7305 N 710.966 -1.44241 -0.634997 0
M  V30 7306 C 712.191 -1.50516 -1.42687 0
M  V30 7307 C 712.616 -0.129864 -1.87651 0
M  V30 7308 O 711.974 0.880164 -1.58502 0
M  V30 7309 C 712.022 -2.4714 -2.62591 0
M  V30 7310 O 711.126 -1.97025 -3.62291 0
M  V30 7311 H 710.467 -0.50841 -0.427101 0
M  V30 7312 H 712.997 -1.89337 -0.775408 0
M  V30 7313 H 713.007 -2.65048 -3.10183 0
M  V30 7314 H 711.682 -3.47039 -2.29209 0
M  V30 7315 H 710.259 -1.88866 -3.21534 0
M  V30 7316 N 712.444 0.87505 -1.31075 0
M  V30 7317 C 713.374 1.99775 -1.20881 0
M  V30 7318 C 714.355 1.69822 -0.0971612 0
M  V30 7319 O 715.54 1.92158 -0.280895 0
M  V30 7320 C 712.67 3.35163 -0.910118 0
M  V30 7321 C 711.624 3.79406 -1.98078 0
M  V30 7322 C 710.95 5.12197 -1.53488 0
M  V30 7323 C 712.25 3.97061 -3.39323 0
M  V30 7324 H 713.944 2.08562 -2.14808 0
M  V30 7325 H 711.49 1.00207 -1.03415 0
M  V30 7326 H 713.443 4.13237 -0.825423 0
M  V30 7327 H 712.167 3.26536 0.064822 0
M  V30 7328 H 710.826 3.03568 -2.05528 0
M  V30 7329 H 710.474 5.00007 -0.547941 0
M  V30 7330 H 710.174 5.4277 -2.2511 0
M  V30 7331 H 711.698 5.92785 -1.46417 0
M  V30 7332 H 713.112 4.65545 -3.34576 0
M  V30 7333 H 711.509 4.39025 -4.09118 0
M  V30 7334 H 712.579 3.00601 -3.80483 0
M  V30 7335 N 713.922 1.13953 1.08869 0
M  V30 7336 C 715.338 0.878924 1.33218 0
M  V30 7337 C 715.538 -0.482478 1.95638 0
M  V30 7338 O 714.594 -1.22778 2.2064 0
M  V30 7339 C 715.907 2.00798 2.23832 0
M  V30 7340 C 717.455 2.04073 2.37325 0
M  V30 7341 C 717.93 3.16258 3.31278 0
M  V30 7342 N 719.421 3.15805 3.38853 0
M  V30 7343 C 720.156 3.99249 4.11567 0
M  V30 7344 N 719.652 4.92721 4.87029 0
M  V30 7345 N 721.445 3.87327 4.0735 0
M  V30 7346 H 713.596 2.01645 0.66731 0
M  V30 7347 H 715.859 0.878395 0.356547 0
M  V30 7348 H 715.565 2.98986 1.85203 0
M  V30 7349 H 715.439 1.92704 3.24261 0
M  V30 7350 H 717.826 1.06495 2.75214 0
M  V30 7351 H 717.907 2.16239 1.36654 0
M  V30 7352 H 717.551 4.14079 2.9411 0
M  V30 7353 H 717.481 3.0133 4.31866 0
M  V30 7354 H 719.972 2.48102 2.8505 0
M  V30 7355 H 720.285 5.52867 5.39961 0
M  V30 7356 H 718.63 4.96723 4.86098 0
M  V30 7357 H 721.821 3.13627 3.475 0
M  V30 7358 H 721.994 4.52585 4.63757 0
M  V30 7359 N 715.4 -1.26948 0.933913 0
M  V30 7360 C 716.363 -2.24889 0.442457 0
M  V30 7361 C 717.363 -1.54594 -0.442426 0
M  V30 7362 O 718.553 -1.72502 -0.242629 0
M  V30 7363 C 715.685 -3.3896 -0.363173 0
M  V30 7364 H 716.878 -2.69879 1.30787 0
M  V30 7365 H 714.431 -1.38978 0.715187 0
M  V30 7366 H 715.166 -2.99361 -1.24714 0
M  V30 7367 H 714.951 -3.9116 0.271366 0
M  V30 7368 H 716.441 -4.11739 -0.697186 0
M  V30 7369 N 716.879 -0.700114 -1.41195 0
M  V30 7370 C 717.842 -0.0465706 -2.29153 0
M  V30 7371 C 718.842 0.703302 -1.44604 0
M  V30 7372 O 720.032 0.537513 -1.657 0
M  V30 7373 C 717.164 0.944324 -3.2756 0
M  V30 7374 H 718.357 -0.821064 -2.88442 0
M  V30 7375 H 715.91 -0.463869 -1.49258 0
M  V30 7376 H 716.645 1.74642 -2.73259 0
M  V30 7377 H 716.43 0.409701 -3.89954 0
M  V30 7378 H 717.92 1.39925 -3.9346 0
M  V30 7379 N 718.357 1.51182 -0.445186 0
M  V30 7380 C 719.773 1.59299 -0.0978954 0
M  V30 7381 C 719.973 1.4555 1.39346 0
M  V30 7382 O 719.029 1.30073 2.16419 0
M  V30 7383 C 720.342 2.94133 -0.625005 0
M  V30 7384 C 721.89 3.07463 -0.586137 0
M  V30 7385 C 722.365 4.44832 -1.09035 0
M  V30 7386 N 723.856 4.51173 -1.04867 0
M  V30 7387 C 724.591 5.55804 -1.40959 0
M  V30 7388 N 724.087 6.67816 -1.84375 0
M  V30 7389 N 725.88 5.46205 -1.32726 0
M  V30 7390 H 718.031 1.58363 -1.41544 0
M  V30 7391 H 720.294 0.746946 -0.58376 0
M  V30 7392 H 720 3.09589 -1.66876 0
M  V30 7393 H 719.874 3.77161 -0.0542262 0
M  V30 7394 H 722.261 2.9167 0.448646 0
M  V30 7395 H 722.342 2.26255 -1.19341 0
M  V30 7396 H 721.986 4.61372 -2.12364 0
M  V30 7397 H 721.916 5.24591 -0.459539 0
M  V30 7398 H 724.407 3.70783 -0.729932 0
M  V30 7399 H 724.72 7.43683 -2.10131 0
M  V30 7400 H 723.065 6.69003 -1.88308 0
M  V30 7401 H 726.256 4.57583 -0.986678 0
M  V30 7402 H 726.429 6.27634 -1.61182 0
M  V30 7403 N 719.835 0.176821 1.56605 0
M  V30 7404 C 720.785 -0.763718 2.14829 0
M  V30 7405 C 721.769 -1.18903 1.08401 0
M  V30 7406 O 722.961 -1.15048 1.3451 0
M  V30 7407 C 720.09 -1.99069 2.7969 0
M  V30 7408 C 719.176 -1.58711 3.93283 0
M  V30 7409 N 719.567 -0.893423 4.97847 0
M  V30 7410 C 717.865 -1.87774 4.04545 0
M  V30 7411 C 718.566 -0.693866 5.77547 0
M  V30 7412 N 717.542 -1.23699 5.29339 0
M  V30 7413 H 721.344 -0.224811 2.93039 0
M  V30 7414 H 718.858 -0.0236563 1.62383 0
M  V30 7415 H 720.855 -2.67478 3.19783 0
M  V30 7416 H 719.515 -2.53449 2.02962 0
M  V30 7417 H 720.526 -0.550868 5.14962 0
M  V30 7418 H 717.203 -2.43793 3.38927 0
M  V30 7419 H 718.593 -0.144899 6.71744 0
M  V30 7420 N 721.313 -1.57302 -0.09688 0
M  V30 7421 C 722.561 -1.8563 -0.799117 0
M  V30 7422 C 722.882 -0.765263 -1.79356 0
M  V30 7423 O 722.152 0.208657 -1.94786 0
M  V30 7424 H 720.732 -0.684937 -0.298111 0
M  V30 7425 H 723.394 -1.9474 -0.0789341 0
M  V30 7426 H 722.49 -2.82305 -1.3308 0
M  V30 7427 N 722.791 0.367657 -1.53252 0
M  V30 7428 C 723.754 1.43308 -1.78873 0
M  V30 7429 C 724.754 1.46671 -0.659115 0
M  V30 7430 O 725.944 1.47468 -0.927306 0
M  V30 7431 C 723.076 2.82442 -1.90892 0
M  V30 7432 H 724.269 1.21864 -2.74024 0
M  V30 7433 H 721.822 0.600668 -1.44297 0
M  V30 7434 H 722.557 3.09202 -0.978 0
M  V30 7435 H 722.342 2.81399 -2.73051 0
M  V30 7436 H 723.832 3.59601 -2.12314 0
M  V30 7437 N 724.269 1.44576 0.627338 0
M  V30 7438 C 725.199 1.54562 1.75022 0
M  V30 7439 C 726.18 0.398378 1.65369 0
M  V30 7440 O 727.365 0.61899 1.84071 0
M  V30 7441 C 724.495 1.49309 3.13567 0
M  V30 7442 C 723.449 2.62549 3.38012 0
M  V30 7443 C 722.775 2.42348 4.76625 0
M  V30 7444 C 724.075 4.04678 3.30202 0
M  V30 7445 H 725.769 2.4855 1.66922 0
M  V30 7446 H 723.315 1.19624 0.801636 0
M  V30 7447 H 725.268 1.54895 3.919 0
M  V30 7448 H 723.992 0.518392 3.2246 0
M  V30 7449 H 722.651 2.56358 2.62061 0
M  V30 7450 H 722.299 1.43062 4.82226 0
M  V30 7451 H 721.999 3.18273 4.93939 0
M  V30 7452 H 723.523 2.49758 5.57183 0
M  V30 7453 H 724.937 4.12217 3.98435 0
M  V30 7454 H 723.334 4.80836 3.5905 0
M  V30 7455 H 724.404 4.2798 2.27949 0
M  V30 7456 N 725.747 -0.868086 1.31537 0
M  V30 7457 C 727.024 -1.60384 1.11965 0
M  V30 7458 C 727.404 -2.08584 -0.324949 0
M  V30 7459 O 726.752 -1.86561 -1.31937 0
M  V30 7460 C 726.962 -2.76038 2.13551 0
M  V30 7461 C 728.31 -3.45954 2.46173 0
M  V30 7462 O 729.334 -2.86247 2.11993 0
M  V30 7463 O 728.193 -4.53666 3.04711 0
M  V30 7464 H 725.287 -0.705705 0.431172 0
M  V30 7465 H 727.833 -0.913385 1.43022 0
M  V30 7466 H 726.605 -2.37849 3.10714 0
M  V30 7467 H 726.228 -3.52769 1.83411 0
M  V30 7468 N 727.225 -1.14528 -1.08264 0
M  V30 7469 C 728.188 -0.83632 -2.13397 0
M  V30 7470 C 729.188 0.159715 -1.60005 0
M  V30 7471 O 730.378 -0.0688098 -1.74064 0
M  V30 7472 C 727.51 -0.246973 -3.40004 0
M  V30 7473 H 728.703 -1.76808 -2.42237 0
M  V30 7474 H 726.256 -0.951509 -1.24 0
M  V30 7475 H 726.991 0.693436 -3.168 0
M  V30 7476 H 726.776 -0.964412 -3.80055 0
M  V30 7477 H 728.266 -0.0480679 -4.17572 0
M  V30 7478 N 728.703 1.26451 -0.940633 0
M  V30 7479 C 729.98 1.88947 -0.505811 0
M  V30 7480 C 730.36 1.85011 1.01657 0
M  V30 7481 O 729.708 1.30406 1.87634 0
M  V30 7482 C 729.918 3.32304 -1.06654 0
M  V30 7483 C 731.266 4.09153 -1.13486 0
M  V30 7484 O 732.29 3.41371 -1.01708 0
M  V30 7485 O 731.149 5.30369 -1.31797 0
M  V30 7486 H 728.243 0.810422 -0.164759 0
M  V30 7487 H 730.789 1.34625 -1.03316 0
M  V30 7488 H 729.561 3.29527 -2.11015 0
M  V30 7489 H 729.184 3.94164 -0.521603 0
M  V30 7490 N 730.181 0.707592 1.40822 0
M  V30 7491 C 731.429 0.243189 2.00632 0
M  V30 7492 C 731.75 -1.16512 1.56365 0
M  V30 7493 O 731.02 -1.78841 0.799553 0
M  V30 7494 H 729.6 0.0869203 0.741926 0
M  V30 7495 H 732.262 0.911438 1.72275 0
M  V30 7496 H 731.358 0.270014 3.1093 0
M  V30 7497 N 731.66 -1.50943 0.453197 0
M  V30 7498 C 732.906 -2.02512 -0.108082 0
M  V30 7499 C 733.239 -1.33574 -1.40967 0
M  V30 7500 O 732.514 -0.455671 -1.89087 0
M  V30 7501 C 732.797 -3.58759 -0.310453 0
M  V30 7502 C 732.65 -4.38293 1.0109 0
M  V30 7503 C 733.969 -4.26816 -1.07313 0
M  V30 7504 H 731.088 -0.73603 -0.0378064 0
M  V30 7505 H 733.73 -1.80433 0.595295 0
M  V30 7506 H 731.88 -3.77702 -0.909582 0
M  V30 7507 H 733.552 -4.30964 1.64523 0
M  V30 7508 H 731.795 -4.02745 1.61179 0
M  V30 7509 H 732.466 -5.45828 0.82315 0
M  V30 7510 H 734.942 -4.1224 -0.565473 0
M  V30 7511 H 733.818 -5.35989 -1.1835 0
M  V30 7512 H 734.079 -3.88757 -2.10525 0
M  V30 7513 N 733.138 -0.185124 -1.56509 0
M  V30 7514 C 734.415 0.503348 -1.89013 0
M  V30 7515 C 734.795 1.80349 -1.09715 0
M  V30 7516 O 734.143 2.27665 -0.195203 0
M  V30 7517 C 734.353 0.731839 -3.41241 0
M  V30 7518 C 735.701 1.05568 -4.11267 0
M  V30 7519 O 736.725 0.819906 -3.46635 0
M  V30 7520 O 735.584 1.50116 -5.25478 0
M  V30 7521 H 732.678 0.261139 -0.784688 0
M  V30 7522 H 735.224 -0.224592 -1.68207 0
M  V30 7523 H 733.996 -0.18672 -3.90854 0
M  V30 7524 H 733.619 1.5126 -3.67704 0
M  V30 7525 N 734.616 1.57351 0.0885366 0
M  V30 7526 C 735.863 1.86419 0.790824 0
M  V30 7527 C 736.191 0.774561 1.78412 0
M  V30 7528 O 735.446 -0.23119 1.9433 0
M  V30 7529 C 735.745 3.22098 1.5488 0
M  V30 7530 C 735.411 4.4548 0.697025 0
M  V30 7531 C 734.073 4.78975 0.462237 0
M  V30 7532 C 736.425 5.21094 0.105315 0
M  V30 7533 C 733.753 5.85507 -0.374016 0
M  V30 7534 C 736.105 6.28509 -0.718298 0
M  V30 7535 C 734.769 6.60515 -0.963116 0
M  V30 7536 H 734.039 0.682157 0.289383 0
M  V30 7537 H 736.686 1.91429 0.0520961 0
M  V30 7538 H 734.991 3.12803 2.35927 0
M  V30 7539 H 736.688 3.41819 2.09669 0
M  V30 7540 H 733.278 4.19255 0.890137 0
M  V30 7541 H 737.462 4.95544 0.273856 0
M  V30 7542 H 732.718 6.08713 -0.572606 0
M  V30 7543 H 736.892 6.86268 -1.18362 0
M  V30 7544 H 734.519 7.42893 -1.6129 0
M  V30 7545 N 736.094 -0.359525 1.53444 0
M  V30 7546 C 737.319 -1.12644 1.74144 0
M  V30 7547 C 737.744 -1.82082 0.472007 0
M  V30 7548 O 737.102 -1.71962 -0.57436 0
M  V30 7549 C 737.15 -2.12781 2.9113 0
M  V30 7550 O 736.254 -3.19984 2.60162 0
M  V30 7551 H 735.595 -0.326553 0.578152 0
M  V30 7552 H 738.125 -0.414798 2.00351 0
M  V30 7553 H 738.135 -2.56278 3.17467 0
M  V30 7554 H 736.81 -1.61634 3.83207 0
M  V30 7555 H 735.387 -2.81417 2.44661 0
M  V30 7556 N 737.572 -1.44907 -0.619662 0
M  V30 7557 C 738.482 -1.55168 -1.75955 0
M  V30 7558 C 739.498 -0.43672 -1.6843 0
M  V30 7559 O 740.674 -0.695704 -1.89002 0
M  V30 7560 C 737.739 -1.50397 -3.12381 0
M  V30 7561 C 736.8 -2.72835 -3.31451 0
M  V30 7562 C 736.033 -2.68283 -4.61368 0
M  V30 7563 O 736.256 -1.74929 -5.42914 0
M  V30 7564 O 735.19 -3.59308 -4.82889 0
M  V30 7565 H 739.016 -2.51493 -1.7025 0
M  V30 7566 H 736.601 -1.27282 -0.782289 0
M  V30 7567 H 738.483 -1.50301 -3.93685 0
M  V30 7568 H 737.158 -0.572197 -3.18603 0
M  V30 7569 H 736.065 -2.78496 -2.49781 0
M  V30 7570 H 737.398 -3.65098 -3.30098 0
M  V30 7571 N 739.05 0.861098 -1.31996 0
M  V30 7572 C 740.275 1.65264 -1.2531 0
M  V30 7573 C 740.7 1.87265 0.177007 0
M  V30 7574 O 740.058 1.4208 1.12619 0
M  V30 7575 C 740.106 2.99284 -2.0115 0
M  V30 7576 O 739.21 3.89508 -1.3549 0
M  V30 7577 H 738.551 0.50409 -0.432192 0
M  V30 7578 H 741.081 1.07297 -1.74208 0
M  V30 7579 H 741.091 3.49154 -2.11081 0
M  V30 7580 H 739.766 2.82591 -3.05148 0
M  V30 7581 H 738.343 3.47966 -1.34066 0
M  V30 7582 N 740.528 1.15101 1.07655 0
M  V30 7583 C 741.774 0.925343 1.80458 0
M  V30 7584 C 742.107 -0.546354 1.86356 0
M  V30 7585 O 741.382 -1.40496 1.34503 0
M  V30 7586 C 741.665 1.53646 3.25676 0
M  V30 7587 C 741.518 3.07854 3.27942 0
M  V30 7588 C 742.837 1.21968 4.22861 0
M  V30 7589 H 739.956 0.337592 0.655134 0
M  V30 7590 H 742.598 1.42217 1.25993 0
M  V30 7591 H 740.748 1.11395 3.72187 0
M  V30 7592 H 742.42 3.58989 2.89697 0
M  V30 7593 H 740.663 3.41904 2.66991 0
M  V30 7594 H 741.334 3.45725 4.30324 0
M  V30 7595 H 743.81 1.5851 3.84726 0
M  V30 7596 H 742.686 1.67349 5.22767 0
M  V30 7597 H 742.947 0.136207 4.4189 0
M  V30 7598 N 742.006 -1.2595 0.947325 0
M  V30 7599 C 742.916 -2.29883 0.468079 0
M  V30 7600 C 743.932 -1.67783 -0.460975 0
M  V30 7601 O 745.108 -1.98526 -0.339006 0
M  V30 7602 C 742.173 -3.45773 -0.253315 0
M  V30 7603 C 741.234 -4.23337 0.713054 0
M  V30 7604 C 740.467 -5.33694 0.025993 0
M  V30 7605 O 740.69 -5.57853 -1.18978 0
M  V30 7606 O 739.624 -5.97724 0.70782 0
M  V30 7607 H 743.45 -2.72952 1.33156 0
M  V30 7608 H 741.035 -1.31263 0.713468 0
M  V30 7609 H 742.917 -4.16209 -0.659423 0
M  V30 7610 H 741.592 -3.04721 -1.09209 0
M  V30 7611 H 740.499 -3.55359 1.16923 0
M  V30 7612 H 741.832 -4.68154 1.51963 0
M  V30 7613 N 743.484 -0.715051 -1.40445 0
M  V30 7614 C 744.414 -0.0768699 -2.33373 0
M  V30 7615 C 745.395 0.746109 -1.52863 0
M  V30 7616 O 746.58 0.695142 -1.81332 0
M  V30 7617 C 743.71 0.846014 -3.36838 0
M  V30 7618 C 742.664 0.128694 -4.27806 0
M  V30 7619 C 741.99 1.16726 -5.21804 0
M  V30 7620 C 743.29 -1.01679 -5.12307 0
M  V30 7621 H 744.984 -0.853061 -2.8699 0
M  V30 7622 H 742.53 -0.41167 -1.3799 0
M  V30 7623 H 744.483 1.30185 -4.00786 0
M  V30 7624 H 743.207 1.6541 -2.81615 0
M  V30 7625 H 741.866 -0.307314 -3.6531 0
M  V30 7626 H 741.514 1.96838 -4.62887 0
M  V30 7627 H 741.214 0.692188 -5.83509 0
M  V30 7628 H 742.738 1.62321 -5.88629 0
M  V30 7629 H 744.152 -0.640337 -5.69713 0
M  V30 7630 H 742.549 -1.4202 -5.83053 0
M  V30 7631 H 743.619 -1.84769 -4.48317 0
M  V30 7632 N 744.962 1.50701 -0.461195 0
M  V30 7633 C 746.373 1.867 -0.00370227 0
M  V30 7634 C 746.724 1.37673 1.39787 0
M  V30 7635 O 745.849 0.737515 2.03445 0
M  V30 7636 C 746.444 3.388 5.75786e-05 0
M  V30 7637 C 745.003 3.74247 0.402044 0
M  V30 7638 C 744.15 2.74549 -0.389652 0
M  V30 7639 H 747.101 1.43585 -0.675942 0
M  V30 7640 H 747.122 3.719 0.804414 0
M  V30 7641 H 746.634 3.74452 -1.02015 0
M  V30 7642 H 744.735 3.44192 1.42697 0
M  V30 7643 H 744.848 4.78973 0.110265 0
M  V30 7644 H 743.212 2.54226 0.155314 0
M  V30 7645 H 743.995 3.13044 -1.40919 0
M  V30 7646 N 746.441 0.193421 1.56409 0
M  V30 7647 C 747.371 -0.723334 2.22014 0
M  V30 7648 C 748.352 -1.22254 1.1827 0
M  V30 7649 O 749.537 -1.27168 1.46771 0
M  V30 7650 C 746.667 -1.94366 2.87818 0
M  V30 7651 C 745.621 -1.57943 3.97791 0
M  V30 7652 C 744.947 -2.87623 4.50752 0
M  V30 7653 C 746.247 -0.790639 5.16281 0
M  V30 7654 H 747.941 -0.176426 2.9888 0
M  V30 7655 H 745.487 -0.0834166 1.43758 0
M  V30 7656 H 747.44 -2.5902 3.32396 0
M  V30 7657 H 746.164 -2.51507 2.08355 0
M  V30 7658 H 744.823 -0.956482 3.53903 0
M  V30 7659 H 744.471 -3.4285 3.68053 0
M  V30 7660 H 744.171 -2.63998 5.24956 0
M  V30 7661 H 745.695 -3.53268 4.9803 0
M  V30 7662 H 747.109 -1.34024 5.57414 0
M  V30 7663 H 745.506 -0.65258 5.96541 0
M  V30 7664 H 746.576 0.208633 4.84451 0
M  V30 7665 N 747.919 -1.57396 -0.0801906 0
M  V30 7666 C 748.852 -1.98386 -1.12774 0
M  V30 7667 C 749.83 -0.859423 -1.38031 0
M  V30 7668 O 751.014 -1.12101 -1.51544 0
M  V30 7669 C 748.141 -2.3134 -2.47386 0
M  V30 7670 C 747.187 -3.53706 -2.38316 0
M  V30 7671 S 748.02 -5.04862 -1.78534 0
M  V30 7672 C 749.176 -5.41008 -3.1474 0
M  V30 7673 H 749.409 -2.86929 -0.778382 0
M  V30 7674 H 746.942 -1.51682 -0.28842 0
M  V30 7675 H 748.9 -2.51 -3.24822 0
M  V30 7676 H 747.561 -1.4334 -2.79486 0
M  V30 7677 H 746.754 -3.74253 -3.37566 0
M  V30 7678 H 746.356 -3.33632 -1.69014 0
M  V30 7679 H 748.648 -5.38565 -4.1104 0
M  V30 7680 H 749.591 -6.41885 -2.98981 0
M  V30 7681 H 749.999 -4.68467 -3.14958 0
M  V30 7682 N 749.397 0.351382 -1.53633 0
M  V30 7683 C 750.307 1.45471 -1.84052 0
M  V30 7684 C 751.323 1.57945 -0.730015 0
M  V30 7685 O 752.499 1.73571 -1.02153 0
M  V30 7686 C 749.564 2.80562 -2.03681 0
M  V30 7687 C 748.625 2.77497 -3.27558 0
M  V30 7688 C 747.858 4.06144 -3.46241 0
M  V30 7689 O 748.081 5.03028 -2.68922 0
M  V30 7690 O 747.015 4.11092 -4.39645 0
M  V30 7691 H 750.841 1.22684 -2.77817 0
M  V30 7692 H 748.426 0.542827 -1.3919 0
M  V30 7693 H 750.308 3.6058 -2.18082 0
M  V30 7694 H 748.983 3.03296 -1.13106 0
M  V30 7695 H 747.89 1.96126 -3.18568 0
M  V30 7696 H 749.223 2.59716 -4.18101 0
M  V30 7697 N 750.875 1.45233 0.611969 0
M  V30 7698 C 752.121 1.49242 1.37312 0
M  V30 7699 C 752.454 0.131963 1.93751 0
M  V30 7700 O 751.729 -0.852999 1.74798 0
M  V30 7701 C 752.012 2.56811 2.52428 0
M  V30 7702 C 751.865 4.02284 2.01215 0
M  V30 7703 C 753.184 2.60705 3.54572 0
M  V30 7704 H 750.303 0.54336 0.497925 0
M  V30 7705 H 752.945 1.77019 0.690242 0
M  V30 7706 H 751.095 2.33256 3.10683 0
M  V30 7707 H 752.767 4.37035 1.47643 0
M  V30 7708 H 751.01 4.1315 1.32248 0
M  V30 7709 H 751.681 4.7323 2.84178 0
M  V30 7710 H 754.157 2.81799 3.06151 0
M  V30 7711 H 753.033 3.37841 4.32614 0
M  V30 7712 H 753.294 1.65627 4.09903 0
M  V30 7713 N 752.353 -0.854086 1.3245 0
M  V30 7714 C 753.769 -1.14238 1.11453 0
M  V30 7715 C 753.969 -2.01228 -0.10461 0
M  V30 7716 O 753.025 -2.39845 -0.789339 0
M  V30 7717 C 754.338 -1.81916 2.39431 0
M  V30 7718 C 755.886 -1.94549 2.45193 0
M  V30 7719 C 756.361 -2.65642 3.73093 0
M  V30 7720 N 757.852 -2.73167 3.74078 0
M  V30 7721 C 758.587 -3.28828 4.69744 0
M  V30 7722 N 758.083 -3.85295 5.75778 0
M  V30 7723 N 759.876 -3.26936 4.57241 0
M  V30 7724 H 752.027 -0.274786 2.10615 0
M  V30 7725 H 754.29 -0.184375 0.929898 0
M  V30 7726 H 753.996 -1.25452 3.28565 0
M  V30 7727 H 753.87 -2.82068 2.50434 0
M  V30 7728 H 756.257 -2.50172 1.56518 0
M  V30 7729 H 756.338 -0.933914 2.38142 0
M  V30 7730 H 755.982 -2.10683 4.62142 0
M  V30 7731 H 755.912 -3.6724 3.77415 0
M  V30 7732 H 758.403 -2.33108 2.97438 0
M  V30 7733 H 758.716 -4.25925 6.44832 0
M  V30 7734 H 757.061 -3.83625 5.79531 0
M  V30 7735 H 760.252 -2.8207 3.7357 0
M  V30 7736 H 760.425 -3.70014 5.31971 0
M  V30 7737 N 753.831 -1.1567 -1.07043 0
M  V30 7738 C 754.794 -0.858906 -2.12498 0
M  V30 7739 C 755.794 0.142735 -1.60165 0
M  V30 7740 O 756.984 -0.0872678 -1.73981 0
M  V30 7741 C 754.116 -0.283021 -3.39723 0
M  V30 7742 H 755.309 -1.79368 -2.40348 0
M  V30 7743 H 752.862 -0.964608 -1.22984 0
M  V30 7744 H 753.597 0.659796 -3.17517 0
M  V30 7745 H 753.382 -1.00467 -3.7901 0
M  V30 7746 H 754.872 -0.0923543 -4.17498 0
M  V30 7747 N 755.309 1.25446 -0.953992 0
M  V30 7748 C 756.239 2.28264 -0.491717 0
M  V30 7749 C 757.22 1.63717 0.461617 0
M  V30 7750 O 758.405 1.90821 0.36071 0
M  V30 7751 C 755.535 3.46525 0.231915 0
M  V30 7752 C 754.489 4.23247 -0.636098 0
M  V30 7753 C 753.815 5.34254 0.218238 0
M  V30 7754 C 755.115 4.85971 -1.91389 0
M  V30 7755 H 756.809 2.67183 -1.35106 0
M  V30 7756 H 754.355 1.2844 -0.651095 0
M  V30 7757 H 756.308 4.17576 0.566439 0
M  V30 7758 H 755.032 3.06594 1.12551 0
M  V30 7759 H 753.691 3.53978 -0.953696 0
M  V30 7760 H 753.339 4.90564 1.11156 0
M  V30 7761 H 753.039 5.86501 -0.359232 0
M  V30 7762 H 754.563 6.08138 0.547743 0
M  V30 7763 H 755.977 5.49168 -1.64581 0
M  V30 7764 H 754.374 5.48391 -2.43696 0
M  V30 7765 H 755.444 4.08192 -2.61738 0
M  V30 7766 N 756.787 0.722489 1.40064 0
M  V30 7767 C 757.717 0.0892452 2.33329 0
M  V30 7768 C 758.698 -0.737992 1.53257 0
M  V30 7769 O 759.883 -0.685516 1.81698 0
M  V30 7770 C 757.013 -0.828139 3.37282 0
M  V30 7771 C 755.967 -0.106005 4.27869 0
M  V30 7772 C 755.293 -1.13957 5.22415 0
M  V30 7773 C 756.593 1.04395 5.11761 0
M  V30 7774 H 758.287 0.868269 2.86534 0
M  V30 7775 H 755.833 0.418982 1.3777 0
M  V30 7776 H 757.786 -1.28058 4.01471 0
M  V30 7777 H 756.51 -1.63914 2.82489 0
M  V30 7778 H 755.169 0.326683 3.65142 0
M  V30 7779 H 754.817 -1.9438 4.63924 0
M  V30 7780 H 754.517 -0.661233 5.83868 0
M  V30 7781 H 756.041 -1.59197 5.89482 0
M  V30 7782 H 757.455 0.670541 5.69365 0
M  V30 7783 H 755.852 1.4511 5.82291 0
M  V30 7784 H 756.922 1.87144 4.47331 0
M  V30 7785 N 758.265 -1.50454 0.469181 0
M  V30 7786 C 759.542 -1.9504 -0.147955 0
M  V30 7787 C 759.922 -1.40946 -1.57154 0
M  V30 7788 O 759.27 -0.609663 -2.20217 0
M  V30 7789 C 759.48 -3.48875 -0.0932198 0
M  V30 7790 C 760.828 -4.23655 -0.283056 0
M  V30 7791 O 761.852 -3.55795 -0.169892 0
M  V30 7792 O 760.711 -5.44102 -0.511396 0
M  V30 7793 H 757.805 -0.819283 -0.11271 0
M  V30 7794 H 760.351 -1.6123 0.529446 0
M  V30 7795 H 759.123 -3.80791 0.900784 0
M  V30 7796 H 758.746 -3.89217 -0.812161 0
M  V30 7797 N 759.743 -0.201713 -1.56304 0
M  V30 7798 C 760.673 0.71155 -2.22394 0
M  V30 7799 C 761.654 1.21625 -1.18917 0
M  V30 7800 O 762.839 1.26388 -1.47444 0
M  V30 7801 C 759.969 1.92837 -2.88845 0
M  V30 7802 C 758.923 1.55831 -3.98623 0
M  V30 7803 C 758.249 2.85228 -4.52271 0
M  V30 7804 C 759.549 0.763249 -5.16693 0
M  V30 7805 H 761.243 0.160573 -2.98969 0
M  V30 7806 H 758.789 0.0757916 -1.438 0
M  V30 7807 H 760.742 2.57253 -3.33764 0
M  V30 7808 H 759.466 2.50398 -2.09686 0
M  V30 7809 H 758.125 0.9377 -3.54405 0
M  V30 7810 H 757.773 3.40893 -3.69866 0
M  V30 7811 H 757.473 2.6121 -5.26349 0
M  V30 7812 H 758.997 3.50622 -4.99897 0
M  V30 7813 H 760.411 1.31066 -5.58117 0
M  V30 7814 H 758.808 0.620935 -5.96879 0
M  V30 7815 H 759.878 -0.234322 -4.84334 0
M  V30 7816 N 761.222 1.57436 0.0718424 0
M  V30 7817 C 762.47 1.86878 0.769484 0
M  V30 7818 C 762.791 0.7937 1.78116 0
M  V30 7819 O 762.061 -0.177642 1.95093 0
M  V30 7820 H 760.641 0.689593 0.287177 0
M  V30 7821 H 763.303 1.94841 0.0479427 0
M  V30 7822 H 762.399 2.84387 1.28572 0
M  V30 7823 N 762.7 -0.34323 1.53817 0
M  V30 7824 C 763.977 -1.10047 1.61706 0
M  V30 7825 C 764.357 -2.06495 0.438514 0
M  V30 7826 O 763.705 -2.21297 -0.569188 0
M  V30 7827 C 763.915 -1.81985 2.97796 0
M  V30 7828 C 765.263 -2.35717 3.53161 0
M  V30 7829 O 766.287 -1.9208 2.99973 0
M  V30 7830 O 765.146 -3.15551 4.46195 0
M  V30 7831 H 762.24 -0.506096 0.654061 0
M  V30 7832 H 764.786 -0.344697 1.66162 0
M  V30 7833 H 763.558 -1.11722 3.75012 0
M  V30 7834 H 763.181 -2.64419 2.96931 0
M  V30 7835 N 764.178 -1.45556 -0.604258 0
M  V30 7836 C 765.424 -1.49968 -1.36519 0
M  V30 7837 C 765.757 -0.142236 -1.93678 0
M  V30 7838 O 765.032 0.843717 -1.75247 0
M  V30 7839 C 765.315 -2.58146 -2.51063 0
M  V30 7840 C 765.168 -4.03346 -1.99078 0
M  V30 7841 C 766.487 -2.62581 -3.53184 0
M  V30 7842 H 763.606 -0.545993 -0.495036 0
M  V30 7843 H 766.248 -1.77382 -0.680845 0
M  V30 7844 H 764.398 -2.34901 -3.09441 0
M  V30 7845 H 766.07 -4.37811 -1.45323 0
M  V30 7846 H 764.313 -4.13845 -1.30055 0
M  V30 7847 H 764.984 -4.74731 -2.81664 0
M  V30 7848 H 767.46 -2.83419 -3.04652 0
M  V30 7849 H 766.336 -3.40131 -4.30816 0
M  V30 7850 H 766.597 -1.67798 -4.09019 0
M  V30 7851 N 765.656 0.84705 -1.32902 0
M  V30 7852 C 766.619 1.9378 -1.224 0
M  V30 7853 C 767.619 1.60144 -0.145108 0
M  V30 7854 O 768.809 1.69638 -0.396058 0
M  V30 7855 C 765.941 3.29234 -0.884174 0
M  V30 7856 H 767.134 2.04518 -2.19345 0
M  V30 7857 H 764.687 1.03816 -1.16842 0
M  V30 7858 H 765.422 3.24193 0.0831277 0
M  V30 7859 H 765.207 3.55026 -1.6643 0
M  V30 7860 H 766.697 4.09162 -0.835226 0
M  V30 7861 N 767.134 1.16236 1.06428 0
M  V30 7862 C 768.081 0.86769 2.13869 0
M  V30 7863 C 769.051 -0.183298 1.65086 0
M  V30 7864 O 770.236 -0.0488002 1.90738 0
M  V30 7865 C 767.376 0.373427 3.43074 0
M  V30 7866 C 766.489 1.48708 4.05598 0
M  V30 7867 C 765.624 0.947977 5.22673 0
M  V30 7868 C 764.663 2.03793 5.77178 0
M  V30 7869 N 763.8 1.51451 6.85571 0
M  V30 7870 H 768.64 1.78781 2.38414 0
M  V30 7871 H 766.177 0.891892 1.16977 0
M  V30 7872 H 768.135 0.0685035 4.17144 0
M  V30 7873 H 766.765 -0.509752 3.1875 0
M  V30 7874 H 765.817 1.908 3.29089 0
M  V30 7875 H 767.129 2.30964 4.42105 0
M  V30 7876 H 766.283 0.596154 6.03764 0
M  V30 7877 H 765.022 0.0947081 4.87608 0
M  V30 7878 H 764.027 2.39847 4.94726 0
M  V30 7879 H 765.252 2.89514 6.14295 0
M  V30 7880 H 763.198 0.683755 6.52427 0
M  V30 7881 H 763.115 2.27325 7.21013 0
M  V30 7882 H 764.383 1.19123 7.70344 0
M  V30 7883 N 768.612 -1.24939 0.960631 0
M  V30 7884 C 769.575 -2.239 0.49006 0
M  V30 7885 C 770.575 -1.55497 -0.409535 0
M  V30 7886 O 771.765 -1.72978 -0.205984 0
M  V30 7887 C 768.897 -3.39654 -0.291193 0
M  V30 7888 H 770.09 -2.67044 1.36482 0
M  V30 7889 H 767.643 -1.37429 0.744505 0
M  V30 7890 H 768.378 -3.01939 -1.18336 0
M  V30 7891 H 768.163 -3.90496 0.354276 0
M  V30 7892 H 769.653 -4.13125 -0.609693 0
M  V30 7893 N 770.09 -0.729906 -1.39679 0
M  V30 7894 C 771.318 -0.285709 -2.04918 0
M  V30 7895 C 771.733 1.07765 -1.55023 0
M  V30 7896 O 771.09 1.67999 -0.712923 0
M  V30 7897 C 771.141 -0.272793 -3.60469 0
M  V30 7898 O 770.862 -1.58233 -4.08527 0
M  V30 7899 C 772.363 0.188199 -4.429 0
M  V30 7900 H 769.583 -0.125758 -0.65911 0
M  V30 7901 H 772.127 -0.992129 -1.78821 0
M  V30 7902 H 770.282 0.384699 -3.85485 0
M  V30 7903 H 770.696 -1.49245 -5.02818 0
M  V30 7904 H 772.17 0.14608 -5.51807 0
M  V30 7905 H 772.647 1.2326 -4.21549 0
M  V30 7906 H 773.253 -0.439541 -4.23023 0
M  V30 7907 N 771.568 1.50203 -0.477153 0
M  V30 7908 C 772.984 1.59056 -0.131663 0
M  V30 7909 C 773.184 1.48473 1.36227 0
M  V30 7910 O 772.24 1.34635 2.13611 0
M  V30 7911 C 773.553 2.92741 -0.687254 0
M  V30 7912 C 775.101 3.0615 -0.651223 0
M  V30 7913 C 775.576 4.42419 -1.18446 0
M  V30 7914 N 777.067 4.48847 -1.14413 0
M  V30 7915 C 777.802 5.52689 -1.52717 0
M  V30 7916 N 777.298 6.63754 -1.98499 0
M  V30 7917 N 779.091 5.43267 -1.44282 0
M  V30 7918 H 771.242 1.55325 -1.44872 0
M  V30 7919 H 773.505 0.734395 -0.599473 0
M  V30 7920 H 773.211 3.0598 -1.73405 0
M  V30 7921 H 773.085 3.76961 -0.134215 0
M  V30 7922 H 775.472 2.92556 0.386677 0
M  V30 7923 H 775.553 2.23673 -1.24114 0
M  V30 7924 H 775.197 4.56763 -2.22103 0
M  V30 7925 H 775.127 5.23498 -0.570709 0
M  V30 7926 H 777.618 3.69152 -0.808416 0
M  V30 7927 H 777.931 7.39059 -2.25859 0
M  V30 7928 H 776.276 6.64858 -2.02456 0
M  V30 7929 H 779.467 4.55387 -1.08352 0
M  V30 7930 H 779.64 6.24074 -1.74459 0
M  V30 7931 N 773.046 0.209999 1.56195 0
M  V30 7932 C 773.993 -0.704854 2.19774 0
M  V30 7933 C 774.963 -1.19886 1.14964 0
M  V30 7934 O 776.148 -1.26005 1.43274 0
M  V30 7935 C 773.288 -1.91241 2.87265 0
M  V30 7936 C 772.401 -1.45838 4.06639 0
M  V30 7937 C 771.536 -2.6226 4.61945 0
M  V30 7938 C 770.575 -2.13537 5.73645 0
M  V30 7939 N 769.712 -3.2319 6.23292 0
M  V30 7940 H 774.552 -0.155944 2.97592 0
M  V30 7941 H 772.089 -0.0652235 1.46955 0
M  V30 7942 H 774.047 -2.62123 3.24573 0
M  V30 7943 H 772.677 -2.43439 2.11985 0
M  V30 7944 H 771.729 -0.644897 3.74894 0
M  V30 7945 H 773.041 -1.06103 4.87384 0
M  V30 7946 H 772.195 -3.41243 5.01636 0
M  V30 7947 H 770.934 -3.05278 3.80338 0
M  V30 7948 H 769.939 -1.33013 5.33468 0
M  V30 7949 H 771.164 -1.71533 6.57079 0
M  V30 7950 H 769.11 -3.65711 5.44602 0
M  V30 7951 H 769.027 -2.8767 6.99129 0
M  V30 7952 H 770.295 -4.02342 6.67639 0
M  V30 7953 N 774.524 -1.57472 -0.0634922 0
M  V30 7954 C 775.454 -2.07297 -1.07473 0
M  V30 7955 C 776.435 -0.968162 -1.39859 0
M  V30 7956 O 777.62 -1.24139 -1.49343 0
M  V30 7957 C 774.75 -2.52381 -2.38581 0
M  V30 7958 C 773.704 -3.66813 -2.20526 0
M  V30 7959 C 773.03 -3.97982 -3.57092 0
M  V30 7960 C 774.33 -4.96553 -1.61965 0
M  V30 7961 H 776.024 -2.92033 -0.660092 0
M  V30 7962 H 773.57 -1.40488 -0.316074 0
M  V30 7963 H 775.523 -2.85852 -3.09624 0
M  V30 7964 H 774.247 -1.64684 -2.8204 0
M  V30 7965 H 772.906 -3.33639 -1.51924 0
M  V30 7966 H 772.554 -3.07403 -3.98136 0
M  V30 7967 H 772.254 -4.7504 -3.45848 0
M  V30 7968 H 773.778 -4.33956 -4.29552 0
M  V30 7969 H 775.192 -5.28201 -2.22883 0
M  V30 7970 H 773.589 -5.7799 -1.61394 0
M  V30 7971 H 774.659 -4.81396 -0.581918 0
M  V30 7972 N 776.003 0.335068 -1.53997 0
M  V30 7973 C 777.28 1.09188 -1.62288 0
M  V30 7974 C 777.66 2.0626 -0.449458 0
M  V30 7975 O 777.008 2.21596 0.557444 0
M  V30 7976 C 777.218 1.80403 -2.98757 0
M  V30 7977 C 778.566 2.33841 -3.54406 0
M  V30 7978 O 779.59 1.90487 -3.00987 0
M  V30 7979 O 778.449 3.1318 -4.47862 0
M  V30 7980 H 775.543 0.502621 -0.656736 0
M  V30 7981 H 778.089 0.33588 -1.66343 0
M  V30 7982 H 776.861 1.09732 -3.75599 0
M  V30 7983 H 776.484 2.62841 -2.9833 0
M  V30 7984 N 777.481 1.45874 0.596531 0
M  V30 7985 C 778.758 1.40942 1.35627 0
M  V30 7986 C 779.138 0.0857066 2.10926 0
M  V30 7987 O 778.486 -0.932544 2.08605 0
M  V30 7988 C 778.696 2.63027 2.29386 0
M  V30 7989 C 780.044 3.08588 2.91649 0
M  V30 7990 O 781.068 2.63478 2.39704 0
M  V30 7991 O 779.927 3.86902 3.85965 0
M  V30 7992 H 777.021 0.559838 0.608696 0
M  V30 7993 H 779.567 1.5802 0.618698 0
M  V30 7994 H 778.339 3.5094 1.7308 0
M  V30 7995 H 777.962 2.48338 3.10506 0
M  V30 7996 N 778.959 -0.83999 1.33349 0
M  V30 7997 C 779.889 -1.965 1.26135 0
M  V30 7998 C 780.87 -1.69505 0.142152 0
M  V30 7999 O 782.055 -1.91346 0.331743 0
M  V30 8000 C 779.185 -3.32632 0.99866 0
M  V30 8001 C 778.139 -3.74021 2.08068 0
M  V30 8002 C 777.465 -5.07947 1.67014 0
M  V30 8003 C 778.765 -3.87925 3.49731 0
M  V30 8004 H 780.459 -2.02793 2.20262 0
M  V30 8005 H 778.005 -0.974297 1.06035 0
M  V30 8006 H 779.958 -4.10903 0.934696 0
M  V30 8007 H 778.682 -3.26593 0.0217759 0
M  V30 8008 H 777.341 -2.98012 2.13505 0
M  V30 8009 H 776.989 -4.98378 0.680316 0
M  V30 8010 H 776.689 -5.36611 2.39422 0
M  V30 8011 H 778.213 -5.88695 1.62082 0
M  V30 8012 H 779.627 -4.5651 3.46802 0
M  V30 8013 H 778.024 -4.28023 4.20614 0
M  V30 8014 H 779.094 -2.90407 3.88319 0
M  V30 8015 N 780.437 -1.16799 -1.0581 0
M  V30 8016 C 781.4 -0.881396 -2.11575 0
M  V30 8017 C 782.4 0.12574 -1.60308 0
M  V30 8018 O 783.59 -0.105716 -1.73879 0
M  V30 8019 C 780.722 -0.319037 -3.39404 0
M  V30 8020 H 781.915 -1.81907 -2.38432 0
M  V30 8021 H 779.468 -0.977597 -1.21954 0
M  V30 8022 H 780.203 0.626082 -3.18199 0
M  V30 8023 H 779.988 -1.04481 -3.77923 0
M  V30 8024 H 781.478 -0.13663 -4.17376 0
M  V30 8025 N 781.915 1.24427 -0.967243 0
M  V30 8026 C 782.825 2.29109 -0.504592 0
M  V30 8027 C 783.841 1.68495 0.434224 0
M  V30 8028 O 785.017 1.99041 0.307379 0
M  V30 8029 C 782.082 3.46133 0.198273 0
M  V30 8030 C 781.143 4.22149 -0.780313 0
M  V30 8031 C 780.376 5.33585 -0.110896 0
M  V30 8032 O 780.599 5.59676 1.10088 0
M  V30 8033 O 779.533 5.96522 -0.802823 0
M  V30 8034 H 783.359 2.708 -1.37482 0
M  V30 8035 H 780.944 1.30111 -0.73426 0
M  V30 8036 H 782.826 4.17205 0.593124 0
M  V30 8037 H 781.501 3.0642 1.04347 0
M  V30 8038 H 780.408 3.53454 -1.22561 0
M  V30 8039 H 781.741 4.65677 -1.59392 0
M  V30 8040 N 783.393 0.737304 1.3929 0
M  V30 8041 C 784.809 0.413132 1.5416 0
M  V30 8042 C 785.009 -1.07574 1.70382 0
M  V30 8043 O 784.065 -1.86185 1.70562 0
M  V30 8044 C 785.378 1.19817 2.75798 0
M  V30 8045 C 786.926 1.18662 2.89635 0
M  V30 8046 C 787.401 1.95427 4.14213 0
M  V30 8047 N 788.892 1.92605 4.21257 0
M  V30 8048 C 789.627 2.48808 5.16606 0
M  V30 8049 N 789.123 3.13659 6.1773 0
M  V30 8050 N 790.916 2.38829 5.08839 0
M  V30 8051 H 783.067 1.70243 1.27008 0
M  V30 8052 H 785.33 0.720802 0.61575 0
M  V30 8053 H 785.036 2.25179 2.70161 0
M  V30 8054 H 784.91 0.804144 3.68529 0
M  V30 8055 H 787.297 0.141112 2.94762 0
M  V30 8056 H 787.378 1.62003 1.97961 0
M  V30 8057 H 787.022 2.9998 4.09847 0
M  V30 8058 H 786.952 1.4949 5.04936 0
M  V30 8059 H 789.443 1.45362 3.48824 0
M  V30 8060 H 789.756 3.54006 6.8695 0
M  V30 8061 H 788.101 3.17749 6.1811 0
M  V30 8062 H 791.292 1.87806 4.28773 0
M  V30 8063 H 791.465 2.82929 5.82971 0
M  V30 8064 N 784.871 -1.49948 0.485112 0
M  V30 8065 C 786.117 -2.02695 -0.0651022 0
M  V30 8066 C 786.45 -1.36534 -1.38102 0
M  V30 8067 O 785.725 -0.495677 -1.88078 0
M  V30 8068 C 786.008 -3.59337 -0.234285 0
M  V30 8069 C 785.861 -4.3605 1.10364 0
M  V30 8070 C 787.18 -4.28996 -0.982351 0
M  V30 8071 H 784.299 -0.736666 -0.0221856 0
M  V30 8072 H 786.941 -1.7913 0.633433 0
M  V30 8073 H 785.091 -3.79546 -0.829262 0
M  V30 8074 H 786.763 -4.27377 1.73627 0
M  V30 8075 H 785.006 -3.99236 1.69686 0
M  V30 8076 H 785.677 -5.43959 0.938743 0
M  V30 8077 H 788.153 -4.13346 -0.477904 0
M  V30 8078 H 787.029 -5.38379 -1.06955 0
M  V30 8079 H 787.29 -3.93135 -2.02231 0
M  V30 8080 N 786.349 -0.21828 -1.56081 0
M  V30 8081 C 787.597 0.413488 -1.97825 0
M  V30 8082 C 787.918 1.60527 -1.10707 0
M  V30 8083 O 787.188 1.9504 -0.183378 0
M  V30 8084 H 785.768 0.155757 -0.730581 0
M  V30 8085 H 788.43 -0.310413 -1.92412 0
M  V30 8086 H 787.526 0.742024 -3.03151 0
M  V30 8087 N 787.827 1.57504 0.0551401 0
M  V30 8088 C 789.073 1.89191 0.74688 0
M  V30 8089 C 789.428 0.813936 1.74335 0
M  V30 8090 O 788.721 -0.180217 1.90751 0
M  V30 8091 C 788.915 3.25311 1.48013 0
M  V30 8092 C 788.744 4.46247 0.556176 0
M  V30 8093 C 787.514 5.04954 0.186891 0
M  V30 8094 C 789.712 5.14068 -0.154295 0
M  V30 8095 N 787.694 6.09411 -0.741041 0
M  V30 8096 C 789.065 6.12851 -0.938809 0
M  V30 8097 C 791.12 4.97396 -0.224007 0
M  V30 8098 C 789.823 6.96759 -1.78658 0
M  V30 8099 C 791.849 5.81845 -1.05881 0
M  V30 8100 C 791.211 6.80178 -1.83133 0
M  V30 8101 H 787.31 0.741562 0.248213 0
M  V30 8102 H 789.894 1.94698 0.00777734 0
M  V30 8103 H 788.065 3.20781 2.18985 0
M  V30 8104 H 789.797 3.44594 2.12219 0
M  V30 8105 H 786.552 4.70472 0.543415 0
M  V30 8106 H 786.976 6.66303 -1.19874 0
M  V30 8107 H 791.618 4.21274 0.358924 0
M  V30 8108 H 789.336 7.72245 -2.38042 0
M  V30 8109 H 792.922 5.70997 -1.11595 0
M  V30 8110 H 791.802 7.44389 -2.46687 0
M  V30 8111 N 789.305 -0.326896 1.54172 0
M  V30 8112 C 790.721 -0.671034 1.44808 0
M  V30 8113 C 790.921 -1.91781 0.618258 0
M  V30 8114 O 789.977 -2.52235 0.115751 0
M  V30 8115 C 791.29 -0.848147 2.88491 0
M  V30 8116 C 792.838 -0.945702 2.98371 0
M  V30 8117 C 793.313 -1.15501 4.43197 0
M  V30 8118 N 794.804 -1.22183 4.46795 0
M  V30 8119 C 795.539 -1.4016 5.56006 0
M  V30 8120 N 795.035 -1.55202 6.75192 0
M  V30 8121 N 796.828 -1.42841 5.43648 0
M  V30 8122 H 788.979 0.49262 2.06608 0
M  V30 8123 H 791.242 0.158574 0.934643 0
M  V30 8124 H 790.948 -0.00329969 3.517 0
M  V30 8125 H 790.822 -1.74497 3.34411 0
M  V30 8126 H 793.209 -1.78106 2.35292 0
M  V30 8127 H 793.29 -0.0254215 2.55787 0
M  V30 8128 H 792.934 -0.324521 5.06862 0
M  V30 8129 H 792.864 -2.08911 4.83388 0
M  V30 8130 H 795.355 -1.12016 3.60917 0
M  V30 8131 H 795.668 -1.68601 7.54184 0
M  V30 8132 H 794.013 -1.52306 6.78106 0
M  V30 8133 H 797.204 -1.30683 4.49488 0
M  V30 8134 H 797.377 -1.56509 6.28816 0
M  V30 8135 N 790.784 -1.46188 -0.588786 0
M  V30 8136 C 792.03 -1.52396 -1.34711 0
M  V30 8137 C 792.385 -0.170846 -1.9164 0
M  V30 8138 O 791.678 0.819714 -1.7318 0
M  V30 8139 C 791.872 -2.55364 -2.50048 0
M  V30 8140 C 791.701 -4.00554 -2.04417 0
M  V30 8141 C 790.471 -4.68334 -1.89715 0
M  V30 8142 C 792.669 -4.88533 -1.60747 0
M  V30 8143 N 790.651 -5.98167 -1.38091 0
M  V30 8144 C 792.022 -6.08143 -1.20672 0
M  V30 8145 C 794.077 -4.75236 -1.4851 0
M  V30 8146 C 792.78 -7.15927 -0.695782 0
M  V30 8147 C 794.806 -5.83085 -0.988196 0
M  V30 8148 C 794.168 -7.01864 -0.59719 0
M  V30 8149 H 790.267 -0.61252 -0.486151 0
M  V30 8150 H 792.851 -1.8277 -0.671063 0
M  V30 8151 H 791.022 -2.2691 -3.15225 0
M  V30 8152 H 792.754 -2.51603 -3.16983 0
M  V30 8153 H 789.509 -4.23763 -2.11476 0
M  V30 8154 H 789.933 -6.67254 -1.14458 0
M  V30 8155 H 794.575 -3.83801 -1.7736 0
M  V30 8156 H 792.293 -8.07135 -0.394857 0
M  V30 8157 H 795.879 -5.74836 -0.897504 0
M  V30 8158 H 794.759 -7.83895 -0.218621 0
M  V30 8159 N 792.262 0.832906 -1.33792 0
M  V30 8160 C 793.678 1.1245 -1.13257 0
M  V30 8161 C 793.878 2.01369 0.0725832 0
M  V30 8162 O 792.934 2.41071 0.751082 0
M  V30 8163 C 794.247 1.78084 -2.42294 0
M  V30 8164 C 795.795 1.90624 -2.48257 0
M  V30 8165 C 796.27 2.59673 -3.77271 0
M  V30 8166 N 797.761 2.67181 -3.78376 0
M  V30 8167 C 798.496 3.21313 -4.74916 0
M  V30 8168 N 797.992 3.76086 -5.81835 0
M  V30 8169 N 799.785 3.19621 -4.62384 0
M  V30 8170 H 791.936 0.241244 -2.11026 0
M  V30 8171 H 794.199 0.169557 -0.932713 0
M  V30 8172 H 793.905 1.20209 -3.30519 0
M  V30 8173 H 793.779 2.78049 -2.5489 0
M  V30 8174 H 796.166 2.4765 -1.60478 0
M  V30 8175 H 796.247 0.89591 -2.39598 0
M  V30 8176 H 795.891 2.03304 -4.65435 0
M  V30 8177 H 795.821 3.61189 -3.8321 0
M  V30 8178 H 798.312 2.28346 -3.01108 0
M  V30 8179 H 798.625 4.15612 -6.51526 0
M  V30 8180 H 796.97 3.74357 -5.85561 0
M  V30 8181 H 800.161 2.76091 -3.7801 0
M  V30 8182 H 800.334 3.61504 -5.37791 0
M  V30 8183 N 793.74 1.17359 1.05189 0
M  V30 8184 C 794.67 0.91365 2.14883 0
M  V30 8185 C 795.651 -0.144365 1.69486 0
M  V30 8186 O 796.836 0.00587861 1.94199 0
M  V30 8187 C 793.966 0.426196 3.44675 0
M  V30 8188 C 792.92 1.4234 4.03638 0
M  V30 8189 C 792.246 0.793902 5.28773 0
M  V30 8190 C 793.546 2.7966 4.41121 0
M  V30 8191 H 795.24 1.831 2.36885 0
M  V30 8192 H 792.786 0.881781 1.13845 0
M  V30 8193 H 794.739 0.231767 4.20762 0
M  V30 8194 H 793.463 -0.526693 3.22325 0
M  V30 8195 H 792.122 1.60457 3.2962 0
M  V30 8196 H 791.77 -0.165824 5.02727 0
M  V30 8197 H 791.47 1.45959 5.69183 0
M  V30 8198 H 792.994 0.609747 6.07548 0
M  V30 8199 H 794.408 2.6526 5.08242 0
M  V30 8200 H 792.805 3.42807 4.92548 0
M  V30 8201 H 793.875 3.34068 3.51464 0
M  V30 8202 N 795.218 -1.23913 0.973828 0
M  V30 8203 C 796.464 -1.92436 0.640026 0
M  V30 8204 C 796.797 -1.75875 -0.823512 0
M  V30 8205 O 796.072 -1.11563 -1.59323 0
M  V30 8206 C 796.355 -3.4526 1.0231 0
M  V30 8207 C 796.208 -3.70961 2.54378 0
M  V30 8208 C 797.527 -4.36495 0.562155 0
M  V30 8209 H 794.646 -0.698868 0.233992 0
M  V30 8210 H 797.288 -1.46163 1.21393 0
M  V30 8211 H 795.438 -3.84802 0.534751 0
M  V30 8212 H 797.11 -3.40941 3.10737 0
M  V30 8213 H 795.353 -3.15899 2.97305 0
M  V30 8214 H 796.024 -4.77912 2.76232 0
M  V30 8215 H 798.5 -4.04363 0.981333 0
M  V30 8216 H 797.376 -5.42142 0.858689 0
M  V30 8217 H 797.637 -4.38818 -0.537659 0
M  V30 8218 N 796.696 -0.74468 -1.38897 0
M  V30 8219 C 797.942 -0.306249 -2.01081 0
M  V30 8220 C 798.297 1.09724 -1.58046 0
M  V30 8221 O 797.59 1.73923 -0.803834 0
M  V30 8222 C 797.784 -0.357302 -3.55609 0
M  V30 8223 C 797.613 -1.76421 -4.13649 0
M  V30 8224 C 796.383 -2.3787 -4.4581 0
M  V30 8225 C 798.581 -2.71942 -4.36523 0
M  V30 8226 N 796.563 -3.70614 -4.89406 0
M  V30 8227 C 797.934 -3.89437 -4.8243 0
M  V30 8228 C 799.989 -2.69579 -4.18607 0
M  V30 8229 C 798.692 -5.04917 -5.123 0
M  V30 8230 C 800.718 -3.8421 -4.49596 0
M  V30 8231 C 800.08 -5.00442 -4.95719 0
M  V30 8232 H 796.179 -0.158531 -0.765762 0
M  V30 8233 H 798.763 -0.972726 -1.6866 0
M  V30 8234 H 796.934 0.278865 -3.87398 0
M  V30 8235 H 798.666 0.100599 -4.04575 0
M  V30 8236 H 795.421 -1.8971 -4.33943 0
M  V30 8237 H 795.845 -4.38791 -5.1555 0
M  V30 8238 H 800.487 -1.80905 -3.82143 0
M  V30 8239 H 798.205 -5.94213 -5.47665 0
M  V30 8240 H 801.791 -3.83691 -4.37347 0
M  V30 8241 H 800.671 -5.87671 -5.19242 0
M  V30 8242 N 798.174 1.49689 -0.493057 0
M  V30 8243 C 799.404 2.06536 0.0512397 0
M  V30 8244 C 799.812 1.35459 1.32089 0
M  V30 8245 O 799.155 0.424145 1.78736 0
M  V30 8246 C 799.217 3.57452 0.383231 0
M  V30 8247 C 798.881 4.50163 -0.787555 0
M  V30 8248 C 799.878 4.92151 -1.67582 0
M  V30 8249 C 797.563 4.92565 -0.984109 0
M  V30 8250 C 799.557 5.7527 -2.74487 0
M  V30 8251 C 797.244 5.75463 -2.05634 0
M  V30 8252 C 798.242 6.16719 -2.93507 0
M  V30 8253 O 797.93 6.97961 -3.98881 0
M  V30 8254 H 797.662 0.675862 -0.0136516 0
M  V30 8255 H 800.216 1.9356 -0.687298 0
M  V30 8256 H 798.446 3.68408 1.17526 0
M  V30 8257 H 800.135 3.96572 0.8652 0
M  V30 8258 H 800.901 4.60043 -1.53575 0
M  V30 8259 H 796.78 4.5996 -0.309541 0
M  V30 8260 H 800.324 6.07392 -3.43104 0
M  V30 8261 H 796.221 6.06983 -2.19639 0
M  V30 8262 H 796.989 7.16253 -3.96137 0
M  V30 8263 N 799.652 0.226554 1.55963 0
M  V30 8264 C 801.068 -0.128733 1.5908 0
M  V30 8265 C 801.268 -1.58558 1.24345 0
M  V30 8266 O 800.324 -2.32661 0.981069 0
M  V30 8267 C 801.637 0.202076 3.0002 0
M  V30 8268 C 803.185 0.144718 3.12665 0
M  V30 8269 C 803.66 0.449272 4.55791 0
M  V30 8270 N 805.151 0.399026 4.61478 0
M  V30 8271 C 805.886 0.608106 5.70166 0
M  V30 8272 N 805.382 0.879227 6.87198 0
M  V30 8273 N 807.175 0.5402 5.59498 0
M  V30 8274 H 799.326 1.17686 1.76816 0
M  V30 8275 H 801.589 0.472072 0.822102 0
M  V30 8276 H 801.295 1.21341 3.30105 0
M  V30 8277 H 801.169 -0.480554 3.74126 0
M  V30 8278 H 803.556 -0.857261 2.82374 0
M  V30 8279 H 803.637 0.860899 2.40878 0
M  V30 8280 H 803.281 1.44871 4.86801 0
M  V30 8281 H 803.211 -0.288157 5.25811 0
M  V30 8282 H 805.702 0.197372 3.77384 0
M  V30 8283 H 806.015 1.02673 7.65949 0
M  V30 8284 H 804.36 0.916477 6.88931 0
M  V30 8285 H 807.551 0.328581 4.66945 0
M  V30 8286 H 807.724 0.706548 6.44137 0
M  V30 8287 N 801.13 -1.57531 -0.0467866 0
M  V30 8288 C 802.093 -2.04379 -1.03738 0
M  V30 8289 C 803.093 -0.944881 -1.3011 0
M  V30 8290 O 804.283 -1.20904 -1.25411 0
M  V30 8291 C 801.415 -2.44572 -2.37482 0
M  V30 8292 H 802.608 -2.93142 -0.633063 0
M  V30 8293 H 800.161 -1.53526 -0.293177 0
M  V30 8294 H 800.896 -1.58911 -2.82697 0
M  V30 8295 H 800.681 -3.24785 -2.19675 0
M  V30 8296 H 802.171 -2.81307 -3.08636 0
M  V30 8297 N 802.608 0.318715 -1.54344 0
M  V30 8298 C 803.854 1.05765 -1.73037 0
M  V30 8299 C 804.187 1.87514 -0.505181 0
M  V30 8300 O 803.462 1.88021 0.497838 0
M  V30 8301 C 803.745 1.97836 -3.00887 0
M  V30 8302 C 803.598 1.19384 -4.33668 0
M  V30 8303 C 804.917 2.97285 -3.24514 0
M  V30 8304 H 802.036 0.383104 -0.629603 0
M  V30 8305 H 804.678 0.333864 -1.87044 0
M  V30 8306 H 802.828 2.59552 -2.89076 0
M  V30 8307 H 804.5 0.600906 -4.57369 0
M  V30 8308 H 802.743 0.496198 -4.30953 0
M  V30 8309 H 803.414 1.87014 -5.19355 0
M  V30 8310 H 805.89 2.45693 -3.35819 0
M  V30 8311 H 804.766 3.58887 -4.15321 0
M  V30 8312 H 805.027 3.70003 -2.41971 0
M  V30 8313 N 804.086 1.46499 0.581025 0
M  V30 8314 C 805.049 1.5677 1.672 0
M  V30 8315 C 806.049 0.444716 1.54528 0
M  V30 8316 O 807.239 0.709074 1.59116 0
M  V30 8317 C 804.371 1.4896 3.06633 0
M  V30 8318 H 805.564 2.54 1.5945 0
M  V30 8319 H 803.117 1.34334 0.799003 0
M  V30 8320 H 803.852 0.530168 3.19937 0
M  V30 8321 H 803.637 2.30439 3.17239 0
M  V30 8322 H 805.127 1.59237 3.86048 0
M  V30 8323 N 805.565 -0.825799 1.34232 0
M  V30 8324 C 806.475 -1.9684 1.27638 0
M  V30 8325 C 807.491 -1.73018 0.184569 0
M  V30 8326 O 808.667 -1.97172 0.410525 0
M  V30 8327 C 805.732 -3.31084 1.02879 0
M  V30 8328 C 804.793 -3.67933 2.21188 0
M  V30 8329 C 804.026 -4.95772 1.976 0
M  V30 8330 O 804.249 -5.62721 0.93281 0
M  V30 8331 O 803.183 -5.30431 2.84477 0
M  V30 8332 H 807.009 -2.05346 2.23756 0
M  V30 8333 H 804.594 -0.960772 1.1441 0
M  V30 8334 H 806.476 -4.11492 0.908406 0
M  V30 8335 H 805.151 -3.23552 0.0979821 0
M  V30 8336 H 804.058 -2.87981 2.38784 0
M  V30 8337 H 805.391 -3.80147 3.12648 0
M  V30 8338 N 807.043 -1.17915 -1.04565 0
M  V30 8339 C 807.973 -0.925033 -2.14395 0
M  V30 8340 C 808.954 0.135375 -1.6956 0
M  V30 8341 O 810.139 -0.0161774 -1.94193 0
M  V30 8342 C 807.269 -0.444469 -3.44444 0
M  V30 8343 C 806.223 -1.44478 -4.02877 0
M  V30 8344 C 805.549 -0.821933 -5.28345 0
M  V30 8345 C 806.849 -2.81995 -4.39632 0
M  V30 8346 H 808.543 -1.84354 -2.35911 0
M  V30 8347 H 806.089 -0.887806 -1.13375 0
M  V30 8348 H 808.042 -0.254078 -4.20633 0
M  V30 8349 H 806.766 0.509592 -3.226 0
M  V30 8350 H 805.425 -1.62203 -3.28764 0
M  V30 8351 H 805.073 0.139161 -5.02807 0
M  V30 8352 H 804.773 -1.48976 -5.68401 0
M  V30 8353 H 806.297 -0.641959 -6.07216 0
M  V30 8354 H 807.711 -2.67952 -5.06828 0
M  V30 8355 H 806.108 -3.45414 -4.90723 0
M  V30 8356 H 807.178 -3.35927 -3.49687 0
M  V30 8357 N 808.521 1.23394 -0.980386 0
M  V30 8358 C 809.451 2.2717 -0.540024 0
M  V30 8359 C 810.432 1.64659 0.426787 0
M  V30 8360 O 811.617 1.91543 0.320153 0
M  V30 8361 C 808.747 3.46939 0.15836 0
M  V30 8362 C 807.701 4.21802 -0.725732 0
M  V30 8363 C 807.027 5.34597 0.104866 0
M  V30 8364 C 808.327 4.81802 -2.01654 0
M  V30 8365 H 810.021 2.64257 -1.40743 0
M  V30 8366 H 807.567 1.2703 -0.678193 0
M  V30 8367 H 809.52 4.18683 0.477737 0
M  V30 8368 H 808.244 3.08912 1.06022 0
M  V30 8369 H 806.903 3.51875 -1.02857 0
M  V30 8370 H 806.551 4.92812 1.00726 0
M  V30 8371 H 806.251 5.85607 -0.483557 0
M  V30 8372 H 807.775 6.09163 0.418624 0
M  V30 8373 H 809.189 5.45554 -1.76193 0
M  V30 8374 H 807.586 5.43098 -2.55273 0
M  V30 8375 H 808.656 4.02549 -2.70338 0
M  V30 8376 N 809.999 0.752036 1.385 0
M  V30 8377 C 811.227 0.318274 2.04437 0
M  V30 8378 C 811.642 -1.05285 1.56718 0
M  V30 8379 O 810.999 -1.66844 0.73956 0
M  V30 8380 C 811.05 0.330106 3.5999 0
M  V30 8381 O 810.771 1.64712 4.05957 0
M  V30 8382 C 812.272 -0.117713 4.43144 0
M  V30 8383 H 809.492 0.136228 0.657026 0
M  V30 8384 H 812.036 1.02045 1.7722 0
M  V30 8385 H 810.191 -0.323323 3.86048 0
M  V30 8386 H 810.605 1.57225 5.0038 0
M  V30 8387 H 812.079 -0.0582735 5.51969 0
M  V30 8388 H 812.556 -1.16538 4.23457 0
M  V30 8389 H 813.162 0.506784 4.2227 0
M  V30 8390 N 811.477 -1.49425 0.500989 0
M  V30 8391 C 812.725 -2.02053 -0.0434495 0
M  V30 8392 C 813.046 -1.38285 -1.37486 0
M  V30 8393 O 812.316 -0.538171 -1.88363 0
M  V30 8394 H 810.896 -0.746757 -0.0190469 0
M  V30 8395 H 813.558 -1.83449 0.658227 0
M  V30 8396 H 812.654 -3.11619 -0.173129 0
M  V30 8397 N 812.955 -0.234822 -1.55841 0
M  V30 8398 C 814.232 0.442961 -1.90518 0
M  V30 8399 C 814.612 1.76768 -1.15397 0
M  V30 8400 O 813.96 2.26928 -0.267534 0
M  V30 8401 C 814.17 0.622905 -3.43396 0
M  V30 8402 C 815.518 0.9243 -4.14417 0
M  V30 8403 O 816.542 0.709211 -3.49068 0
M  V30 8404 O 815.401 1.33323 -5.29988 0
M  V30 8405 H 812.495 0.236042 -0.792599 0
M  V30 8406 H 815.041 -0.277992 -1.67408 0
M  V30 8407 H 813.813 -0.310973 -3.90062 0
M  V30 8408 H 813.436 1.39485 -3.7233 0
M  V30 8409 N 814.433 1.57553 0.0384317 0
M  V30 8410 C 815.663 1.92813 0.742064 0
M  V30 8411 C 816.071 0.832157 1.69917 0
M  V30 8412 O 815.414 -0.200917 1.82598 0
M  V30 8413 C 815.476 3.23806 1.56172 0
M  V30 8414 C 815.14 4.50459 0.770407 0
M  V30 8415 C 816.137 5.19846 0.0748006 0
M  V30 8416 C 813.822 4.97001 0.727714 0
M  V30 8417 C 815.816 6.34047 -0.652902 0
M  V30 8418 C 813.503 6.111 -0.00373992 0
M  V30 8419 C 814.501 6.79477 -0.692816 0
M  V30 8420 O 814.189 7.91395 -1.41241 0
M  V30 8421 H 813.921 0.641174 0.214179 0
M  V30 8422 H 816.475 2.054 0.00285095 0
M  V30 8423 H 814.705 3.0752 2.34453 0
M  V30 8424 H 816.394 3.44463 2.14709 0
M  V30 8425 H 817.16 4.84899 0.098875 0
M  V30 8426 H 813.039 4.43629 1.25355 0
M  V30 8427 H 816.583 6.87353 -1.1913 0
M  V30 8428 H 812.48 6.45493 -0.0297703 0
M  V30 8429 H 813.248 8.07702 -1.32512 0
M  V30 8430 N 815.911 -0.310526 1.54511 0
M  V30 8431 C 817.188 -1.06593 1.64004 0
M  V30 8432 C 817.568 -2.05519 0.482216 0
M  V30 8433 O 816.916 -2.22455 -0.52212 0
M  V30 8434 C 817.126 -1.75627 3.01589 0
M  V30 8435 C 818.474 -2.28173 3.58081 0
M  V30 8436 O 819.498 -1.85674 3.03979 0
M  V30 8437 O 818.357 -3.06015 4.52788 0
M  V30 8438 H 815.451 -0.492109 0.664649 0
M  V30 8439 H 817.997 -0.309374 1.66856 0
M  V30 8440 H 816.769 -1.03743 3.77297 0
M  V30 8441 H 816.392 -2.58061 3.02473 0
M  V30 8442 N 817.389 -1.46805 -0.573248 0
M  V30 8443 C 818.614 -1.56433 -1.36175 0
M  V30 8444 C 819.039 -0.209336 -1.86932 0
M  V30 8445 O 818.397 0.812146 -1.62092 0
M  V30 8446 C 818.445 -2.58055 -2.51873 0
M  V30 8447 O 817.549 -2.12214 -3.53609 0
M  V30 8448 H 816.89 -0.526068 -0.405153 0
M  V30 8449 H 819.42 -1.92456 -0.694405 0
M  V30 8450 H 819.43 -2.77966 -2.98662 0
M  V30 8451 H 818.105 -3.56448 -2.14284 0
M  V30 8452 H 816.682 -2.02333 -3.13234 0
M  V30 8453 N 818.867 0.818669 -1.34668 0
M  V30 8454 C 819.83 1.9114 -1.26483 0
M  V30 8455 C 820.83 1.598 -0.179044 0
M  V30 8456 O 822.02 1.6876 -0.431952 0
M  V30 8457 C 819.152 3.27285 -0.95381 0
M  V30 8458 H 820.345 1.9982 -2.23634 0
M  V30 8459 H 817.898 1.01314 -1.19018 0
M  V30 8460 H 818.633 3.24297 0.0143428 0
M  V30 8461 H 818.418 3.51416 -1.73924 0
M  V30 8462 H 819.908 4.07299 -0.921827 0
M  V30 8463 N 820.346 1.18468 1.03938 0
M  V30 8464 C 821.574 1.00576 1.80809 0
M  V30 8465 C 821.989 -0.445786 1.83462 0
M  V30 8466 O 821.346 -1.30964 1.27101 0
M  V30 8467 C 821.397 1.55491 3.26351 0
M  V30 8468 O 821.118 2.94963 3.23926 0
M  V30 8469 C 822.619 1.42236 4.19862 0
M  V30 8470 H 819.839 0.35508 0.56935 0
M  V30 8471 H 822.383 1.57046 1.30984 0
M  V30 8472 H 820.538 1.03195 3.73403 0
M  V30 8473 H 820.952 3.20598 4.15111 0
M  V30 8474 H 822.426 1.85455 5.19914 0
M  V30 8475 H 822.903 0.371267 4.37628 0
M  V30 8476 H 823.509 1.9361 3.78675 0
M  V30 8477 N 821.824 -1.22873 0.986916 0
M  V30 8478 C 822.771 -2.2458 0.532215 0
M  V30 8479 C 823.741 -1.60375 -0.432322 0
M  V30 8480 O 824.926 -1.87775 -0.338416 0
M  V30 8481 C 822.066 -3.44761 -0.152864 0
M  V30 8482 C 821.179 -4.23501 0.852704 0
M  V30 8483 C 820.314 -5.31011 0.14176 0
M  V30 8484 C 819.353 -6.01464 1.1361 0
M  V30 8485 N 818.49 -7.00631 0.453871 0
M  V30 8486 H 823.33 -2.62838 1.40428 0
M  V30 8487 H 820.867 -1.29185 0.703543 0
M  V30 8488 H 822.825 -4.1333 -0.566926 0
M  V30 8489 H 821.455 -3.07284 -0.988756 0
M  V30 8490 H 820.507 -3.54286 1.38512 0
M  V30 8491 H 821.819 -4.72097 1.61014 0
M  V30 8492 H 820.973 -6.05805 -0.329337 0
M  V30 8493 H 819.712 -4.83373 -0.648229 0
M  V30 8494 H 818.717 -5.25456 1.61789 0
M  V30 8495 H 819.942 -6.5119 1.92686 0
M  V30 8496 H 817.888 -6.55235 -0.316791 0
M  V30 8497 H 817.805 -7.47204 1.14986 0
M  V30 8498 H 819.073 -7.795 0.00537823 0
M  V30 8499 N 823.302 -0.75937 -1.38099 0
M  V30 8500 C 824.252 -0.111098 -2.27729 0
M  V30 8501 C 825.236 0.687161 -1.45489 0
M  V30 8502 O 826.428 0.552167 -1.68167 0
M  V30 8503 C 823.557 0.776809 -3.34396 0
M  V30 8504 C 822.643 -0.0286108 -4.2409 0
M  V30 8505 N 823.034 -1.06797 -4.94397 0
M  V30 8506 C 821.332 0.197307 -4.45563 0
M  V30 8507 C 822.033 -1.55576 -5.6051 0
M  V30 8508 N 821.009 -0.870059 -5.36592 0
M  V30 8509 H 824.811 -0.907047 -2.79553 0
M  V30 8510 H 822.325 -0.595954 -1.5107 0
M  V30 8511 H 824.322 1.25691 -3.97502 0
M  V30 8512 H 822.982 1.57164 -2.84129 0
M  V30 8513 H 823.993 -1.44988 -4.97191 0
M  V30 8514 H 820.67 0.965028 -4.06194 0
M  V30 8515 H 822.06 -2.42184 -6.26735 0
M  V30 8516 N 824.78 1.49157 -0.508906 0
M  V30 8517 C 826.027 2.02473 0.0327983 0
M  V30 8518 C 826.355 1.38792 1.36261 0
M  V30 8519 O 825.61 0.515576 1.88786 0
M  V30 8520 C 825.909 3.56687 0.225717 0
M  V30 8521 C 825.575 4.39046 -1.02708 0
M  V30 8522 C 824.237 4.61271 -1.37048 0
M  V30 8523 C 826.589 4.86902 -1.85946 0
M  V30 8524 C 823.917 5.28598 -2.54562 0
M  V30 8525 C 826.269 5.55521 -3.0262 0
M  V30 8526 C 824.933 5.7599 -3.3733 0
M  V30 8527 H 824.203 0.740903 0.0120017 0
M  V30 8528 H 826.85 1.79372 -0.670665 0
M  V30 8529 H 825.155 3.78511 1.01177 0
M  V30 8530 H 826.852 3.95541 0.659433 0
M  V30 8531 H 823.442 4.21994 -0.749615 0
M  V30 8532 H 827.626 4.69553 -1.6073 0
M  V30 8533 H 822.882 5.42646 -2.81682 0
M  V30 8534 H 827.056 5.91576 -3.67438 0
M  V30 8535 H 824.683 6.27934 -4.2849 0
M  V30 8536 N 826.258 0.243083 1.55714 0
M  V30 8537 C 827.486 -0.386971 2.03249 0
M  V30 8538 C 827.901 -1.51812 1.12243 0
M  V30 8539 O 827.258 -1.81992 0.136119 0
M  V30 8540 C 827.309 -0.898361 3.5016 0
M  V30 8541 O 827.03 0.187708 4.37698 0
M  V30 8542 C 828.531 -1.59949 4.13438 0
M  V30 8543 H 825.751 -0.0923981 0.664608 0
M  V30 8544 H 828.295 0.365832 2.01201 0
M  V30 8545 H 826.45 -1.60136 3.52754 0
M  V30 8546 H 826.864 -0.200001 5.24119 0
M  V30 8547 H 828.338 -1.90907 5.17937 0
M  V30 8548 H 828.815 -2.52014 3.59702 0
M  V30 8549 H 829.421 -0.941163 4.14756 0
M  V30 8550 N 827.736 -1.57571 -0.0300757 0
M  V30 8551 C 828.646 -2.09892 -1.04798 0
M  V30 8552 C 829.662 -1.03732 -1.39698 0
M  V30 8553 O 830.838 -1.35461 -1.49038 0
M  V30 8554 C 827.903 -2.56707 -2.33028 0
M  V30 8555 C 826.964 -3.77345 -2.04718 0
M  V30 8556 C 826.197 -4.21918 -3.26834 0
M  V30 8557 O 826.42 -3.66025 -4.37472 0
M  V30 8558 O 825.354 -5.14362 -3.12594 0
M  V30 8559 H 829.18 -2.97023 -0.633344 0
M  V30 8560 H 826.765 -1.47344 -0.246991 0
M  V30 8561 H 828.647 -2.87154 -3.08417 0
M  V30 8562 H 827.322 -1.72688 -2.73789 0
M  V30 8563 H 826.229 -3.51919 -1.26901 0
M  V30 8564 H 827.562 -4.62345 -1.68813 0
M  V30 8565 N 829.214 0.302327 -1.54673 0
M  V30 8566 C 830.46 1.03924 -1.74149 0
M  V30 8567 C 830.793 1.86968 -0.525041 0
M  V30 8568 O 830.068 1.88538 0.477868 0
M  V30 8569 C 830.351 1.94633 -3.02969 0
M  V30 8570 C 830.204 1.14778 -4.34909 0
M  V30 8571 C 831.523 2.93826 -3.27649 0
M  V30 8572 H 828.642 0.376405 -0.633631 0
M  V30 8573 H 831.284 0.314007 -1.87387 0
M  V30 8574 H 829.434 2.56471 -2.91813 0
M  V30 8575 H 831.106 0.552363 -4.57981 0
M  V30 8576 H 829.349 0.450462 -4.31455 0
M  V30 8577 H 830.02 1.81495 -5.21309 0
M  V30 8578 H 832.496 2.42117 -3.38406 0
M  V30 8579 H 831.372 3.54462 -4.19104 0
M  V30 8580 H 831.633 3.67416 -2.45882 0
M  V30 8581 N 830.692 1.47107 0.565454 0
M  V30 8582 C 831.622 1.61846 1.68309 0
M  V30 8583 C 832.603 0.468159 1.63531 0
M  V30 8584 O 833.788 0.696504 1.8128 0
M  V30 8585 C 830.918 1.62474 3.06952 0
M  V30 8586 C 829.872 2.76649 3.26572 0
M  V30 8587 C 829.198 2.62345 4.65917 0
M  V30 8588 C 830.498 4.18319 3.12741 0
M  V30 8589 H 832.192 2.55407 1.5623 0
M  V30 8590 H 829.738 1.22916 0.750179 0
M  V30 8591 H 831.691 1.71378 3.84977 0
M  V30 8592 H 830.415 0.654692 3.19971 0
M  V30 8593 H 829.074 2.67242 2.50952 0
M  V30 8594 H 828.722 1.63386 4.75725 0
M  V30 8595 H 828.422 3.38936 4.79996 0
M  V30 8596 H 829.946 2.73165 5.46089 0
M  V30 8597 H 831.36 4.28745 3.80593 0
M  V30 8598 H 829.757 4.95632 3.38333 0
M  V30 8599 H 830.827 4.37263 2.09592 0
M  V30 8600 N 832.17 -0.811516 1.35101 0
M  V30 8601 C 833.447 -1.55491 1.18667 0
M  V30 8602 C 833.827 -2.09775 -0.236189 0
M  V30 8603 O 833.175 -1.91989 -1.23905 0
M  V30 8604 C 833.385 -2.66732 2.25067 0
M  V30 8605 C 834.733 -3.35201 2.60625 0
M  V30 8606 O 835.757 -2.76998 2.23943 0
M  V30 8607 O 834.616 -4.40334 3.23679 0
M  V30 8608 H 831.71 -0.686783 0.460716 0
M  V30 8609 H 834.256 -0.851903 1.46768 0
M  V30 8610 H 833.028 -2.24457 3.20523 0
M  V30 8611 H 832.651 -3.44673 1.98208 0
M  V30 8612 N 833.648 -1.19017 -1.03309 0
M  V30 8613 C 834.876 -1.01534 -1.80273 0
M  V30 8614 C 835.291 0.43605 -1.83696 0
M  V30 8615 O 834.648 1.30288 -1.27794 0
M  V30 8616 C 834.699 -1.5722 -3.25522 0
M  V30 8617 O 834.42 -2.96677 -3.22358 0
M  V30 8618 C 835.921 -1.4446 -4.19102 0
M  V30 8619 H 833.141 -0.358094 -0.567459 0
M  V30 8620 H 835.685 -1.57738 -1.3015 0
M  V30 8621 H 833.84 -1.05174 -3.7285 0
M  V30 8622 H 834.254 -3.22795 -4.13405 0
M  V30 8623 H 835.728 -1.88209 -5.18923 0
M  V30 8624 H 836.205 -0.394471 -4.37425 0
M  V30 8625 H 836.811 -1.95616 -3.77643 0
M  V30 8626 N 835.127 1.22348 -0.993418 0
M  V30 8627 C 836.374 1.9111 -0.669568 0
M  V30 8628 C 836.702 1.77357 0.79843 0
M  V30 8629 O 835.957 1.13675 1.593 0
M  V30 8630 C 836.256 3.42477 -1.02197 0
M  V30 8631 C 835.922 3.7642 -2.48232 0
M  V30 8632 C 834.584 3.85395 -2.88139 0
M  V30 8633 C 836.936 3.9253 -3.42884 0
M  V30 8634 C 834.264 4.07918 -4.21687 0
M  V30 8635 C 836.616 4.16557 -4.76091 0
M  V30 8636 C 835.28 4.23757 -5.15739 0
M  V30 8637 H 834.55 0.699321 -0.245012 0
M  V30 8638 H 837.197 1.45102 -1.2497 0
M  V30 8639 H 835.502 3.90143 -0.359921 0
M  V30 8640 H 837.199 3.93935 -0.74942 0
M  V30 8641 H 833.789 3.70017 -2.16299 0
M  V30 8642 H 837.973 3.84974 -3.13224 0
M  V30 8643 H 833.229 4.11719 -4.51993 0
M  V30 8644 H 837.403 4.27966 -5.4938 0
M  V30 8645 H 835.03 4.40962 -6.19239 0
M  V30 8646 N 836.605 0.766683 1.37694 0
M  V30 8647 C 838.016 0.394761 1.82479 0
M  V30 8648 C 838.367 -1.07842 1.63904 0
M  V30 8649 O 837.492 -1.83479 1.14737 0
M  V30 8650 C 838.087 0.70974 3.31283 0
M  V30 8651 C 836.646 0.390936 3.74364 0
M  V30 8652 C 835.793 0.956192 2.60293 0
M  V30 8653 H 838.744 0.961756 1.26238 0
M  V30 8654 H 838.765 -0.00742144 3.80499 0
M  V30 8655 H 838.277 1.782 3.4477 0
M  V30 8656 H 836.378 -0.674213 3.66449 0
M  V30 8657 H 836.491 0.895645 4.70654 0
M  V30 8658 H 834.855 0.380744 2.51838 0
M  V30 8659 H 835.638 2.03375 2.76575 0
M  V30 8660 N 838.083 -1.48885 0.516809 0
M  V30 8661 C 839.331 -2.02088 -0.0220166 0
M  V30 8662 C 839.652 -1.39735 -1.36011 0
M  V30 8663 O 838.922 -0.558119 -1.87781 0
M  V30 8664 H 837.502 -0.746917 -0.0111255 0
M  V30 8665 H 840.164 -1.8274 0.677647 0
M  V30 8666 H 839.26 -3.11786 -0.140067 0
M  V30 8667 N 839.561 -0.251338 -1.55583 0
M  V30 8668 C 840.471 0.656978 -2.25213 0
M  V30 8669 C 841.487 1.18966 -1.26977 0
M  V30 8670 O 842.663 1.22499 -1.59862 0
M  V30 8671 C 839.728 1.83527 -2.94141 0
M  V30 8672 C 838.789 1.34162 -4.07798 0
M  V30 8673 C 838.022 2.46375 -4.73429 0
M  V30 8674 O 838.245 3.65205 -4.38157 0
M  V30 8675 O 837.179 2.15881 -5.61853 0
M  V30 8676 H 841.005 0.0936395 -3.03556 0
M  V30 8677 H 838.59 -0.0196638 -1.49387 0
M  V30 8678 H 840.472 2.52279 -3.3754 0
M  V30 8679 H 839.147 2.38614 -2.18735 0
M  V30 8680 H 838.054 0.621249 -3.68906 0
M  V30 8681 H 839.387 0.836779 -4.85035 0
M  V30 8682 N 841.039 1.57585 0.0217189 0
M  V30 8683 C 841.969 2.10073 1.01939 0
M  V30 8684 C 842.95 1.0049 1.37243 0
M  V30 8685 O 844.135 1.28055 1.45999 0
M  V30 8686 C 841.265 2.58618 2.31806 0
M  V30 8687 C 840.219 3.72531 2.10724 0
M  V30 8688 C 839.545 4.07309 3.46415 0
M  V30 8689 C 840.845 5.00672 1.48743 0
M  V30 8690 H 842.539 2.9368 0.582432 0
M  V30 8691 H 840.085 1.41277 0.278715 0
M  V30 8692 H 842.038 2.9396 3.01936 0
M  V30 8693 H 840.762 1.72104 2.77575 0
M  V30 8694 H 839.421 3.37549 1.43025 0
M  V30 8695 H 839.069 3.17851 3.89846 0
M  V30 8696 H 838.769 4.84042 3.33132 0
M  V30 8697 H 840.293 4.45192 4.17895 0
M  V30 8698 H 841.707 5.33925 2.088 0
M  V30 8699 H 840.104 5.82065 1.46013 0
M  V30 8700 H 841.174 4.82769 0.45408 0
M  V30 8701 N 842.517 -0.29412 1.54831 0
M  V30 8702 C 843.48 -1.3461 1.85507 0
M  V30 8703 C 844.48 -1.43359 0.728343 0
M  V30 8704 O 845.67 -1.42875 0.996609 0
M  V30 8705 C 842.802 -2.73012 2.0415 0
M  V30 8706 H 843.995 -1.08651 2.79526 0
M  V30 8707 H 841.548 -0.531138 1.46999 0
M  V30 8708 H 842.283 -3.04183 1.12441 0
M  V30 8709 H 842.068 -2.68051 2.86166 0
M  V30 8710 H 843.558 -3.49061 2.29229 0
M  V30 8711 N 843.995 -1.47404 -0.557645 0
M  V30 8712 C 845.406 -1.47872 -1.13977 0
M  V30 8713 C 845.757 -0.233176 -1.94809 0
M  V30 8714 O 844.882 0.661945 -2.06027 0
M  V30 8715 C 845.477 -2.67926 -2.07368 0
M  V30 8716 C 844.036 -2.71354 -2.60852 0
M  V30 8717 C 843.183 -2.40967 -1.37223 0
M  V30 8718 H 846.134 -1.54921 -0.344268 0
M  V30 8719 H 846.155 -2.44871 -2.91236 0
M  V30 8720 H 845.667 -3.58562 -1.48509 0
M  V30 8721 H 843.768 -1.84855 -3.23511 0
M  V30 8722 H 843.881 -3.72032 -3.01876 0
M  V30 8723 H 842.245 -1.91541 -1.67882 0
M  V30 8724 H 843.028 -3.33811 -0.801583 0
M  V30 8725 N 845.473 0.80434 -1.35529 0
M  V30 8726 C 846.42 1.91629 -1.28635 0
M  V30 8727 C 847.39 1.65348 -0.157862 0
M  V30 8728 O 848.575 1.87711 -0.341934 0
M  V30 8729 C 845.715 3.28207 -1.0665 0
M  V30 8730 C 844.828 3.66659 -2.28441 0
M  V30 8731 C 843.963 4.92279 -1.99588 0
M  V30 8732 C 843.002 5.23365 -3.1742 0
M  V30 8733 N 842.139 6.40165 -2.88328 0
M  V30 8734 H 846.979 1.96858 -2.23721 0
M  V30 8735 H 844.516 0.962871 -1.11208 0
M  V30 8736 H 846.474 4.06945 -0.919343 0
M  V30 8737 H 845.104 3.22441 -0.152253 0
M  V30 8738 H 844.156 2.83164 -2.54013 0
M  V30 8739 H 845.468 3.8559 -3.1642 0
M  V30 8740 H 844.622 5.78847 -1.81715 0
M  V30 8741 H 843.361 4.75387 -1.08896 0
M  V30 8742 H 842.366 4.35285 -3.35867 0
M  V30 8743 H 843.591 5.42185 -4.08916 0
M  V30 8744 H 841.537 6.24694 -2.00233 0
M  V30 8745 H 841.454 6.59357 -3.69843 0
M  V30 8746 H 842.722 7.29755 -2.74002 0
M  V30 8747 N 846.951 1.19563 1.02676 0
M  V30 8748 C 847.881 0.959024 2.12897 0
M  V30 8749 C 848.862 -0.108382 1.69754 0
M  V30 8750 O 850.047 0.0470698 1.94143 0
M  V30 8751 C 847.177 0.499211 3.43693 0
M  V30 8752 C 846.131 1.5087 4.00528 0
M  V30 8753 C 845.457 0.905884 5.2697 0
M  V30 8754 C 846.757 2.88954 4.3509 0
M  V30 8755 H 848.451 1.88084 2.32948 0
M  V30 8756 H 845.997 0.905731 1.11949 0
M  V30 8757 H 847.95 0.320965 4.20176 0
M  V30 8758 H 846.674 -0.458205 3.2337 0
M  V30 8759 H 845.333 1.67413 3.26142 0
M  V30 8760 H 844.981 -0.0591506 5.02965 0
M  V30 8761 H 844.681 1.58 5.65959 0
M  V30 8762 H 846.205 0.73848 6.06118 0
M  V30 8763 H 847.619 2.75981 5.02501 0
M  V30 8764 H 846.016 3.53177 4.85166 0
M  V30 8765 H 847.086 3.41447 3.44299 0
M  V30 8766 N 848.429 -1.21819 0.999893 0
M  V30 8767 C 849.392 -2.22227 0.561044 0
M  V30 8768 C 850.392 -1.56722 -0.359858 0
M  V30 8769 O 851.582 -1.73546 -0.150848 0
M  V30 8770 C 848.714 -3.40409 -0.182987 0
M  V30 8771 H 849.907 -2.62567 1.44909 0
M  V30 8772 H 847.46 -1.34991 0.78785 0
M  V30 8773 H 848.195 -3.05551 -1.08671 0
M  V30 8774 H 847.98 -3.89171 0.47833 0
M  V30 8775 H 849.47 -4.14856 -0.477952 0
M  V30 8776 N 849.908 -0.773975 -1.37286 0
M  V30 8777 C 850.838 -0.175782 -2.32837 0
M  V30 8778 C 851.819 0.680603 -1.5589 0
M  V30 8779 O 853.004 0.617607 -1.84117 0
M  V30 8780 C 850.134 0.702388 -3.40123 0
M  V30 8781 C 849.088 -0.0528687 -4.27967 0
M  V30 8782 C 848.414 0.944891 -5.26285 0
M  V30 8783 C 849.714 -1.23316 -5.07534 0
M  V30 8784 H 851.408 -0.974016 -2.83114 0
M  V30 8785 H 848.954 -0.469826 -1.3612 0
M  V30 8786 H 850.907 1.13069 -4.05947 0
M  V30 8787 H 849.631 1.53316 -2.88378 0
M  V30 8788 H 848.29 -0.461978 -3.63678 0
M  V30 8789 H 847.938 1.77028 -4.70819 0
M  V30 8790 H 847.638 0.444079 -5.8592 0
M  V30 8791 H 849.162 1.37209 -5.94984 0
M  V30 8792 H 850.576 -0.881395 -5.66484 0
M  V30 8793 H 848.973 -1.66621 -5.76504 0
M  V30 8794 H 850.043 -2.03617 -4.40077 0
M  V30 8795 N 851.386 1.48609 -0.524698 0
M  V30 8796 C 852.349 2.28041 0.230166 0
M  V30 8797 C 853.349 1.35065 0.872584 0
M  V30 8798 O 854.539 1.58007 0.73345 0
M  V30 8799 C 851.671 3.13778 1.33252 0
M  V30 8800 H 852.864 2.96239 -0.467161 0
M  V30 8801 H 850.417 1.53763 -0.280452 0
M  V30 8802 H 851.152 2.502 2.06327 0
M  V30 8803 H 850.937 3.82165 0.877058 0
M  V30 8804 H 852.427 3.7371 1.86362 0
M  V30 8805 N 852.864 0.259585 1.55447 0
M  V30 8806 C 853.827 -0.621359 2.20617 0
M  V30 8807 C 854.827 -1.09317 1.17925 0
M  V30 8808 O 856.017 -0.995842 1.42929 0
M  V30 8809 C 853.149 -1.85546 2.85982 0
M  V30 8810 H 854.342 -0.0525833 2.99854 0
M  V30 8811 H 851.895 0.0101055 1.56297 0
M  V30 8812 H 852.63 -2.46515 2.10715 0
M  V30 8813 H 852.415 -1.52523 3.61219 0
M  V30 8814 H 853.905 -2.48227 3.35817 0
M  V30 8815 N 854.342 -1.57594 -0.0133615 0
M  V30 8816 C 855.57 -1.94251 -0.712328 0
M  V30 8817 C 855.985 -0.86063 -1.68043 0
M  V30 8818 O 855.342 0.161632 -1.81783 0
M  V30 8819 C 855.393 -3.30891 -1.45581 0
M  V30 8820 O 855.114 -4.34924 -0.526539 0
M  V30 8821 C 856.615 -3.81926 -2.2505 0
M  V30 8822 H 853.835 -0.640737 -0.199241 0
M  V30 8823 H 856.379 -2.04472 0.0337855 0
M  V30 8824 H 854.534 -3.22019 -2.15366 0
M  V30 8825 H 854.948 -5.1389 -1.04962 0
M  V30 8826 H 856.422 -4.79999 -2.72589 0
M  V30 8827 H 856.899 -3.13934 -3.07152 0
M  V30 8828 H 857.505 -3.93931 -1.60308 0
M  V30 8829 N 855.82 0.285905 -1.54985 0
M  V30 8830 C 856.783 1.33625 -1.86218 0
M  V30 8831 C 857.783 1.42971 -0.735936 0
M  V30 8832 O 858.973 1.42345 -1.00417 0
M  V30 8833 C 856.105 2.71926 -2.05595 0
M  V30 8834 H 857.298 1.07167 -2.80099 0
M  V30 8835 H 854.851 0.523335 -1.47278 0
M  V30 8836 H 855.586 3.03583 -1.14053 0
M  V30 8837 H 855.371 2.6653 -2.87583 0
M  V30 8838 H 856.861 3.47841 -2.31077 0
M  V30 8839 N 857.298 1.47698 0.54982 0
M  V30 8840 C 858.208 1.63386 1.68351 0
M  V30 8841 C 859.224 0.516583 1.66155 0
M  V30 8842 O 860.4 0.785088 1.85468 0
M  V30 8843 C 857.465 1.6513 3.04849 0
M  V30 8844 C 856.526 2.88338 3.18056 0
M  V30 8845 C 855.759 2.8999 4.48042 0
M  V30 8846 O 855.982 2.00633 5.3395 0
M  V30 8847 O 854.916 3.81938 4.65196 0
M  V30 8848 H 858.742 2.59329 1.58057 0
M  V30 8849 H 856.327 1.30869 0.72067 0
M  V30 8850 H 858.209 1.68913 3.86065 0
M  V30 8851 H 856.884 0.723555 3.1551 0
M  V30 8852 H 855.791 2.90097 2.36209 0
M  V30 8853 H 857.124 3.80431 3.12302 0
M  V30 8854 N 858.776 -0.797141 1.35954 0
M  V30 8855 C 859.706 -1.92387 1.32323 0
M  V30 8856 C 860.687 -1.68967 0.196007 0
M  V30 8857 O 861.872 -1.90193 0.39245 0
M  V30 8858 C 859.002 -3.29286 1.10398 0
M  V30 8859 C 857.956 -3.67212 2.19862 0
M  V30 8860 C 857.282 -5.02377 1.8309 0
M  V30 8861 C 858.582 -3.76602 3.61896 0
M  V30 8862 H 860.276 -1.95683 2.26602 0
M  V30 8863 H 857.822 -0.94007 1.09081 0
M  V30 8864 H 859.775 -4.07721 1.06495 0
M  V30 8865 H 858.499 -3.26358 0.125668 0
M  V30 8866 H 857.158 -2.91069 2.22878 0
M  V30 8867 H 856.806 -4.95961 0.838527 0
M  V30 8868 H 856.506 -5.28722 2.56372 0
M  V30 8869 H 858.03 -5.8324 1.80729 0
M  V30 8870 H 859.444 -4.45246 3.6115 0
M  V30 8871 H 857.841 -4.14425 4.34018 0
M  V30 8872 H 858.911 -2.77906 3.97361 0
M  V30 8873 N 860.254 -1.20106 -1.0204 0
M  V30 8874 C 861.217 -0.948261 -2.08664 0
M  V30 8875 C 862.217 0.0746753 -1.60627 0
M  V30 8876 O 863.407 -0.160981 -1.73455 0
M  V30 8877 C 860.539 -0.426854 -3.38217 0
M  V30 8878 H 861.732 -1.894 -2.32524 0
M  V30 8879 H 859.285 -1.0159 -1.18782 0
M  V30 8880 H 860.02 0.524532 -3.2003 0
M  V30 8881 H 859.805 -1.16451 -3.74408 0
M  V30 8882 H 861.295 -0.269346 -4.1673 0
M  V30 8883 N 861.732 1.21287 -1.00634 0
M  V30 8884 C 862.98 1.90013 -0.688438 0
M  V30 8885 C 863.301 1.78573 0.783365 0
M  V30 8886 O 862.571 1.1815 1.56261 0
M  V30 8887 H 861.151 0.703336 -0.251648 0
M  V30 8888 H 863.813 1.47346 -1.27574 0
M  V30 8889 H 862.909 2.96879 -0.962781 0
M  V30 8890 N 863.21 0.781244 1.36873 0
M  V30 8891 C 864.158 0.161889 2.32036 0
M  V30 8892 C 865.152 -0.674225 1.55405 0
M  V30 8893 O 866.358 -0.570223 1.70729 0
M  V30 8894 H 862.733 0.0335702 0.75125 0
M  V30 8895 H 864.704 0.980078 2.81846 0
M  V30 8896 C 863.453 -0.695352 3.40676 0
M  V30 8897 H 862.776 -0.0613425 3.99753 0
M  V30 8898 H 864.216 -1.09553 4.09602 0
M  V30 8899 C 862.675 -1.85008 2.81556 0
M  V30 8900 O 863.205 -2.94616 2.73065 0
M  V30 8901 N 861.411 -1.65364 2.38962 0
M  V30 8902 H 860.958 -0.762106 2.46068 0
M  V30 8903 H 860.916 -2.42789 1.99752 0
M  V30 8904 N 864.689 -1.48329 0.532571 0
M  V30 8905 C 865.917 -2.069 0.00354299 0
M  V30 8906 C 866.332 -1.38876 -1.27902 0
M  V30 8907 O 865.689 -0.477119 -1.76153 0
M  V30 8908 C 865.74 -3.60821 -0.221416 0
M  V30 8909 O 865.461 -4.26291 1.01034 0
M  V30 8910 C 866.962 -4.36194 -0.790531 0
M  V30 8911 H 864.182 -0.670103 0.0346836 0
M  V30 8912 H 866.726 -1.90682 0.738955 0
M  V30 8913 H 864.881 -3.76636 -0.906884 0
M  V30 8914 H 865.295 -5.18475 0.792683 0
M  V30 8915 H 866.769 -5.44657 -0.897347 0
M  V30 8916 H 867.246 -4.00798 -1.79605 0
M  V30 8917 H 867.852 -4.25064 -0.141546 0
M  V30 8918 N 866.167 -0.267825 -1.55308 0
M  V30 8919 C 867.444 0.402449 -1.91415 0
M  V30 8920 C 867.824 1.7428 -1.1912 0
M  V30 8921 O 867.172 2.2631 -0.315609 0
M  V30 8922 C 867.382 0.549926 -3.4464 0
M  V30 8923 C 868.73 0.836188 -4.16285 0
M  V30 8924 O 869.754 0.635009 -3.50494 0
M  V30 8925 O 868.613 1.22051 -5.32697 0
M  V30 8926 H 865.707 0.219177 -0.797427 0
M  V30 8927 H 868.253 -0.313439 -1.6678 0
M  V30 8928 H 867.025 -0.393641 -3.89315 0
M  V30 8929 H 866.648 1.31556 -3.75205 0
M  V30 8930 N 867.645 1.57599 0.00500368 0
M  V30 8931 C 868.555 2.11532 1.01446 0
M  V30 8932 C 869.571 1.05941 1.3803 0
M  V30 8933 O 870.747 1.37815 1.46864 0
M  V30 8934 C 867.812 2.60382 2.28915 0
M  V30 8935 C 866.873 3.80554 1.98689 0
M  V30 8936 C 866.106 4.27064 3.20081 0
M  V30 8937 O 866.329 3.72939 4.31593 0
M  V30 8938 O 865.263 5.1927 3.04371 0
M  V30 8939 H 869.089 2.97993 0.586011 0
M  V30 8940 H 866.674 1.47718 0.223519 0
M  V30 8941 H 868.556 2.92024 3.03809 0
M  V30 8942 H 867.231 1.77022 2.71007 0
M  V30 8943 H 866.138 3.53893 1.21286 0
M  V30 8944 H 867.471 4.64972 1.61437 0
M  V30 8945 N 869.123 -0.277682 1.55134 0
M  V30 8946 C 870.073 -1.34531 1.8408 0
M  V30 8947 C 871.057 -1.44904 0.699393 0
M  V30 8948 O 872.249 -1.48664 0.960623 0
M  V30 8949 C 869.378 -2.7064 2.11208 0
M  V30 8950 C 868.464 -2.64396 3.31596 0
M  V30 8951 N 868.855 -2.2777 4.51613 0
M  V30 8952 C 867.153 -2.95464 3.34091 0
M  V30 8953 C 867.854 -2.31401 5.33693 0
M  V30 8954 N 866.83 -2.69688 4.71984 0
M  V30 8955 H 870.632 -1.05214 2.74421 0
M  V30 8956 H 868.146 -0.486311 1.54948 0
M  V30 8957 H 870.143 -3.47649 2.301 0
M  V30 8958 H 868.803 -3.00849 1.22148 0
M  V30 8959 H 869.814 -1.99827 4.77797 0
M  V30 8960 H 866.491 -3.30415 2.5521 0
M  V30 8961 H 867.881 -2.05685 6.39643 0
M  V30 8962 N 870.601 -1.47988 -0.541979 0
M  V30 8963 C 871.548 -1.61615 -1.6477 0
M  V30 8964 C 872.518 -0.458602 -1.59644 0
M  V30 8965 O 873.703 -0.680585 -1.78249 0
M  V30 8966 C 870.843 -1.65066 -3.03063 0
M  V30 8967 C 869.956 -2.91845 -3.18513 0
M  V30 8968 C 869.091 -2.86534 -4.47294 0
M  V30 8969 C 868.13 -4.0807 -4.5623 0
M  V30 8970 N 867.267 -4.00905 -5.76385 0
M  V30 8971 H 872.107 -2.56046 -1.52461 0
M  V30 8972 H 869.644 -1.26989 -0.742449 0
M  V30 8973 H 871.602 -1.65049 -3.83164 0
M  V30 8974 H 870.232 -0.74136 -3.14171 0
M  V30 8975 H 869.284 -3.01661 -2.31743 0
M  V30 8976 H 870.596 -3.81804 -3.20978 0
M  V30 8977 H 869.75 -2.84851 -5.35672 0
M  V30 8978 H 868.489 -1.94283 -4.47332 0
M  V30 8979 H 867.494 -4.10041 -3.66261 0
M  V30 8980 H 868.719 -5.01465 -4.5794 0
M  V30 8981 H 866.665 -3.11467 -5.77342 0
M  V30 8982 H 866.582 -4.84557 -5.80293 0
M  V30 8983 H 867.85 -4.03263 -6.67083 0
M  V30 8984 N 872.079 0.78992 -1.36375 0
M  V30 8985 C 873.326 1.54777 -1.30576 0
M  V30 8986 C 873.654 1.94159 0.115095 0
M  V30 8987 O 872.909 1.62918 1.08426 0
M  V30 8988 C 873.208 2.83698 -2.17371 0
M  V30 8989 C 872.874 2.63457 -3.65925 0
M  V30 8990 C 871.536 2.57645 -4.06415 0
M  V30 8991 C 873.888 2.44833 -4.60115 0
M  V30 8992 C 871.216 2.31174 -5.39236 0
M  V30 8993 C 873.568 2.19889 -5.93154 0
M  V30 8994 C 872.232 2.1251 -6.32768 0
M  V30 8995 H 871.502 0.566371 -0.477813 0
M  V30 8996 H 874.149 0.91138 -1.68422 0
M  V30 8997 H 872.454 3.51802 -1.72459 0
M  V30 8998 H 874.151 3.41487 -2.10209 0
M  V30 8999 H 870.741 2.68836 -3.33804 0
M  V30 9000 H 874.925 2.48325 -4.29707 0
M  V30 9001 H 870.181 2.23942 -5.68911 0
M  V30 9002 H 874.355 2.04473 -6.65705 0
M  V30 9003 H 871.982 1.91761 -7.35616 0
M  V30 9004 N 873.557 1.20646 1.01402 0
M  V30 9005 C 874.787 1.04238 1.78376 0
M  V30 9006 C 875.195 -0.411327 1.84675 0
M  V30 9007 O 874.538 -1.29734 1.30057 0
M  V30 9008 C 874.6 1.55349 3.24202 0
M  V30 9009 C 874.264 3.03684 3.41504 0
M  V30 9010 C 875.261 4.01318 3.30514 0
M  V30 9011 C 872.946 3.42698 3.67237 0
M  V30 9012 C 874.94 5.35956 3.45007 0
M  V30 9013 C 872.627 4.77491 3.81373 0
M  V30 9014 C 873.625 5.73929 3.70263 0
M  V30 9015 O 873.313 7.06277 3.83963 0
M  V30 9016 H 873.045 0.366978 0.567718 0
M  V30 9017 H 875.599 1.60235 1.28506 0
M  V30 9018 H 873.829 0.93739 3.75166 0
M  V30 9019 H 875.518 1.34921 3.8282 0
M  V30 9020 H 876.284 3.72522 3.10568 0
M  V30 9021 H 872.163 2.68175 3.74971 0
M  V30 9022 H 875.707 6.11212 3.36252 0
M  V30 9023 H 871.604 5.05977 4.00821 0
M  V30 9024 H 872.372 7.13561 4.00965 0
M  V30 9025 N 875.035 -1.20752 1.01276 0
M  V30 9026 C 875.967 -2.22798 0.537917 0
M  V30 9027 C 876.98 -1.5836 -0.377638 0
M  V30 9028 O 878.169 -1.77624 -0.176599 0
M  V30 9029 C 875.269 -3.38068 -0.237364 0
M  V30 9030 C 874.442 -4.32095 0.679161 0
M  V30 9031 C 873.501 -5.26178 -0.0478676 0
M  V30 9032 O 872.527 -5.66305 0.573366 0
M  V30 9033 N 873.729 -5.65201 -1.32396 0
M  V30 9034 H 876.494 -2.64166 1.4155 0
M  V30 9035 H 874.055 -1.35254 0.889826 0
M  V30 9036 H 876.047 -3.98009 -0.73288 0
M  V30 9037 H 874.617 -2.95622 -1.0162 0
M  V30 9038 H 873.837 -3.70179 1.35505 0
M  V30 9039 H 875.125 -4.91842 1.30263 0
M  V30 9040 H 874.523 -5.34606 -1.84968 0
M  V30 9041 H 873.08 -6.27468 -1.76428 0
M  V30 9042 N 876.513 -0.788492 -1.36457 0
M  V30 9043 C 877.741 -0.372365 -2.03522 0
M  V30 9044 C 878.156 1.01093 -1.59454 0
M  V30 9045 O 877.513 1.64824 -0.783535 0
M  V30 9046 C 877.564 -0.425435 -3.58988 0
M  V30 9047 O 877.285 -1.75418 -4.01448 0
M  V30 9048 C 878.786 0.000180167 -4.433 0
M  V30 9049 H 876.006 -0.1536 -0.653183 0
M  V30 9050 H 878.55 -1.06708 -1.74452 0
M  V30 9051 H 876.705 0.220856 -3.8677 0
M  V30 9052 H 877.119 -1.70437 -4.96036 0
M  V30 9053 H 878.593 -0.0880919 -5.5193 0
M  V30 9054 H 879.07 1.05269 -4.26398 0
M  V30 9055 H 879.676 -0.618563 -4.20778 0
M  V30 9056 N 877.991 1.48044 -0.54043 0
M  V30 9057 C 879.237 2.02797 -0.0101718 0
M  V30 9058 C 879.57 1.41565 1.32939 0
M  V30 9059 O 878.845 0.565139 1.86109 0
M  V30 9060 C 879.128 3.59959 0.100758 0
M  V30 9061 C 878.981 4.31654 -1.26471 0
M  V30 9062 C 880.3 4.32347 0.822455 0
M  V30 9063 H 877.419 0.736982 -0.00517052 0
M  V30 9064 H 880.061 1.76656 -0.69948 0
M  V30 9065 H 878.211 3.82363 0.687824 0
M  V30 9066 H 879.883 4.20639 -1.89369 0
M  V30 9067 H 878.126 3.92663 -1.84386 0
M  V30 9068 H 878.797 5.401 -1.13998 0
M  V30 9069 H 881.273 4.14835 0.324164 0
M  V30 9070 H 880.149 5.41978 0.868993 0
M  V30 9071 H 880.41 4.00369 1.87501 0
M  V30 9072 N 879.47 0.276058 1.55163 0
M  V30 9073 C 880.716 -0.333945 2.0064 0
M  V30 9074 C 881.071 -1.53414 1.16111 0
M  V30 9075 O 880.364 -1.90293 0.22341 0
M  V30 9076 C 880.558 -0.765744 3.491 0
M  V30 9077 C 880.387 0.391068 4.47996 0
M  V30 9078 C 879.157 0.875151 4.97664 0
M  V30 9079 C 881.355 1.22786 4.99428 0
M  V30 9080 N 879.337 2.00133 5.80362 0
M  V30 9081 C 880.708 2.20192 5.79582 0
M  V30 9082 C 882.763 1.26109 4.81665 0
M  V30 9083 C 881.466 3.20667 6.43868 0
M  V30 9084 C 883.492 2.2543 5.4675 0
M  V30 9085 C 882.854 3.21568 6.26716 0
M  V30 9086 H 878.953 -0.087345 0.777107 0
M  V30 9087 H 881.537 0.400294 1.90541 0
M  V30 9088 H 879.708 -1.46921 3.5954 0
M  V30 9089 H 881.44 -1.35316 3.81407 0
M  V30 9090 H 878.195 0.454297 4.71416 0
M  V30 9091 H 878.619 2.56806 6.26402 0
M  V30 9092 H 883.261 0.531622 4.19444 0
M  V30 9093 H 880.979 3.94547 7.05236 0
M  V30 9094 H 884.565 2.28744 5.34946 0
M  V30 9095 H 883.445 3.97164 6.76188 0
M  V30 9096 N 880.948 -1.576 0.00335426 0
M  V30 9097 C 882.173 -1.95398 -0.695311 0
M  V30 9098 C 882.598 -0.878476 -1.66326 0
M  V30 9099 O 881.956 0.163086 -1.80565 0
M  V30 9100 C 882.004 -3.32293 -1.40049 0
M  V30 9101 O 881.108 -3.26834 -2.51502 0
M  V30 9102 H 880.449 -0.637796 -0.184694 0
M  V30 9103 H 882.979 -2.04519 0.057543 0
M  V30 9104 H 882.989 -3.67936 -1.76316 0
M  V30 9105 H 881.664 -4.10123 -0.690803 0
M  V30 9106 H 880.241 -3.02872 -2.17539 0
M  V30 9107 N 882.426 0.269451 -1.5528 0
M  V30 9108 C 883.654 1.01872 -1.80082 0
M  V30 9109 C 884.069 1.79802 -0.575917 0
M  V30 9110 O 883.426 1.76735 0.455081 0
M  V30 9111 C 883.477 1.9745 -3.02813 0
M  V30 9112 O 883.198 1.22677 -4.20573 0
M  V30 9113 C 884.699 2.8416 -3.40247 0
M  V30 9114 H 881.919 0.300781 -0.59981 0
M  V30 9115 H 884.463 0.29916 -2.023 0
M  V30 9116 H 882.618 2.64864 -2.82712 0
M  V30 9117 H 883.032 1.87129 -4.89982 0
M  V30 9118 H 884.506 3.47014 -4.29284 0
M  V30 9119 H 884.983 3.54113 -2.59809 0
M  V30 9120 H 885.589 2.22232 -3.6262 0
M  V30 9121 N 883.904 1.48273 0.534124 0
M  V30 9122 C 884.852 1.62926 1.66005 0
M  V30 9123 C 885.846 0.495814 1.61982 0
M  V30 9124 O 887.052 0.6744 1.66889 0
M  V30 9125 H 883.427 0.513163 0.549698 0
M  V30 9126 H 885.398 2.57498 1.50789 0
M  V30 9127 C 884.147 1.68231 3.04292 0
M  V30 9128 H 883.47 2.54807 3.0808 0
M  V30 9129 H 884.91 1.82528 3.827 0
M  V30 9130 C 883.369 0.420154 3.3427 0
M  V30 9131 O 883.899 -0.468769 3.98955 0
M  V30 9132 N 882.105 0.293115 2.89118 0
M  V30 9133 H 881.652 1.01745 2.36655 0
M  V30 9134 H 881.61 -0.550376 3.09545 0
M  V30 9135 N 885.382 -0.782676 1.36792 0
M  V30 9136 C 886.659 -1.52939 1.21939 0
M  V30 9137 C 887.039 -2.10228 -0.191639 0
M  V30 9138 O 886.387 -1.94574 -1.19805 0
M  V30 9139 C 886.597 -2.61898 2.30674 0
M  V30 9140 C 887.945 -3.29598 2.67676 0
M  V30 9141 O 888.969 -2.72186 2.29768 0
M  V30 9142 O 887.828 -4.3337 3.32946 0
M  V30 9143 H 884.922 -0.676856 0.47518 0
M  V30 9144 H 887.468 -0.82058 1.48542 0
M  V30 9145 H 886.24 -2.17607 3.25212 0
M  V30 9146 H 885.863 -3.40391 2.05475 0
M  V30 9147 N 886.86 -1.21182 -1.00761 0
M  V30 9148 C 888.108 -1.02543 -1.74153 0
M  V30 9149 C 888.429 0.442372 -1.89916 0
M  V30 9150 O 887.699 1.31927 -1.44818 0
M  V30 9151 H 886.279 -0.37644 -0.645214 0
M  V30 9152 H 888.941 -1.52446 -1.21434 0
M  V30 9153 H 888.037 -1.49122 -2.7417 0
M  V30 9154 N 888.338 1.20213 -1.01915 0
M  V30 9155 C 889.584 1.89928 -0.711007 0
M  V30 9156 C 889.917 1.7881 0.75767 0
M  V30 9157 O 889.192 1.17399 1.55073 0
M  V30 9158 C 889.475 3.41225 -1.15053 0
M  V30 9159 C 889.328 3.61264 -2.67971 0
M  V30 9160 C 890.647 4.34108 -0.72377 0
M  V30 9161 H 887.766 0.689702 -0.259768 0
M  V30 9162 H 890.408 1.41557 -1.26734 0
M  V30 9163 H 888.558 3.82552 -0.677199 0
M  V30 9164 H 890.23 3.29173 -3.23176 0
M  V30 9165 H 888.473 3.04647 -3.08824 0
M  V30 9166 H 889.144 4.67331 -2.93779 0
M  V30 9167 H 891.62 4.00442 -1.13073 0
M  V30 9168 H 890.496 5.38581 -1.05931 0
M  V30 9169 H 890.757 4.40512 0.374424 0
M  V30 9170 N 889.816 0.795718 1.36037 0
M  V30 9171 C 891.065 0.367575 1.98322 0
M  V30 9172 C 891.378 -1.06823 1.63854 0
M  V30 9173 O 892.584 -1.59895 2.19421 0
M  V30 9174 C 891.04 0.606272 3.54757 0
M  V30 9175 C 890.648 2.0539 3.98144 0
M  V30 9176 C 892.392 0.242947 4.23804 0
M  V30 9177 C 890.299 2.23893 5.47381 0
M  V30 9178 H 889.229 0.133699 0.742052 0
M  V30 9179 H 891.88 0.978242 1.5525 0
M  V30 9180 H 890.262 -0.0741957 3.9593 0
M  V30 9181 H 891.436 2.77129 3.68152 0
M  V30 9182 H 889.751 2.37607 3.41953 0
M  V30 9183 H 892.348 0.359382 5.33491 0
M  V30 9184 H 892.691 -0.809661 4.08351 0
M  V30 9185 H 893.224 0.876899 3.88015 0
M  V30 9186 H 889.963 3.27559 5.6779 0
M  V30 9187 H 889.483 1.56666 5.78978 0
M  V30 9188 H 891.162 2.04914 6.13693 0
M  V30 9189 N 891.294 -1.47756 0.548274 0
M  V30 9190 C 892.519 -2.07387 0.023475 0
M  V30 9191 C 892.944 -1.39956 -1.25674 0
M  V30 9192 O 892.302 -0.471543 -1.7506 0
M  V30 9193 C 892.35 -3.60224 -0.164669 0
M  V30 9194 O 891.454 -3.93653 -1.22928 0
M  V30 9195 H 890.795 -0.662312 0.0473156 0
M  V30 9196 H 893.325 -1.89905 0.761409 0
M  V30 9197 H 893.335 -4.06211 -0.38166 0
M  V30 9198 H 892.01 -4.08702 0.770425 0
M  V30 9199 H 890.587 -3.59422 -0.993495 0
M  V30 9200 N 892.772 -0.284283 -1.55015 0
M  V30 9201 C 893.735 0.586182 -2.21577 0
M  V30 9202 C 894.735 1.07427 -1.1965 0
M  V30 9203 O 895.925 0.972977 -1.44495 0
M  V30 9204 C 893.057 1.80973 -2.88897 0
M  V30 9205 H 894.25 0.00487253 -2.999 0
M  V30 9206 H 891.803 -0.0349696 -1.56261 0
M  V30 9207 H 892.538 2.43131 -2.14611 0
M  V30 9208 H 892.323 1.46757 -3.636 0
M  V30 9209 H 893.813 2.42853 -3.39724 0
M  V30 9210 N 894.251 1.57596 -0.0117121 0
M  V30 9211 C 895.214 2.08089 0.960816 0
M  V30 9212 C 896.214 0.992519 1.26514 0
M  V30 9213 O 897.404 1.25475 1.20837 0
M  V30 9214 C 894.536 2.53217 2.28241 0
M  V30 9215 H 895.729 2.9529 0.523829 0
M  V30 9216 H 893.282 1.54508 0.235995 0
M  V30 9217 H 894.017 1.69294 2.76604 0
M  V30 9218 H 893.802 3.32714 2.0747 0
M  V30 9219 H 895.292 2.92568 2.97983 0
M  V30 9220 N 895.729 -0.261212 1.5542 0
M  V30 9221 C 896.976 -0.99123 1.76581 0
M  V30 9222 C 897.304 -1.85854 0.573457 0
M  V30 9223 O 896.559 -1.90604 -0.443705 0
M  V30 9224 C 896.858 -1.89395 3.03091 0
M  V30 9225 C 896.524 -1.18318 4.351 0
M  V30 9226 C 895.186 -0.986688 4.70975 0
M  V30 9227 C 897.538 -0.678299 5.16767 0
M  V30 9228 C 894.866 -0.272788 5.86065 0
M  V30 9229 C 897.218 0.0220646 6.32596 0
M  V30 9230 C 895.882 0.230161 6.67103 0
M  V30 9231 H 895.152 -0.362717 0.646156 0
M  V30 9232 H 897.799 -0.262506 1.89692 0
M  V30 9233 H 896.104 -2.68927 2.8493 0
M  V30 9234 H 897.801 -2.46022 3.16661 0
M  V30 9235 H 894.391 -1.34625 4.06908 0
M  V30 9236 H 898.575 -0.817691 4.89518 0
M  V30 9237 H 893.831 -0.10095 6.11317 0
M  V30 9238 H 898.005 0.420981 6.95126 0
M  V30 9239 H 895.632 0.785312 7.56133 0
M  V30 9240 N 897.207 -1.48554 -0.526253 0
M  V30 9241 C 898.455 -1.56452 -1.27935 0
M  V30 9242 C 898.776 -0.24184 -1.93495 0
M  V30 9243 O 898.046 0.736917 -1.81511 0
M  V30 9244 H 896.626 -0.576379 -0.47518 0
M  V30 9245 H 899.288 -1.85039 -0.612083 0
M  V30 9246 H 898.384 -2.34751 -2.05666 0
M  V30 9247 N 898.685 0.775411 -1.37205 0
M  V30 9248 C 899.615 1.90258 -1.35367 0
M  V30 9249 C 900.596 1.68634 -0.222864 0
M  V30 9250 O 901.781 1.89545 -0.422659 0
M  V30 9251 C 898.911 3.27488 -1.15623 0
M  V30 9252 C 897.865 3.63668 -2.25676 0
M  V30 9253 C 897.191 4.994 -1.91059 0
M  V30 9254 C 898.491 3.70797 -3.67841 0
M  V30 9255 H 900.185 1.92053 -2.29687 0
M  V30 9256 H 897.731 0.922597 -1.10563 0
M  V30 9257 H 899.684 4.05976 -1.12968 0
M  V30 9258 H 898.408 3.26117 -0.177573 0
M  V30 9259 H 897.067 2.87486 -2.2748 0
M  V30 9260 H 896.715 4.94565 -0.917324 0
M  V30 9261 H 896.415 5.24576 -2.64751 0
M  V30 9262 H 897.939 5.80291 -1.89985 0
M  V30 9263 H 899.353 4.39444 -3.68187 0
M  V30 9264 H 897.75 4.07468 -4.40556 0
M  V30 9265 H 898.82 2.71549 -4.01732 0
M  V30 9266 N 900.163 1.21714 1.00117 0
M  V30 9267 C 901.126 0.981338 2.07129 0
M  V30 9268 C 902.126 -0.0491116 1.60725 0
M  V30 9269 O 903.316 0.188555 1.73177 0
M  V30 9270 C 900.448 0.480608 3.37495 0
M  V30 9271 H 901.641 1.93075 2.29482 0
M  V30 9272 H 899.194 1.03467 1.17151 0
M  V30 9273 H 899.929 -0.473552 3.20824 0
M  V30 9274 H 899.714 1.22393 3.72508 0
M  V30 9275 H 901.204 0.33561 4.16249 0
M  V30 9276 N 901.641 -1.19671 1.02551 0
M  V30 9277 C 903.057 -1.41305 0.741963 0
M  V30 9278 C 903.257 -1.89865 -0.674807 0
M  V30 9279 O 902.313 -2.07323 -1.44129 0
M  V30 9280 C 903.626 -2.42706 1.77522 0
M  V30 9281 C 905.174 -2.56458 1.79438 0
M  V30 9282 C 905.649 -3.61111 2.81715 0
M  V30 9283 N 907.14 -3.68603 2.8051 0
M  V30 9284 C 907.875 -4.49262 3.56302 0
M  V30 9285 N 907.371 -5.33653 4.41799 0
M  V30 9286 N 909.164 -4.43879 3.44859 0
M  V30 9287 H 901.315 -0.8647 1.94002 0
M  V30 9288 H 903.578 -0.442206 0.838545 0
M  V30 9289 H 903.284 -2.14042 2.79068 0
M  V30 9290 H 903.158 -3.41831 1.59472 0
M  V30 9291 H 905.545 -2.84447 0.78573 0
M  V30 9292 H 905.626 -1.57499 2.01563 0
M  V30 9293 H 905.27 -3.33864 3.82749 0
M  V30 9294 H 905.2 -4.59713 2.56849 0
M  V30 9295 H 907.691 -3.08329 2.18498 0
M  V30 9296 H 908.004 -5.92308 4.96378 0
M  V30 9297 H 906.349 -5.33125 4.45873 0
M  V30 9298 H 909.54 -3.7699 2.77482 0
M  V30 9299 H 909.713 -5.06501 4.04179 0
M  V30 9300 N 903.119 -0.802921 -1.35613 0
M  V30 9301 C 904.082 -0.216422 -2.28176 0
M  V30 9302 C 905.082 0.594101 -1.49422 0
M  V30 9303 O 906.272 0.41312 -1.6923 0
M  V30 9304 C 903.404 0.698746 -3.33662 0
M  V30 9305 H 904.597 -1.03276 -2.81557 0
M  V30 9306 H 902.15 -0.573307 -1.45406 0
M  V30 9307 H 902.885 1.53891 -2.85461 0
M  V30 9308 H 902.67 0.119314 -3.91918 0
M  V30 9309 H 904.16 1.10354 -4.02755 0
M  V30 9310 N 904.597 1.47463 -0.556102 0
M  V30 9311 C 906.013 1.58134 -0.21579 0
M  V30 9312 C 906.213 1.55486 1.28166 0
M  V30 9313 O 905.269 1.45768 2.06174 0
M  V30 9314 C 906.582 2.88686 -0.841464 0
M  V30 9315 C 908.13 3.02268 -0.812591 0
M  V30 9316 C 908.605 4.35518 -1.41731 0
M  V30 9317 N 910.096 4.42151 -1.38045 0
M  V30 9318 C 910.831 5.43817 -1.81799 0
M  V30 9319 N 910.327 6.52299 -2.33404 0
M  V30 9320 N 912.12 5.34855 -1.72877 0
M  V30 9321 H 904.271 1.47428 -1.52901 0
M  V30 9322 H 906.534 0.701586 -0.637559 0
M  V30 9323 H 906.24 2.96358 -1.8938 0
M  V30 9324 H 906.114 3.7572 -0.333846 0
M  V30 9325 H 908.501 2.94194 0.231056 0
M  V30 9326 H 908.582 2.16779 -1.35796 0
M  V30 9327 H 908.226 4.44348 -2.46002 0
M  V30 9328 H 908.156 5.19737 -0.847402 0
M  V30 9329 H 910.647 3.64348 -1.00296 0
M  V30 9330 H 910.96 7.26047 -2.64717 0
M  V30 9331 H 909.305 6.53192 -2.37414 0
M  V30 9332 H 912.496 4.49004 -1.32338 0
M  V30 9333 H 912.669 6.13949 -2.07294 0
M  V30 9334 N 906.075 0.2925 1.54862 0
M  V30 9335 C 907.3 -0.32494 2.04839 0
M  V30 9336 C 907.725 -1.47381 1.16877 0
M  V30 9337 O 907.083 -1.80492 0.171028 0
M  V30 9338 C 907.131 -0.76694 3.5235 0
M  V30 9339 O 906.235 -1.87256 3.67436 0
M  V30 9340 H 905.576 -0.0645195 0.660858 0
M  V30 9341 H 908.106 0.431867 1.9999 0
M  V30 9342 H 908.116 -1.05804 3.94043 0
M  V30 9343 H 906.791 0.0735212 4.15835 0
M  V30 9344 H 905.368 -1.58266 3.37648 0
M  V30 9345 N 907.553 -1.57587 0.0200696 0
M  V30 9346 C 908.516 -2.08595 -0.949767 0
M  V30 9347 C 909.516 -0.999215 -1.25985 0
M  V30 9348 O 910.706 -1.26115 -1.2017 0
M  V30 9349 C 907.838 -2.54424 -2.26895 0
M  V30 9350 H 909.031 -2.95563 -0.508161 0
M  V30 9351 H 906.584 -1.54631 -0.227798 0
M  V30 9352 H 907.319 -1.70758 -2.75703 0
M  V30 9353 H 907.104 -3.3381 -2.05702 0
M  V30 9354 H 908.594 -2.94144 -2.96427 0
M  V30 9355 N 909.032 0.252966 -1.55557 0
M  V30 9356 C 909.942 1.33472 -1.92931 0
M  V30 9357 C 910.958 1.52983 -0.828985 0
M  V30 9358 O 912.134 1.66723 -1.12984 0
M  V30 9359 C 909.199 2.6704 -2.21112 0
M  V30 9360 C 908.26 2.56103 -3.44542 0
M  V30 9361 C 907.493 3.83302 -3.71369 0
M  V30 9362 O 907.716 4.84907 -3.00368 0
M  V30 9363 O 906.65 3.823 -4.64898 0
M  V30 9364 H 910.476 1.04768 -2.85057 0
M  V30 9365 H 908.061 0.453208 -1.4236 0
M  V30 9366 H 909.943 3.45981 -2.40572 0
M  V30 9367 H 908.618 2.95489 -1.32166 0
M  V30 9368 H 907.525 1.7547 -3.30396 0
M  V30 9369 H 908.858 2.32601 -4.33772 0
M  V30 9370 N 910.51 1.48831 0.518367 0
M  V30 9371 C 911.758 1.57128 1.27103 0
M  V30 9372 C 912.079 0.252098 1.93364 0
M  V30 9373 O 911.349 -0.727281 1.819 0
M  V30 9374 H 909.929 0.578891 0.472116 0
M  V30 9375 H 912.591 1.85361 0.602262 0
M  V30 9376 H 911.687 2.35838 2.04418 0
M  V30 9377 N 911.988 -0.768124 1.37614 0
M  V30 9378 C 913.265 -1.51637 1.23554 0
M  V30 9379 C 913.645 -2.1042 -0.169331 0
M  V30 9380 O 912.993 -1.95834 -1.17735 0
M  V30 9381 C 913.203 -2.59436 2.33439 0
M  V30 9382 C 914.551 -3.2674 2.71157 0
M  V30 9383 O 915.575 -2.69733 2.32642 0
M  V30 9384 O 914.434 -4.29814 3.37524 0
M  V30 9385 H 911.528 -0.671778 0.482332 0
M  V30 9386 H 914.074 -0.804779 1.49403 0
M  V30 9387 H 912.846 -2.14146 3.27502 0
M  V30 9388 H 912.469 -3.38192 2.09073 0
M  V30 9389 N 913.466 -1.22244 -0.994698 0
M  V30 9390 C 914.882 -0.982006 -1.25813 0
M  V30 9391 C 915.082 0.325488 -1.98854 0
M  V30 9392 O 914.138 1.04857 -2.29698 0
M  V30 9393 C 915.451 -2.1795 -2.07167 0
M  V30 9394 C 916.999 -2.22287 -2.20358 0
M  V30 9395 C 917.474 -3.41583 -3.05098 0
M  V30 9396 N 918.965 -3.41734 -3.12686 0
M  V30 9397 C 919.7 -4.30692 -3.78539 0
M  V30 9398 N 919.196 -5.29865 -4.46335 0
M  V30 9399 N 920.989 -4.18473 -3.75283 0
M  V30 9400 H 913.14 -2.0631 -0.504963 0
M  V30 9401 H 915.403 -0.90395 -0.285618 0
M  V30 9402 H 915.109 -3.12758 -1.60858 0
M  V30 9403 H 914.983 -2.17862 -3.07922 0
M  V30 9404 H 917.37 -1.28028 -2.65881 0
M  V30 9405 H 917.451 -2.26414 -1.19039 0
M  V30 9406 H 917.095 -4.36141 -2.60275 0
M  V30 9407 H 917.025 -3.34695 -4.06555 0
M  V30 9408 H 919.516 -2.69969 -2.64433 0
M  V30 9409 H 919.829 -5.94027 -4.9432 0
M  V30 9410 H 918.174 -5.3378 -4.45089 0
M  V30 9411 H 921.365 -3.40249 -3.21478 0
M  V30 9412 H 921.538 -4.88007 -4.26326 0
M  V30 9413 N 914.944 1.19125 -1.03184 0
M  V30 9414 C 916.19 1.89163 -0.731111 0
M  V30 9415 C 916.523 1.79604 0.738662 0
M  V30 9416 O 915.798 1.19037 1.53819 0
M  V30 9417 C 916.081 3.39986 -1.18666 0
M  V30 9418 C 915.934 3.58401 -2.71788 0
M  V30 9419 C 917.253 4.33316 -0.769772 0
M  V30 9420 H 914.372 0.686908 -0.267069 0
M  V30 9421 H 917.014 1.40205 -1.28229 0
M  V30 9422 H 915.164 3.81813 -0.717736 0
M  V30 9423 H 916.836 3.25727 -3.26649 0
M  V30 9424 H 915.079 3.01355 -3.12038 0
M  V30 9425 H 915.75 4.64189 -2.98719 0
M  V30 9426 H 918.226 3.9922 -1.17314 0
M  V30 9427 H 917.102 5.37427 -1.11637 0
M  V30 9428 H 917.363 4.40884 0.327681 0
M  V30 9429 N 916.422 0.810101 1.35185 0
M  V30 9430 C 917.67 0.391343 1.98275 0
M  V30 9431 C 917.991 -1.04592 1.64577 0
M  V30 9432 O 917.261 -1.72417 0.93001 0
M  V30 9433 H 915.841 0.141715 0.733434 0
M  V30 9434 H 918.503 1.03672 1.6504 0
M  V30 9435 H 917.599 0.49991 3.0807 0
M  V30 9436 N 917.9 -1.47166 0.563914 0
M  V30 9437 C 918.863 -2.28571 -0.169624 0
M  V30 9438 C 919.863 -1.37331 -0.836467 0
M  V30 9439 O 921.053 -1.59896 -0.6913 0
M  V30 9440 C 918.185 -3.17201 -1.24886 0
M  V30 9441 H 919.378 -2.94896 0.545539 0
M  V30 9442 H 916.931 -1.52966 0.321121 0
M  V30 9443 H 917.666 -2.55582 -1.99621 0
M  V30 9444 H 917.451 -3.84356 -0.775426 0
M  V30 9445 H 918.941 -3.7852 -1.76388 0
M  V30 9446 N 919.378 -0.300708 -1.54705 0
M  V30 9447 C 920.624 0.309111 -2.0043 0
M  V30 9448 C 920.957 1.53562 -1.1888 0
M  V30 9449 O 920.232 1.92683 -0.265205 0
M  V30 9450 C 920.515 0.665995 -3.53888 0
M  V30 9451 C 920.368 -0.56963 -4.46178 0
M  V30 9452 C 921.687 1.49262 -4.14016 0
M  V30 9453 H 918.806 0.110878 -0.728612 0
M  V30 9454 H 921.448 -0.412748 -1.85463 0
M  V30 9455 H 919.598 1.281 -3.66773 0
M  V30 9456 H 921.27 -1.20811 -4.45199 0
M  V30 9457 H 919.513 -1.20292 -4.16788 0
M  V30 9458 H 920.184 -0.275785 -5.51311 0
M  V30 9459 H 922.66 0.972979 -4.04564 0
M  V30 9460 H 921.536 1.71111 -5.21548 0
M  V30 9461 H 921.797 2.48174 -3.65872 0
M  V30 9462 N 920.856 1.57574 -0.0284266 0
M  V30 9463 C 922.272 1.56194 0.327958 0
M  V30 9464 C 922.472 1.03397 1.72949 0
M  V30 9465 O 921.528 0.680392 2.4316 0
M  V30 9466 C 922.841 3.00177 0.177196 0
M  V30 9467 C 924.389 3.12 0.250014 0
M  V30 9468 C 924.864 4.57821 0.128049 0
M  V30 9469 N 926.355 4.6283 0.185054 0
M  V30 9470 C 927.09 5.73286 0.114454 0
M  V30 9471 N 926.586 6.928 -0.00719225 0
M  V30 9472 N 928.379 5.61848 0.16839 0
M  V30 9473 H 920.53 1.90224 -0.944921 0
M  V30 9474 H 922.793 0.874987 -0.364832 0
M  V30 9475 H 922.499 3.42753 -0.788224 0
M  V30 9476 H 922.373 3.65101 0.94768 0
M  V30 9477 H 924.76 2.69337 1.20589 0
M  V30 9478 H 924.841 2.49799 -0.550835 0
M  V30 9479 H 924.485 5.01165 -0.824407 0
M  V30 9480 H 924.415 5.18001 0.947753 0
M  V30 9481 H 926.906 3.76867 0.279247 0
M  V30 9482 H 927.219 7.72781 -0.0543903 0
M  V30 9483 H 925.564 6.94987 -0.0419648 0
M  V30 9484 H 928.755 4.67367 0.261821 0
M  V30 9485 H 928.928 6.47907 0.109908 0
M  V30 9486 N 922.334 -0.244713 1.55689 0
M  V30 9487 C 923.562 -0.989944 1.8168 0
M  V30 9488 C 923.977 -1.78863 0.604449 0
M  V30 9489 O 923.334 -1.77437 -0.426907 0
M  V30 9490 C 923.385 -1.92607 3.05916 0
M  V30 9491 O 923.106 -1.1597 4.22472 0
M  V30 9492 C 924.607 -2.78711 3.44724 0
M  V30 9493 H 921.827 -0.2912 0.604519 0
M  V30 9494 H 924.371 -0.266938 2.0275 0
M  V30 9495 H 922.526 -2.60333 2.8689 0
M  V30 9496 H 922.94 -1.79311 4.92898 0
M  V30 9497 H 924.414 -3.40141 4.34751 0
M  V30 9498 H 924.891 -3.49935 2.6541 0
M  V30 9499 H 925.497 -2.16435 3.66109 0
M  V30 9500 N 923.813 -1.49104 -0.510467 0
M  V30 9501 C 924.743 -1.67981 -1.62187 0
M  V30 9502 C 925.724 -0.528529 -1.6168 0
M  V30 9503 O 926.909 -0.763305 -1.7857 0
M  V30 9504 C 924.039 -1.73755 -3.0071 0
M  V30 9505 C 922.993 -2.88579 -3.1608 0
M  V30 9506 C 922.319 -2.79457 -4.5586 0
M  V30 9507 C 923.619 -4.29638 -2.97 0
M  V30 9508 H 925.313 -2.61029 -1.46643 0
M  V30 9509 H 922.859 -1.25615 -0.704042 0
M  V30 9510 H 924.812 -1.85548 -3.78352 0
M  V30 9511 H 923.536 -0.772996 -3.17321 0
M  V30 9512 H 922.195 -2.76372 -2.40861 0
M  V30 9513 H 921.843 -1.80929 -4.69333 0
M  V30 9514 H 921.543 -3.56518 -4.67086 0
M  V30 9515 H 923.067 -2.93245 -5.35574 0
M  V30 9516 H 924.481 -4.42575 -3.64418 0
M  V30 9517 H 922.878 -5.07847 -3.19704 0
M  V30 9518 H 923.948 -4.44741 -1.93219 0
M  V30 9519 N 925.291 0.760815 -1.38019 0
M  V30 9520 C 926.568 1.5098 -1.24356 0
M  V30 9521 C 926.948 2.10507 0.158169 0
M  V30 9522 O 926.296 1.96455 1.16695 0
M  V30 9523 C 926.506 2.58195 -2.34811 0
M  V30 9524 C 927.854 3.25297 -2.72886 0
M  V30 9525 O 928.878 2.68496 -2.34069 0
M  V30 9526 O 927.737 4.28018 -3.39799 0
M  V30 9527 H 924.831 0.66921 -0.485888 0
M  V30 9528 H 927.377 0.796844 -1.49828 0
M  V30 9529 H 926.149 2.12406 -3.28633 0
M  V30 9530 H 925.772 3.37079 -2.10864 0
M  V30 9531 N 926.769 1.22769 0.988202 0
M  V30 9532 C 927.679 1.01844 2.11341 0
M  V30 9533 C 928.695 -0.0346937 1.73965 0
M  V30 9534 O 929.871 0.159061 2.00771 0
M  V30 9535 C 926.936 0.603837 3.41401 0
M  V30 9536 C 925.997 1.73113 3.92849 0
M  V30 9537 C 925.23 1.33621 5.16702 0
M  V30 9538 O 925.453 0.217041 5.69987 0
M  V30 9539 O 924.387 2.15444 5.62021 0
M  V30 9540 H 928.213 1.96127 2.31879 0
M  V30 9541 H 925.798 1.01405 1.09715 0
M  V30 9542 H 927.68 0.383196 4.19654 0
M  V30 9543 H 926.355 -0.310082 3.22211 0
M  V30 9544 H 925.262 2.00634 3.15748 0
M  V30 9545 H 926.595 2.62308 4.1648 0
M  V30 9546 N 928.247 -1.18576 1.03814 0
M  V30 9547 C 929.493 -1.88773 0.741132 0
M  V30 9548 C 929.826 -1.79993 -0.729127 0
M  V30 9549 O 929.101 -1.19851 -1.53186 0
M  V30 9550 C 929.384 -3.39352 1.20468 0
M  V30 9551 C 929.237 -3.56955 2.73684 0
M  V30 9552 C 930.556 -4.32901 0.792741 0
M  V30 9553 H 927.675 -0.685482 0.270708 0
M  V30 9554 H 930.317 -1.39523 1.2897 0
M  V30 9555 H 928.467 -3.81427 0.737974 0
M  V30 9556 H 930.139 -3.2399 3.28372 0
M  V30 9557 H 928.382 -2.99696 3.13632 0
M  V30 9558 H 929.053 -4.62598 3.01176 0
M  V30 9559 H 931.529 -3.98592 1.1943 0
M  V30 9560 H 930.405 -5.36828 1.14486 0
M  V30 9561 H 930.666 -4.41052 -0.304295 0
M  V30 9562 N 929.725 -0.817259 -1.34754 0
M  V30 9563 C 931.136 -0.462215 -1.80888 0
M  V30 9564 C 931.487 1.01685 -1.67794 0
M  V30 9565 O 930.612 1.79094 -1.21468 0
M  V30 9566 C 931.207 -0.832204 -3.2842 0
M  V30 9567 C 929.766 -0.52961 -3.72655 0
M  V30 9568 C 928.913 -1.05214 -2.56564 0
M  V30 9569 H 931.864 -1.00795 -1.22581 0
M  V30 9570 H 931.885 -0.133804 -3.80265 0
M  V30 9571 H 931.397 -1.90873 -3.37919 0
M  V30 9572 H 929.498 0.537743 -3.68699 0
M  V30 9573 H 929.611 -1.06971 -4.67005 0
M  V30 9574 H 927.975 -0.473949 -2.50251 0
M  V30 9575 H 928.758 -2.135 -2.68836 0
M  V30 9576 N 931.203 1.46865 -0.571711 0
M  V30 9577 C 932.614 1.86158 -0.142181 0
M  V30 9578 C 932.965 1.47663 1.2919 0
M  V30 9579 O 932.09 0.886393 1.97413 0
M  V30 9580 C 932.685 3.37867 -0.251256 0
M  V30 9581 C 931.244 3.76198 0.123329 0
M  V30 9582 C 930.391 2.70902 -0.592232 0
M  V30 9583 H 933.342 1.38176 -0.780587 0
M  V30 9584 H 933.363 3.76842 0.526331 0
M  V30 9585 H 932.875 3.65853 -1.2951 0
M  V30 9586 H 930.976 3.53829 1.16773 0
M  V30 9587 H 931.089 4.78471 -0.24533 0
M  V30 9588 H 929.453 2.54678 -0.0336927 0
M  V30 9589 H 930.236 3.01729 -1.63751 0
M  V30 9590 N 932.681 0.308908 1.54543 0
M  V30 9591 C 933.909 -0.300418 2.04707 0
M  V30 9592 C 934.324 -1.46915 1.18581 0
M  V30 9593 O 933.681 -1.81251 0.213186 0
M  V30 9594 C 933.732 -0.749038 3.53655 0
M  V30 9595 O 933.453 0.373181 4.36508 0
M  V30 9596 C 934.954 -1.4227 4.1985 0
M  V30 9597 H 932.174 -0.0641267 0.667929 0
M  V30 9598 H 934.718 0.450839 1.99469 0
M  V30 9599 H 932.873 -1.4503 3.59228 0
M  V30 9600 H 933.287 0.0224752 5.24495 0
M  V30 9601 H 934.761 -1.68768 5.25568 0
M  V30 9602 H 935.238 -2.36531 3.70067 0
M  V30 9603 H 935.844 -0.764404 4.18374 0
M  V30 9604 N 934.159 -1.57557 0.0367827 0
M  V30 9605 C 935.384 -1.96828 -0.653707 0
M  V30 9606 C 935.809 -0.913559 -1.64425 0
M  V30 9607 O 935.167 0.124749 -1.8087 0
M  V30 9608 C 935.215 -3.35189 -1.32969 0
M  V30 9609 O 934.319 -3.32095 -2.44513 0
M  V30 9610 H 933.66 -0.64157 -0.171124 0
M  V30 9611 H 936.19 -2.04351 0.100912 0
M  V30 9612 H 936.2 -3.71593 -1.68472 0
M  V30 9613 H 934.875 -4.11496 -0.603654 0
M  V30 9614 H 933.452 -3.07418 -2.11065 0
M  V30 9615 N 935.637 0.236453 -1.55816 0
M  V30 9616 C 937.053 0.585465 -1.48474 0
M  V30 9617 C 937.253 1.8785 -0.72902 0
M  V30 9618 O 936.309 2.51131 -0.262614 0
M  V30 9619 C 937.622 0.678506 -2.92945 0
M  V30 9620 C 939.17 0.770135 -3.03378 0
M  V30 9621 C 939.645 0.894649 -4.49177 0
M  V30 9622 N 941.136 0.959253 -4.53158 0
M  V30 9623 C 941.871 1.07505 -5.63232 0
M  V30 9624 N 941.367 1.15572 -6.83092 0
M  V30 9625 N 943.16 1.10902 -5.51051 0
M  V30 9626 H 935.311 -0.612241 -2.03385 0
M  V30 9627 H 937.574 -0.212796 -0.923808 0
M  V30 9628 H 937.28 -0.201757 -3.51121 0
M  V30 9629 H 937.154 1.54703 -3.44016 0
M  V30 9630 H 939.541 1.64085 -2.45276 0
M  V30 9631 H 939.622 -0.123753 -2.555 0
M  V30 9632 H 939.266 0.0284537 -5.07892 0
M  V30 9633 H 939.196 1.80373 -4.94745 0
M  V30 9634 H 941.687 0.907827 -3.66834 0
M  V30 9635 H 942 1.24343 -7.62731 0
M  V30 9636 H 940.345 1.12511 -6.85833 0
M  V30 9637 H 943.536 1.04255 -4.56343 0
M  V30 9638 H 943.709 1.19581 -6.36871 0
M  V30 9639 N 937.115 1.49373 0.502552 0
M  V30 9640 C 938.065 1.62321 1.60112 0
M  V30 9641 C 939.049 0.47895 1.53606 0
M  V30 9642 O 940.241 0.731824 1.61162 0
M  V30 9643 C 937.37 1.69162 2.98729 0
M  V30 9644 C 936.456 2.89161 3.10237 0
M  V30 9645 N 936.847 4.13256 2.91638 0
M  V30 9646 C 935.145 2.87065 3.41335 0
M  V30 9647 C 935.846 4.93913 3.07287 0
M  V30 9648 N 934.822 4.27249 3.36094 0
M  V30 9649 H 938.624 2.55989 1.44384 0
M  V30 9650 H 936.138 1.46123 0.708644 0
M  V30 9651 H 938.135 1.76536 3.77678 0
M  V30 9652 H 936.795 0.766301 3.15528 0
M  V30 9653 H 937.806 4.4326 2.67844 0
M  V30 9654 H 934.483 2.03905 3.6432 0
M  V30 9655 H 935.873 6.02491 2.97413 0
M  V30 9656 N 938.594 -0.753485 1.38421 0
M  V30 9657 C 939.841 -1.51261 1.34634 0
M  V30 9658 C 940.169 -1.94396 -0.0635771 0
M  V30 9659 O 939.424 -1.65736 -1.04068 0
M  V30 9660 C 939.723 -2.77836 2.24816 0
M  V30 9661 C 939.389 -2.53662 3.72782 0
M  V30 9662 C 938.051 -2.46779 4.13103 0
M  V30 9663 C 940.403 -2.32548 4.66445 0
M  V30 9664 C 937.731 -2.16796 5.45176 0
M  V30 9665 C 940.083 -2.04085 5.98775 0
M  V30 9666 C 938.747 -1.95658 6.3818 0
M  V30 9667 H 938.017 -0.553503 0.492661 0
M  V30 9668 H 940.664 -0.866406 1.7078 0
M  V30 9669 H 938.969 -3.47106 1.81726 0
M  V30 9670 H 940.666 -3.35793 2.19189 0
M  V30 9671 H 937.256 -2.59891 3.40815 0
M  V30 9672 H 941.44 -2.36845 4.3614 0
M  V30 9673 H 936.696 -2.0878 5.74648 0
M  V30 9674 H 940.87 -1.86751 6.70893 0
M  V30 9675 H 938.497 -1.7219 7.40442 0
M  V30 9676 N 940.072 -1.23292 -0.981677 0
M  V30 9677 C 941.3 -1.09088 -1.75805 0
M  V30 9678 C 941.715 0.357746 -1.8538 0
M  V30 9679 O 941.072 1.24751 -1.33205 0
M  V30 9680 C 941.123 -1.70885 -3.1856 0
M  V30 9681 O 940.844 -3.10082 -3.09484 0
M  V30 9682 C 942.345 -1.62106 -4.12597 0
M  V30 9683 H 939.565 -0.38184 -0.55176 0
M  V30 9684 H 942.109 -1.63116 -1.23342 0
M  V30 9685 H 940.264 -1.20893 -3.68054 0
M  V30 9686 H 940.678 -3.40039 -3.99342 0
M  V30 9687 H 942.152 -2.10049 -5.10474 0
M  V30 9688 H 942.629 -0.579642 -4.35358 0
M  V30 9689 H 943.235 -2.11457 -3.69007 0
M  V30 9690 N 941.55 1.18024 -1.04442 0
M  V30 9691 C 942.778 1.92032 -0.770161 0
M  V30 9692 C 943.193 1.76391 0.673181 0
M  V30 9693 O 942.55 1.09604 1.45922 0
M  V30 9694 C 942.601 3.43328 -1.13173 0
M  V30 9695 O 942.322 3.5848 -2.51841 0
M  V30 9696 C 943.823 4.34427 -0.882523 0
M  V30 9697 H 941.043 0.609518 -0.280586 0
M  V30 9698 H 943.587 1.49711 -1.39308 0
M  V30 9699 H 941.742 3.83423 -0.553704 0
M  V30 9700 H 942.156 4.52166 -2.65794 0
M  V30 9701 H 943.63 5.39123 -1.18533 0
M  V30 9702 H 944.107 4.3882 0.18257 0
M  V30 9703 H 944.713 4.00035 -1.44403 0
M  V30 9704 N 943.028 0.824394 1.34319 0
M  V30 9705 C 943.991 0.252696 2.27803 0
M  V30 9706 C 944.991 -0.570254 1.50349 0
M  V30 9707 O 946.181 -0.386145 1.69866 0
M  V30 9708 C 943.313 -0.645575 3.34731 0
M  V30 9709 H 944.506 1.07742 2.79878 0
M  V30 9710 H 942.059 0.596367 1.44475 0
M  V30 9711 H 942.794 -1.4933 2.87873 0
M  V30 9712 H 942.579 -0.0569478 3.92059 0
M  V30 9713 H 944.069 -1.03933 4.0446 0
M  V30 9714 N 944.506 -1.46559 0.579492 0
M  V30 9715 C 945.922 -1.57771 0.240921 0
M  V30 9716 C 946.122 -1.57505 -1.25676 0
M  V30 9717 O 945.178 -1.4903 -2.03829 0
M  V30 9718 C 946.491 -2.87311 0.887285 0
M  V30 9719 C 948.039 -3.00937 0.860576 0
M  V30 9720 C 948.514 -4.33208 1.48642 0
M  V30 9721 N 950.005 -4.39899 1.45062 0
M  V30 9722 C 950.74 -5.40856 1.90428 0
M  V30 9723 N 950.236 -6.48503 2.43752 0
M  V30 9724 N 952.029 -5.32037 1.81364 0
M  V30 9725 H 944.18 -1.44976 1.55228 0
M  V30 9726 H 946.443 -0.691354 0.648639 0
M  V30 9727 H 946.149 -2.93307 1.94071 0
M  V30 9728 H 946.023 -3.75141 0.393577 0
M  V30 9729 H 948.41 -2.94524 -0.184223 0
M  V30 9730 H 948.491 -2.14591 1.39227 0
M  V30 9731 H 948.135 -4.40378 2.5304 0
M  V30 9732 H 948.065 -5.18323 0.92998 0
M  V30 9733 H 950.556 -3.62706 1.0608 0
M  V30 9734 H 950.869 -7.21744 2.76234 0
M  V30 9735 H 949.214 -6.49332 2.47776 0
M  V30 9736 H 952.405 -4.46841 1.39465 0
M  V30 9737 H 952.578 -6.10573 2.17035 0
M  V30 9738 N 945.984 -0.3171 -1.54377 0
M  V30 9739 C 946.914 0.544623 -2.2706 0
M  V30 9740 C 947.895 1.12469 -1.27611 0
M  V30 9741 O 949.08 1.15103 -1.56413 0
M  V30 9742 C 946.21 1.70879 -3.02353 0
M  V30 9743 C 945.164 1.25833 -4.09084 0
M  V30 9744 C 944.49 2.50894 -4.72182 0
M  V30 9745 C 945.79 0.377876 -5.20931 0
M  V30 9746 H 947.484 -0.0616372 -2.99337 0
M  V30 9747 H 945.03 -0.0310848 -1.43966 0
M  V30 9748 H 946.983 2.31787 -3.51927 0
M  V30 9749 H 945.707 2.34155 -2.27682 0
M  V30 9750 H 944.366 0.672228 -3.60384 0
M  V30 9751 H 944.014 3.12518 -3.94134 0
M  V30 9752 H 943.714 2.21447 -5.44275 0
M  V30 9753 H 945.238 3.12575 -5.24528 0
M  V30 9754 H 946.652 0.893056 -5.66302 0
M  V30 9755 H 945.049 0.176474 -5.9984 0
M  V30 9756 H 946.119 -0.592943 -4.81261 0
M  V30 9757 N 947.462 1.57535 -0.0451378 0
M  V30 9758 C 948.69 1.96761 0.639742 0
M  V30 9759 C 949.105 0.922405 1.64734 0
M  V30 9760 O 948.462 -0.0940535 1.82257 0
M  V30 9761 C 948.513 3.36066 1.33199 0
M  V30 9762 O 948.234 4.36579 0.364757 0
M  V30 9763 C 949.735 3.90015 2.1072 0
M  V30 9764 H 946.955 0.64769 0.175324 0
M  V30 9765 H 949.499 2.04206 -0.109651 0
M  V30 9766 H 947.654 3.2979 2.03266 0
M  V30 9767 H 948.068 5.17432 0.858168 0
M  V30 9768 H 949.542 4.89785 2.54586 0
M  V30 9769 H 950.019 3.25117 2.95288 0
M  V30 9770 H 950.625 3.99609 1.45577 0
M  V30 9771 N 948.94 -0.228186 1.55939 0
M  V30 9772 C 950.165 -0.974795 1.83064 0
M  V30 9773 C 950.59 -1.77426 0.624624 0
M  V30 9774 O 949.948 -1.76211 -0.426556 0
M  V30 9775 C 949.996 -1.87342 3.08116 0
M  V30 9776 O 949.1 -2.96784 2.86344 0
M  V30 9777 H 948.441 -0.276379 0.603747 0
M  V30 9778 H 950.971 -0.243507 2.03146 0
M  V30 9779 H 950.981 -2.28451 3.38045 0
M  V30 9780 H 949.656 -1.28575 3.95526 0
M  V30 9781 H 948.233 -2.59669 2.67631 0
M  V30 9782 N 950.418 -1.49637 -0.494624 0
M  V30 9783 C 951.381 -1.66252 -1.57775 0
M  V30 9784 C 952.381 -0.534054 -1.51672 0
M  V30 9785 O 953.571 -0.800637 -1.54711 0
M  V30 9786 C 950.703 -1.66584 -2.97426 0
M  V30 9787 H 951.896 -2.62864 -1.4437 0
M  V30 9788 H 949.449 -1.38764 -0.719323 0
M  V30 9789 H 950.184 -0.715798 -3.16302 0
M  V30 9790 H 949.969 -2.48543 -3.03264 0
M  V30 9791 H 951.459 -1.81474 -3.76108 0
M  V30 9792 N 951.896 0.746133 -1.38819 0
M  V30 9793 C 953.142 1.50768 -1.35635 0
M  V30 9794 C 953.475 1.94132 0.0512435 0
M  V30 9795 O 952.75 1.65979 1.01396 0
M  V30 9796 C 953.033 2.7551 -2.31875 0
M  V30 9797 C 952.886 2.38236 -3.81528 0
M  V30 9798 C 954.205 3.77566 -2.26124 0
M  V30 9799 H 951.324 0.546922 -0.494009 0
M  V30 9800 H 953.966 0.854017 -1.69725 0
M  V30 9801 H 952.116 3.31285 -2.02935 0
M  V30 9802 H 953.788 1.88178 -4.21173 0
M  V30 9803 H 952.031 1.70601 -3.98846 0
M  V30 9804 H 952.702 3.27517 -4.44339 0
M  V30 9805 H 955.178 3.31349 -2.51689 0
M  V30 9806 H 954.054 4.62531 -2.95561 0
M  V30 9807 H 954.315 4.23689 -1.26254 0
M  V30 9808 N 953.375 1.23811 0.975125 0
M  V30 9809 C 954.603 1.10019 1.75224 0
M  V30 9810 C 955.018 -0.34791 1.85567 0
M  V30 9811 O 954.375 -1.24043 1.33864 0
M  V30 9812 C 954.426 1.72572 3.1765 0
M  V30 9813 O 954.147 3.11719 3.07836 0
M  V30 9814 C 955.648 1.64292 4.11732 0
M  V30 9815 H 952.868 0.38476 0.549728 0
M  V30 9816 H 955.412 1.63768 1.22476 0
M  V30 9817 H 953.567 1.22843 3.67408 0
M  V30 9818 H 953.981 3.42152 3.97533 0
M  V30 9819 H 955.455 2.12754 5.09352 0
M  V30 9820 H 955.932 0.602722 4.35045 0
M  V30 9821 H 956.538 2.13411 3.6788 0
M  V30 9822 N 954.853 -1.17469 1.05066 0
M  V30 9823 C 955.783 -2.23635 0.671552 0
M  V30 9824 C 956.764 -1.66867 -0.33006 0
M  V30 9825 O 957.949 -1.93084 -0.207933 0
M  V30 9826 C 955.079 -3.47272 0.0441845 0
M  V30 9827 C 954.033 -4.16854 0.97042 0
M  V30 9828 C 953.359 -5.34299 0.206998 0
M  V30 9829 C 954.659 -4.69225 2.29401 0
M  V30 9830 H 956.353 -2.55602 1.55911 0
M  V30 9831 H 953.899 -1.2286 0.751101 0
M  V30 9832 H 955.852 -4.20756 -0.23282 0
M  V30 9833 H 954.576 -3.14568 -0.878311 0
M  V30 9834 H 953.235 -3.4528 1.23197 0
M  V30 9835 H 952.883 -4.97846 -0.718222 0
M  V30 9836 H 952.583 -5.81792 0.82416 0
M  V30 9837 H 954.107 -6.10568 -0.0627525 0
M  V30 9838 H 955.521 -5.34353 2.077 0
M  V30 9839 H 953.918 -5.27291 2.86503 0
M  V30 9840 H 954.988 -3.86102 2.93348 0
M  V30 9841 N 956.331 -0.831506 -1.3388 0
M  V30 9842 C 957.261 -0.274378 -2.31882 0
M  V30 9843 C 958.242 0.613872 -1.58637 0
M  V30 9844 O 959.427 0.538961 -1.86571 0
M  V30 9845 C 956.557 0.557498 -3.42796 0
M  V30 9846 C 955.511 -0.234337 -4.27358 0
M  V30 9847 C 954.837 0.720825 -5.29819 0
M  V30 9848 C 956.137 -1.44732 -5.01847 0
M  V30 9849 H 957.831 -1.09322 -2.78728 0
M  V30 9850 H 955.377 -0.527136 -1.34005 0
M  V30 9851 H 957.33 0.957501 -4.10378 0
M  V30 9852 H 956.054 1.40947 -2.94621 0
M  V30 9853 H 954.713 -0.61581 -3.61391 0
M  V30 9854 H 954.361 1.569 -4.77903 0
M  V30 9855 H 954.061 0.195171 -5.87276 0
M  V30 9856 H 955.585 1.1185 -6.00268 0
M  V30 9857 H 956.999 -1.12087 -5.62236 0
M  V30 9858 H 955.396 -1.90923 -5.68919 0
M  V30 9859 H 956.466 -2.22099 -4.31045 0
M  V30 9860 N 957.809 1.4625 -0.587256 0
M  V30 9861 C 959.034 2.07252 -0.0784517 0
M  V30 9862 C 959.459 1.43239 1.21919 0
M  V30 9863 O 958.817 0.517791 1.73749 0
M  V30 9864 C 958.865 3.60534 0.0691037 0
M  V30 9865 O 957.969 3.96773 1.12448 0
M  V30 9866 H 957.31 0.660825 -0.064859 0
M  V30 9867 H 959.84 1.87819 -0.811491 0
M  V30 9868 H 959.85 4.0708 0.273826 0
M  V30 9869 H 958.525 4.06516 -0.878514 0
M  V30 9870 H 957.102 3.6193 0.897852 0
M  V30 9871 N 959.287 0.325282 1.54207 0
M  V30 9872 C 960.535 -0.276229 2.00203 0
M  V30 9873 C 960.856 -1.52519 1.21503 0
M  V30 9874 O 960.126 -1.93313 0.317302 0
M  V30 9875 H 958.706 -0.105059 0.739575 0
M  V30 9876 H 961.368 0.442225 1.89817 0
M  V30 9877 H 960.464 -0.531427 3.07542 0
M  V30 9878 N 960.765 -1.57509 0.0534917 0
M  V30 9879 C 962.181 -1.56696 -0.303067 0
M  V30 9880 C 962.381 -1.06135 -1.71282 0
M  V30 9881 O 961.437 -0.71899 -2.42047 0
M  V30 9882 C 962.75 -3.00421 -0.129418 0
M  V30 9883 C 964.298 -3.12358 -0.200346 0
M  V30 9884 C 964.773 -4.57967 -0.0551971 0
M  V30 9885 N 966.264 -4.63066 -0.111398 0
M  V30 9886 C 966.999 -5.73395 -0.0232344 0
M  V30 9887 N 966.495 -6.92701 0.11741 0
M  V30 9888 N 968.288 -5.62045 -0.078984 0
M  V30 9889 H 960.439 -1.88696 0.975064 0
M  V30 9890 H 962.702 -0.869072 0.378706 0
M  V30 9891 H 962.408 -3.41456 0.842653 0
M  V30 9892 H 962.282 -3.66563 -0.889476 0
M  V30 9893 H 964.669 -2.71221 -1.16289 0
M  V30 9894 H 964.75 -2.48891 0.590506 0
M  V30 9895 H 964.394 -4.9979 0.904034 0
M  V30 9896 H 964.324 -5.19443 -0.865223 0
M  V30 9897 H 966.815 -3.77263 -0.219256 0
M  V30 9898 H 967.128 -7.72597 0.177326 0
M  V30 9899 H 965.473 -6.94833 0.152526 0
M  V30 9900 H 968.664 -4.67725 -0.187434 0
M  V30 9901 H 968.837 -6.48 -0.00681731 0
M  V30 9902 N 962.243 0.219913 -1.56058 0
M  V30 9903 C 963.468 0.965073 -1.83579 0
M  V30 9904 C 963.893 1.77092 -0.634024 0
M  V30 9905 O 963.251 1.76434 0.417205 0
M  V30 9906 C 963.299 1.85705 -3.09105 0
M  V30 9907 O 962.403 2.95261 -2.87914 0
M  V30 9908 H 961.744 0.273173 -0.605204 0
M  V30 9909 H 964.274 0.23273 -2.03272 0
M  V30 9910 H 964.284 2.26655 -3.39252 0
M  V30 9911 H 962.959 1.26476 -3.96203 0
M  V30 9912 H 961.536 2.58246 -2.69005 0
M  V30 9913 N 963.721 1.49897 0.486681 0
M  V30 9914 C 964.949 1.63837 1.26353 0
M  V30 9915 C 965.364 0.315428 1.86146 0
M  V30 9916 O 964.721 -0.700831 1.68507 0
M  V30 9917 C 964.772 2.71792 2.38351 0
M  V30 9918 O 964.493 3.98956 1.81013 0
M  V30 9919 C 965.994 2.96566 3.2949 0
M  V30 9920 H 963.214 0.551158 0.382709 0
M  V30 9921 H 965.758 1.96023 0.582694 0
M  V30 9922 H 963.913 2.42344 3.02238 0
M  V30 9923 H 964.327 4.58536 2.54647 0
M  V30 9924 H 965.801 3.75803 4.04322 0
M  V30 9925 H 966.278 2.07031 3.87343 0
M  V30 9926 H 966.884 3.27485 2.71355 0
M  V30 9927 N 965.199 -0.738761 1.39212 0
M  V30 9928 C 966.424 -1.5331 1.39681 0
M  V30 9929 C 966.849 -1.88098 -0.00768715 0
M  V30 9930 O 966.207 -1.51642 -0.993699 0
M  V30 9931 C 966.255 -2.79958 2.27279 0
M  V30 9932 O 965.359 -3.75727 1.70008 0
M  V30 9933 H 964.7 -0.463131 0.475821 0
M  V30 9934 H 967.23 -0.911768 1.83161 0
M  V30 9935 H 967.24 -3.28732 2.41659 0
M  V30 9936 H 965.915 -2.5397 3.29351 0
M  V30 9937 H 964.492 -3.34483 1.64851 0
M  V30 9938 N 966.677 -1.24326 -0.968545 0
M  V30 9939 C 967.587 -1.05194 -2.09694 0
M  V30 9940 C 968.603 0.00701291 -1.73999 0
M  V30 9941 O 969.779 -0.190981 -2.00492 0
M  V30 9942 C 966.844 -0.658075 -3.40397 0
M  V30 9943 C 965.905 -1.79341 -3.90045 0
M  V30 9944 C 965.138 -1.41824 -5.14511 0
M  V30 9945 O 965.361 -0.307693 -5.69569 0
M  V30 9946 O 964.295 -2.24358 -5.58522 0
M  V30 9947 H 968.121 -1.99791 -2.2873 0
M  V30 9948 H 965.706 -1.03138 -1.08088 0
M  V30 9949 H 967.588 -0.449911 -4.18991 0
M  V30 9950 H 966.263 0.258782 -3.22664 0
M  V30 9951 H 965.17 -2.05632 -3.12516 0
M  V30 9952 H 966.503 -2.68901 -4.12254 0
M  V30 9953 N 968.156 1.1691 -1.05688 0
M  V30 9954 C 969.402 1.8757 -0.771071 0
M  V30 9955 C 969.735 1.8113 0.700399 0
M  V30 9956 O 969.01 1.22273 1.5126 0
M  V30 9957 C 969.293 3.37392 -1.25851 0
M  V30 9958 C 969.146 3.52556 -2.79329 0
M  V30 9959 C 970.465 4.31585 -0.861512 0
M  V30 9960 H 967.584 0.681089 -0.281579 0
M  V30 9961 H 970.226 1.37453 -1.31174 0
M  V30 9962 H 968.376 3.80204 -0.798563 0
M  V30 9963 H 970.048 3.18725 -3.33485 0
M  V30 9964 H 968.291 2.94668 -3.1836 0
M  V30 9965 H 968.962 4.57748 -3.08498 0
M  V30 9966 H 971.438 3.96642 -1.25756 0
M  V30 9967 H 970.314 5.34939 -1.23012 0
M  V30 9968 H 970.575 4.4148 0.234089 0
M  V30 9969 N 969.634 0.838594 1.33437 0
M  V30 9970 C 970.862 0.447644 2.01999 0
M  V30 9971 C 971.277 -0.951053 1.63096 0
M  V30 9972 O 970.634 -1.61802 0.844169 0
M  V30 9973 C 970.685 0.558378 3.57162 0
M  V30 9974 O 970.406 1.90196 3.94661 0
M  V30 9975 C 971.907 0.164348 4.42995 0
M  V30 9976 H 969.127 0.177736 0.647032 0
M  V30 9977 H 971.671 1.13109 1.70372 0
M  V30 9978 H 969.826 -0.0771563 3.87323 0
M  V30 9979 H 970.24 1.88729 4.89369 0
M  V30 9980 H 971.714 0.292876 5.51222 0
M  V30 9981 H 972.191 -0.893713 4.30011 0
M  V30 9982 H 972.797 0.774306 4.18192 0
M  V30 9983 N 971.112 -1.45937 0.595003 0
M  V30 9984 C 972.022 -2.34221 -0.133325 0
M  V30 9985 C 973.038 -1.50491 -0.873407 0
M  V30 9986 O 974.214 -1.83328 -0.833828 0
M  V30 9987 C 971.279 -3.27896 -1.12628 0
M  V30 9988 C 970.34 -4.27529 -0.389532 0
M  V30 9989 C 969.573 -5.16729 -1.33519 0
M  V30 9990 O 969.796 -5.09102 -2.57238 0
M  V30 9991 O 968.73 -5.96023 -0.839084 0
M  V30 9992 H 972.556 -2.97877 0.591861 0
M  V30 9993 H 970.141 -1.45113 0.355329 0
M  V30 9994 H 972.023 -3.85654 -1.69851 0
M  V30 9995 H 970.698 -2.6682 -1.83272 0
M  V30 9996 H 969.605 -3.73424 0.224843 0
M  V30 9997 H 970.938 -4.91425 0.276169 0
M  V30 9998 N 972.59 -0.333456 -1.54032 0
M  V30 9999 C 973.5 0.536674 -2.28379 0
M  V30 10000 C 974.516 1.12068 -1.33104 0
M  V30 10001 O 975.692 1.13853 -1.66131 0
M  V30 10002 C 972.757 1.67677 -3.03456 0
M  V30 10003 C 971.818 1.12357 -4.14336 0
M  V30 10004 C 971.051 2.20933 -4.85823 0
M  V30 10005 O 971.274 3.41466 -4.569 0
M  V30 10006 O 970.208 1.85795 -5.72507 0
M  V30 10007 H 974.034 -0.0674003 -3.03625 0
M  V30 10008 H 971.619 -0.098823 -1.49073 0
M  V30 10009 H 973.501 2.34032 -3.50438 0
M  V30 10010 H 972.176 2.26684 -2.31076 0
M  V30 10011 H 971.083 0.424827 -3.7168 0
M  V30 10012 H 972.416 0.578497 -4.88789 0
M  V30 10013 N 974.068 1.57479 -0.061844 0
M  V30 10014 C 975 2.09116 0.938245 0
M  V30 10015 C 976.013 1.0212 1.26788 0
M  V30 10016 O 977.202 1.2966 1.22681 0
M  V30 10017 C 974.302 2.52822 2.25686 0
M  V30 10018 C 973.475 3.83277 2.10755 0
M  V30 10019 C 972.534 4.13182 3.25833 0
M  V30 10020 O 971.56 4.82937 3.01265 0
M  V30 10021 N 972.762 3.65938 4.50633 0
M  V30 10022 H 975.527 2.95543 0.497433 0
M  V30 10023 H 973.088 1.61423 0.124134 0
M  V30 10024 H 975.08 2.69896 3.01559 0
M  V30 10025 H 973.65 1.71586 2.61299 0
M  V30 10026 H 972.87 3.7568 1.19409 0
M  V30 10027 H 974.158 4.68686 1.98018 0
M  V30 10028 H 973.556 3.09566 4.73482 0
M  V30 10029 H 972.113 3.8823 5.23565 0
M  V30 10030 N 975.546 -0.211634 1.56173 0
M  V30 10031 C 976.795 -0.932647 1.78842 0
M  V30 10032 C 977.108 -1.85103 0.63217 0
M  V30 10033 O 978.314 -2.61143 0.742746 0
M  V30 10034 C 976.77 -1.70866 3.16753 0
M  V30 10035 C 976.378 -0.835934 4.40132 0
M  V30 10036 C 978.122 -2.4203 3.48743 0
M  V30 10037 C 976.029 -1.60987 5.69067 0
M  V30 10038 H 974.959 -0.351983 0.666801 0
M  V30 10039 H 977.61 -0.186284 1.82552 0
M  V30 10040 H 975.992 -2.4983 3.07247 0
M  V30 10041 H 977.166 -0.0861298 4.60719 0
M  V30 10042 H 975.481 -0.235941 4.15731 0
M  V30 10043 H 978.078 -3.00453 4.42303 0
M  V30 10044 H 978.421 -3.15406 2.71707 0
M  V30 10045 H 978.954 -1.70048 3.59623 0
M  V30 10046 H 975.693 -0.9192 6.49023 0
M  V30 10047 H 975.213 -2.33403 5.52524 0
M  V30 10048 H 976.892 -2.16798 6.09596 0
M  V30 10049 N 977.024 -1.50153 -0.478725 0
M  V30 10050 C 978.44 -1.3741 -0.811833 0
M  V30 10051 C 978.64 -0.424303 -1.96982 0
M  V30 10052 O 977.696 0.13588 -2.52134 0
M  V30 10053 C 979.009 -2.78616 -1.13108 0
M  V30 10054 C 980.557 -2.87477 -1.23798 0
M  V30 10055 C 981.032 -4.295 -1.5904 0
M  V30 10056 N 982.523 -4.32415 -1.66047 0
M  V30 10057 C 983.258 -5.39295 -1.94805 0
M  V30 10058 N 982.754 -6.56392 -2.21635 0
M  V30 10059 N 984.547 -5.26731 -1.96243 0
M  V30 10060 H 976.698 -2.10486 0.284531 0
M  V30 10061 H 978.961 -0.945786 0.0647585 0
M  V30 10062 H 978.667 -3.49921 -0.35334 0
M  V30 10063 H 978.541 -3.15382 -2.06915 0
M  V30 10064 H 980.928 -2.16396 -2.00641 0
M  V30 10065 H 981.009 -2.54264 -0.279888 0
M  V30 10066 H 980.653 -5.01115 -0.827404 0
M  V30 10067 H 980.583 -4.60194 -2.55987 0
M  V30 10068 H 983.074 -3.47975 -1.47383 0
M  V30 10069 H 983.387 -7.33658 -2.4283 0
M  V30 10070 H 981.732 -6.59579 -2.19043 0
M  V30 10071 H 984.923 -4.34249 -1.74773 0
M  V30 10072 H 985.096 -6.10115 -2.1832 0
M  V30 10073 N 978.502 0.731368 -1.39602 0
M  V30 10074 C 979.779 1.48308 -1.27531 0
M  V30 10075 C 980.159 2.10795 0.113482 0
M  V30 10076 O 979.507 1.98886 1.12501 0
M  V30 10077 C 979.717 2.53156 -2.40235 0
M  V30 10078 C 981.065 3.19436 -2.79725 0
M  V30 10079 O 982.089 2.6347 -2.39712 0
M  V30 10080 O 980.948 4.20714 -3.48801 0
M  V30 10081 H 978.042 0.658753 -0.499973 0
M  V30 10082 H 980.588 0.764884 -1.51485 0
M  V30 10083 H 979.36 2.05387 -3.33064 0
M  V30 10084 H 978.983 3.3253 -2.17966 0
M  V30 10085 N 979.98 1.24838 0.961938 0
M  V30 10086 C 980.943 1.04674 2.03902 0
M  V30 10087 C 981.943 0.00204674 1.608 0
M  V30 10088 O 983.133 0.243555 1.72489 0
M  V30 10089 C 980.265 0.587736 3.35795 0
M  V30 10090 H 981.458 2.00278 2.23223 0
M  V30 10091 H 979.011 1.07142 1.138 0
M  V30 10092 H 979.746 -0.371244 3.22168 0
M  V30 10093 H 979.531 1.34182 3.68426 0
M  V30 10094 H 981.021 0.467867 4.14971 0
M  V30 10095 N 981.458 -1.16348 1.06306 0
M  V30 10096 C 982.421 -2.18941 0.678053 0
M  V30 10097 C 983.421 -1.58409 -0.276277 0
M  V30 10098 O 984.611 -1.74101 -0.0586435 0
M  V30 10099 C 981.743 -3.409 -0.00228684 0
M  V30 10100 H 982.936 -2.54516 1.58624 0
M  V30 10101 H 980.489 -1.30625 0.858298 0
M  V30 10102 H 981.224 -3.10881 -0.923212 0
M  V30 10103 H 981.009 -3.86089 0.683949 0
M  V30 10104 H 982.499 -4.16806 -0.257374 0
M  V30 10105 N 982.937 -0.845659 -1.3299 0
M  V30 10106 C 984.353 -0.53433 -1.5039 0
M  V30 10107 C 984.553 0.936939 -1.78392 0
M  V30 10108 O 983.609 1.72043 -1.84818 0
M  V30 10109 C 984.922 -1.41354 -2.65404 0
M  V30 10110 C 986.47 -1.41303 -2.79289 0
M  V30 10111 C 986.945 -2.27724 -3.97373 0
M  V30 10112 N 988.436 -2.25471 -4.0462 0
M  V30 10113 C 989.171 -2.89074 -4.95201 0
M  V30 10114 N 988.667 -3.61755 -5.90851 0
M  V30 10115 N 990.46 -2.78508 -4.88251 0
M  V30 10116 H 982.611 -1.79798 -1.13078 0
M  V30 10117 H 984.874 -0.767454 -0.556524 0
M  V30 10118 H 984.58 -2.45936 -2.51413 0
M  V30 10119 H 984.454 -1.09445 -3.60973 0
M  V30 10120 H 986.841 -0.374899 -2.92709 0
M  V30 10121 H 986.922 -1.77222 -1.84461 0
M  V30 10122 H 986.566 -3.316 -3.84713 0
M  V30 10123 H 986.496 -1.89142 -4.9146 0
M  V30 10124 H 988.987 -1.72622 -3.3617 0
M  V30 10125 H 989.3 -4.07475 -6.56646 0
M  V30 10126 H 987.645 -3.65863 -5.90906 0
M  V30 10127 H 990.836 -2.21285 -4.12493 0
M  V30 10128 H 991.009 -3.2836 -5.58645 0
M  V30 10129 N 984.415 1.45619 -0.602734 0
M  V30 10130 C 985.831 1.57368 -0.26599 0
M  V30 10131 C 986.031 1.59485 1.23154 0
M  V30 10132 O 985.087 1.52254 2.01432 0
M  V30 10133 C 986.4 2.85863 -0.932881 0
M  V30 10134 C 987.948 2.9953 -0.908344 0
M  V30 10135 C 988.423 4.30789 -1.55515 0
M  V30 10136 N 989.914 4.37536 -1.52042 0
M  V30 10137 C 990.649 5.37758 -1.99008 0
M  V30 10138 N 990.145 6.44544 -2.54038 0
M  V30 10139 N 991.938 5.29085 -1.89805 0
M  V30 10140 H 984.089 1.42489 -1.57514 0
M  V30 10141 H 986.352 0.680948 -0.659556 0
M  V30 10142 H 986.058 2.90183 -1.98713 0
M  V30 10143 H 985.932 3.74467 -0.453209 0
M  V30 10144 H 988.319 2.9478 0.137344 0
M  V30 10145 H 988.4 2.12349 -1.42623 0
M  V30 10146 H 988.044 4.36297 -2.60014 0
M  V30 10147 H 987.974 5.16778 -1.01232 0
M  V30 10148 H 990.465 3.60972 -1.11837 0
M  V30 10149 H 990.778 7.17258 -2.87682 0
M  V30 10150 H 989.123 6.45308 -2.58075 0
M  V30 10151 H 992.314 4.44566 -1.46556 0
M  V30 10152 H 992.487 6.07043 -2.26722 0
M  V30 10153 N 985.893 0.34162 1.53853 0
M  V30 10154 C 987.139 -0.255862 2.01179 0
M  V30 10155 C 987.472 -1.50356 1.22909 0
M  V30 10156 O 986.747 -1.91913 0.316198 0
M  V30 10157 C 987.03 -0.571934 3.55529 0
M  V30 10158 C 986.883 0.687727 4.44511 0
M  V30 10159 C 988.202 -1.38233 4.17827 0
M  V30 10160 H 985.321 -0.091521 0.731295 0
M  V30 10161 H 987.963 0.461775 1.84303 0
M  V30 10162 H 986.113 -1.18331 3.70041 0
M  V30 10163 H 987.785 1.32572 4.4184 0
M  V30 10164 H 986.028 1.313 4.13452 0
M  V30 10165 H 986.699 0.421858 5.50386 0
M  V30 10166 H 989.175 -0.865374 4.07002 0
M  V30 10167 H 988.051 -1.57223 5.25901 0
M  V30 10168 H 988.312 -2.38386 3.72323 0
M  V30 10169 N 987.371 -1.57444 0.0701946 0
M  V30 10170 C 988.281 -2.16132 -0.912377 0
M  V30 10171 C 989.297 -1.12406 -1.32819 0
M  V30 10172 O 990.473 -1.44665 -1.40121 0
M  V30 10173 C 987.538 -2.71008 -2.16231 0
M  V30 10174 C 986.599 -3.896 -1.80306 0
M  V30 10175 C 985.832 -4.4185 -2.9934 0
M  V30 10176 O 986.055 -3.93106 -4.13309 0
M  V30 10177 O 984.989 -5.33201 -2.7925 0
M  V30 10178 H 988.815 -3.00449 -0.443167 0
M  V30 10179 H 986.4 -1.48617 -0.152786 0
M  V30 10180 H 988.282 -3.06186 -2.8953 0
M  V30 10181 H 986.957 -1.8975 -2.62253 0
M  V30 10182 H 985.864 -3.59277 -1.04264 0
M  V30 10183 H 987.197 -4.72145 -1.39068 0
M  V30 10184 N 988.849 0.203349 -1.56283 0
M  V30 10185 C 989.812 1.23566 -1.93039 0
M  V30 10186 C 990.812 1.38869 -0.810687 0
M  V30 10187 O 992.002 1.36822 -1.07821 0
M  V30 10188 C 989.134 2.60645 -2.1972 0
M  V30 10189 H 990.327 0.921692 -2.85385 0
M  V30 10190 H 987.88 0.44453 -1.49845 0
M  V30 10191 H 988.615 2.9711 -1.29985 0
M  V30 10192 H 988.4 2.50911 -3.01307 0
M  V30 10193 H 989.89 3.35103 -2.4919 0
M  V30 10194 N 990.327 1.50405 0.470755 0
M  V30 10195 C 991.257 1.72222 1.57676 0
M  V30 10196 C 992.238 0.57121 1.60222 0
M  V30 10197 O 993.423 0.810381 1.76484 0
M  V30 10198 C 990.553 1.81666 2.95998 0
M  V30 10199 C 989.507 2.96857 3.08318 0
M  V30 10200 C 988.833 2.91445 4.4829 0
M  V30 10201 C 990.133 4.37361 2.85504 0
M  V30 10202 H 991.827 2.64825 1.39671 0
M  V30 10203 H 989.373 1.27438 0.67049 0
M  V30 10204 H 991.326 1.95514 3.73299 0
M  V30 10205 H 990.05 0.856856 3.1516 0
M  V30 10206 H 988.709 2.82661 2.33449 0
M  V30 10207 H 988.357 1.93309 4.64371 0
M  V30 10208 H 988.057 3.68776 4.57469 0
M  V30 10209 H 989.581 3.07341 5.27611 0
M  V30 10210 H 990.995 4.52081 3.52555 0
M  V30 10211 H 989.392 5.16145 3.06127 0
M  V30 10212 H 990.462 4.49708 1.81359 0
M  V30 10213 N 991.805 -0.723954 1.39988 0
M  V30 10214 C 993.216 -1.30273 1.33738 0
M  V30 10215 C 993.567 -1.96199 0.00690581 0
M  V30 10216 O 992.692 -1.97016 -0.895179 0
M  V30 10217 C 993.287 -2.36889 2.42217 0
M  V30 10218 C 991.846 -2.90412 2.39453 0
M  V30 10219 C 990.993 -1.64103 2.2353 0
M  V30 10220 H 993.944 -0.520672 1.49916 0
M  V30 10221 H 993.965 -3.17538 2.09642 0
M  V30 10222 H 993.477 -1.88878 3.39038 0
M  V30 10223 H 991.578 -3.42674 1.46304 0
M  V30 10224 H 991.691 -3.42775 3.34727 0
M  V30 10225 H 990.055 -1.88855 1.70897 0
M  V30 10226 H 990.838 -1.18128 3.22336 0
M  V30 10227 N 993.283 -1.25346 -0.955304 0
M  V30 10228 C 994.694 -1.09173 -1.51453 0
M  V30 10229 C 995.045 0.332755 -1.93358 0
M  V30 10230 O 994.17 1.22264 -1.78551 0
M  V30 10231 C 994.765 -1.97564 -2.75234 0
M  V30 10232 C 993.324 -1.85579 -3.27471 0
M  V30 10233 C 992.471 -1.91755 -2.00313 0
M  V30 10234 H 995.422 -1.38642 -0.772271 0
M  V30 10235 H 995.443 -1.51523 -3.49029 0
M  V30 10236 H 994.955 -3.01233 -2.44704 0
M  V30 10237 H 993.056 -0.847906 -3.62824 0
M  V30 10238 H 993.169 -2.70353 -3.95533 0
M  V30 10239 H 991.533 -1.35633 -2.15582 0
M  V30 10240 H 992.316 -2.97028 -1.72132 0
M  V30 10241 N 994.761 1.15782 -1.06922 0
M  V30 10242 C 995.989 1.90355 -0.81072 0
M  V30 10243 C 996.404 1.77779 0.635614 0
M  V30 10244 O 995.761 1.12675 1.43564 0
M  V30 10245 C 995.812 3.4085 -1.2043 0
M  V30 10246 O 995.533 3.53057 -2.59388 0
M  V30 10247 C 997.034 4.32457 -0.974473 0
M  V30 10248 H 994.254 0.60343 -0.293451 0
M  V30 10249 H 996.798 1.46723 -1.42452 0
M  V30 10250 H 994.953 3.82162 -0.634909 0
M  V30 10251 H 995.367 4.46426 -2.75326 0
M  V30 10252 H 996.841 5.36488 -1.29942 0
M  V30 10253 H 997.318 4.39109 0.0894481 0
M  V30 10254 H 997.924 3.96882 -1.52856 0
M  V30 10255 N 996.239 0.8527 1.3254 0
M  V30 10256 C 997.149 0.298744 2.3269 0
M  V30 10257 C 998.165 -0.582418 1.63963 0
M  V30 10258 O 999.341 -0.483253 1.95516 0
M  V30 10259 C 996.406 -0.505453 3.42996 0
M  V30 10260 C 995.467 0.401618 4.27417 0
M  V30 10261 C 994.7 -0.364294 5.32455 0
M  V30 10262 O 994.923 -1.59448 5.47661 0
M  V30 10263 O 993.857 0.268892 6.01299 0
M  V30 10264 H 997.683 1.12843 2.81958 0
M  V30 10265 H 995.268 0.615584 1.36128 0
M  V30 10266 H 997.15 -0.961974 4.10273 0
M  V30 10267 H 995.825 -1.31197 2.95921 0
M  V30 10268 H 994.732 0.906274 3.62957 0
M  V30 10269 H 996.065 1.17327 4.78012 0
M  V30 10270 N 997.718 -1.45297 0.610449 0
M  V30 10271 C 999.129 -1.85715 0.191488 0
M  V30 10272 C 999.48 -1.51036 -1.25229 0
M  V30 10273 O 998.605 -0.938422 -1.94994 0
M  V30 10274 C 999.2 -3.37082 0.340747 0
M  V30 10275 C 997.759 -3.76393 -0.0235433 0
M  V30 10276 C 996.906 -2.69237 0.663849 0
M  V30 10277 H 999.857 -1.36058 0.816948 0
M  V30 10278 H 999.878 -3.78105 -0.426233 0
M  V30 10279 H 999.39 -3.62291 1.39164 0
M  V30 10280 H 997.491 -3.56801 -1.07351 0
M  V30 10281 H 997.604 -4.77653 0.372102 0
M  V30 10282 H 995.968 -2.54499 0.101204 0
M  V30 10283 H 996.751 -2.97281 1.71694 0
M  V30 10284 N 999.196 -0.349774 -1.5367 0
M  V30 10285 C 1000.61 0.00191293 -1.596 0
M  V30 10286 C 1000.81 1.48175 -1.36552 0
M  V30 10287 O 999.868 2.24129 -1.16285 0
M  V30 10288 C 1001.18 -0.439848 -2.97466 0
M  V30 10289 C 1002.73 -0.392721 -3.10526 0
M  V30 10290 C 1003.2 -0.810047 -4.5078 0
M  V30 10291 N 1004.69 -0.764478 -4.56848 0
M  V30 10292 C 1005.43 -1.05927 -5.63531 0
M  V30 10293 N 1004.93 -1.42253 -6.78038 0
M  V30 10294 N 1006.72 -0.983098 -5.53436 0
M  V30 10295 H 998.87 -1.31364 -1.66905 0
M  V30 10296 H 1001.13 -0.535908 -0.781989 0
M  V30 10297 H 1000.84 -1.47189 -3.19419 0
M  V30 10298 H 1000.71 0.181735 -3.76762 0
M  V30 10299 H 1003.1 0.630161 -2.88293 0
M  V30 10300 H 1003.18 -1.04959 -2.33275 0
M  V30 10301 H 1002.82 -1.83097 -4.73749 0
M  V30 10302 H 1002.75 -0.130591 -5.26438 0
M  V30 10303 H 1005.25 -0.496637 -3.74622 0
M  V30 10304 H 1005.56 -1.63215 -7.55368 0
M  V30 10305 H 1003.9 -1.46104 -6.79469 0
M  V30 10306 H 1007.09 -0.698601 -4.62858 0
M  V30 10307 H 1007.27 -1.21618 -6.36485 0
M  V30 10308 N 1000.67 1.57404 -0.0785433 0
M  V30 10309 C 1001.92 1.94031 0.589896 0
M  V30 10310 C 1002.25 0.959297 1.68852 0
M  V30 10311 O 1001.53 -0.0103978 1.94497 0
M  V30 10312 C 1001.81 3.40886 1.16055 0
M  V30 10313 C 1001.66 4.49748 0.0681072 0
M  V30 10314 C 1002.98 3.88699 2.06401 0
M  V30 10315 H 1000.1 0.70556 0.212965 0
M  V30 10316 H 1002.74 1.89439 -0.145886 0
M  V30 10317 H 1000.89 3.4493 1.78761 0
M  V30 10318 H 1002.57 4.57823 -0.565318 0
M  V30 10319 H 1000.81 4.29625 -0.600431 0
M  V30 10320 H 1001.48 5.49658 0.507906 0
M  V30 10321 H 1003.96 3.86703 1.53622 0
M  V30 10322 H 1002.83 4.92052 2.43261 0
M  V30 10323 H 1003.09 3.2703 2.97496 0
M  V30 10324 N 1002.15 -0.195058 1.56388 0
M  V30 10325 C 1003.08 -1.24444 1.97575 0
M  V30 10326 C 1004.06 -1.47471 0.847717 0
M  V30 10327 O 1005.25 -1.59208 1.11205 0
M  V30 10328 C 1002.38 -2.58866 2.31529 0
M  V30 10329 C 1001.33 -2.50451 3.47071 0
M  V30 10330 C 1000.66 -3.89146 3.667 0
M  V30 10331 C 1001.96 -2.02953 4.81256 0
M  V30 10332 H 1003.65 -0.902178 2.85484 0
M  V30 10333 H 1001.2 -0.43254 1.3735 0
M  V30 10334 H 1003.15 -3.3246 2.58936 0
M  V30 10335 H 1001.87 -2.94833 1.40502 0
M  V30 10336 H 1000.53 -1.79313 3.19754 0
M  V30 10337 H 1000.18 -4.22466 2.73004 0
M  V30 10338 H 999.882 -3.84391 4.44429 0
M  V30 10339 H 1001.41 -4.64363 3.96484 0
M  V30 10340 H 1002.82 -2.66306 5.07695 0
M  V30 10341 H 1001.22 -2.092 5.62455 0
M  V30 10342 H 1002.29 -0.982757 4.74837 0
M  V30 10343 N 1003.63 -1.50653 -0.462772 0
M  V30 10344 C 1004.56 -1.66286 -1.5774 0
M  V30 10345 C 1005.57 -0.544094 -1.53439 0
M  V30 10346 O 1006.76 -0.817566 -1.58676 0
M  V30 10347 C 1003.86 -1.63893 -2.96635 0
M  V30 10348 C 1003.04 -2.91939 -3.25716 0
M  V30 10349 C 1002.1 -2.82076 -4.44206 0
M  V30 10350 O 1001.12 -3.56032 -4.44106 0
M  V30 10351 N 1002.32 -1.96196 -5.4634 0
M  V30 10352 H 1005.09 -2.6243 -1.44742 0
M  V30 10353 H 1002.65 -1.48221 -0.651326 0
M  V30 10354 H 1004.64 -1.54897 -3.73884 0
M  V30 10355 H 1003.21 -0.75449 -3.03358 0
M  V30 10356 H 1002.43 -3.14998 -2.37002 0
M  V30 10357 H 1003.72 -3.7675 -3.4196 0
M  V30 10358 H 1003.12 -1.35439 -5.49247 0
M  V30 10359 H 1001.67 -1.93097 -6.2254 0
M  V30 10360 N 1005.11 0.71652 -1.4037 0
M  V30 10361 C 1006.36 1.47193 -1.37903 0
M  V30 10362 C 1006.67 1.95593 0.0159939 0
M  V30 10363 O 1007.88 2.71009 0.163282 0
M  V30 10364 C 1006.33 2.6606 -2.42363 0
M  V30 10365 C 1005.94 2.24533 -3.87671 0
M  V30 10366 C 1007.68 3.438 -2.49001 0
M  V30 10367 C 1005.59 3.40234 -4.8373 0
M  V30 10368 H 1004.52 0.552811 -0.512753 0
M  V30 10369 H 1007.17 0.779894 -1.66102 0
M  V30 10370 H 1005.55 3.37429 -2.07262 0
M  V30 10371 H 1006.73 1.6059 -4.31911 0
M  V30 10372 H 1005.04 1.59839 -3.845 0
M  V30 10373 H 1007.64 4.29893 -3.17956 0
M  V30 10374 H 1007.98 3.8755 -1.52023 0
M  V30 10375 H 1008.52 2.79474 -2.83088 0
M  V30 10376 H 1005.26 3.01517 -5.82037 0
M  V30 10377 H 1004.78 4.03095 -4.44156 0
M  V30 10378 H 1006.45 4.06312 -5.03507 0
M  V30 10379 N 1006.59 1.25851 0.948643 0
M  V30 10380 C 1008 1.02802 1.22081 0
M  V30 10381 C 1008.2 -0.251461 1.99925 0
M  V30 10382 O 1007.26 -0.962592 2.33432 0
M  V30 10383 C 1008.57 2.25489 1.98936 0
M  V30 10384 C 1010.12 2.30312 2.11956 0
M  V30 10385 C 1010.59 3.52671 2.92211 0
M  V30 10386 N 1012.09 3.53103 2.99787 0
M  V30 10387 C 1012.82 4.44445 3.62294 0
M  V30 10388 N 1012.32 5.46065 4.26362 0
M  V30 10389 N 1014.11 4.32113 3.59493 0
M  V30 10390 H 1006.26 2.08042 0.428044 0
M  V30 10391 H 1008.52 0.913928 0.251872 0
M  V30 10392 H 1008.23 3.18513 1.4914 0
M  V30 10393 H 1008.1 2.2914 2.99624 0
M  V30 10394 H 1010.49 1.37808 2.60946 0
M  V30 10395 H 1010.57 2.30676 1.10554 0
M  V30 10396 H 1010.22 4.45501 2.43909 0
M  V30 10397 H 1010.15 3.49554 3.93853 0
M  V30 10398 H 1012.64 2.79597 2.54232 0
M  V30 10399 H 1012.95 6.11964 4.71932 0
M  V30 10400 H 1011.29 5.49931 4.24972 0
M  V30 10401 H 1014.49 3.51946 3.08629 0
M  V30 10402 H 1014.66 5.03493 4.0792 0
M  V30 10403 N 1008.06 -1.15214 1.07534 0
M  V30 10404 C 1009.03 -2.18209 0.701237 0
M  V30 10405 C 1010.03 -1.58693 -0.25946 0
M  V30 10406 O 1011.22 -1.74154 -0.0401744 0
M  V30 10407 C 1008.35 -3.40883 0.0338703 0
M  V30 10408 H 1009.54 -2.5282 1.61314 0
M  V30 10409 H 1007.1 -1.29707 0.872105 0
M  V30 10410 H 1007.83 -3.11843 -0.890187 0
M  V30 10411 H 1007.62 -3.85342 0.72486 0
M  V30 10412 H 1009.11 -4.17056 -0.213152 0
M  V30 10413 N 1009.54 -0.859717 -1.32086 0
M  V30 10414 C 1010.47 -0.323502 -2.31248 0
M  V30 10415 C 1011.45 0.580085 -1.59903 0
M  V30 10416 O 1012.64 0.499265 -1.87673 0
M  V30 10417 C 1009.77 0.484661 -3.43902 0
M  V30 10418 C 1008.72 -0.324933 -4.26765 0
M  V30 10419 C 1008.05 0.608281 -5.31229 0
M  V30 10420 C 1009.35 -1.55344 -4.98664 0
M  V30 10421 H 1011.04 -1.15209 -2.76346 0
M  V30 10422 H 1008.59 -0.555442 -1.32856 0
M  V30 10423 H 1010.54 0.870238 -4.12316 0
M  V30 10424 H 1009.27 1.34666 -2.97544 0
M  V30 10425 H 1007.92 -0.692328 -3.60003 0
M  V30 10426 H 1007.57 1.46727 -4.81124 0
M  V30 10427 H 1007.27 0.0705571 -5.87558 0
M  V30 10428 H 1008.8 0.990925 -6.02506 0
M  V30 10429 H 1010.21 -1.23987 -5.59732 0
M  V30 10430 H 1008.61 -2.02947 -5.64741 0
M  V30 10431 H 1009.68 -2.31192 -4.26237 0
M  V30 10432 N 1011.02 1.44971 -0.618145 0
M  V30 10433 C 1012.27 2.02458 -0.117656 0
M  V30 10434 C 1012.6 1.48413 1.25248 0
M  V30 10435 O 1011.87 0.662997 1.82851 0
M  V30 10436 C 1012.16 3.59987 -0.0901897 0
M  V30 10437 C 1012.01 4.24343 -1.49175 0
M  V30 10438 C 1013.33 4.36099 0.592121 0
M  V30 10439 H 1010.45 0.735672 -0.0442291 0
M  V30 10440 H 1013.09 1.727 -0.792138 0
M  V30 10441 H 1011.24 3.85471 0.484175 0
M  V30 10442 H 1012.91 4.10009 -2.114 0
M  V30 10443 H 1011.16 3.82337 -2.04941 0
M  V30 10444 H 1011.83 5.33298 -1.42468 0
M  V30 10445 H 1014.3 4.1597 0.103813 0
M  V30 10446 H 1013.18 5.45822 0.580481 0
M  V30 10447 H 1013.44 4.09746 1.66015 0
M  V30 10448 N 1012.5 0.357919 1.53482 0
M  V30 10449 C 1013.43 -0.484231 2.28424 0
M  V30 10450 C 1014.41 -1.09046 1.30548 0
M  V30 10451 O 1015.59 -1.10916 1.59409 0
M  V30 10452 C 1012.72 -1.62803 3.06778 0
M  V30 10453 C 1011.68 -1.14943 4.12277 0
M  V30 10454 C 1011 -2.38287 4.78669 0
M  V30 10455 C 1012.3 -0.239627 5.2175 0
M  V30 10456 H 1014 0.140979 2.99068 0
M  V30 10457 H 1011.54 0.069244 1.43833 0
M  V30 10458 H 1013.5 -2.22374 3.57949 0
M  V30 10459 H 1012.22 -2.28036 2.3381 0
M  V30 10460 H 1010.88 -0.576442 3.6204 0
M  V30 10461 H 1010.53 -3.01959 4.02281 0
M  V30 10462 H 1010.23 -2.06939 5.49955 0
M  V30 10463 H 1011.75 -2.98558 5.32631 0
M  V30 10464 H 1013.17 -0.742597 5.6847 0
M  V30 10465 H 1011.56 -0.0173747 6.00097 0
M  V30 10466 H 1012.63 0.720333 4.7952 0
M  V30 10467 N 1013.98 -1.5736 0.0868897 0
M  V30 10468 C 1015.22 -1.9367 -0.577598 0
M  V30 10469 C 1015.55 -0.968844 -1.69229 0
M  V30 10470 O 1014.82 -0.0195061 -1.9589 0
M  V30 10471 H 1013.4 -0.714983 -0.216353 0
M  V30 10472 H 1016.06 -1.94335 0.148294 0
M  V30 10473 H 1015.15 -2.95877 -0.993128 0
M  V30 10474 N 1015.45 0.186762 -1.56489 0
M  V30 10475 C 1016.7 0.904063 -1.80752 0
M  V30 10476 C 1017.02 1.83443 -0.661343 0
M  V30 10477 O 1016.29 1.93272 0.319811 0
M  V30 10478 H 1014.87 0.336828 -0.66675 0
M  V30 10479 H 1017.54 0.190275 -1.93969 0
M  V30 10480 H 1016.63 1.49021 -2.74225 0
M  V30 10481 N 1016.93 1.50896 0.454776 0
M  V30 10482 C 1017.9 1.70377 1.53312 0
M  V30 10483 C 1018.9 0.57408 1.50203 0
M  V30 10484 O 1020.09 0.841374 1.52534 0
M  V30 10485 C 1017.22 1.74411 2.92905 0
M  V30 10486 H 1018.41 2.66599 1.37349 0
M  V30 10487 H 1015.96 1.40622 0.68228 0
M  V30 10488 H 1016.7 0.799408 3.14293 0
M  V30 10489 H 1016.48 2.56496 2.96568 0
M  V30 10490 H 1017.97 1.91382 3.71164 0
M  V30 10491 N 1018.41 -0.709066 1.40748 0
M  V30 10492 C 1019.34 -1.83583 1.4429 0
M  V30 10493 C 1020.32 -1.67378 0.303067 0
M  V30 10494 O 1021.51 -1.87312 0.512612 0
M  V30 10495 C 1018.64 -3.21599 1.31116 0
M  V30 10496 C 1017.59 -3.52486 2.4277 0
M  V30 10497 C 1016.92 -4.89716 2.14668 0
M  V30 10498 C 1018.22 -3.52824 3.85113 0
M  V30 10499 H 1019.91 -1.80876 2.38588 0
M  V30 10500 H 1017.46 -0.868795 1.14839 0
M  V30 10501 H 1019.41 -4.00123 1.32209 0
M  V30 10502 H 1018.13 -3.24898 0.332965 0
M  V30 10503 H 1016.79 -2.76305 2.40937 0
M  V30 10504 H 1016.44 -4.89625 1.15224 0
M  V30 10505 H 1016.14 -5.11347 2.89478 0
M  V30 10506 H 1017.66 -5.70566 2.17455 0
M  V30 10507 H 1019.08 -4.21377 3.88734 0
M  V30 10508 H 1017.48 -3.85984 4.59496 0
M  V30 10509 H 1018.55 -2.52073 4.14231 0
M  V30 10510 N 1019.89 -1.26353 -0.941956 0
M  V30 10511 C 1021.17 -1.02601 -1.6653 0
M  V30 10512 C 1021.55 0.44381 -2.06382 0
M  V30 10513 O 1020.89 1.42399 -1.78703 0
M  V30 10514 C 1021.1 -1.97401 -2.87809 0
M  V30 10515 C 1022.45 -2.25967 -3.59478 0
M  V30 10516 O 1023.48 -1.95261 -2.97912 0
M  V30 10517 O 1022.34 -2.78244 -4.70364 0
M  V30 10518 H 1019.43 -0.39007 -0.729228 0
M  V30 10519 H 1021.98 -1.37559 -0.993754 0
M  V30 10520 H 1020.75 -2.9659 -2.55245 0
M  V30 10521 H 1020.37 -1.62918 -3.62689 0
M  V30 10522 N 1021.37 1.14642 -1.08144 0
M  V30 10523 C 1022.61 1.86115 -0.820533 0
M  V30 10524 C 1022.97 1.81208 0.646635 0
M  V30 10525 O 1022.26 1.22997 1.46909 0
M  V30 10526 C 1022.46 3.33953 -1.2732 0
M  V30 10527 C 1022.28 3.53254 -2.78283 0
M  V30 10528 C 1021.05 3.68259 -3.45996 0
M  V30 10529 C 1023.25 3.504 -3.76463 0
M  V30 10530 N 1021.23 3.75692 -4.85519 0
M  V30 10531 C 1022.61 3.64045 -5.01868 0
M  V30 10532 C 1024.66 3.33722 -3.69505 0
M  V30 10533 C 1023.36 3.62734 -6.21141 0
M  V30 10534 C 1025.39 3.33713 -4.88251 0
M  V30 10535 C 1024.75 3.47896 -6.12493 0
M  V30 10536 H 1020.85 0.697829 -0.352929 0
M  V30 10537 H 1023.43 1.3742 -1.37927 0
M  V30 10538 H 1021.61 3.81245 -0.742066 0
M  V30 10539 H 1023.34 3.93174 -0.958991 0
M  V30 10540 H 1020.09 3.69376 -2.96409 0
M  V30 10541 H 1020.52 3.83133 -5.58156 0
M  V30 10542 H 1025.16 3.2167 -2.74387 0
M  V30 10543 H 1022.88 3.73563 -7.16573 0
M  V30 10544 H 1026.46 3.22025 -4.84553 0
M  V30 10545 H 1025.34 3.47833 -7.02838 0
M  V30 10546 N 1022.85 0.866709 1.31628 0
M  V30 10547 C 1023.78 0.335762 2.31073 0
M  V30 10548 C 1024.76 -0.571597 1.60209 0
M  V30 10549 O 1025.94 -0.489306 1.87935 0
M  V30 10550 C 1023.07 -0.466416 3.44154 0
M  V30 10551 C 1022.03 0.347561 4.26586 0
M  V30 10552 C 1021.35 -0.5801 5.31544 0
M  V30 10553 C 1022.65 1.57986 4.97833 0
M  V30 10554 H 1024.35 1.16673 2.75731 0
M  V30 10555 H 1021.89 0.56248 1.3256 0
M  V30 10556 H 1023.84 -0.84836 4.12772 0
M  V30 10557 H 1022.57 -1.33086 2.98254 0
M  V30 10558 H 1021.23 0.71141 3.59631 0
M  V30 10559 H 1020.88 -1.44174 4.81895 0
M  V30 10560 H 1020.58 -0.0393965 5.87587 0
M  V30 10561 H 1022.1 -0.958958 6.03023 0
M  V30 10562 H 1023.51 1.26954 5.59067 0
M  V30 10563 H 1021.91 2.05939 5.63657 0
M  V30 10564 H 1022.98 2.3345 4.25005 0
M  V30 10565 N 1024.32 -1.44642 0.625825 0
M  V30 10566 C 1025.27 -2.30653 -0.082259 0
M  V30 10567 C 1026.24 -1.43174 -0.842052 0
M  V30 10568 O 1027.43 -1.72082 -0.824151 0
M  V30 10569 C 1024.57 -3.2837 -1.06146 0
M  V30 10570 C 1023.68 -4.30953 -0.300638 0
M  V30 10571 C 1022.81 -5.15766 -1.27118 0
M  V30 10572 C 1021.85 -6.10061 -0.499215 0
M  V30 10573 N 1020.99 -6.87591 -1.41995 0
M  V30 10574 H 1025.83 -2.90664 0.657161 0
M  V30 10575 H 1023.37 -1.43215 0.335859 0
M  V30 10576 H 1025.32 -3.83507 -1.6425 0
M  V30 10577 H 1023.95 -2.70072 -1.76807 0
M  V30 10578 H 1023.01 -3.78331 0.396234 0
M  V30 10579 H 1024.32 -4.97892 0.300851 0
M  V30 10580 H 1023.47 -5.75394 -1.92372 0
M  V30 10581 H 1022.21 -4.48888 -1.9066 0
M  V30 10582 H 1021.22 -5.49547 0.166848 0
M  V30 10583 H 1022.44 -6.78973 0.131409 0
M  V30 10584 H 1020.39 -6.23387 -2.04267 0
M  V30 10585 H 1020.3 -7.5095 -0.872354 0
M  V30 10586 H 1021.57 -7.51746 -2.0615 0
M  V30 10587 N 1025.8 -0.366053 -1.5329 0
M  V30 10588 C 1027.08 0.279902 -1.93587 0
M  V30 10589 C 1027.46 1.66352 -1.29963 0
M  V30 10590 O 1026.81 2.23845 -0.458895 0
M  V30 10591 C 1027.02 0.329634 -3.4744 0
M  V30 10592 C 1028.36 0.569754 -4.2076 0
M  V30 10593 O 1029.39 0.410823 -3.53823 0
M  V30 10594 O 1028.25 0.879262 -5.3938 0
M  V30 10595 H 1025.34 0.16802 -0.809752 0
M  V30 10596 H 1027.89 -0.418871 -1.64449 0
M  V30 10597 H 1026.66 -0.640434 -3.86023 0
M  V30 10598 H 1026.28 1.07428 -3.82812 0
M  V30 10599 N 1027.28 1.57312 -0.0952337 0
M  V30 10600 C 1028.23 2.15263 0.881167 0
M  V30 10601 C 1029.22 1.09552 1.29208 0
M  V30 10602 O 1030.43 1.27897 1.26659 0
M  V30 10603 H 1026.8 0.688611 0.302191 0
M  V30 10604 H 1028.77 2.96126 0.367694 0
M  V30 10605 C 1027.52 2.74779 2.13053 0
M  V30 10606 H 1026.85 3.55807 1.82323 0
M  V30 10607 H 1028.29 3.18895 2.79431 0
M  V30 10608 C 1026.74 1.7068 2.90465 0
M  V30 10609 O 1027.27 1.14582 3.85011 0
M  V30 10610 N 1025.48 1.41169 2.54007 0
M  V30 10611 H 1025.03 1.86977 1.77193 0
M  V30 10612 H 1024.99 0.717559 3.06102 0
M  V30 10613 N 1028.76 -0.17846 1.56586 0
M  V30 10614 C 1029.7 -1.22104 1.95855 0
M  V30 10615 C 1030.67 -1.44366 0.821447 0
M  V30 10616 O 1031.86 -1.57224 1.08098 0
M  V30 10617 C 1029 -2.55701 2.31757 0
M  V30 10618 C 1028.11 -2.40879 3.5861 0
M  V30 10619 C 1027.25 -3.67293 3.83757 0
M  V30 10620 C 1026.29 -3.47373 5.03982 0
M  V30 10621 N 1025.42 -4.65839 5.25298 0
M  V30 10622 H 1030.26 -0.879168 2.84736 0
M  V30 10623 H 1027.8 -0.422721 1.40895 0
M  V30 10624 H 1029.76 -3.33556 2.50592 0
M  V30 10625 H 1028.39 -2.87898 1.45995 0
M  V30 10626 H 1027.44 -1.54236 3.47729 0
M  V30 10627 H 1028.75 -2.22102 4.46623 0
M  V30 10628 H 1027.91 -4.53584 4.02922 0
M  V30 10629 H 1026.65 -3.89041 2.94107 0
M  V30 10630 H 1025.65 -2.59467 4.84723 0
M  V30 10631 H 1026.88 -3.27055 5.95157 0
M  V30 10632 H 1024.82 -4.8782 4.38598 0
M  V30 10633 H 1024.74 -4.4995 6.0752 0
M  V30 10634 H 1026.01 -5.53435 5.48936 0
M  V30 10635 N 1030.24 -1.51135 -0.446768 0
M  V30 10636 C 1031.2 -1.71187 -1.52406 0
M  V30 10637 C 1032.2 -0.582037 -1.49897 0
M  V30 10638 O 1033.39 -0.849452 -1.52085 0
M  V30 10639 C 1030.52 -1.75962 -2.91976 0
M  V30 10640 H 1031.71 -2.67324 -1.35934 0
M  V30 10641 H 1029.27 -1.40982 -0.674813 0
M  V30 10642 H 1030 -0.816065 -3.13864 0
M  V30 10643 H 1029.79 -2.58065 -2.95203 0
M  V30 10644 H 1031.28 -1.93347 -3.70144 0
M  V30 10645 N 1031.71 0.701592 -1.41122 0
M  V30 10646 C 1032.94 1.49553 -1.43696 0
M  V30 10647 C 1033.36 1.88053 -0.0421865 0
M  V30 10648 O 1032.72 1.54223 0.953144 0
M  V30 10649 C 1032.77 2.73834 -2.34622 0
M  V30 10650 O 1031.87 3.71088 -1.7991 0
M  V30 10651 H 1031.21 0.450352 -0.487933 0
M  V30 10652 H 1033.74 0.862886 -1.85514 0
M  V30 10653 H 1033.75 3.22209 -2.5029 0
M  V30 10654 H 1032.43 2.45149 -3.35969 0
M  V30 10655 H 1031.01 3.29994 -1.73661 0
M  V30 10656 N 1033.19 1.2685 0.935242 0
M  V30 10657 C 1034.42 1.15538 1.71635 0
M  V30 10658 C 1034.83 -0.288698 1.8658 0
M  V30 10659 O 1034.19 -1.19721 1.37743 0
M  V30 10660 C 1034.24 1.8259 3.11999 0
M  V30 10661 O 1033.96 3.21355 2.97763 0
M  V30 10662 C 1035.46 1.77307 4.06297 0
M  V30 10663 H 1032.68 0.402055 0.537208 0
M  V30 10664 H 1035.23 1.67582 1.17203 0
M  V30 10665 H 1033.38 1.3447 3.63313 0
M  V30 10666 H 1033.8 3.54626 3.86446 0
M  V30 10667 H 1035.27 2.28851 5.02326 0
M  V30 10668 H 1035.75 0.740823 4.32907 0
M  V30 10669 H 1036.35 2.25007 3.60904 0
M  V30 10670 N 1034.67 -1.14067 1.0875 0
M  V30 10671 C 1035.62 -2.21332 0.715195 0
M  V30 10672 C 1036.61 -1.67059 -0.280679 0
M  V30 10673 O 1037.82 -1.79432 -0.142874 0
M  V30 10674 H 1034.19 -0.721126 0.213264 0
M  V30 10675 H 1036.16 -2.50002 1.62916 0
M  V30 10676 C 1034.91 -3.474 0.144401 0
M  V30 10677 H 1034.24 -3.89495 0.901884 0
M  V30 10678 H 1035.68 -4.23928 -0.0782564 0
M  V30 10679 C 1034.14 -3.17787 -1.11862 0
M  V30 10680 O 1034.67 -3.35906 -2.20295 0
M  V30 10681 N 1032.87 -2.71719 -1.03039 0
M  V30 10682 H 1032.42 -2.57175 -0.14793 0
M  V30 10683 H 1032.38 -2.52281 -1.87621 0
M  V30 10684 N 1036.15 -0.873678 -1.31166 0
M  V30 10685 C 1037.1 -0.303699 -2.25968 0
M  V30 10686 C 1038.08 0.561387 -1.50789 0
M  V30 10687 O 1039.27 0.407658 -1.72242 0
M  V30 10688 C 1036.4 0.490612 -3.39776 0
M  V30 10689 C 1035.49 -0.387927 -4.22322 0
M  V30 10690 N 1035.88 -1.48313 -4.83567 0
M  V30 10691 C 1034.18 -0.18102 -4.45632 0
M  V30 10692 C 1034.88 -2.0252 -5.45308 0
M  V30 10693 N 1033.86 -1.32169 -5.27288 0
M  V30 10694 H 1037.66 -1.14071 -2.7086 0
M  V30 10695 H 1035.17 -0.721843 -1.45476 0
M  V30 10696 H 1037.17 0.9155 -4.06724 0
M  V30 10697 H 1035.83 1.32519 -2.96427 0
M  V30 10698 H 1036.84 -1.86604 -4.83114 0
M  V30 10699 H 1033.52 0.617304 -4.12911 0
M  V30 10700 H 1034.91 -2.94429 -6.03955 0
M  V30 10701 N 1037.63 1.44308 -0.633487 0
M  V30 10702 C 1038.88 2.01239 -0.136356 0
M  V30 10703 C 1039.19 1.50438 1.25011 0
M  V30 10704 O 1040.39 1.99513 1.84138 0
M  V30 10705 C 1038.85 3.59382 -0.193011 0
M  V30 10706 C 1038.46 4.19178 -1.58093 0
M  V30 10707 C 1040.2 4.23778 0.247534 0
M  V30 10708 C 1038.11 5.69553 -1.59258 0
M  V30 10709 H 1037.04 0.752521 -0.0472109 0
M  V30 10710 H 1039.69 1.65498 -0.79263 0
M  V30 10711 H 1038.07 3.92432 0.530408 0
M  V30 10712 H 1039.25 3.97662 -2.32813 0
M  V30 10713 H 1037.56 3.67079 -1.96576 0
M  V30 10714 H 1040.16 5.34075 0.258401 0
M  V30 10715 H 1040.5 3.96285 1.27529 0
M  V30 10716 H 1041.03 3.9554 -0.423469 0
M  V30 10717 H 1037.77 6.01784 -2.59878 0
M  V30 10718 H 1037.29 5.93185 -0.888352 0
M  V30 10719 H 1038.97 6.33234 -1.32756 0
M  V30 10720 N 1039.1 0.374177 1.53094 0
M  V30 10721 C 1040.03 -0.459976 2.28925 0
M  V30 10722 C 1041.02 -1.07656 1.31698 0
M  V30 10723 O 1042.2 -1.09219 1.60577 0
M  V30 10724 C 1039.33 -1.5954 3.08487 0
M  V30 10725 C 1038.28 -1.10563 4.13473 0
M  V30 10726 C 1037.61 -2.33196 4.81169 0
M  V30 10727 C 1038.91 -0.184275 5.21975 0
M  V30 10728 H 1040.6 0.172692 2.98902 0
M  V30 10729 H 1038.15 0.0844956 1.43752 0
M  V30 10730 H 1040.1 -2.18565 3.60288 0
M  V30 10731 H 1038.83 -2.25543 2.36216 0
M  V30 10732 H 1037.49 -0.53801 3.62631 0
M  V30 10733 H 1037.13 -2.97675 4.05461 0
M  V30 10734 H 1036.83 -2.01094 5.52119 0
M  V30 10735 H 1038.36 -2.92892 5.35767 0
M  V30 10736 H 1039.77 -0.682262 5.69226 0
M  V30 10737 H 1038.17 0.0462746 6.00082 0
M  V30 10738 H 1039.24 0.771152 4.78729 0
M  V30 10739 N 1040.58 -1.57259 0.103575 0
M  V30 10740 C 1041.83 -1.94272 -0.557024 0
M  V30 10741 C 1042.15 -0.986739 -1.68192 0
M  V30 10742 O 1041.42 -0.0402818 -1.95859 0
M  V30 10743 H 1040 -0.717237 -0.208757 0
M  V30 10744 H 1042.66 -1.94167 0.168898 0
M  V30 10745 H 1041.76 -2.96914 -0.961691 0
M  V30 10746 N 1042.06 0.170153 -1.56679 0
M  V30 10747 C 1043.31 0.886592 -1.8206 0
M  V30 10748 C 1043.64 1.82194 -0.680839 0
M  V30 10749 O 1042.89 1.92866 0.331822 0
M  V30 10750 C 1043.19 1.71402 -3.13618 0
M  V30 10751 C 1042.86 0.927489 -4.41258 0
M  V30 10752 C 1041.52 0.710417 -4.75927 0
M  V30 10753 C 1043.87 0.375855 -5.19843 0
M  V30 10754 C 1041.2 -0.0693691 -5.86659 0
M  V30 10755 C 1043.55 -0.390849 -6.31391 0
M  V30 10756 C 1042.21 -0.61871 -6.64626 0
M  V30 10757 H 1041.48 0.324427 -0.666204 0
M  V30 10758 H 1044.13 0.151464 -1.909 0
M  V30 10759 H 1042.44 2.51858 -3.00125 0
M  V30 10760 H 1044.13 2.27141 -3.30466 0
M  V30 10761 H 1040.72 1.10672 -4.14065 0
M  V30 10762 H 1044.91 0.530897 -4.93452 0
M  V30 10763 H 1040.16 -0.255637 -6.10865 0
M  V30 10764 H 1044.34 -0.825544 -6.9149 0
M  V30 10765 H 1041.96 -1.22482 -7.50268 0
M  V30 10766 N 1043.54 1.5137 0.438746 0
M  V30 10767 C 1044.95 1.56462 1.01866 0
M  V30 10768 C 1045.3 0.387244 1.9234 0
M  V30 10769 O 1044.43 -0.496131 2.10636 0
M  V30 10770 C 1045.02 2.83557 1.85421 0
M  V30 10771 C 1043.58 2.91224 2.38464 0
M  V30 10772 C 1042.73 2.51109 1.17641 0
M  V30 10773 H 1045.68 1.57167 0.220072 0
M  V30 10774 H 1045.7 2.6724 2.70857 0
M  V30 10775 H 1045.21 3.69229 1.19546 0
M  V30 10776 H 1043.31 2.09979 3.07798 0
M  V30 10777 H 1043.42 3.94844 2.71358 0
M  V30 10778 H 1041.79 2.04276 1.5213 0
M  V30 10779 H 1042.57 3.39125 0.533785 0
M  V30 10780 N 1045.02 -0.694098 1.41492 0
M  V30 10781 C 1046.26 -1.45415 1.40929 0
M  V30 10782 C 1046.59 -1.94491 0.0189301 0
M  V30 10783 O 1045.85 -1.7 -0.96945 0
M  V30 10784 C 1046.15 -2.6805 2.36398 0
M  V30 10785 C 1045.81 -2.37623 3.83205 0
M  V30 10786 C 1044.47 -2.29035 4.23198 0
M  V30 10787 C 1046.83 -2.12555 4.75888 0
M  V30 10788 C 1044.15 -1.93478 5.5388 0
M  V30 10789 C 1046.51 -1.78506 6.06892 0
M  V30 10790 C 1045.17 -1.68415 6.45905 0
M  V30 10791 H 1044.44 -0.53211 0.515694 0
M  V30 10792 H 1047.09 -0.793193 1.74301 0
M  V30 10793 H 1045.39 -3.39086 1.96285 0
M  V30 10794 H 1047.09 -3.26194 2.33234 0
M  V30 10795 H 1043.68 -2.45202 3.51531 0
M  V30 10796 H 1047.86 -2.18133 4.45793 0
M  V30 10797 H 1043.12 -1.84219 5.82986 0
M  V30 10798 H 1047.29 -1.58128 6.7821 0
M  V30 10799 H 1044.92 -1.40631 7.47079 0
M  V30 10800 N 1046.49 -1.27344 -0.928501 0
M  V30 10801 C 1047.72 -1.16447 -1.7102 0
M  V30 10802 C 1048.14 0.278799 -1.8673 0
M  V30 10803 O 1047.49 1.18989 -1.38376 0
M  V30 10804 C 1047.55 -1.84242 -3.11026 0
M  V30 10805 O 1047.27 -3.2293 -2.96054 0
M  V30 10806 C 1048.77 -1.7946 -4.05351 0
M  V30 10807 H 1045.99 -0.404898 -0.535069 0
M  V30 10808 H 1048.53 -1.68201 -1.16313 0
M  V30 10809 H 1046.69 -1.36395 -3.62595 0
M  V30 10810 H 1047.1 -3.5667 -3.8456 0
M  V30 10811 H 1048.57 -2.31511 -5.01105 0
M  V30 10812 H 1049.05 -0.763771 -4.32508 0
M  V30 10813 H 1049.66 -2.26918 -3.59706 0
M  V30 10814 N 1047.97 1.13488 -1.09353 0
M  V30 10815 C 1049.2 1.89133 -0.85108 0
M  V30 10816 C 1049.62 1.78542 0.591976 0
M  V30 10817 O 1048.98 1.13243 1.41583 0
M  V30 10818 C 1049.03 3.36736 -1.29001 0
M  V30 10819 O 1048.13 4.09959 -0.447993 0
M  V30 10820 H 1047.47 0.58809 -0.308296 0
M  V30 10821 H 1050 1.43593 -1.45747 0
M  V30 10822 H 1050.01 3.87564 -1.27508 0
M  V30 10823 H 1048.69 3.43762 -2.34095 0
M  V30 10824 H 1047.27 3.69155 -0.52717 0
M  V30 10825 N 1049.45 0.880621 1.30701 0
M  V30 10826 C 1050.4 0.315679 2.25804 0
M  V30 10827 C 1051.39 -0.553382 1.51084 0
M  V30 10828 O 1052.58 -0.398518 1.72455 0
M  V30 10829 C 1049.71 -0.472586 3.40032 0
M  V30 10830 C 1048.79 0.410318 4.2211 0
M  V30 10831 N 1049.18 1.50876 4.82773 0
M  V30 10832 C 1047.48 0.20465 4.4553 0
M  V30 10833 C 1048.18 2.05409 5.44226 0
M  V30 10834 N 1047.16 1.34964 5.26579 0
M  V30 10835 H 1050.96 1.15505 2.70251 0
M  V30 10836 H 1048.47 0.729547 1.45091 0
M  V30 10837 H 1050.47 -0.893918 4.07204 0
M  V30 10838 H 1049.13 -1.30945 2.97125 0
M  V30 10839 H 1050.14 1.89163 4.82118 0
M  V30 10840 H 1046.82 -0.595398 4.13233 0
M  V30 10841 H 1048.21 2.97627 6.02385 0
M  V30 10842 N 1050.93 -1.4397 0.641131 0
M  V30 10843 C 1052.18 -2.01548 0.149333 0
M  V30 10844 C 1052.5 -1.50759 -1.23679 0
M  V30 10845 O 1051.77 -0.715257 -1.82376 0
M  V30 10846 H 1050.35 -0.745173 0.0522161 0
M  V30 10847 H 1053.01 -1.7634 0.830082 0
M  V30 10848 H 1052.11 -3.11851 0.124676 0
M  V30 10849 N 1052.41 -0.382291 -1.52893 0
M  V30 10850 C 1053.34 0.447829 -2.29165 0
M  V30 10851 C 1054.32 1.06956 -1.32267 0
M  V30 10852 O 1055.5 1.08365 -1.61154 0
M  V30 10853 C 1052.63 1.57902 -3.09329 0
M  V30 10854 C 1051.59 1.08369 -4.14053 0
M  V30 10855 C 1050.91 2.30641 -4.82399 0
M  V30 10856 C 1052.21 0.156591 -5.22065 0
M  V30 10857 H 1053.91 -0.188541 -2.98806 0
M  V30 10858 H 1051.45 -0.0921179 -1.43705 0
M  V30 10859 H 1053.41 2.16652 -3.61442 0
M  V30 10860 H 1052.13 2.24287 -2.37409 0
M  V30 10861 H 1050.79 0.518772 -3.62911 0
M  V30 10862 H 1050.44 2.9552 -4.07034 0
M  V30 10863 H 1050.14 1.98163 -5.53177 0
M  V30 10864 H 1051.66 2.90047 -5.37313 0
M  V30 10865 H 1053.08 0.652065 -5.6958 0
M  V30 10866 H 1051.47 -0.0780978 -6.00049 0
M  V30 10867 H 1052.54 -0.796529 -4.78313 0
M  V30 10868 N 1053.89 1.57202 -0.111913 0
M  V30 10869 C 1055.3 1.57713 0.244702 0
M  V30 10870 C 1055.5 1.12419 1.67225 0
M  V30 10871 O 1054.56 0.808329 2.39212 0
M  V30 10872 C 1055.87 3.00695 0.0178289 0
M  V30 10873 C 1057.42 3.12887 0.0842781 0
M  V30 10874 C 1057.89 4.57856 -0.114812 0
M  V30 10875 N 1059.38 4.6316 -0.0605423 0
M  V30 10876 C 1060.12 5.73086 -0.189594 0
M  V30 10877 N 1059.62 6.91787 -0.37442 0
M  V30 10878 N 1061.41 5.6195 -0.12967 0
M  V30 10879 H 1053.56 1.84947 -1.04443 0
M  V30 10880 H 1055.82 0.854418 -0.4107 0
M  V30 10881 H 1055.53 3.38093 -0.968802 0
M  V30 10882 H 1055.4 3.69611 0.752815 0
M  V30 10883 H 1057.79 2.7535 1.06143 0
M  V30 10884 H 1057.87 2.46528 -0.682474 0
M  V30 10885 H 1057.51 4.9609 -1.0889 0
M  V30 10886 H 1057.44 5.22297 0.671839 0
M  V30 10887 H 1059.94 3.77817 0.0790856 0
M  V30 10888 H 1060.25 7.71406 -0.463948 0
M  V30 10889 H 1058.59 6.93788 -0.410303 0
M  V30 10890 H 1061.78 4.68098 0.0137115 0
M  V30 10891 H 1061.96 6.47578 -0.233688 0
M  V30 10892 N 1055.36 -0.161842 1.56767 0
M  V30 10893 C 1056.29 -1.20226 2.0017 0
M  V30 10894 C 1057.27 -1.4564 0.878807 0
M  V30 10895 O 1058.46 -1.56813 1.14557 0
M  V30 10896 C 1055.59 -2.53897 2.36968 0
M  V30 10897 C 1054.54 -2.43033 3.52305 0
M  V30 10898 C 1053.87 -3.81281 3.74872 0
M  V30 10899 C 1055.17 -1.927 4.85453 0
M  V30 10900 H 1056.86 -0.84142 2.87333 0
M  V30 10901 H 1054.41 -0.403309 1.38237 0
M  V30 10902 H 1056.36 -3.26893 2.6593 0
M  V30 10903 H 1055.09 -2.91787 1.46724 0
M  V30 10904 H 1053.75 -1.7249 3.23485 0
M  V30 10905 H 1053.39 -4.1658 2.81904 0
M  V30 10906 H 1053.09 -3.74877 4.52483 0
M  V30 10907 H 1054.62 -4.55848 4.06245 0
M  V30 10908 H 1056.03 -2.55477 5.13229 0
M  V30 10909 H 1054.43 -1.97222 5.66766 0
M  V30 10910 H 1055.5 -0.881816 4.76814 0
M  V30 10911 N 1056.84 -1.516 -0.430713 0
M  V30 10912 C 1058.09 -1.64271 -1.17726 0
M  V30 10913 C 1058.41 -0.364406 -1.91565 0
M  V30 10914 O 1057.68 0.619991 -1.8583 0
M  V30 10915 H 1056.26 -0.605432 -0.437562 0
M  V30 10916 H 1058.92 -1.88557 -0.493166 0
M  V30 10917 H 1058.02 -2.47355 -1.90321 0
M  V30 10918 N 1058.32 0.686584 -1.41858 0
M  V30 10919 C 1059.57 1.44879 -1.41908 0
M  V30 10920 C 1059.9 1.94175 -0.0311408 0
M  V30 10921 O 1059.17 1.70131 0.942646 0
M  V30 10922 C 1059.46 2.65428 -2.43352 0
M  V30 10923 C 1059.31 2.2184 -3.91289 0
M  V30 10924 C 1060.63 3.67635 -2.41934 0
M  V30 10925 H 1057.75 0.525477 -0.516762 0
M  V30 10926 H 1060.39 0.781263 -1.73194 0
M  V30 10927 H 1058.54 3.2238 -2.16803 0
M  V30 10928 H 1060.21 1.70146 -4.28775 0
M  V30 10929 H 1058.45 1.53531 -4.05722 0
M  V30 10930 H 1059.13 3.08376 -4.5783 0
M  V30 10931 H 1061.6 3.20376 -2.65516 0
M  V30 10932 H 1060.48 4.49579 -3.14913 0
M  V30 10933 H 1060.74 4.17953 -1.44111 0
M  V30 10934 N 1059.8 1.27835 0.921735 0
M  V30 10935 C 1060.71 1.12904 2.05645 0
M  V30 10936 C 1061.72 0.0575704 1.73905 0
M  V30 10937 O 1062.9 0.265261 1.99645 0
M  V30 10938 C 1059.96 0.783957 3.3772 0
M  V30 10939 C 1059.03 1.93694 3.8312 0
M  V30 10940 C 1058.26 1.60823 5.08893 0
M  V30 10941 O 1058.48 0.518873 5.68035 0
M  V30 10942 O 1057.42 2.44932 5.49811 0
M  V30 10943 H 1061.24 2.08143 2.21157 0
M  V30 10944 H 1058.83 1.07078 1.04185 0
M  V30 10945 H 1060.71 0.605107 4.17033 0
M  V30 10946 H 1059.38 -0.138849 3.23402 0
M  V30 10947 H 1058.29 2.17089 3.04669 0
M  V30 10948 H 1059.62 2.84016 4.0199 0
M  V30 10949 N 1061.28 -1.12907 1.09954 0
M  V30 10950 C 1062.24 -2.16673 0.747364 0
M  V30 10951 C 1063.24 -1.59208 -0.225741 0
M  V30 10952 O 1064.43 -1.742 -0.00322482 0
M  V30 10953 C 1061.56 -3.40735 0.106169 0
M  V30 10954 H 1062.75 -2.49341 1.6664 0
M  V30 10955 H 1060.31 -1.27828 0.899421 0
M  V30 10956 H 1061.04 -3.13661 -0.82384 0
M  V30 10957 H 1060.83 -3.83717 0.806434 0
M  V30 10958 H 1062.32 -4.17414 -0.12464 0
M  V30 10959 N 1062.75 -0.88754 -1.30232 0
M  V30 10960 C 1063.98 -0.521562 -2.00735 0
M  V30 10961 C 1064.4 0.883247 -1.66073 0
M  V30 10962 O 1063.76 1.58581 -0.878731 0
M  V30 10963 C 1063.81 -0.706521 -3.53611 0
M  V30 10964 O 1062.91 0.246447 -4.11663 0
M  V30 10965 H 1062.25 -0.205216 -0.631492 0
M  V30 10966 H 1064.78 -1.19579 -1.66018 0
M  V30 10967 H 1064.79 -0.606501 -4.03467 0
M  V30 10968 H 1063.47 -1.73076 -3.78177 0
M  V30 10969 H 1062.05 0.0999062 -3.72766 0
M  V30 10970 N 1064.23 1.43628 -0.648757 0
M  V30 10971 C 1065.16 2.33478 0.0320785 0
M  V30 10972 C 1066.14 1.49217 0.816605 0
M  V30 10973 O 1067.33 1.77892 0.778974 0
M  V30 10974 C 1064.46 3.32525 1.00222 0
M  V30 10975 C 1063.41 4.2674 0.328119 0
M  V30 10976 C 1062.74 5.15791 1.4094 0
M  V30 10977 C 1064.04 5.16493 -0.776701 0
M  V30 10978 H 1065.73 2.90657 -0.718257 0
M  V30 10979 H 1063.28 1.3976 -0.346852 0
M  V30 10980 H 1065.23 3.94277 1.4874 0
M  V30 10981 H 1063.96 2.73593 1.78366 0
M  V30 10982 H 1062.61 3.66346 -0.136569 0
M  V30 10983 H 1062.26 4.53201 2.18216 0
M  V30 10984 H 1061.96 5.79645 0.963631 0
M  V30 10985 H 1063.49 5.80416 1.89603 0
M  V30 10986 H 1064.9 5.7208 -0.373878 0
M  V30 10987 H 1063.3 5.89043 -1.14667 0
M  V30 10988 H 1064.37 4.56448 -1.63654 0
M  V30 10989 N 1065.71 0.390394 1.52688 0
M  V30 10990 C 1067.13 0.0404028 1.59549 0
M  V30 10991 C 1067.33 -1.44503 1.40432 0
M  V30 10992 O 1066.38 -2.20968 1.22187 0
M  V30 10993 C 1067.7 0.518561 2.96195 0
M  V30 10994 C 1069.24 0.474913 3.09376 0
M  V30 10995 C 1069.72 0.929278 4.48473 0
M  V30 10996 N 1071.21 0.885335 4.5466 0
M  V30 10997 C 1071.94 1.2083 5.60524 0
M  V30 10998 N 1071.44 1.6018 6.74028 0
M  V30 10999 N 1073.23 1.12949 5.50635 0
M  V30 11000 H 1065.38 1.35743 1.63363 0
M  V30 11001 H 1067.65 0.556453 0.767505 0
M  V30 11002 H 1067.35 1.55606 3.15404 0
M  V30 11003 H 1067.23 -0.081779 3.77111 0
M  V30 11004 H 1069.61 -0.553503 2.89863 0
M  V30 11005 H 1069.7 1.11107 2.3041 0
M  V30 11006 H 1069.34 1.95593 4.68728 0
M  V30 11007 H 1069.27 0.270121 5.25907 0
M  V30 11008 H 1071.76 0.595787 3.73174 0
M  V30 11009 H 1072.07 1.83184 7.50775 0
M  V30 11010 H 1070.42 1.64067 6.75357 0
M  V30 11011 H 1073.61 0.821074 4.60843 0
M  V30 11012 H 1073.78 1.3845 6.33037 0
M  V30 11013 N 1067.19 -1.57141 0.120249 0
M  V30 11014 C 1068.41 -2.00017 -0.548454 0
M  V30 11015 C 1068.84 -0.999433 -1.59352 0
M  V30 11016 O 1068.2 0.0286978 -1.81277 0
M  V30 11017 C 1068.24 -3.41766 -1.15015 0
M  V30 11018 O 1067.35 -3.44589 -2.26566 0
M  V30 11019 H 1066.69 -0.649739 -0.136875 0
M  V30 11020 H 1069.22 -2.03529 0.209092 0
M  V30 11021 H 1069.23 -3.80001 -1.48537 0
M  V30 11022 H 1067.9 -4.14117 -0.384681 0
M  V30 11023 H 1066.48 -3.18174 -1.94473 0
M  V30 11024 N 1068.67 0.153526 -1.5685 0
M  V30 11025 C 1069.6 1.19162 -2.00805 0
M  V30 11026 C 1070.58 1.45172 -0.886518 0
M  V30 11027 O 1071.76 1.56203 -1.15387 0
M  V30 11028 C 1068.89 2.52637 -2.38311 0
M  V30 11029 C 1067.85 2.41161 -3.53589 0
M  V30 11030 C 1067.17 3.79287 -3.76889 0
M  V30 11031 C 1068.47 1.90122 -4.86468 0
M  V30 11032 H 1070.17 0.82617 -2.87776 0
M  V30 11033 H 1067.71 0.395972 -1.38449 0
M  V30 11034 H 1069.67 3.25478 -2.6766 0
M  V30 11035 H 1068.39 2.91005 -1.4827 0
M  V30 11036 H 1067.05 1.70772 -3.24395 0
M  V30 11037 H 1066.7 4.15079 -2.84109 0
M  V30 11038 H 1066.4 3.72472 -4.54465 0
M  V30 11039 H 1067.92 4.53687 -4.08657 0
M  V30 11040 H 1069.33 2.52752 -5.14577 0
M  V30 11041 H 1067.73 1.94214 -5.67804 0
M  V30 11042 H 1068.8 0.856517 -4.77275 0
M  V30 11043 N 1070.14 1.51827 0.422667 0
M  V30 11044 C 1071.11 1.7359 1.49663 0
M  V30 11045 C 1072.11 0.605811 1.48952 0
M  V30 11046 O 1073.3 0.87354 1.50715 0
M  V30 11047 C 1070.43 1.80585 2.8914 0
M  V30 11048 H 1071.62 2.69453 1.31664 0
M  V30 11049 H 1069.18 1.42038 0.652298 0
M  V30 11050 H 1069.91 0.865895 3.12526 0
M  V30 11051 H 1069.7 2.62729 2.9106 0
M  V30 11052 H 1071.19 1.99212 3.67021 0
M  V30 11053 N 1071.62 -0.679052 1.4222 0
M  V30 11054 C 1073.04 -0.991665 1.25053 0
M  V30 11055 C 1073.24 -2.00928 0.151665 0
M  V30 11056 O 1072.29 -2.47925 -0.478507 0
M  V30 11057 C 1073.61 -1.50053 2.60585 0
M  V30 11058 C 1075.16 -1.61852 2.67905 0
M  V30 11059 C 1075.63 -2.16135 4.03794 0
M  V30 11060 N 1077.12 -2.23474 4.05726 0
M  V30 11061 C 1077.86 -2.66541 5.07685 0
M  V30 11062 N 1077.35 -3.09092 6.20028 0
M  V30 11063 N 1079.15 -2.66252 4.95042 0
M  V30 11064 H 1071.3 -0.00521851 2.12399 0
M  V30 11065 H 1073.56 -0.0648465 0.94578 0
M  V30 11066 H 1073.27 -0.82731 3.41831 0
M  V30 11067 H 1073.14 -2.47998 2.84213 0
M  V30 11068 H 1075.53 -2.28281 1.87008 0
M  V30 11069 H 1075.61 -0.624074 2.4807 0
M  V30 11070 H 1075.25 -1.50316 4.85147 0
M  V30 11071 H 1075.18 -3.16363 4.20978 0
M  V30 11072 H 1077.67 -1.93467 3.24621 0
M  V30 11073 H 1077.99 -3.40627 6.93681 0
M  V30 11074 H 1076.33 -3.06959 6.23539 0
M  V30 11075 H 1079.52 -2.32369 4.06352 0
M  V30 11076 H 1079.69 -2.99496 5.74636 0
M  V30 11077 N 1073.1 -1.28322 -0.914942 0
M  V30 11078 C 1074.35 -1.15578 -1.66642 0
M  V30 11079 C 1074.68 0.295209 -1.91943 0
M  V30 11080 O 1073.95 1.21482 -1.51896 0
M  V30 11081 C 1074.24 -1.9535 -3.02507 0
M  V30 11082 C 1074.09 -3.48504 -2.84367 0
M  V30 11083 C 1075.41 -1.76798 -4.03027 0
M  V30 11084 H 1072.53 -0.421234 -0.604757 0
M  V30 11085 H 1075.17 -1.57625 -1.06087 0
M  V30 11086 H 1073.32 -1.59619 -3.54195 0
M  V30 11087 H 1074.99 -3.94135 -2.39699 0
M  V30 11088 H 1073.24 -3.74198 -2.1945 0
M  V30 11089 H 1073.91 -3.99576 -3.80845 0
M  V30 11090 H 1076.38 -2.07977 -3.60395 0
M  V30 11091 H 1075.26 -2.34987 -4.96057 0
M  V30 11092 H 1075.52 -0.719162 -4.36211 0
M  V30 11093 N 1074.58 1.12322 -1.10551 0
M  V30 11094 C 1075.54 2.16273 -0.758844 0
M  V30 11095 C 1076.54 1.59325 0.217294 0
M  V30 11096 O 1077.73 1.74199 -0.00601346 0
M  V30 11097 C 1074.86 3.40674 -0.124238 0
M  V30 11098 H 1076.06 2.48454 -1.6796 0
M  V30 11099 H 1073.61 1.2735 -0.906188 0
M  V30 11100 H 1074.34 3.14094 0.807194 0
M  V30 11101 H 1074.13 3.83284 -0.826772 0
M  V30 11102 H 1075.62 4.17474 0.102502 0
M  V30 11103 N 1076.06 0.894434 1.2976 0
M  V30 11104 C 1077.47 0.566892 1.77885 0
M  V30 11105 C 1077.82 -0.917289 1.73437 0
M  V30 11106 O 1076.94 -1.71707 1.31703 0
M  V30 11107 C 1077.54 1.02227 3.2301 0
M  V30 11108 C 1076.1 0.745978 3.68934 0
M  V30 11109 C 1075.24 1.19993 2.49994 0
M  V30 11110 H 1078.2 1.0777 1.16496 0
M  V30 11111 H 1078.22 0.355281 3.78838 0
M  V30 11112 H 1077.73 2.1025 3.26215 0
M  V30 11113 H 1075.83 -0.321866 3.71207 0
M  V30 11114 H 1075.94 1.34017 4.59974 0
M  V30 11115 H 1074.31 0.619047 2.47063 0
M  V30 11116 H 1075.09 2.28811 2.55931 0
M  V30 11117 N 1077.53 -1.43282 0.656365 0
M  V30 11118 C 1078.76 -2.06125 0.178879 0
M  V30 11119 C 1079.18 -1.49216 -1.15672 0
M  V30 11120 O 1078.53 -0.624693 -1.71475 0
M  V30 11121 C 1078.59 -3.614 0.0851785 0
M  V30 11122 O 1078.31 -4.16194 1.36798 0
M  V30 11123 C 1079.81 -4.41325 -0.41801 0
M  V30 11124 H 1077.03 -0.664753 0.0913504 0
M  V30 11125 H 1079.57 -1.83733 0.897901 0
M  V30 11126 H 1077.73 -3.82966 -0.584421 0
M  V30 11127 H 1078.14 -5.09892 1.22924 0
M  V30 11128 H 1079.61 -5.50303 -0.432519 0
M  V30 11129 H 1080.09 -4.14577 -1.44991 0
M  V30 11130 H 1080.7 -4.24735 0.219208 0
M  V30 11131 N 1079.01 -0.398486 -1.52479 0
M  V30 11132 C 1079.95 0.467426 -2.24383 0
M  V30 11133 C 1080.96 1.01908 -1.26959 0
M  V30 11134 O 1082.15 0.919843 -1.52974 0
M  V30 11135 C 1079.25 1.66146 -2.95379 0
M  V30 11136 C 1078.42 1.23557 -4.19586 0
M  V30 11137 C 1077.48 2.29532 -4.73499 0
M  V30 11138 O 1076.51 1.90561 -5.36354 0
M  V30 11139 N 1077.71 3.61564 -4.5415 0
M  V30 11140 H 1080.47 -0.148653 -2.99331 0
M  V30 11141 H 1078.03 -0.225313 -1.60325 0
M  V30 11142 H 1080.03 2.36585 -3.28344 0
M  V30 11143 H 1078.6 2.18369 -2.23682 0
M  V30 11144 H 1077.82 0.359715 -3.92555 0
M  V30 11145 H 1079.1 0.927812 -5.00269 0
M  V30 11146 H 1078.5 3.95983 -4.03998 0
M  V30 11147 H 1077.06 4.2801 -4.9158 0
M  V30 11148 N 1080.49 1.57075 -0.12858 0
M  V30 11149 C 1081.91 1.57964 0.227961 0
M  V30 11150 C 1082.11 1.14186 1.66023 0
M  V30 11151 O 1081.16 0.833655 2.38341 0
M  V30 11152 C 1082.48 3.00697 -0.0140648 0
M  V30 11153 C 1084.02 3.12958 0.0510876 0
M  V30 11154 C 1084.5 4.57709 -0.163368 0
M  V30 11155 N 1085.99 4.6307 -0.109663 0
M  V30 11156 C 1086.73 5.72853 -0.250366 0
M  V30 11157 N 1086.22 6.91351 -0.447772 0
M  V30 11158 N 1088.01 5.61781 -0.189265 0
M  V30 11159 H 1080.17 1.83829 -1.06398 0
M  V30 11160 H 1082.43 0.850014 -0.419739 0
M  V30 11161 H 1082.13 3.37047 -1.00461 0
M  V30 11162 H 1082.01 3.70389 0.713571 0
M  V30 11163 H 1084.4 2.7646 1.03216 0
M  V30 11164 H 1084.48 2.4579 -0.708583 0
M  V30 11165 H 1084.12 4.94907 -1.14146 0
M  V30 11166 H 1084.05 5.2298 0.616405 0
M  V30 11167 H 1086.54 3.7788 0.0390086 0
M  V30 11168 H 1086.85 7.70871 -0.54574 0
M  V30 11169 H 1085.2 6.93314 -0.483866 0
M  V30 11170 H 1088.39 4.68086 -0.0359374 0
M  V30 11171 H 1088.56 6.47294 -0.302359 0
M  V30 11172 N 1081.97 -0.145205 1.5693 0
M  V30 11173 C 1082.92 -1.18446 1.94819 0
M  V30 11174 C 1083.9 -1.38456 0.819684 0
M  V30 11175 O 1085.1 -1.39988 1.08316 0
M  V30 11176 C 1082.22 -2.51766 2.33385 0
M  V30 11177 C 1081.31 -2.35341 3.5281 0
M  V30 11178 N 1081.7 -1.88676 4.69292 0
M  V30 11179 C 1080 -2.66087 3.5793 0
M  V30 11180 C 1080.7 -1.85337 5.51385 0
M  V30 11181 N 1079.68 -2.28717 4.93142 0
M  V30 11182 H 1083.48 -0.815785 2.82351 0
M  V30 11183 H 1080.99 -0.353242 1.58512 0
M  V30 11184 H 1082.99 -3.26897 2.58735 0
M  V30 11185 H 1081.65 -2.89414 1.47206 0
M  V30 11186 H 1082.66 -1.58614 4.93013 0
M  V30 11187 H 1079.34 -3.07597 2.82294 0
M  V30 11188 H 1080.73 -1.50734 6.54774 0
M  V30 11189 N 1083.45 -1.52049 -0.414609 0
M  V30 11190 C 1084.86 -1.40729 -0.752822 0
M  V30 11191 C 1085.06 -0.507468 -1.95005 0
M  V30 11192 O 1084.12 0.0288189 -2.52484 0
M  V30 11193 C 1085.43 -2.83163 -1.01189 0
M  V30 11194 C 1086.98 -2.92469 -1.11494 0
M  V30 11195 C 1087.46 -4.35859 -1.4068 0
M  V30 11196 N 1088.95 -4.39069 -1.47557 0
M  V30 11197 C 1089.68 -5.47072 -1.71756 0
M  V30 11198 N 1089.18 -6.65201 -1.93595 0
M  V30 11199 N 1090.97 -5.3458 -1.73726 0
M  V30 11200 H 1083.12 -2.09089 0.373549 0
M  V30 11201 H 1085.38 -0.942188 0.104814 0
M  V30 11202 H 1085.09 -3.51104 -0.204609 0
M  V30 11203 H 1084.96 -3.23874 -1.93353 0
M  V30 11204 H 1087.35 -2.24711 -1.91282 0
M  V30 11205 H 1087.43 -2.55222 -0.171794 0
M  V30 11206 H 1087.08 -5.04174 -0.614119 0
M  V30 11207 H 1087.01 -4.70637 -2.36238 0
M  V30 11208 H 1089.5 -3.53913 -1.32491 0
M  V30 11209 H 1089.81 -7.43297 -2.11495 0
M  V30 11210 H 1088.16 -6.68276 -1.90871 0
M  V30 11211 H 1091.35 -4.41271 -1.56198 0
M  V30 11212 H 1091.52 -6.18826 -1.92246 0
M  V30 11213 N 1084.93 0.6715 -1.42579 0
M  V30 11214 C 1086.16 1.4576 -1.46416 0
M  V30 11215 C 1086.56 1.89051 -0.0749843 0
M  V30 11216 O 1085.91 1.58927 0.921296 0
M  V30 11217 C 1085.97 2.7365 -2.33144 0
M  V30 11218 C 1085.63 2.52414 -3.80968 0
M  V30 11219 C 1086.63 2.16804 -4.72538 0
M  V30 11220 C 1084.31 2.67306 -4.25268 0
M  V30 11221 C 1086.31 1.96358 -6.06401 0
M  V30 11222 C 1084 2.46475 -5.5919 0
M  V30 11223 C 1084.99 2.11055 -6.49573 0
M  V30 11224 O 1084.68 1.90428 -7.8102 0
M  V30 11225 H 1084.41 0.454896 -0.500045 0
M  V30 11226 H 1086.97 0.832198 -1.87786 0
M  V30 11227 H 1085.2 3.38684 -1.86629 0
M  V30 11228 H 1086.89 3.35543 -2.28398 0
M  V30 11229 H 1087.65 2.04891 -4.39596 0
M  V30 11230 H 1083.53 2.93854 -3.55206 0
M  V30 11231 H 1087.08 1.68634 -6.76911 0
M  V30 11232 H 1082.97 2.57985 -5.91704 0
M  V30 11233 H 1083.74 2.05 -7.92412 0
M  V30 11234 N 1086.4 1.28806 0.908124 0
M  V30 11235 C 1087.63 1.19153 1.69146 0
M  V30 11236 C 1088.05 -0.249056 1.8715 0
M  V30 11237 O 1087.4 -1.16772 1.40251 0
M  V30 11238 C 1087.45 1.89167 3.08055 0
M  V30 11239 O 1087.18 3.27599 2.90879 0
M  V30 11240 C 1088.68 1.85886 4.02444 0
M  V30 11241 H 1085.9 0.413359 0.528559 0
M  V30 11242 H 1088.44 1.7003 1.13622 0
M  V30 11243 H 1086.6 1.42146 3.60379 0
M  V30 11244 H 1087.01 3.62743 3.78837 0
M  V30 11245 H 1088.48 2.39454 4.97359 0
M  V30 11246 H 1088.96 0.832483 4.31238 0
M  V30 11247 H 1089.57 2.32612 3.5605 0
M  V30 11248 N 1087.88 -1.11734 1.11145 0
M  V30 11249 C 1088.81 -2.1976 0.789152 0
M  V30 11250 C 1089.79 -1.68382 -0.241143 0
M  V30 11251 O 1090.98 -1.93914 -0.105292 0
M  V30 11252 C 1088.11 -3.46549 0.228204 0
M  V30 11253 C 1087.06 -4.11123 1.19002 0
M  V30 11254 C 1086.39 -5.32451 0.489928 0
M  V30 11255 C 1087.69 -4.56406 2.53951 0
M  V30 11256 H 1089.38 -2.46978 1.69241 0
M  V30 11257 H 1086.93 -1.18705 0.81517 0
M  V30 11258 H 1088.88 -4.21399 -0.00945908 0
M  V30 11259 H 1087.6 -3.18782 -0.71033 0
M  V30 11260 H 1086.26 -3.38264 1.41326 0
M  V30 11261 H 1085.91 -5.00953 -0.453315 0
M  V30 11262 H 1085.61 -5.76605 1.1314 0
M  V30 11263 H 1087.14 -6.10042 0.260984 0
M  V30 11264 H 1088.55 -5.22592 2.35733 0
M  V30 11265 H 1086.95 -5.11363 3.14051 0
M  V30 11266 H 1088.02 -3.7001 3.13402 0
M  V30 11267 N 1089.36 -0.901303 -1.29284 0
M  V30 11268 C 1090.61 -0.528826 -1.95784 0
M  V30 11269 C 1090.94 0.922833 -1.70873 0
M  V30 11270 O 1090.21 1.65448 -1.0226 0
M  V30 11271 C 1090.5 -0.823793 -3.50551 0
M  V30 11272 C 1090.35 -2.32727 -3.84913 0
M  V30 11273 C 1091.67 -0.311382 -4.38997 0
M  V30 11274 H 1088.79 -0.193604 -0.711116 0
M  V30 11275 H 1091.43 -1.12828 -1.52872 0
M  V30 11276 H 1089.58 -0.313612 -3.87232 0
M  V30 11277 H 1091.25 -2.90712 -3.58168 0
M  V30 11278 H 1089.49 -2.78735 -3.32399 0
M  V30 11279 H 1090.17 -2.48423 -4.9294 0
M  V30 11280 H 1092.64 -0.748265 -4.09317 0
M  V30 11281 H 1091.52 -0.546957 -5.46168 0
M  V30 11282 H 1091.78 0.787959 -4.35021 0
M  V30 11283 N 1090.84 1.42931 -0.663954 0
M  V30 11284 C 1092.11 1.95284 -0.111174 0
M  V30 11285 C 1092.49 1.60484 1.37142 0
M  V30 11286 O 1091.84 0.895425 2.10225 0
M  V30 11287 C 1092.05 3.47046 -0.368789 0
M  V30 11288 C 1093.4 4.23679 -0.279473 0
M  V30 11289 O 1094.42 3.54918 -0.301937 0
M  V30 11290 O 1093.28 5.46087 -0.21236 0
M  V30 11291 H 1090.38 0.826993 0.00341718 0
M  V30 11292 H 1092.92 1.52816 -0.737935 0
M  V30 11293 H 1091.7 3.65541 -1.39626 0
M  V30 11294 H 1091.32 3.96537 0.290514 0
M  V30 11295 N 1092.32 0.406567 1.52266 0
M  V30 11296 C 1093.25 -0.464709 2.23418 0
M  V30 11297 C 1094.23 -1.05008 1.24146 0
M  V30 11298 O 1095.41 -1.09843 1.53188 0
M  V30 11299 C 1092.54 -1.64481 2.96081 0
M  V30 11300 C 1091.58 -1.18307 4.09763 0
M  V30 11301 S 1092.42 -0.150326 5.35289 0
M  V30 11302 C 1093.57 -1.3358 6.11479 0
M  V30 11303 H 1093.81 0.139455 2.96973 0
M  V30 11304 H 1091.34 0.19085 1.53216 0
M  V30 11305 H 1093.3 -2.3215 3.38551 0
M  V30 11306 H 1091.96 -2.22031 2.22174 0
M  V30 11307 H 1091.15 -2.06466 4.59769 0
M  V30 11308 H 1090.75 -0.58505 3.69396 0
M  V30 11309 H 1093.04 -2.25986 6.38699 0
M  V30 11310 H 1093.99 -0.876328 7.02656 0
M  V30 11311 H 1094.4 -1.56044 5.42504 0
M  V30 11312 N 1093.79 -1.57004 0.136909 0
M  V30 11313 C 1094.76 -2.15066 -0.792419 0
M  V30 11314 C 1095.76 -1.08991 -1.18226 0
M  V30 11315 O 1096.95 -1.34681 -1.10484 0
M  V30 11316 C 1094.08 -2.70554 -2.07397 0
M  V30 11317 H 1095.27 -2.98519 -0.28752 0
M  V30 11318 H 1092.83 -1.55895 -0.112469 0
M  V30 11319 H 1093.56 -1.90739 -2.62277 0
M  V30 11320 H 1093.35 -3.48149 -1.80374 0
M  V30 11321 H 1094.84 -3.15322 -2.73792 0
M  V30 11322 N 1095.27 0.136881 -1.57004 0
M  V30 11323 C 1096.22 1.18782 -1.99984 0
M  V30 11324 C 1097.21 1.43899 -0.893841 0
M  V30 11325 O 1098.42 1.44072 -1.07904 0
M  V30 11326 H 1094.8 0.400065 -0.636751 0
M  V30 11327 H 1096.77 0.798696 -2.87512 0
M  V30 11328 C 1095.52 2.51105 -2.40502 0
M  V30 11329 H 1094.84 2.32611 -3.25165 0
M  V30 11330 H 1096.28 3.23244 -2.74389 0
M  V30 11331 C 1094.74 3.12386 -1.26161 0
M  V30 11332 O 1095.27 3.97666 -0.567836 0
M  V30 11333 N 1093.47 2.71989 -1.02326 0
M  V30 11334 H 1093.02 2.02736 -1.58921 0
M  V30 11335 H 1092.98 3.13322 -0.26013 0
M  V30 11336 N 1096.75 1.52266 0.40654 0
M  V30 11337 C 1097.7 1.75794 1.4955 0
M  V30 11338 C 1098.67 0.600472 1.54866 0
M  V30 11339 O 1099.85 0.838305 1.71397 0
M  V30 11340 C 1096.99 1.91682 2.86971 0
M  V30 11341 C 1096.11 3.19337 2.90943 0
M  V30 11342 C 1095.24 3.25641 4.1968 0
M  V30 11343 C 1094.28 4.47488 4.17637 0
M  V30 11344 N 1093.42 4.51171 5.37949 0
M  V30 11345 H 1098.26 2.68733 1.28789 0
M  V30 11346 H 1095.79 1.33157 0.625102 0
M  V30 11347 H 1097.75 1.98877 3.66748 0
M  V30 11348 H 1096.38 1.02121 3.06221 0
M  V30 11349 H 1095.43 3.21301 2.03642 0
M  V30 11350 H 1096.75 4.09153 2.85299 0
M  V30 11351 H 1095.9 3.31922 5.07851 0
M  V30 11352 H 1094.64 2.33769 4.28023 0
M  V30 11353 H 1093.64 4.41351 3.27856 0
M  V30 11354 H 1094.87 5.40659 4.10932 0
M  V30 11355 H 1092.81 3.62182 5.46955 0
M  V30 11356 H 1092.73 5.34835 5.3431 0
M  V30 11357 H 1094 4.61685 6.28066 0
M  V30 11358 N 1098.23 -0.663929 1.42933 0
M  V30 11359 C 1099.47 -1.42603 1.44195 0
M  V30 11360 C 1099.81 -1.94101 0.0620284 0
M  V30 11361 O 1099.08 -1.71609 -0.91546 0
M  V30 11362 C 1099.37 -2.61522 2.47544 0
M  V30 11363 C 1099.22 -2.15587 3.94769 0
M  V30 11364 C 1100.54 -3.6374 2.47753 0
M  V30 11365 H 1097.66 -0.517189 0.525056 0
M  V30 11366 H 1100.3 -0.75361 1.74415 0
M  V30 11367 H 1098.45 -3.1889 2.21904 0
M  V30 11368 H 1100.12 -1.63303 4.31428 0
M  V30 11369 H 1098.36 -1.47057 4.08114 0
M  V30 11370 H 1099.03 -3.01053 4.62678 0
M  V30 11371 H 1101.51 -3.16111 2.70579 0
M  V30 11372 H 1100.39 -4.44512 3.22025 0
M  V30 11373 H 1100.65 -4.15607 1.50742 0
M  V30 11374 N 1099.71 -1.29285 -0.901281 0
M  V30 11375 C 1101.12 -1.07263 -1.18182 0
M  V30 11376 C 1101.32 0.177087 -2.0072 0
M  V30 11377 O 1100.38 0.875292 -2.36844 0
M  V30 11378 C 1101.69 -2.32717 -1.9043 0
M  V30 11379 C 1103.24 -2.3802 -2.03262 0
M  V30 11380 C 1103.71 -3.63273 -2.7892 0
M  V30 11381 N 1105.21 -3.63986 -2.86475 0
M  V30 11382 C 1105.94 -4.57585 -3.45549 0
M  V30 11383 N 1105.44 -5.61513 -4.05801 0
M  V30 11384 N 1107.23 -4.45157 -3.43208 0
M  V30 11385 H 1099.38 -2.09487 -0.350536 0
M  V30 11386 H 1101.64 -0.922647 -0.217778 0
M  V30 11387 H 1101.35 -3.23828 -1.37216 0
M  V30 11388 H 1101.22 -2.40102 -2.90913 0
M  V30 11389 H 1103.61 -1.47398 -2.55652 0
M  V30 11390 H 1103.69 -2.3462 -1.01916 0
M  V30 11391 H 1103.34 -4.54246 -2.27206 0
M  V30 11392 H 1103.27 -3.6393 -3.80608 0
M  V30 11393 H 1105.76 -2.8884 -2.43679 0
M  V30 11394 H 1106.07 -6.29058 -4.48894 0
M  V30 11395 H 1104.41 -5.65325 -4.04268 0
M  V30 11396 H 1107.61 -3.63158 -2.95354 0
M  V30 11397 H 1107.78 -5.18286 -3.88952 0
M  V30 11398 N 1101.18 1.11143 -1.11736 0
M  V30 11399 C 1102.6 1.64462 -0.883693 0
M  V30 11400 C 1102.95 1.87324 0.583448 0
M  V30 11401 O 1102.07 1.60975 1.44623 0
M  V30 11402 C 1102.67 2.98765 -1.59764 0
M  V30 11403 C 1101.23 3.4898 -1.41032 0
M  V30 11404 C 1100.37 2.23729 -1.63831 0
M  V30 11405 H 1103.32 0.947415 -1.27317 0
M  V30 11406 H 1103.34 3.65885 -1.04443 0
M  V30 11407 H 1102.86 2.82094 -2.66542 0
M  V30 11408 H 1100.96 3.7081 -0.364781 0
M  V30 11409 H 1101.07 4.27571 -2.16148 0
M  V30 11410 H 1099.43 2.31507 -1.06191 0
M  V30 11411 H 1100.22 2.09597 -2.7189 0
M  V30 11412 N 1102.66 0.908147 1.28804 0
M  V30 11413 C 1103.89 0.55409 1.99343 0
M  V30 11414 C 1104.31 -0.863262 1.67908 0
M  V30 11415 O 1103.66 -1.571 0.92875 0
M  V30 11416 C 1103.71 0.746916 3.537 0
M  V30 11417 O 1103.43 2.10849 3.84024 0
M  V30 11418 C 1104.94 0.398939 4.41501 0
M  V30 11419 H 1102.16 0.211784 0.636701 0
M  V30 11420 H 1104.7 1.21981 1.64137 0
M  V30 11421 H 1102.85 0.128264 3.87188 0
M  V30 11422 H 1103.27 2.14404 4.78676 0
M  V30 11423 H 1104.74 0.584656 5.48895 0
M  V30 11424 H 1105.22 -0.664517 4.34144 0
M  V30 11425 H 1105.83 0.994892 4.135 0
M  V30 11426 N 1104.14 -1.42577 0.671525 0
M  V30 11427 C 1105.37 -2.06442 0.199152 0
M  V30 11428 C 1105.79 -1.50104 -1.1336 0
M  V30 11429 O 1105.15 -0.618211 -1.70434 0
M  V30 11430 C 1105.2 -3.60323 0.141215 0
M  V30 11431 O 1104.3 -4.02655 -0.891238 0
M  V30 11432 H 1103.64 -0.655919 0.103277 0
M  V30 11433 H 1106.17 -1.82768 0.919614 0
M  V30 11434 H 1106.18 -4.07984 -0.0360209 0
M  V30 11435 H 1104.86 -4.00702 1.11403 0
M  V30 11436 H 1103.43 -3.66549 -0.685309 0
M  V30 11437 N 1105.62 -0.414636 -1.52048 0
M  V30 11438 C 1106.85 0.158686 -2.06291 0
M  V30 11439 C 1107.26 1.38397 -1.2842 0
M  V30 11440 O 1106.62 1.79351 -0.337539 0
M  V30 11441 C 1106.67 0.503634 -3.57975 0
M  V30 11442 O 1106.39 -0.672996 -4.329 0
M  V30 11443 C 1107.89 1.13009 -4.28653 0
M  V30 11444 H 1105.11 0.0179622 -0.67076 0
M  V30 11445 H 1107.66 -0.587177 -1.95889 0
M  V30 11446 H 1105.81 1.19939 -3.68366 0
M  V30 11447 H 1106.22 -0.383735 -5.23094 0
M  V30 11448 H 1107.7 1.32162 -5.35945 0
M  V30 11449 H 1108.18 2.10476 -3.85482 0
M  V30 11450 H 1108.78 0.474379 -4.22646 0
M  V30 11451 N 1107.1 1.56929 -0.145233 0
M  V30 11452 C 1108.34 1.96068 0.50632 0
M  V30 11453 C 1108.67 1.02999 1.64989 0
M  V30 11454 O 1107.93 0.0588581 1.95611 0
M  V30 11455 C 1108.23 3.41467 1.05522 0
M  V30 11456 C 1107.89 4.5089 0.0302827 0
M  V30 11457 C 1106.55 4.80542 -0.251475 0
M  V30 11458 C 1108.91 5.16917 -0.666783 0
M  V30 11459 C 1106.23 5.7353 -1.23614 0
M  V30 11460 C 1108.59 6.10965 -1.64025 0
M  V30 11461 C 1107.25 6.38998 -1.92973 0
M  V30 11462 H 1106.52 0.717464 0.185276 0
M  V30 11463 H 1109.17 1.90093 -0.23169 0
M  V30 11464 H 1107.47 3.44265 1.87053 0
M  V30 11465 H 1109.17 3.69077 1.5679 0
M  V30 11466 H 1105.76 4.2781 0.260069 0
M  V30 11467 H 1109.94 4.94142 -0.462297 0
M  V30 11468 H 1105.2 5.93543 -1.46687 0
M  V30 11469 H 1109.37 6.61204 -2.18591 0
M  V30 11470 H 1107 7.10855 -2.69423 0
M  V30 11471 O 1108.61 0.00658954 1.61499 0
M  V30 11472 H 1109.3 -0.609168 1.83872 0
M  V30 END ATOM
M  V30 BEGIN BOND
M  V30 END BOND
M  V30 END CTAB
M  END
$$$$
