drugbank_target|P9WIQ3 NADPH-ferredoxin reductase FprA (DB01753; DB03147)
 OpenBabel12092119533D

  0  0  0     0  0            999 V3000
M  V30 BEGIN CTAB
M  V30 COUNTS 6960 7030 0 0 0
M  V30 BEGIN ATOM
M  V30 1 H -0.908 1.98254 -0.117106 0
M  V30 2 N 0 1.576 0 0
M  V30 3 C 0.933 2.03868 1.02534 0
M  V30 4 C 1.911 0.928543 1.3348 0
M  V30 5 O 3.095 1.19667 1.45644 0
M  V30 6 C 0.222 2.43627 2.35294 0
M  V30 7 C -0.732 3.65373 2.2001 0
M  V30 8 S 0.101 5.13292 1.52614 0
M  V30 9 C 1.257 5.56322 2.86805 0
M  V30 10 H 1.49 2.90518 0.631377 0
M  V30 11 H -0.977 1.52953 0.210867 0
M  V30 12 H 0.981 2.67203 3.11629 0
M  V30 13 H -0.358 1.57376 2.7183 0
M  V30 14 H -1.165 3.90944 3.18086 0
M  V30 15 H -1.563 3.418 1.51819 0
M  V30 16 H 0.729 5.58782 3.83104 0
M  V30 17 H 1.672 6.56266 2.65933 0
M  V30 18 H 2.08 4.83886 2.90714 0
M  V30 19 N 1.4781 -0.272755 1.55222 0
M  V30 20 C 2.8941 -0.619959 1.47067 0
M  V30 21 C 3.0941 -1.895 0.684978 0
M  V30 22 O 2.1501 -2.51675 0.203931 0
M  V30 23 C 3.4631 -0.746693 2.91282 0
M  V30 24 C 5.0111 -0.840731 3.01497 0
M  V30 25 C 5.4861 -0.99924 4.46967 0
M  V30 26 N 6.9771 -1.06476 4.50796 0
M  V30 27 C 7.7121 -1.20621 5.6057 0
M  V30 28 N 7.2081 -1.31483 6.80209 0
M  V30 29 N 9.0011 -1.23733 5.48312 0
M  V30 30 H 1.1521 0.564606 2.04758 0
M  V30 31 H 3.4151 0.191177 0.928523 0
M  V30 32 H 3.1211 0.119753 3.51496 0
M  V30 33 H 2.9951 -1.6269 3.40311 0
M  V30 34 H 5.3821 -1.69764 2.41379 0
M  V30 35 H 5.4631 0.0640874 2.5572 0
M  V30 36 H 5.1071 -0.146984 5.07687 0
M  V30 37 H 5.0371 -1.91871 4.90401 0
M  V30 38 H 7.5281 -0.993196 3.64615 0
M  V30 39 H 7.8411 -1.42111 7.59621 0
M  V30 40 H 6.1861 -1.28487 6.8302 0
M  V30 41 H 9.3771 -1.14877 4.53785 0
M  V30 42 H 9.5501 -1.34412 6.33906 0
M  V30 43 N 2.9562 -1.48159 -0.537278 0
M  V30 44 C 4.3672 -1.49429 -1.11928 0
M  V30 45 C 4.7182 -0.26 -1.9447 0
M  V30 46 O 3.8432 0.633489 -2.0692 0
M  V30 47 C 4.4382 -2.70758 -2.03656 0
M  V30 48 C 2.9972 -2.74923 -2.57088 0
M  V30 49 C 2.1442 -2.42835 -1.3389 0
M  V30 50 H 5.0952 -1.55381 -0.322886 0
M  V30 51 H 5.1162 -2.48861 -2.87834 0
M  V30 52 H 4.6282 -3.60575 -1.43553 0
M  V30 53 H 2.7292 -1.89296 -3.20933 0
M  V30 54 H 2.8422 -3.76157 -2.9672 0
M  V30 55 H 1.2062 -1.93836 -1.65226 0
M  V30 56 H 1.9892 -3.34884 -0.755504 0
M  V30 57 N 4.4343 0.785586 -1.36625 0
M  V30 58 C 5.6643 1.5722 -1.34036 0
M  V30 59 C 6.0723 1.89033 0.0795062 0
M  V30 60 O 5.4153 1.50881 1.04789 0
M  V30 61 C 5.4773 2.91759 -2.10041 0
M  V30 62 C 5.1413 2.82654 -3.59104 0
M  V30 63 C 6.1383 2.54634 -4.53274 0
M  V30 64 C 3.8233 3.01111 -4.02042 0
M  V30 65 C 5.8173 2.45177 -5.88359 0
M  V30 66 C 3.5043 2.91276 -5.37216 0
M  V30 67 C 4.5023 2.63348 -6.30188 0
M  V30 68 O 4.1903 2.53514 -7.6288 0
M  V30 69 H 3.9223 0.494177 -0.461265 0
M  V30 70 H 6.4763 0.982632 -1.8037 0
M  V30 71 H 4.7063 3.52781 -1.58375 0
M  V30 72 H 6.3953 3.53059 -2.00261 0
M  V30 73 H 7.1613 2.40073 -4.21414 0
M  V30 74 H 3.0403 3.21854 -3.30047 0
M  V30 75 H 6.5843 2.23299 -6.60896 0
M  V30 76 H 2.4813 3.054 -5.68684 0
M  V30 77 H 3.2493 2.68967 -7.73045 0
M  V30 78 N 5.9124 1.20967 1.01018 0
M  V30 79 C 7.1424 1.04803 1.78044 0
M  V30 80 C 7.5504 -0.405462 1.84804 0
M  V30 81 O 6.8934 -1.2932 1.30468 0
M  V30 82 C 6.9554 1.56377 3.23707 0
M  V30 83 C 6.6194 3.04767 3.40538 0
M  V30 84 C 7.6164 4.02366 3.29239 0
M  V30 85 C 5.3014 3.43862 3.66147 0
M  V30 86 C 7.2954 5.37049 3.43304 0
M  V30 87 C 4.9824 4.78699 3.79855 0
M  V30 88 C 5.9804 5.75101 3.68439 0
M  V30 89 O 5.6684 7.07493 3.81719 0
M  V30 90 H 5.4004 0.368778 0.56655 0
M  V30 91 H 7.9544 1.60642 1.27997 0
M  V30 92 H 6.1844 0.949297 3.74867 0
M  V30 93 H 7.8734 1.36136 3.8239 0
M  V30 94 H 8.6394 3.73506 3.09384 0
M  V30 95 H 4.5184 2.69364 3.74118 0
M  V30 96 H 8.0624 6.12277 3.34309 0
M  V30 97 H 3.9594 5.07247 3.99213 0
M  V30 98 H 4.7274 7.1483 3.98697 0
M  V30 99 N 7.3905 -1.2043 1.01659 0
M  V30 100 C 8.6395 -1.89118 0.701237 0
M  V30 101 C 8.9525 -1.79705 -0.772358 0
M  V30 102 O 10.1585 -2.43528 -1.20026 0
M  V30 103 C 8.6145 -3.39168 1.20388 0
M  V30 104 C 8.2225 -3.57166 2.70438 0
M  V30 105 C 9.9665 -4.1341 0.963953 0
M  V30 106 C 7.8735 -5.01042 3.14183 0
M  V30 107 H 6.8035 -0.708267 0.2586 0
M  V30 108 H 9.4545 -1.36239 1.22927 0
M  V30 109 H 7.8365 -3.91369 0.603824 0
M  V30 110 H 9.0105 -3.15351 3.35992 0
M  V30 111 H 7.3255 -2.96294 2.92572 0
M  V30 112 H 9.9225 -5.19491 1.26621 0
M  V30 113 H 10.2655 -4.16181 -0.099578 0
M  V30 114 H 10.7985 -3.67309 1.52738 0
M  V30 115 H 7.5375 -5.03426 4.19812 0
M  V30 116 H 7.0575 -5.43668 2.53348 0
M  V30 117 H 8.7365 -5.69623 3.0682 0
M  V30 118 N 8.8686 -0.792821 -1.36206 0
M  V30 119 C 9.8316 -0.199459 -2.2833 0
M  V30 120 C 10.8316 0.605189 -1.48977 0
M  V30 121 O 12.0216 0.425685 -1.68919 0
M  V30 122 C 9.1536 0.723523 -3.33134 0
M  V30 123 H 10.3466 -1.01181 -2.82316 0
M  V30 124 H 7.8996 -0.562485 -1.45828 0
M  V30 125 H 8.6346 1.56008 -2.84309 0
M  V30 126 H 8.4196 0.148436 -3.91819 0
M  V30 127 H 9.9096 1.13344 -4.01924 0
M  V30 128 N 10.3467 1.47872 -0.545128 0
M  V30 129 C 11.5957 2.01695 -0.0145033 0
M  V30 130 C 11.9087 1.42609 1.33873 0
M  V30 131 O 13.1147 1.88021 1.95858 0
M  V30 132 C 11.5707 3.59892 0.0245068 0
M  V30 133 C 11.1787 4.27966 -1.32475 0
M  V30 134 C 12.9227 4.21507 0.50316 0
M  V30 135 C 10.8297 5.78136 -1.2455 0
M  V30 136 H 9.7597 0.753998 -0.00165172 0
M  V30 137 H 12.4107 1.69985 -0.691175 0
M  V30 138 H 10.7927 3.88509 0.766575 0
M  V30 139 H 11.9667 4.11003 -2.08357 0
M  V30 140 H 10.2817 3.78286 -1.74036 0
M  V30 141 H 12.8787 5.31538 0.580656 0
M  V30 142 H 13.2217 3.87855 1.51243 0
M  V30 143 H 13.7547 3.97376 -0.183681 0
M  V30 144 H 10.4937 6.16388 -2.23039 0
M  V30 145 H 10.0137 5.97469 -0.528282 0
M  V30 146 H 11.6927 6.40099 -0.942488 0
M  V30 147 N 11.8248 0.280983 1.55075 0
M  V30 148 C 13.0708 -0.33461 2.00021 0
M  V30 149 C 13.4038 -1.55063 1.16915 0
M  V30 150 O 12.6788 -1.93006 0.240646 0
M  V30 151 C 12.9618 -0.711007 3.53011 0
M  V30 152 C 12.8148 0.512766 4.46868 0
M  V30 153 C 14.1338 -1.54522 4.12081 0
M  V30 154 H 11.2528 -0.120147 0.727141 0
M  V30 155 H 13.8948 0.389097 1.85973 0
M  V30 156 H 12.0448 -1.32761 3.65112 0
M  V30 157 H 13.7168 1.15131 4.46702 0
M  V30 158 H 11.9598 1.14975 4.18286 0
M  V30 159 H 12.6308 0.205556 5.51617 0
M  V30 160 H 15.1068 -1.02442 4.03293 0
M  V30 161 H 13.9828 -1.77739 5.19327 0
M  V30 162 H 14.2438 -2.52813 3.62682 0
M  V30 163 N 13.3029 -1.57598 0.00835791 0
M  V30 164 C 14.5509 -1.90551 -0.6734 0
M  V30 165 C 14.8719 -0.883301 -1.73847 0
M  V30 166 O 14.1419 0.0781442 -1.95744 0
M  V30 167 H 12.7219 -0.703312 -0.251717 0
M  V30 168 H 15.3839 -1.94833 0.0512592 0
M  V30 169 H 14.4799 -2.9056 -1.13935 0
M  V30 170 N 14.781 0.264519 -1.55364 0
M  V30 171 C 16.006 1.01726 -1.80739 0
M  V30 172 C 16.431 1.78836 -0.583044 0
M  V30 173 O 15.789 1.75167 0.467566 0
M  V30 174 C 15.837 1.94482 -3.03659 0
M  V30 175 O 14.941 3.03386 -2.7934 0
M  V30 176 H 14.282 0.290395 -0.597132 0
M  V30 177 H 16.812 0.290854 -2.02522 0
M  V30 178 H 16.822 2.36278 -3.32621 0
M  V30 179 H 15.497 1.37772 -3.92418 0
M  V30 180 H 14.074 2.65844 -2.61498 0
M  V30 181 N 16.2591 1.48442 0.529413 0
M  V30 182 C 17.5071 1.56179 1.28267 0
M  V30 183 C 17.8281 0.237721 1.93546 0
M  V30 184 O 17.0981 -0.740779 1.81354 0
M  V30 185 H 15.6781 0.575367 0.476405 0
M  V30 186 H 18.3401 1.84909 0.61602 0
M  V30 187 H 17.4361 2.34312 2.06165 0
M  V30 188 N 17.7372 -0.778329 1.37039 0
M  V30 189 C 19.1482 -1.35421 1.28523 0
M  V30 190 C 19.4992 -1.96075 -0.0700901 0
M  V30 191 O 18.6242 -1.93352 -0.971801 0
M  V30 192 C 19.2192 -2.46211 2.32735 0
M  V30 193 C 17.7782 -2.99585 2.27873 0
M  V30 194 C 16.9252 -1.72748 2.16918 0
M  V30 195 H 19.8762 -0.5791 1.47757 0
M  V30 196 H 19.8972 -3.2552 1.9702 0
M  V30 197 H 19.4092 -2.02036 3.31365 0
M  V30 198 H 17.5102 -3.48152 1.32745 0
M  V30 199 H 17.6232 -3.55646 3.21018 0
M  V30 200 H 15.9872 -1.95416 1.63354 0
M  V30 201 H 16.7702 -1.30686 3.17452 0
M  V30 202 N 19.2153 -1.21501 -1.00376 0
M  V30 203 C 20.4403 -1.05977 -1.78279 0
M  V30 204 C 20.8653 0.385994 -1.84097 0
M  V30 205 O 20.2233 1.27849 -1.28547 0
M  V30 206 C 20.2713 -1.66302 -3.19963 0
M  V30 207 O 19.3753 -0.909333 -4.0225 0
M  V30 208 H 18.7163 -0.372906 -0.549397 0
M  V30 209 H 21.2463 -1.6107 -1.26165 0
M  V30 210 H 21.2563 -1.70574 -3.70632 0
M  V30 211 H 19.9313 -2.71515 -3.15043 0
M  V30 212 H 18.5083 -0.941795 -3.60811 0
M  V30 213 N 20.6934 1.19889 -1.02296 0
M  V30 214 C 21.6564 2.21116 -0.603351 0
M  V30 215 C 22.6564 1.5738 0.329884 0
M  V30 216 O 23.8464 1.73802 0.117702 0
M  V30 217 C 20.9784 3.40696 0.117992 0
M  V30 218 H 22.1714 2.59754 -1.49893 0
M  V30 219 H 19.7244 1.33463 -0.813468 0
M  V30 220 H 20.4594 3.07569 1.0282 0
M  V30 221 H 20.2444 3.88188 -0.552511 0
M  V30 222 H 21.7344 4.15692 0.398696 0
M  V30 223 N 22.1715 0.800033 1.35784 0
M  V30 224 C 23.4185 0.377342 1.98953 0
M  V30 225 C 23.7465 -1.05378 1.6348 0
M  V30 226 O 23.0015 -1.74459 0.886707 0
M  V30 227 C 23.3005 0.500276 3.53881 0
M  V30 228 C 22.9665 1.89375 4.09204 0
M  V30 229 C 21.6285 2.27499 4.24025 0
M  V30 230 C 23.9805 2.8057 4.39238 0
M  V30 231 C 21.3085 3.562 4.66195 0
M  V30 232 C 23.6605 4.0871 4.82844 0
M  V30 233 C 22.3245 4.46843 4.95871 0
M  V30 234 H 21.5945 0.138079 0.728021 0
M  V30 235 H 24.2415 1.01955 1.62103 0
M  V30 236 H 22.5465 -0.225405 3.91151 0
M  V30 237 H 24.2435 0.154097 4.00704 0
M  V30 238 H 20.8335 1.58753 3.98115 0
M  V30 239 H 25.0175 2.52367 4.27346 0
M  V30 240 H 20.2735 3.85602 4.74469 0
M  V30 241 H 24.4475 4.79481 5.05046 0
M  V30 242 H 22.0745 5.46623 5.28306 0
M  V30 243 N 23.6496 -1.47581 0.552962 0
M  V30 244 C 24.8966 -2.02482 0.0273243 0
M  V30 245 C 25.2246 -1.42776 -1.32081 0
M  V30 246 O 24.4796 -0.571393 -1.87173 0
M  V30 247 C 24.7786 -3.57199 -0.119728 0
M  V30 248 C 24.4446 -4.35804 1.15697 0
M  V30 249 C 23.1066 -4.57 1.50681 0
M  V30 250 C 25.4586 -4.81167 2.00319 0
M  V30 251 C 22.7866 -5.20807 2.70142 0
M  V30 252 C 25.1386 -5.46293 3.18978 0
M  V30 253 C 23.8026 -5.65722 3.54281 0
M  V30 254 H 23.0726 -0.740933 0.00999866 0
M  V30 255 H 25.7196 -1.77302 0.72362 0
M  V30 256 H 24.0246 -3.81348 -0.89896 0
M  V30 257 H 25.7216 -3.97324 -0.541718 0
M  V30 258 H 22.3116 -4.19582 0.874561 0
M  V30 259 H 26.4956 -4.64574 1.74599 0
M  V30 260 H 21.7516 -5.34045 2.97668 0
M  V30 261 H 25.9256 -5.80407 3.84838 0
M  V30 262 H 23.5526 -6.14936 4.46942 0
M  V30 263 N 25.1277 -0.289203 -1.54924 0
M  V30 264 C 26.0907 0.579144 -2.21762 0
M  V30 265 C 27.0907 1.07047 -1.1999 0
M  V30 266 O 28.2807 0.968384 -1.44803 0
M  V30 267 C 25.4127 1.80055 -2.8947 0
M  V30 268 H 26.6057 -0.00464908 -2.999 0
M  V30 269 H 24.1587 -0.0399306 -1.56249 0
M  V30 270 H 24.8937 2.42449 -2.15381 0
M  V30 271 H 24.6787 1.45602 -3.64064 0
M  V30 272 H 26.1687 2.41773 -3.40493 0
M  V30 273 N 26.6058 1.57591 -0.0167156 0
M  V30 274 C 27.5688 2.08393 0.954204 0
M  V30 275 C 28.5688 0.996531 1.26198 0
M  V30 276 O 29.7588 1.25858 1.20438 0
M  V30 277 C 26.8908 2.5394 2.27436 0
M  V30 278 H 28.0838 2.95455 0.514451 0
M  V30 279 H 25.6368 1.54582 0.231089 0
M  V30 280 H 26.3718 1.70171 2.76066 0
M  V30 281 H 26.1568 3.33371 2.06412 0
M  V30 282 H 27.6468 2.93512 2.97053 0
M  V30 283 N 28.0839 -0.256276 1.55502 0
M  V30 284 C 29.0469 -1.30047 1.88734 0
M  V30 285 C 30.0469 -1.4154 0.763086 0
M  V30 286 O 31.2369 -1.40403 1.03115 0
M  V30 287 C 28.3689 -2.67953 2.10747 0
M  V30 288 H 29.5619 -1.01802 2.82093 0
M  V30 289 H 27.1149 -0.495134 1.4825 0
M  V30 290 H 27.8499 -3.01351 1.19825 0
M  V30 291 H 27.6349 -2.60993 2.92617 0
M  V30 292 H 29.1249 -3.43368 2.37673 0
M  V30 293 N 29.562 -1.4872 -0.521534 0
M  V30 294 C 30.787 -1.61101 -1.30618 0
M  V30 295 C 31.212 -0.274611 -1.86085 0
M  V30 296 O 30.57 0.754937 -1.64834 0
M  V30 297 C 30.618 -2.66709 -2.4269 0
M  V30 298 O 29.722 -2.24456 -3.45967 0
M  V30 299 H 29.063 -0.539921 -0.386499 0
M  V30 300 H 31.593 -1.94767 -0.626645 0
M  V30 301 H 31.603 -2.88245 -2.88754 0
M  V30 302 H 30.278 -3.63727 -2.01682 0
M  V30 303 H 28.855 -2.13168 -3.05964 0
M  V30 304 N 31.0401 0.771051 -1.3745 0
M  V30 305 C 31.9701 1.89827 -1.3597 0
M  V30 306 C 32.9511 1.68562 -0.228216 0
M  V30 307 O 34.1361 1.8941 -0.428675 0
M  V30 308 C 31.2661 3.2712 -1.16662 0
M  V30 309 C 30.2201 3.6295 -2.2683 0
M  V30 310 C 29.5461 4.98791 -1.92644 0
M  V30 311 C 30.8461 3.69627 -3.69017 0
M  V30 312 H 32.5401 1.91323 -2.30295 0
M  V30 313 H 30.0861 0.919082 -1.10855 0
M  V30 314 H 32.0391 4.05615 -1.14256 0
M  V30 315 H 30.7631 3.26059 -0.187926 0
M  V30 316 H 29.4221 2.86763 -2.28392 0
M  V30 317 H 29.0701 4.94271 -0.933021 0
M  V30 318 H 28.7701 5.23733 -2.66416 0
M  V30 319 H 30.2941 5.79685 -1.91826 0
M  V30 320 H 31.7081 4.38273 -3.69581 0
M  V30 321 H 30.1051 4.06067 -4.41848 0
M  V30 322 H 31.1751 2.70273 -4.02592 0
M  V30 323 N 32.5182 1.22032 0.997298 0
M  V30 324 C 33.4482 1.01065 2.10495 0
M  V30 325 C 34.4292 -0.0669542 1.69968 0
M  V30 326 O 35.6142 0.0943987 1.9397 0
M  V30 327 C 32.7442 0.582874 3.42374 0
M  V30 328 C 31.6982 1.60592 3.96729 0
M  V30 329 C 31.0242 1.03412 5.24605 0
M  V30 330 C 32.3242 2.99478 4.27914 0
M  V30 331 H 34.0182 1.93708 2.28292 0
M  V30 332 H 31.5642 0.932761 1.09707 0
M  V30 333 H 33.5172 0.423332 4.19268 0
M  V30 334 H 32.2412 -0.379213 3.24391 0
M  V30 335 H 30.9002 1.75316 3.21963 0
M  V30 336 H 30.5482 0.063518 5.0296 0
M  V30 337 H 30.2482 1.71754 5.61938 0
M  V30 338 H 31.7722 0.886066 6.04137 0
M  V30 339 H 33.1862 2.88153 4.95622 0
M  V30 340 H 31.5832 3.64903 4.76409 0
M  V30 341 H 32.6532 3.49742 3.3587 0
M  V30 342 N 33.9963 -1.19345 1.0293 0
M  V30 343 C 34.9433 -2.2258 0.610464 0
M  V30 344 C 35.9133 -1.6179 -0.375946 0
M  V30 345 O 37.0983 -1.88844 -0.272511 0
M  V30 346 C 34.2383 -3.45085 -0.0321473 0
M  V30 347 C 33.3513 -4.20258 1.00035 0
M  V30 348 C 32.4863 -5.3019 0.32746 0
M  V30 349 C 31.5253 -5.97121 1.34584 0
M  V30 350 N 30.6623 -6.98615 0.698726 0
M  V30 351 H 35.5023 -2.57764 1.49538 0
M  V30 352 H 33.0393 -1.26644 0.748311 0
M  V30 353 H 34.9973 -4.15061 -0.421966 0
M  V30 354 H 33.6273 -3.10555 -0.88064 0
M  V30 355 H 32.6793 -3.49223 1.50823 0
M  V30 356 H 33.9913 -4.66175 1.77433 0
M  V30 357 H 33.1453 -6.06587 -0.11718 0
M  V30 358 H 31.8843 -4.85345 -0.478713 0
M  V30 359 H 30.8893 -5.19474 1.80074 0
M  V30 360 H 32.1143 -6.4405 2.15352 0
M  V30 361 H 30.0603 -6.55942 -0.0873471 0
M  V30 362 H 29.9773 -7.42724 1.41058 0
M  V30 363 H 31.2453 -7.79004 0.278102 0
M  V30 364 N 35.4744 -0.807222 -1.35358 0
M  V30 365 C 36.4374 -0.223665 -2.28106 0
M  V30 366 C 37.4374 0.589354 -1.4961 0
M  V30 367 O 38.6274 0.407745 -1.69361 0
M  V30 368 C 35.7594 0.688149 -3.33882 0
M  V30 369 H 36.9524 -1.04169 -2.81227 0
M  V30 370 H 34.5054 -0.577921 -1.45223 0
M  V30 371 H 35.2404 1.52984 -2.85948 0
M  V30 372 H 35.0254 0.10687 -3.91954 0
M  V30 373 H 36.5154 1.09075 -4.03104 0
M  V30 374 N 36.9525 1.47285 -0.560781 0
M  V30 375 C 37.9155 2.28535 0.174488 0
M  V30 376 C 38.9155 1.37153 0.839388 0
M  V30 377 O 40.1055 1.59748 0.694702 0
M  V30 378 C 37.2375 3.16934 1.25561 0
M  V30 379 H 38.4305 2.95012 -0.539262 0
M  V30 380 H 35.9835 1.53034 -0.317865 0
M  V30 381 H 36.7185 2.55157 2.00164 0
M  V30 382 H 36.5035 3.8419 0.783604 0
M  V30 383 H 37.9935 3.78143 1.77193 0
M  V30 384 N 38.4306 0.297415 1.54768 0
M  V30 385 C 39.7076 -0.365847 1.92148 0
M  V30 386 C 40.0876 -1.71975 1.22424 0
M  V30 387 O 39.4356 -2.25666 0.358739 0
M  V30 388 C 39.6456 -0.484056 3.45627 0
M  V30 389 C 40.9936 -0.756594 4.17805 0
M  V30 390 O 42.0176 -0.568007 3.51642 0
M  V30 391 O 40.8766 -1.11863 5.34929 0
M  V30 392 H 37.9706 -0.203919 0.801465 0
M  V30 393 H 40.5166 0.34521 1.66152 0
M  V30 394 H 39.2886 0.467865 3.88493 0
M  V30 395 H 38.9116 -1.24372 3.77647 0
M  V30 396 N 39.9087 -1.5758 0.0250728 0
M  V30 397 C 41.1367 -1.9593 -0.664747 0
M  V30 398 C 41.5517 -0.901352 -1.65895 0
M  V30 399 O 40.9087 0.117255 -1.82123 0
M  V30 400 C 40.9597 -3.34342 -1.37468 0
M  V30 401 O 40.6807 -4.36079 -0.420324 0
M  V30 402 C 42.1817 -3.873 -2.1567 0
M  V30 403 H 39.4017 -0.645405 -0.183557 0
M  V30 404 H 41.9457 -2.04329 0.0836372 0
M  V30 405 H 40.1007 -3.27175 -2.0745 0
M  V30 406 H 40.5147 -5.16297 -0.923991 0
M  V30 407 H 41.9887 -4.86504 -2.60803 0
M  V30 408 H 42.4657 -3.21331 -2.99405 0
M  V30 409 H 43.0717 -3.97723 -1.50654 0
M  V30 410 N 41.3868 0.248026 -1.55636 0
M  V30 411 C 42.6148 0.993808 -1.81469 0
M  V30 412 C 43.0298 1.78991 -0.60064 0
M  V30 413 O 42.3868 1.77345 0.430682 0
M  V30 414 C 42.4378 1.93258 -3.05506 0
M  V30 415 O 42.1588 1.16869 -4.22224 0
M  V30 416 C 43.6598 2.79444 -3.4413 0
M  V30 417 H 40.8798 0.292486 -0.603898 0
M  V30 418 H 43.4238 0.271253 -2.02693 0
M  V30 419 H 41.5788 2.60943 -2.86335 0
M  V30 420 H 41.9928 1.80359 -4.92515 0
M  V30 421 H 43.4668 3.41066 -4.34026 0
M  V30 422 H 43.9438 3.50499 -2.64665 0
M  V30 423 H 44.5498 2.17214 -3.65648 0
M  V30 424 N 42.8649 1.48995 0.513639 0
M  V30 425 C 43.7749 1.67443 1.64317 0
M  V30 426 C 44.7909 0.556947 1.64846 0
M  V30 427 O 45.9669 0.830082 1.83498 0
M  V30 428 C 43.0319 1.72515 3.00732 0
M  V30 429 C 42.0929 2.96009 3.1093 0
M  V30 430 C 41.3259 3.00829 4.40837 0
M  V30 431 O 41.5489 2.13594 5.28898 0
M  V30 432 O 40.4829 3.93168 4.55744 0
M  V30 433 H 44.3089 2.63106 1.51687 0
M  V30 434 H 41.8939 1.32588 0.688543 0
M  V30 435 H 43.7759 1.78277 3.81831 0
M  V30 436 H 42.4509 0.800278 3.13651 0
M  V30 437 H 41.3579 2.9577 2.29065 0
M  V30 438 H 42.6909 3.87934 3.02933 0
M  V30 439 N 44.343 -0.763751 1.37857 0
M  V30 440 C 45.62 -1.51244 1.24035 0
M  V30 441 C 46 -2.10472 -0.162649 0
M  V30 442 O 45.348 -1.96206 -1.17112 0
M  V30 443 C 45.558 -2.58694 2.34261 0
M  V30 444 C 46.906 -3.25878 2.72193 0
M  V30 445 O 47.93 -2.68993 2.33497 0
M  V30 446 O 46.789 -4.2874 3.38887 0
M  V30 447 H 43.883 -0.670243 0.484462 0
M  V30 448 H 46.429 -0.800031 1.49658 0
M  V30 449 H 45.201 -2.13105 3.2818 0
M  V30 450 H 44.824 -3.37527 2.10146 0
M  V30 451 N 45.8211 -1.22559 -0.990812 0
M  V30 452 C 46.7511 -1.0218 -2.09956 0
M  V30 453 C 47.7321 0.0579394 -1.70001 0
M  V30 454 O 48.9171 -0.104684 -1.93918 0
M  V30 455 C 46.0471 -0.601023 -3.4206 0
M  V30 456 C 45.0011 -1.62694 -3.95872 0
M  V30 457 C 44.3271 -1.06193 -5.24049 0
M  V30 458 C 45.6271 -3.01743 -4.2632 0
M  V30 459 H 47.3211 -1.94916 -2.27262 0
M  V30 460 H 44.8671 -0.938566 -1.09211 0
M  V30 461 H 46.8201 -0.445561 -4.19038 0
M  V30 462 H 45.5441 0.362005 -3.24588 0
M  V30 463 H 44.2031 -1.77021 -3.21028 0
M  V30 464 H 43.8511 -0.0901903 -5.02919 0
M  V30 465 H 43.5511 -1.74732 -5.61019 0
M  V30 466 H 45.0751 -0.918092 -6.03658 0
M  V30 467 H 46.4891 -2.90777 -4.94087 0
M  V30 468 H 44.8861 -3.67425 -4.74467 0
M  V30 469 H 45.9561 -3.51518 -3.34011 0
M  V30 470 N 47.2992 1.18797 -1.03562 0
M  V30 471 C 48.5762 1.84469 -0.650434 0
M  V30 472 C 48.9562 1.92319 0.870433 0
M  V30 473 O 48.3042 1.44528 1.76986 0
M  V30 474 C 48.5142 3.2306 -1.32036 0
M  V30 475 C 49.8622 3.9915 -1.44792 0
M  V30 476 O 50.8862 3.32481 -1.27806 0
M  V30 477 O 49.7452 5.18587 -1.72423 0
M  V30 478 H 46.8392 0.795251 -0.226946 0
M  V30 479 H 49.3852 1.26231 -1.13419 0
M  V30 480 H 48.1572 3.1222 -2.3587 0
M  V30 481 H 47.7802 3.88949 -0.8249 0
M  V30 482 N 48.7773 0.814389 1.34928 0
M  V30 483 C 49.7103 0.175641 2.27523 0
M  V30 484 C 50.6883 -0.662953 1.48471 0
M  V30 485 O 51.8723 -0.628545 1.77712 0
M  V30 486 C 48.9993 -0.755516 3.30166 0
M  V30 487 C 48.0453 0.00445305 4.265 0
M  V30 488 S 48.8783 1.34582 5.18313 0
M  V30 489 C 50.0343 0.419315 6.24494 0
M  V30 490 H 50.2673 0.960691 2.8135 0
M  V30 491 H 47.8003 0.609846 1.41846 0
M  V30 492 H 49.7583 -1.28723 3.89796 0
M  V30 493 H 48.4193 -1.51402 2.75202 0
M  V30 494 H 47.6123 -0.703077 4.99072 0
M  V30 495 H 47.2143 0.466447 3.7108 0
M  V30 496 H 49.5063 -0.392432 6.76362 0
M  V30 497 H 50.4493 1.11446 6.99275 0
M  V30 498 H 50.8573 0.0115389 5.64499 0
M  V30 499 N 50.2554 -1.46986 0.568584 0
M  V30 500 C 51.2184 -2.28624 -0.162366 0
M  V30 501 C 52.2184 -1.37596 -0.832103 0
M  V30 502 O 53.4084 -1.60115 -0.68622 0
M  V30 503 C 50.5404 -3.17596 -1.23878 0
M  V30 504 H 51.7334 -2.94722 0.554899 0
M  V30 505 H 49.2864 -1.52863 0.325976 0
M  V30 506 H 50.0214 -2.56214 -1.98808 0
M  V30 507 H 49.8064 -3.846 -0.763219 0
M  V30 508 H 51.2964 -3.79078 -1.75185 0
M  V30 509 N 51.7335 -0.305618 -1.54608 0
M  V30 510 C 52.9795 0.302746 -2.00528 0
M  V30 511 C 53.3125 1.53184 -1.19367 0
M  V30 512 O 52.5875 1.92598 -0.271321 0
M  V30 513 C 52.8705 0.654756 -3.54097 0
M  V30 514 C 52.7235 -0.583793 -4.45995 0
M  V30 515 C 54.0425 1.47947 -4.14487 0
M  V30 516 H 51.1615 0.108564 -0.72896 0
M  V30 517 H 53.8035 -0.418634 -1.85331 0
M  V30 518 H 51.9535 1.26935 -3.67178 0
M  V30 519 H 53.6255 -1.22224 -4.44814 0
M  V30 520 H 51.8685 -1.21615 -4.16404 0
M  V30 521 H 52.5395 -0.293287 -5.5122 0
M  V30 522 H 55.0155 0.96013 -4.04871 0
M  V30 523 H 53.8915 1.69454 -5.22088 0
M  V30 524 H 54.1525 2.47011 -3.66658 0
M  V30 525 N 53.2116 1.57565 -0.0334293 0
M  V30 526 C 54.4886 1.83282 0.683163 0
M  V30 527 C 54.8686 0.91823 1.90084 0
M  V30 528 O 54.2166 -0.025113 2.28486 0
M  V30 529 C 54.4266 3.32599 1.0573 0
M  V30 530 C 55.7746 3.99179 1.44711 0
M  V30 531 O 56.7986 3.3712 1.15015 0
M  V30 532 O 55.6576 5.08565 2.0006 0
M  V30 533 H 52.7516 0.755869 0.335546 0
M  V30 534 H 55.2976 1.69589 -0.0614402 0
M  V30 535 H 54.0696 3.90834 0.190828 0
M  V30 536 H 53.6926 3.51415 1.85993 0
M  V30 537 N 54.6897 -0.239769 1.55765 0
M  V30 538 C 55.6227 -1.32356 1.85895 0
M  V30 539 C 56.6007 -1.46053 0.714662 0
M  V30 540 O 57.7847 -1.62154 0.961157 0
M  V30 541 C 54.9117 -2.6962 2.04994 0
M  V30 542 C 53.9577 -2.73036 3.27648 0
M  V30 543 S 54.7907 -2.28929 4.84099 0
M  V30 544 C 55.9467 -3.68103 5.06212 0
M  V30 545 H 56.1797 -1.06601 2.77531 0
M  V30 546 H 53.7127 -0.441112 1.47965 0
M  V30 547 H 55.6707 -3.48653 2.16682 0
M  V30 548 H 54.3317 -2.92609 1.14188 0
M  V30 549 H 53.5247 -3.7386 3.38 0
M  V30 550 H 53.1267 -2.02052 3.14723 0
M  V30 551 H 55.4187 -4.63656 4.93993 0
M  V30 552 H 56.3617 -3.6268 6.08168 0
M  V30 553 H 56.7697 -3.60947 4.34025 0
M  V30 554 N 56.1678 -1.49265 -0.50573 0
M  V30 555 C 57.0978 -1.68495 -1.61653 0
M  V30 556 C 58.0788 -0.53366 -1.61512 0
M  V30 557 O 59.2638 -0.76897 -1.78327 0
M  V30 558 C 56.3938 -1.74709 -3.00157 0
M  V30 559 C 55.3478 -2.89581 -3.15162 0
M  V30 560 C 54.6738 -2.80903 -4.5497 0
M  V30 561 C 55.9738 -4.30578 -2.95634 0
M  V30 562 H 57.6678 -2.61493 -1.45814 0
M  V30 563 H 55.2138 -1.25838 -0.70005 0
M  V30 564 H 57.1668 -1.86748 -3.77761 0
M  V30 565 H 55.8908 -0.783067 -3.17074 0
M  V30 566 H 54.5498 -2.77136 -2.39982 0
M  V30 567 H 54.1978 -1.82419 -4.68756 0
M  V30 568 H 53.8978 -3.57999 -4.65951 0
M  V30 569 H 55.4218 -2.94944 -5.34641 0
M  V30 570 H 56.8358 -4.4373 -3.63011 0
M  V30 571 H 55.2328 -5.0886 -3.18091 0
M  V30 572 H 56.3028 -4.45352 -1.91806 0
M  V30 573 N 57.6459 0.756429 -1.3826 0
M  V30 574 C 58.5559 1.9009 -1.37488 0
M  V30 575 C 59.5719 1.71855 -0.272366 0
M  V30 576 O 60.7479 1.94827 -0.510318 0
M  V30 577 C 57.8129 3.25421 -1.19592 0
M  V30 578 C 56.8739 3.56202 -2.39622 0
M  V30 579 C 56.1069 4.85075 -2.2257 0
M  V30 580 O 56.3299 5.57246 -1.21793 0
M  V30 581 O 55.2639 5.15269 -3.11098 0
M  V30 582 H 59.0899 1.93695 -2.33914 0
M  V30 583 H 56.6749 0.901313 -1.1915 0
M  V30 584 H 58.5569 4.06337 -1.11661 0
M  V30 585 H 57.2319 3.22634 -0.262486 0
M  V30 586 H 56.1389 2.75458 -2.53128 0
M  V30 587 H 57.4719 3.63747 -3.31586 0
M  V30 588 N 59.124 1.23083 0.984299 0
M  V30 589 C 60.057 0.951786 2.07404 0
M  V30 590 C 61.035 -0.10848 1.62238 0
M  V30 591 O 62.219 0.0249467 1.88483 0
M  V30 592 C 59.346 0.433142 3.35919 0
M  V30 593 C 58.392 1.47941 4.0002 0
M  V30 594 S 59.225 3.05556 4.39768 0
M  V30 595 C 60.381 2.55351 5.71442 0
M  V30 596 H 60.614 1.87456 2.30754 0
M  V30 597 H 58.147 1.06284 1.11996 0
M  V30 598 H 60.105 0.140506 4.10259 0
M  V30 599 H 58.766 -0.468656 3.10584 0
M  V30 600 H 57.959 1.06658 4.92585 0
M  V30 601 H 57.561 1.7212 3.3204 0
M  V30 602 H 59.853 1.97128 6.48187 0
M  V30 603 H 60.796 3.46441 6.17563 0
M  V30 604 H 61.204 1.96339 5.29255 0
M  V30 605 N 60.6021 -1.18246 1.0419 0
M  V30 606 C 61.5321 -2.24127 0.654914 0
M  V30 607 C 62.5131 -1.66617 -0.342451 0
M  V30 608 O 63.6981 -1.92924 -0.222277 0
M  V30 609 C 60.8281 -3.47295 0.0183757 0
M  V30 610 C 59.7821 -4.17563 0.939414 0
M  V30 611 C 59.1081 -5.34438 0.167286 0
M  V30 612 C 60.4081 -4.70917 2.25908 0
M  V30 613 H 62.1021 -2.56753 1.54007 0
M  V30 614 H 59.6481 -1.23414 0.74195 0
M  V30 615 H 61.6011 -4.20572 -0.264082 0
M  V30 616 H 60.3251 -3.13907 -0.901664 0
M  V30 617 H 58.9841 -3.46186 1.20628 0
M  V30 618 H 58.6321 -4.97298 -0.7552 0
M  V30 619 H 58.3321 -5.82388 0.780901 0
M  V30 620 H 59.8561 -6.10504 -0.108125 0
M  V30 621 H 61.2701 -5.35882 2.03724 0
M  V30 622 H 59.6671 -5.29406 2.82577 0
M  V30 623 H 60.7371 -3.88272 2.9047 0
M  V30 624 N 62.0802 -0.821533 -1.34494 0
M  V30 625 C 63.4912 -0.467956 -1.8074 0
M  V30 626 C 63.8422 1.01151 -1.68116 0
M  V30 627 O 62.9672 1.78707 -1.22036 0
M  V30 628 C 63.5622 -0.842627 -3.28154 0
M  V30 629 C 62.1212 -0.541439 -3.72485 0
M  V30 630 C 61.2682 -1.06028 -2.56229 0
M  V30 631 H 64.2192 -1.01183 -1.22261 0
M  V30 632 H 64.2402 -0.145876 -3.8022 0
M  V30 633 H 63.7522 -1.91945 -3.37311 0
M  V30 634 H 61.8532 0.526034 -3.68868 0
M  V30 635 H 61.9662 -1.08453 -4.66663 0
M  V30 636 H 60.3302 -0.481892 -2.501 0
M  V30 637 H 61.1132 -2.14352 -2.68157 0
M  V30 638 N 63.5583 1.46682 -0.576371 0
M  V30 639 C 64.7863 2.06798 -0.0649635 0
M  V30 640 C 65.2013 1.42612 1.23723 0
M  V30 641 O 64.5583 0.529203 1.74659 0
M  V30 642 C 64.6093 3.6132 0.114202 0
M  V30 643 O 64.3303 4.23104 -1.13644 0
M  V30 644 C 65.8313 4.38349 0.66069 0
M  V30 645 H 63.0513 0.668778 -0.0545616 0
M  V30 646 H 65.5953 1.88404 -0.795237 0
M  V30 647 H 63.7503 3.79162 0.794673 0
M  V30 648 H 64.1643 5.15894 -0.946253 0
M  V30 649 H 65.6383 5.47081 0.73526 0
M  V30 650 H 66.1153 4.05953 1.67627 0
M  V30 651 H 66.7213 4.25297 0.0152951 0
M  V30 652 N 65.0364 0.313813 1.54444 0
M  V30 653 C 66.4474 -0.176243 1.85866 0
M  V30 654 C 66.7984 -1.52405 1.23561 0
M  V30 655 O 65.9234 -2.09605 0.538016 0
M  V30 656 C 66.5184 -0.32657 3.37222 0
M  V30 657 C 65.0774 -0.760846 3.6863 0
M  V30 658 C 64.2244 0.123247 2.77026 0
M  V30 659 H 67.1754 0.534418 1.49431 0
M  V30 660 H 67.1964 -1.15908 3.62416 0
M  V30 661 H 66.7084 0.654531 3.82541 0
M  V30 662 H 64.8094 -1.75204 3.28838 0
M  V30 663 H 64.9224 -0.571353 4.75681 0
M  V30 664 H 63.2864 -0.399597 2.51546 0
M  V30 665 H 64.0694 1.10094 3.25168 0
M  V30 666 N 66.5145 -1.57545 0.0417849 0
M  V30 667 C 67.7605 -1.93424 -0.629168 0
M  V30 668 C 68.1155 -0.919564 -1.69002 0
M  V30 669 O 67.4085 0.0626178 -1.91498 0
M  V30 670 C 67.6025 -3.33794 -1.27735 0
M  V30 671 C 67.4315 -4.48822 -0.280806 0
M  V30 672 C 66.2015 -5.05148 0.123869 0
M  V30 673 C 68.3995 -5.12148 0.470012 0
M  V30 674 N 66.3815 -6.03703 1.11426 0
M  V30 675 C 67.7525 -6.05921 1.31377 0
M  V30 676 C 69.8075 -4.95078 0.529343 0
M  V30 677 C 68.5105 -6.84459 2.21152 0
M  V30 678 C 70.5365 -5.74235 1.41448 0
M  V30 679 C 69.8985 -6.67634 2.24598 0
M  V30 680 H 65.9975 -0.755418 -0.202158 0
M  V30 681 H 68.5815 -1.94378 0.111923 0
M  V30 682 H 66.7525 -3.33635 -1.98852 0
M  V30 683 H 68.4845 -3.56988 -1.90635 0
M  V30 684 H 65.2395 -4.72923 -0.253178 0
M  V30 685 H 65.6635 -6.57674 1.60607 0
M  V30 686 H 70.3055 -4.22683 -0.0992798 0
M  V30 687 H 68.0235 -7.56151 2.85063 0
M  V30 688 H 71.6095 -5.63057 1.46484 0
M  V30 689 H 70.4895 -7.27817 2.9198 0
M  V30 690 N 67.9926 0.231505 -1.5589 0
M  V30 691 C 69.2406 0.955461 -1.78088 0
M  V30 692 C 69.5616 1.85262 -0.608533 0
M  V30 693 O 68.8316 1.92277 0.375035 0
M  V30 694 H 67.4116 0.355787 -0.656829 0
M  V30 695 H 70.0736 0.245751 -1.93344 0
M  V30 696 H 69.1696 1.56814 -2.69844 0
M  V30 697 N 69.4707 1.49531 0.497807 0
M  V30 698 C 70.4007 1.6935 1.60757 0
M  V30 699 C 71.3817 0.542218 1.61227 0
M  V30 700 O 72.5667 0.778417 1.77917 0
M  V30 701 C 69.6967 1.76298 2.99226 0
M  V30 702 C 68.6507 2.91248 3.13622 0
M  V30 703 C 67.9767 2.83312 4.53474 0
M  V30 704 C 69.2767 4.3214 2.93346 0
M  V30 705 H 70.9707 2.62263 1.44425 0
M  V30 706 H 68.5167 1.26208 0.693367 0
M  V30 707 H 70.4697 1.88749 3.76765 0
M  V30 708 H 69.1937 0.799871 3.16654 0
M  V30 709 H 67.8527 2.78404 2.38509 0
M  V30 710 H 67.5007 1.84902 4.67782 0
M  V30 711 H 67.2007 3.60465 4.64046 0
M  V30 712 H 68.7247 2.97775 5.33069 0
M  V30 713 H 70.1387 4.45649 3.60652 0
M  V30 714 H 68.5357 5.1054 3.15387 0
M  V30 715 H 69.6057 4.46363 1.89441 0
M  V30 716 N 70.9488 -0.749086 1.3866 0
M  V30 717 C 72.1948 -1.51056 1.35314 0
M  V30 718 C 72.5278 -1.94121 -0.0553751 0
M  V30 719 O 71.8028 -1.65763 -1.01749 0
M  V30 720 C 72.0858 -2.76003 2.31288 0
M  V30 721 C 71.9388 -2.39047 3.8102 0
M  V30 722 C 73.2578 -3.78046 2.2532 0
M  V30 723 H 70.3768 -0.547972 0.492844 0
M  V30 724 H 73.0188 -0.857628 1.69543 0
M  V30 725 H 71.1688 -3.31716 2.02229 0
M  V30 726 H 72.8408 -1.89074 4.20771 0
M  V30 727 H 71.0838 -1.71449 3.98482 0
M  V30 728 H 71.7548 -3.28462 4.4364 0
M  V30 729 H 74.2308 -3.31884 2.50983 0
M  V30 730 H 73.1068 -4.63159 2.94576 0
M  V30 731 H 73.3678 -4.23957 1.25352 0
M  V30 732 N 72.4269 -1.23603 -0.977757 0
M  V30 733 C 73.8429 -0.999251 -1.24447 0
M  V30 734 C 74.0429 0.298053 -1.99283 0
M  V30 735 O 73.0989 1.01681 -2.31122 0
M  V30 736 C 74.4119 -2.20784 -2.04144 0
M  V30 737 C 75.9599 -2.25303 -2.17273 0
M  V30 738 C 76.4349 -3.45755 -3.00362 0
M  V30 739 N 77.9259 -3.4601 -3.07947 0
M  V30 740 C 78.6609 -4.35868 -3.72568 0
M  V30 741 N 78.1569 -5.35966 -4.38991 0
M  V30 742 N 79.9499 -4.23605 -3.6948 0
M  V30 743 H 72.1009 -2.06986 -0.476483 0
M  V30 744 H 74.3639 -0.907801 -0.273134 0
M  V30 745 H 74.0699 -3.14945 -1.56533 0
M  V30 746 H 73.9439 -2.22085 -3.04891 0
M  V30 747 H 76.3309 -1.3168 -2.64092 0
M  V30 748 H 76.4119 -2.28033 -1.15907 0
M  V30 749 H 76.0559 -4.39687 -2.5424 0
M  V30 750 H 75.9859 -3.40266 -4.01904 0
M  V30 751 H 78.4769 -2.73588 -2.60688 0
M  V30 752 H 78.7899 -6.00783 -4.86086 0
M  V30 753 H 77.1349 -5.39863 -4.37691 0
M  V30 754 H 80.3259 -3.44647 -3.16759 0
M  V30 755 H 80.4989 -4.93836 -4.1956 0
M  V30 756 N 73.905 1.17692 -1.04816 0
M  V30 757 C 75.13 1.92327 -0.776207 0
M  V30 758 C 75.555 1.76082 0.661581 0
M  V30 759 O 74.913 1.076 1.45917 0
M  V30 760 C 74.961 3.41539 -1.15687 0
M  V30 761 O 74.065 4.11402 -0.286775 0
M  V30 762 H 73.406 0.599735 -0.284981 0
M  V30 763 H 75.936 1.49201 -1.4 0
M  V30 764 H 75.946 3.92269 -1.12202 0
M  V30 765 H 74.621 3.52684 -2.20425 0
M  V30 766 H 73.198 3.70939 -0.381903 0
M  V30 767 N 75.3831 0.828654 1.34056 0
M  V30 768 C 76.6311 0.41863 1.97717 0
M  V30 769 C 76.9521 -1.02314 1.66002 0
M  V30 770 O 76.2221 -1.71119 0.953683 0
M  V30 771 H 74.8021 0.151809 0.731412 0
M  V30 772 H 77.4641 1.05936 1.63596 0
M  V30 773 H 76.5601 0.542318 3.07352 0
M  V30 774 N 76.8612 -1.46375 0.584142 0
M  V30 775 C 78.1072 -2.02678 0.0703716 0
M  V30 776 C 78.4402 -1.4545 -1.28678 0
M  V30 777 O 77.7152 -0.62014 -1.84349 0
M  V30 778 C 77.9982 -3.60099 0.00614674 0
M  V30 779 C 77.8512 -4.27709 1.3923 0
M  V30 780 C 79.1702 -4.34598 -0.693742 0
M  V30 781 H 76.2892 -0.736504 0.027047 0
M  V30 782 H 78.9312 -1.74501 0.751615 0
M  V30 783 H 77.0812 -3.84236 -0.574009 0
M  V30 784 H 78.7532 -4.14832 2.01773 0
M  V30 785 H 76.9962 -3.87016 1.95962 0
M  V30 786 H 77.6672 -5.36478 1.29982 0
M  V30 787 H 80.1432 -4.15615 -0.200869 0
M  V30 788 H 79.0192 -5.44318 -0.707714 0
M  V30 789 H 79.2802 -4.05759 -1.75533 0
M  V30 790 N 78.3393 -0.321999 -1.54275 0
M  V30 791 C 79.3023 0.531975 -2.22941 0
M  V30 792 C 80.3023 1.04478 -1.22234 0
M  V30 793 O 81.4923 0.937452 -1.46825 0
M  V30 794 C 78.6243 1.73874 -2.93224 0
M  V30 795 H 79.8173 -0.0682612 -2.99822 0
M  V30 796 H 77.3703 -0.0730644 -1.56129 0
M  V30 797 H 78.1053 2.37825 -2.20476 0
M  V30 798 H 77.8903 1.37847 -3.6707 0
M  V30 799 H 79.3803 2.34496 -3.45545 0
M  V30 800 N 79.8174 1.5752 -0.0501392 0
M  V30 801 C 81.2284 1.80271 0.485705 0
M  V30 802 C 81.5794 0.96228 1.70981 0
M  V30 803 O 80.7044 0.178578 2.15662 0
M  V30 804 C 81.2994 3.26957 0.887938 0
M  V30 805 C 79.8584 3.5063 1.36877 0
M  V30 806 C 79.0054 2.75165 0.343468 0
M  V30 807 H 81.9564 1.56281 -0.276028 0
M  V30 808 H 81.9774 3.37821 1.75093 0
M  V30 809 H 81.4894 3.881 -0.0031809 0
M  V30 810 H 79.5904 2.94766 2.27911 0
M  V30 811 H 79.7034 4.59343 1.36164 0
M  V30 812 H 78.0674 2.4127 0.816128 0
M  V30 813 H 78.8504 3.39034 -0.539548 0
M  V30 814 N 81.2955 -0.223234 1.56011 0
M  V30 815 C 82.5725 -0.972108 1.69733 0
M  V30 816 C 82.9525 -2.02485 0.59691 0
M  V30 817 O 82.3005 -2.25037 -0.396324 0
M  V30 818 C 82.5105 -1.58407 3.10979 0
M  V30 819 C 83.8585 -2.07696 3.70334 0
M  V30 820 O 84.8825 -1.68304 3.1393 0
M  V30 821 O 83.7415 -2.80096 4.69264 0
M  V30 822 H 80.8355 -0.453993 0.691245 0
M  V30 823 H 83.3815 -0.215149 1.68331 0
M  V30 824 H 82.1535 -0.823831 3.82529 0
M  V30 825 H 81.7765 -2.40661 3.16493 0
M  V30 826 N 82.7736 -1.49793 -0.48987 0
M  V30 827 C 83.7236 -1.63673 -1.5873 0
M  V30 828 C 84.7076 -0.491956 -1.53195 0
M  V30 829 O 85.8996 -0.745461 -1.60536 0
M  V30 830 C 83.0286 -1.71689 -2.97284 0
M  V30 831 C 82.1146 -2.91781 -3.07774 0
M  V30 832 N 82.5056 -4.15714 -2.88124 0
M  V30 833 C 80.8036 -2.89949 -3.38889 0
M  V30 834 C 81.5046 -4.965 -3.03088 0
M  V30 835 N 80.4806 -4.30083 -3.3246 0
M  V30 836 H 84.2826 -2.57204 -1.42208 0
M  V30 837 H 81.7966 -1.46719 -0.69623 0
M  V30 838 H 83.7936 -1.79732 -3.76168 0
M  V30 839 H 82.4536 -0.793024 -3.14867 0
M  V30 840 H 83.4646 -4.45515 -2.64077 0
M  V30 841 H 80.1416 -2.06987 -3.62578 0
M  V30 842 H 81.5316 -6.04991 -2.92294 0
M  V30 843 N 84.2517 0.741722 -1.39055 0
M  V30 844 C 85.6627 1.31966 -1.32068 0
M  V30 845 C 86.0137 1.96192 0.0180797 0
M  V30 846 O 85.1387 1.95861 0.920196 0
M  V30 847 C 85.7337 2.39954 -2.39181 0
M  V30 848 C 84.2927 2.93438 -2.35735 0
M  V30 849 C 83.4397 1.66936 -2.21422 0
M  V30 850 H 86.3907 0.539721 -1.4924 0
M  V30 851 H 86.4117 3.20182 -2.05581 0
M  V30 852 H 85.9237 1.9318 -3.36605 0
M  V30 853 H 84.0247 3.4451 -1.41929 0
M  V30 854 H 84.1377 3.4701 -3.30335 0
M  V30 855 H 82.5017 1.91016 -1.68478 0
M  V30 856 H 83.2847 1.22224 -3.20806 0
M  V30 857 N 85.7298 1.2412 0.971189 0
M  V30 858 C 86.6768 1.0305 2.06517 0
M  V30 859 C 87.6468 -0.0550666 1.66009 0
M  V30 860 O 88.8318 0.0988688 1.90544 0
M  V30 861 C 85.9718 0.637653 3.39158 0
M  V30 862 C 85.0848 1.79633 3.92882 0
M  V30 863 C 84.2198 1.34939 5.13775 0
M  V30 864 C 83.2588 2.47823 5.59687 0
M  V30 865 N 82.3958 2.04022 6.71803 0
M  V30 866 H 87.2358 1.96685 2.23873 0
M  V30 867 H 84.7728 0.979694 1.09729 0
M  V30 868 H 86.7308 0.390931 4.15364 0
M  V30 869 H 85.3608 -0.261693 3.21737 0
M  V30 870 H 84.4128 2.15681 3.13346 0
M  V30 871 H 85.7248 2.64466 4.22918 0
M  V30 872 H 84.8788 1.06134 5.97345 0
M  V30 873 H 83.6178 0.471557 4.85415 0
M  V30 874 H 82.6228 2.77392 4.74693 0
M  V30 875 H 83.8478 3.36158 5.90063 0
M  V30 876 H 81.7938 1.18632 6.45184 0
M  V30 877 H 81.7108 2.82409 7.01271 0
M  V30 878 H 82.9788 1.78347 7.58823 0
M  V30 879 N 87.2079 -1.17134 1.05439 0
M  V30 880 C 88.4569 -1.86791 0.761049 0
M  V30 881 C 88.7699 -1.82072 -0.714795 0
M  V30 882 O 89.9759 -2.47223 -1.12218 0
M  V30 883 C 88.4319 -3.35166 1.31117 0
M  V30 884 C 88.0399 -3.48381 2.81664 0
M  V30 885 C 89.7839 -4.10134 1.09499 0
M  V30 886 C 87.6909 -4.90793 3.29964 0
M  V30 887 H 86.6209 -0.699681 0.281002 0
M  V30 888 H 89.2719 -1.3226 1.27199 0
M  V30 889 H 87.6539 -3.8925 0.72803 0
M  V30 890 H 88.8279 -3.04502 3.45855 0
M  V30 891 H 87.1429 -2.86836 3.01851 0
M  V30 892 H 89.7399 -5.152 1.43084 0
M  V30 893 H 90.0829 -4.16287 0.0328772 0
M  V30 894 H 90.6159 -3.62264 1.64346 0
M  V30 895 H 87.3549 -4.89816 4.35616 0
M  V30 896 H 86.8749 -5.35333 2.70516 0
M  V30 897 H 88.5539 -5.59573 3.24787 0
M  V30 898 N 88.686 -0.835752 -1.33615 0
M  V30 899 C 89.633 -0.26473 -2.29277 0
M  V30 900 C 90.603 0.617712 -1.54187 0
M  V30 901 O 91.788 0.556641 -1.825 0
M  V30 902 C 88.928 0.556777 -3.40579 0
M  V30 903 C 88.041 -0.349339 -4.30585 0
M  V30 904 C 87.176 0.482969 -5.29 0
M  V30 905 C 86.215 -0.421732 -6.10645 0
M  V30 906 N 85.352 0.372262 -7.01112 0
M  V30 907 H 90.192 -1.08582 -2.77514 0
M  V30 908 H 87.729 -0.546927 -1.36554 0
M  V30 909 H 89.687 1.04852 -4.03809 0
M  V30 910 H 88.317 1.34286 -2.93542 0
M  V30 911 H 87.369 -0.959372 -3.68104 0
M  V30 912 H 88.681 -1.04445 -4.87742 0
M  V30 913 H 87.835 1.03866 -5.97743 0
M  V30 914 H 86.574 1.21153 -4.72412 0
M  V30 915 H 85.579 -0.989464 -5.40823 0
M  V30 916 H 86.804 -1.14861 -6.69316 0
M  V30 917 H 84.75 1.08426 -6.46977 0
M  V30 918 H 84.667 -0.264198 -7.55538 0
M  V30 919 H 85.935 0.910293 -7.74167 0
M  V30 920 N 90.1641 1.46063 -0.591896 0
M  V30 921 C 91.3891 2.07226 -0.0850314 0
M  V30 922 C 91.8141 1.43625 1.21463 0
M  V30 923 O 91.1721 0.523305 1.73583 0
M  V30 924 C 91.2201 3.60554 0.0576567 0
M  V30 925 O 90.3241 3.97128 1.11188 0
M  V30 926 H 89.6651 0.660615 -0.0669568 0
M  V30 927 H 92.1951 1.8756 -0.81745 0
M  V30 928 H 92.2051 4.07165 0.2609 0
M  V30 929 H 90.8801 4.06235 -0.891416 0
M  V30 930 H 89.4571 3.62213 0.886356 0
M  V30 931 N 91.6422 0.330177 1.54103 0
M  V30 932 C 92.8912 -0.271336 1.99867 0
M  V30 933 C 93.2042 -1.52723 1.22209 0
M  V30 934 O 94.4102 -2.20515 1.58383 0
M  V30 935 C 92.8662 -0.534032 3.55916 0
M  V30 936 C 92.4742 0.705193 4.42415 0
M  V30 937 C 94.2182 -1.09514 4.1013 0
M  V30 938 C 92.1252 0.414035 5.89949 0
M  V30 939 H 91.0552 -0.105166 0.74663 0
M  V30 940 H 93.7062 0.443429 1.78062 0
M  V30 941 H 92.0882 -1.30915 3.73734 0
M  V30 942 H 93.2622 1.4804 4.36372 0
M  V30 943 H 91.5772 1.18698 3.99124 0
M  V30 944 H 94.1742 -1.3277 5.17954 0
M  V30 945 H 94.5172 -2.04656 3.62521 0
M  V30 946 H 95.0502 -0.381038 3.95971 0
M  V30 947 H 91.7892 1.33481 6.41766 0
M  V30 948 H 91.3092 -0.323336 5.98928 0
M  V30 949 H 92.9882 0.0263105 6.46995 0
M  V30 950 N 93.1203 -1.57491 0.0584922 0
M  V30 951 C 94.3453 -1.97711 -0.62652 0
M  V30 952 C 94.7703 -0.936132 -1.63151 0
M  V30 953 O 94.1283 0.099811 -1.81025 0
M  V30 954 C 94.1763 -3.36989 -1.28338 0
M  V30 955 O 93.2803 -3.35433 -2.39913 0
M  V30 956 H 92.6213 -0.643868 -0.162266 0
M  V30 957 H 95.1513 -2.04193 0.129064 0
M  V30 958 H 95.1613 -3.73879 -1.63335 0
M  V30 959 H 93.8363 -4.12289 -0.546889 0
M  V30 960 H 92.4133 -3.10298 -2.06809 0
M  V30 961 N 94.5984 0.214957 -1.56127 0
M  V30 962 C 95.5454 1.26642 -1.92952 0
M  V30 963 C 96.5154 1.46244 -0.78753 0
M  V30 964 O 97.7004 1.59704 -1.04399 0
M  V30 965 C 94.8404 2.6104 -2.25726 0
M  V30 966 C 93.9534 2.49183 -3.52891 0
M  V30 967 C 93.0884 3.76149 -3.7508 0
M  V30 968 C 92.1274 3.59041 -4.95738 0
M  V30 969 N 91.2644 4.77972 -5.14283 0
M  V30 970 H 96.1044 0.945384 -2.82607 0
M  V30 971 H 93.6414 0.455489 -1.3987 0
M  V30 972 H 95.5994 3.39313 -2.42739 0
M  V30 973 H 94.2294 2.91227 -1.39236 0
M  V30 974 H 93.2814 1.6231 -3.44034 0
M  V30 975 H 94.5934 2.32466 -4.41318 0
M  V30 976 H 93.7474 4.62865 -3.92226 0
M  V30 977 H 92.4864 3.95799 -2.84947 0
M  V30 978 H 91.4914 2.7071 -4.78535 0
M  V30 979 H 92.7164 3.40856 -5.87362 0
M  V30 980 H 90.6624 4.97923 -4.27093 0
M  V30 981 H 90.5794 4.64006 -5.96853 0
M  V30 982 H 91.8474 5.66096 -5.35869 0
M  V30 983 N 96.0765 1.50051 0.48192 0
M  V30 984 C 97.0085 1.64263 1.59844 0
M  V30 985 C 98.0215 0.52451 1.54119 0
M  V30 986 O 99.2105 0.797293 1.59704 0
M  V30 987 C 96.3105 1.60102 2.98698 0
M  V30 988 C 95.4835 2.87767 3.29407 0
M  V30 989 C 94.5425 2.76397 4.47762 0
M  V30 990 O 93.5685 3.50348 4.48603 0
M  V30 991 N 94.7705 1.89222 5.48794 0
M  V30 992 H 97.5355 2.60566 1.48073 0
M  V30 993 H 95.0965 1.47379 0.670149 0
M  V30 994 H 97.0885 1.50123 3.75826 0
M  V30 995 H 95.6585 0.715798 3.04294 0
M  V30 996 H 94.8785 3.11954 2.40994 0
M  V30 997 H 96.1665 3.72365 3.4673 0
M  V30 998 H 95.5645 1.28434 5.50928 0
M  V30 999 H 94.1215 1.85154 6.24949 0
M  V30 1000 N 97.5546 -0.734337 1.39446 0
M  V30 1001 C 98.8016 -1.49391 1.36706 0
M  V30 1002 C 99.1296 -1.94465 -0.0367813 0
M  V30 1003 O 98.3846 -1.67154 -1.01774 0
M  V30 1004 C 98.6836 -2.74711 2.28623 0
M  V30 1005 C 98.3496 -2.48501 3.76242 0
M  V30 1006 C 97.0116 -2.41062 4.16464 0
M  V30 1007 C 99.3636 -2.26098 4.69606 0
M  V30 1008 C 96.6916 -2.09262 5.48112 0
M  V30 1009 C 99.0436 -1.95814 6.01531 0
M  V30 1010 C 97.7076 -1.86845 6.40816 0
M  V30 1011 H 96.9776 -0.546661 0.500243 0
M  V30 1012 H 99.6246 -0.842788 1.71957 0
M  V30 1013 H 97.9296 -3.44569 1.86492 0
M  V30 1014 H 99.6266 -3.32741 2.23796 0
M  V30 1015 H 96.2166 -2.55169 3.44364 0
M  V30 1016 H 100.401 -2.30812 4.39363 0
M  V30 1017 H 95.6566 -2.00841 5.77471 0
M  V30 1018 H 99.8306 -1.77488 6.73403 0
M  V30 1019 H 97.4576 -1.6197 7.42745 0
M  V30 1020 N 99.0327 -1.24633 -0.964593 0
M  V30 1021 C 99.9427 -1.05859 -2.09359 0
M  V30 1022 C 100.959 0.00148855 -1.74 0
M  V30 1023 O 102.135 -0.197346 -2.00431 0
M  V30 1024 C 99.1997 -0.668879 -3.40187 0
M  V30 1025 C 98.2607 -1.80578 -3.89474 0
M  V30 1026 C 97.4937 -1.43457 -5.14058 0
M  V30 1027 O 97.7167 -0.325775 -5.69469 0
M  V30 1028 O 96.6507 -2.2613 -5.57807 0
M  V30 1029 H 100.477 -2.00516 -2.28094 0
M  V30 1030 H 98.0617 -1.03481 -1.0776 0
M  V30 1031 H 99.9437 -0.463211 -4.18846 0
M  V30 1032 H 98.6187 0.248536 -3.22744 0
M  V30 1033 H 97.5257 -2.06623 -3.11862 0
M  V30 1034 H 98.8587 -2.70208 -4.11398 0
M  V30 1035 N 100.511 1.16574 -1.06058 0
M  V30 1036 C 101.458 2.20883 -0.669263 0
M  V30 1037 C 102.428 1.62729 0.332918 0
M  V30 1038 O 103.613 1.895 0.222346 0
M  V30 1039 C 100.753 3.45049 -0.0593572 0
M  V30 1040 C 99.8658 4.17458 -1.11143 0
M  V30 1041 C 99.0008 5.29135 -0.467916 0
M  V30 1042 C 98.0398 5.93343 -1.50369 0
M  V30 1043 N 97.1768 6.96516 -0.883706 0
M  V30 1044 H 102.017 2.53709 -1.5632 0
M  V30 1045 H 99.5538 1.24616 -0.781625 0
M  V30 1046 H 101.512 4.16033 0.311771 0
M  V30 1047 H 100.142 3.12781 0.797992 0
M  V30 1048 H 99.1938 3.45101 -1.60029 0
M  V30 1049 H 100.506 4.61307 -1.89731 0
M  V30 1050 H 99.6598 6.06684 -0.0436871 0
M  V30 1051 H 98.3988 4.86443 0.349864 0
M  V30 1052 H 97.4038 5.14517 -1.93784 0
M  V30 1053 H 98.6288 6.38114 -2.32352 0
M  V30 1054 H 96.5748 6.55943 -0.086595 0
M  V30 1055 H 96.4918 7.38723 -1.607 0
M  V30 1056 H 97.7598 7.77993 -0.484543 0
M  V30 1057 N 101.989 0.842826 1.3317 0
M  V30 1058 C 103.217 0.454055 2.01856 0
M  V30 1059 C 103.632 -0.94587 1.63397 0
M  V30 1060 O 102.989 -1.61534 0.849302 0
M  V30 1061 C 103.04 0.569715 3.56982 0
M  V30 1062 O 102.761 1.91448 3.94055 0
M  V30 1063 C 104.262 0.178412 4.42941 0
M  V30 1064 H 101.482 0.17979 0.646465 0
M  V30 1065 H 104.026 1.1365 1.70012 0
M  V30 1066 H 102.181 -0.0648587 3.87346 0
M  V30 1067 H 102.595 1.90282 4.88767 0
M  V30 1068 H 104.069 0.310376 5.51127 0
M  V30 1069 H 104.546 -0.880056 4.30293 0
M  V30 1070 H 105.152 0.787579 4.17944 0
M  V30 1071 N 103.467 -1.45747 0.599634 0
M  V30 1072 C 104.43 -2.28917 -0.113835 0
M  V30 1073 C 105.43 -1.3933 -0.802729 0
M  V30 1074 O 106.62 -1.61534 -0.652103 0
M  V30 1075 C 103.752 -3.20152 -1.17114 0
M  V30 1076 H 104.945 -2.93478 0.617289 0
M  V30 1077 H 102.498 -1.52137 0.358327 0
M  V30 1078 H 103.233 -2.60374 -1.93329 0
M  V30 1079 H 103.018 -3.86133 -0.681468 0
M  V30 1080 H 104.508 -3.82708 -1.67105 0
M  V30 1081 N 104.945 -0.338344 -1.53925 0
M  V30 1082 C 105.855 0.529421 -2.28548 0
M  V30 1083 C 106.871 1.11645 -1.3346 0
M  V30 1084 O 108.047 1.13325 -1.66492 0
M  V30 1085 C 105.112 1.66713 -3.03987 0
M  V30 1086 C 104.173 1.11041 -4.14691 0
M  V30 1087 C 103.406 2.19389 -4.86522 0
M  V30 1088 O 103.629 3.40013 -4.57982 0
M  V30 1089 O 102.563 1.83976 -5.73094 0
M  V30 1090 H 106.389 -0.0770399 -3.03602 0
M  V30 1091 H 103.974 -0.103555 -1.49041 0
M  V30 1092 H 105.856 2.32918 -3.5118 0
M  V30 1093 H 104.531 2.25949 -2.31794 0
M  V30 1094 H 103.438 0.413024 -3.71813 0
M  V30 1095 H 104.771 0.562975 -4.8897 0
M  V30 1096 N 106.423 1.57458 -0.0668435 0
M  V30 1097 C 107.7 1.8469 0.644132 0
M  V30 1098 C 108.08 0.958343 1.88093 0
M  V30 1099 O 107.428 0.0233579 2.28488 0
M  V30 1100 C 107.638 3.34767 0.986509 0
M  V30 1101 C 108.986 4.02159 1.36212 0
M  V30 1102 O 110.01 3.39484 1.07839 0
M  V30 1103 O 108.869 5.12694 1.89227 0
M  V30 1104 H 105.963 0.762816 0.319437 0
M  V30 1105 H 108.509 1.6942 -0.0973986 0
M  V30 1106 H 107.281 3.91151 0.107883 0
M  V30 1107 H 106.904 3.55281 1.78497 0
M  V30 1108 N 107.901 -0.206675 1.56239 0
M  V30 1109 C 109.312 -0.772383 1.69974 0
M  V30 1110 C 109.663 -1.84353 0.671436 0
M  V30 1111 O 108.788 -2.15695 -0.174491 0
M  V30 1112 C 109.383 -1.40779 3.08167 0
M  V30 1113 C 107.942 -1.92072 3.23706 0
M  V30 1114 C 107.089 -0.786347 2.65917 0
M  V30 1115 H 110.04 0.0182223 1.5869 0
M  V30 1116 H 110.061 -2.27696 3.04852 0
M  V30 1117 H 109.573 -0.627958 3.82986 0
M  V30 1118 H 107.674 -2.7281 2.53782 0
M  V30 1119 H 107.787 -2.09046 4.31087 0
M  V30 1120 H 106.151 -1.1976 2.24788 0
M  V30 1121 H 106.934 -0.0189416 3.43295 0
M  V30 1122 N 109.379 -1.50304 -0.473955 0
M  V30 1123 C 110.795 -1.37667 -0.807466 0
M  V30 1124 C 110.995 -0.430555 -1.96846 0
M  V30 1125 O 110.051 0.127874 -2.52176 0
M  V30 1126 C 111.364 -2.78974 -1.12223 0
M  V30 1127 C 112.912 -2.87868 -1.22885 0
M  V30 1128 C 113.387 -4.30003 -1.57676 0
M  V30 1129 N 114.878 -4.3294 -1.64673 0
M  V30 1130 C 115.613 -5.3991 -1.93091 0
M  V30 1131 N 115.109 -6.57092 -2.1955 0
M  V30 1132 N 116.902 -5.27351 -1.94569 0
M  V30 1133 H 109.053 -2.10394 0.291212 0
M  V30 1134 H 111.316 -0.945575 0.0677609 0
M  V30 1135 H 111.022 -3.50031 -0.342229 0
M  V30 1136 H 110.896 -3.16038 -2.05913 0
M  V30 1137 H 113.283 -2.17032 -1.99953 0
M  V30 1138 H 113.364 -2.54352 -0.271814 0
M  V30 1139 H 113.008 -5.01375 -0.81149 0
M  V30 1140 H 112.938 -4.61004 -2.54525 0
M  V30 1141 H 115.429 -3.48441 -1.46277 0
M  V30 1142 H 115.742 -7.34425 -2.405 0
M  V30 1143 H 114.087 -6.60272 -2.16948 0
M  V30 1144 H 117.278 -4.34801 -1.73394 0
M  V30 1145 H 117.451 -6.10805 -2.16381 0
M  V30 1146 N 110.857 0.726932 -1.39834 0
M  V30 1147 C 112.104 1.48664 -1.37496 0
M  V30 1148 C 112.432 1.94482 0.0264678 0
M  V30 1149 O 111.687 1.67692 1.00886 0
M  V30 1150 C 111.986 2.73495 -2.30077 0
M  V30 1151 C 111.652 2.46502 -3.77555 0
M  V30 1152 C 110.314 2.3885 -4.17737 0
M  V30 1153 C 112.666 2.23604 -4.70798 0
M  V30 1154 C 109.994 2.06352 -5.49214 0
M  V30 1155 C 112.346 1.92622 -6.02561 0
M  V30 1156 C 111.01 1.83444 -6.41798 0
M  V30 1157 H 110.28 0.544001 -0.503135 0
M  V30 1158 H 112.927 0.833657 -1.72402 0
M  V30 1159 H 111.232 3.43575 -1.88317 0
M  V30 1160 H 112.929 3.31549 -2.25558 0
M  V30 1161 H 109.519 2.5334 -3.45712 0
M  V30 1162 H 113.703 2.28479 -4.40581 0
M  V30 1163 H 108.959 1.97776 -5.78528 0
M  V30 1164 H 113.133 1.73914 -6.74334 0
M  V30 1165 H 110.76 1.58029 -7.43593 0
M  V30 1166 N 112.336 1.25143 0.95797 0
M  V30 1167 C 113.752 1.01892 1.22842 0
M  V30 1168 C 113.952 -0.266311 1.99732 0
M  V30 1169 O 113.008 -0.979913 2.3271 0
M  V30 1170 C 114.321 2.24004 2.00606 0
M  V30 1171 C 115.869 2.28731 2.13662 0
M  V30 1172 C 116.344 3.5049 2.94823 0
M  V30 1173 N 117.835 3.50866 3.02403 0
M  V30 1174 C 118.57 4.4174 3.65586 0
M  V30 1175 N 118.066 5.42882 4.30408 0
M  V30 1176 N 119.859 4.29429 3.62694 0
M  V30 1177 H 112.01 2.07718 0.443493 0
M  V30 1178 H 114.273 0.912031 0.258657 0
M  V30 1179 H 113.979 3.17395 1.51503 0
M  V30 1180 H 113.853 2.26907 3.01319 0
M  V30 1181 H 116.24 1.35865 2.61963 0
M  V30 1182 H 116.321 2.29848 1.12265 0
M  V30 1183 H 115.965 4.43676 2.47213 0
M  V30 1184 H 115.895 3.46617 3.96439 0
M  V30 1185 H 118.386 2.777 2.56302 0
M  V30 1186 H 118.699 6.0844 4.76467 0
M  V30 1187 H 117.044 5.46758 4.29047 0
M  V30 1188 H 120.235 3.49643 3.11236 0
M  V30 1189 H 120.408 5.00448 4.1165 0
M  V30 1190 N 113.814 -1.1601 1.06675 0
M  V30 1191 C 115.061 -1.86633 0.785781 0
M  V30 1192 C 115.389 -1.81929 -0.687896 0
M  V30 1193 O 114.644 -1.23253 -1.52011 0
M  V30 1194 C 114.943 -3.35547 1.23057 0
M  V30 1195 C 114.609 -3.60448 2.70902 0
M  V30 1196 C 113.271 -3.66954 3.11285 0
M  V30 1197 C 115.623 -3.7071 3.66365 0
M  V30 1198 C 112.951 -3.81225 4.45965 0
M  V30 1199 C 115.303 -3.86503 5.00797 0
M  V30 1200 C 113.967 -3.91252 5.40813 0
M  V30 1201 H 113.237 -0.682937 0.287538 0
M  V30 1202 H 115.884 -1.37146 1.33654 0
M  V30 1203 H 114.189 -3.87193 0.59907 0
M  V30 1204 H 115.886 -3.88583 0.990163 0
M  V30 1205 H 112.476 -3.56021 2.38636 0
M  V30 1206 H 116.66 -3.64991 3.36296 0
M  V30 1207 H 111.916 -3.83155 4.76447 0
M  V30 1208 H 116.09 -3.93385 5.74649 0
M  V30 1209 H 113.717 -4.02062 6.45174 0
M  V30 1210 N 115.292 -0.849877 -1.32721 0
M  V30 1211 C 116.539 -0.450923 -1.97416 0
M  V30 1212 C 116.867 0.992376 -1.67279 0
M  V30 1213 O 116.122 1.71048 -0.950845 0
M  V30 1214 C 116.421 -0.631272 -3.51781 0
M  V30 1215 C 116.087 -2.04432 -4.01894 0
M  V30 1216 C 114.749 -2.4308 -4.1529 0
M  V30 1217 C 117.101 -2.96679 -4.28522 0
M  V30 1218 C 114.429 -3.73257 -4.52654 0
M  V30 1219 C 116.781 -4.26349 -4.67343 0
M  V30 1220 C 115.445 -4.64939 -4.78945 0
M  V30 1221 H 114.715 -0.165004 -0.722395 0
M  V30 1222 H 117.362 -1.07901 -1.58207 0
M  V30 1223 H 115.667 0.0800767 -3.91718 0
M  V30 1224 H 117.364 -0.302709 -3.99856 0
M  V30 1225 H 113.954 -1.73419 -3.91949 0
M  V30 1226 H 118.138 -2.68054 -4.17685 0
M  V30 1227 H 113.394 -4.02946 -4.59831 0
M  V30 1228 H 117.568 -4.97895 -4.86902 0
M  V30 1229 H 115.195 -5.65855 -5.07654 0
M  V30 1230 N 116.77 1.45427 -0.607355 0
M  V30 1231 C 118.018 2.01841 -0.102253 0
M  V30 1232 C 118.339 1.47832 1.27164 0
M  V30 1233 O 117.609 0.672497 1.83995 0
M  V30 1234 H 116.189 0.746188 -0.0348101 0
M  V30 1235 H 118.851 1.78229 -0.7887 0
M  V30 1236 H 117.947 3.12057 -0.0518585 0
M  V30 1237 N 118.248 0.346503 1.53744 0
M  V30 1238 C 119.196 -0.52422 2.26616 0
M  V30 1239 C 120.19 -1.09948 1.28871 0
M  V30 1240 O 121.396 -1.04488 1.46568 0
M  V30 1241 H 117.771 -0.187743 0.728187 0
M  V30 1242 H 119.742 0.11239 2.98188 0
M  V30 1243 C 118.491 -1.66186 3.05414 0
M  V30 1244 H 117.814 -1.22848 3.80458 0
M  V30 1245 H 119.254 -2.24622 3.59612 0
M  V30 1246 C 117.713 -2.59302 2.1509 0
M  V30 1247 O 118.243 -3.61628 1.74895 0
M  V30 1248 N 116.449 -2.28055 1.8011 0
M  V30 1249 H 115.996 -1.44883 2.12994 0
M  V30 1250 H 115.954 -2.90615 1.19958 0
M  V30 1251 N 119.726 -1.57421 0.075193 0
M  V30 1252 C 120.972 -1.93905 -0.594025 0
M  V30 1253 C 121.305 -0.955701 -1.69056 0
M  V30 1254 O 120.58 0.0145373 -1.94495 0
M  V30 1255 C 120.863 -3.40638 -1.1678 0
M  V30 1256 C 120.716 -4.49733 -0.0776792 0
M  V30 1257 C 122.035 -3.88259 -2.07228 0
M  V30 1258 H 119.154 -0.705105 -0.214466 0
M  V30 1259 H 121.796 -1.8947 0.141854 0
M  V30 1260 H 119.946 -3.44549 -1.79494 0
M  V30 1261 H 121.618 -4.57942 0.555573 0
M  V30 1262 H 119.861 -4.29751 0.591286 0
M  V30 1263 H 120.532 -5.49549 -0.519603 0
M  V30 1264 H 123.008 -3.86376 -1.54445 0
M  V30 1265 H 121.884 -4.91533 -2.44308 0
M  V30 1266 H 122.145 -3.26396 -2.98191 0
M  V30 1267 N 121.204 0.198386 -1.56346 0
M  V30 1268 C 122.45 0.920648 -1.80698 0
M  V30 1269 C 122.783 1.83045 -0.648697 0
M  V30 1270 O 122.058 1.91308 0.350925 0
M  V30 1271 C 122.341 1.73971 -3.15287 0
M  V30 1272 C 122.194 0.85485 -4.41602 0
M  V30 1273 C 123.513 2.71296 -3.46535 0
M  V30 1274 H 120.632 0.333261 -0.657348 0
M  V30 1275 H 123.274 0.188198 -1.89066 0
M  V30 1276 H 121.424 2.36416 -3.08285 0
M  V30 1277 H 123.096 0.245362 -4.60647 0
M  V30 1278 H 121.339 0.161398 -4.335 0
M  V30 1279 H 122.01 1.46286 -5.32264 0
M  V30 1280 H 124.486 2.18983 -3.53816 0
M  V30 1281 H 123.362 3.2569 -4.41834 0
M  V30 1282 H 123.623 3.5018 -2.69864 0
M  V30 1283 N 122.682 1.50554 0.465978 0
M  V30 1284 C 123.928 1.62038 1.21949 0
M  V30 1285 C 124.261 0.322116 1.9151 0
M  V30 1286 O 123.536 -0.676723 1.82348 0
M  V30 1287 C 123.819 2.80421 2.25912 0
M  V30 1288 C 123.672 4.20144 1.60622 0
M  V30 1289 C 124.991 2.94354 3.27176 0
M  V30 1290 H 122.11 0.589752 0.441998 0
M  V30 1291 H 124.752 1.82956 0.51257 0
M  V30 1292 H 122.902 2.62717 2.86203 0
M  V30 1293 H 124.574 4.49449 1.03889 0
M  V30 1294 H 122.817 4.24165 0.909211 0
M  V30 1295 H 123.488 4.98914 2.36196 0
M  V30 1296 H 125.964 3.10578 2.76913 0
M  V30 1297 H 124.84 3.788 3.97242 0
M  V30 1298 H 125.101 2.05186 3.916 0
M  V30 1299 N 124.16 -0.719506 1.40217 0
M  V30 1300 C 125.408 -1.47641 1.3801 0
M  V30 1301 C 125.729 -1.94992 -0.018145 0
M  V30 1302 O 124.999 -1.70073 -0.972207 0
M  V30 1303 H 123.579 -0.547744 0.507923 0
M  V30 1304 H 126.241 -0.853187 1.75233 0
M  V30 1305 H 125.337 -2.35112 2.05253 0
M  V30 1306 N 125.638 -1.25649 -0.95132 0
M  V30 1307 C 126.548 -1.08073 -2.08224 0
M  V30 1308 C 127.564 -0.0169666 -1.73992 0
M  V30 1309 O 128.74 -0.218593 -2.0021 0
M  V30 1310 C 125.805 -0.704922 -3.39458 0
M  V30 1311 C 124.866 -1.84699 -3.87537 0
M  V30 1312 C 124.099 -1.48902 -5.12508 0
M  V30 1313 O 124.322 -0.386156 -5.69091 0
M  V30 1314 O 123.256 -2.32033 -5.55378 0
M  V30 1315 H 127.082 -2.02924 -2.25954 0
M  V30 1316 H 124.667 -1.04618 -1.06656 0
M  V30 1317 H 126.549 -0.507609 -4.18332 0
M  V30 1318 H 125.224 0.214291 -3.2299 0
M  V30 1319 H 124.131 -2.09919 -3.09653 0
M  V30 1320 H 125.464 -2.74557 -4.08509 0
M  V30 1321 N 127.117 1.15442 -1.07289 0
M  V30 1322 C 128.067 2.18164 -0.662467 0
M  V30 1323 C 129.051 1.57845 0.312074 0
M  V30 1324 O 130.243 1.76552 0.125905 0
M  V30 1325 C 127.372 3.43246 -0.0611295 0
M  V30 1326 C 126.458 4.1062 -1.06077 0
M  V30 1327 N 126.849 4.53491 -2.24008 0
M  V30 1328 C 125.147 4.36949 -0.893964 0
M  V30 1329 C 125.848 5.05731 -2.87422 0
M  V30 1330 N 124.824 4.99236 -2.15091 0
M  V30 1331 H 128.626 2.49038 -1.56068 0
M  V30 1332 H 126.14 1.32003 -0.945988 0
M  V30 1333 H 128.137 4.16145 0.250792 0
M  V30 1334 H 126.797 3.13854 0.832207 0
M  V30 1335 H 127.808 4.46898 -2.6173 0
M  V30 1336 H 124.485 4.17466 -0.0534693 0
M  V30 1337 H 125.875 5.48865 -3.87553 0
M  V30 1338 N 128.595 0.856903 1.32268 0
M  V30 1339 C 129.841 0.462069 1.97466 0
M  V30 1340 C 130.174 -0.980298 1.67642 0
M  V30 1341 O 129.449 -1.68824 0.965858 0
M  V30 1342 C 129.732 0.704336 3.53145 0
M  V30 1343 C 129.585 2.19529 3.9259 0
M  V30 1344 C 130.904 0.1622 4.39801 0
M  V30 1345 H 128.023 0.169357 0.717278 0
M  V30 1346 H 130.665 1.07574 1.56614 0
M  V30 1347 H 128.815 0.181999 3.88073 0
M  V30 1348 H 130.487 2.78387 3.67829 0
M  V30 1349 H 128.73 2.67292 3.41668 0
M  V30 1350 H 129.401 2.31549 5.01088 0
M  V30 1351 H 131.877 0.608905 4.11621 0
M  V30 1352 H 130.753 0.361265 5.4771 0
M  V30 1353 H 131.014 -0.935158 4.32096 0
M  V30 1354 N 130.073 -1.45103 0.615059 0
M  V30 1355 C 131.005 -2.28786 -0.13762 0
M  V30 1356 C 132.018 -1.40376 -0.824525 0
M  V30 1357 O 133.207 -1.64681 -0.688662 0
M  V30 1358 C 130.307 -3.16322 -1.21628 0
M  V30 1359 C 129.48 -4.33054 -0.615039 0
M  V30 1360 C 128.539 -5.01743 -1.58556 0
M  V30 1361 O 127.565 -5.58293 -1.10895 0
M  V30 1362 N 128.767 -5.01714 -2.91998 0
M  V30 1363 H 131.532 -2.94025 0.580483 0
M  V30 1364 H 129.093 -1.55373 0.45507 0
M  V30 1365 H 131.085 -3.59139 -1.86552 0
M  V30 1366 H 129.655 -2.52943 -1.83681 0
M  V30 1367 H 128.875 -3.93627 0.21245 0
M  V30 1368 H 130.163 -5.08431 -0.193704 0
M  V30 1369 H 129.561 -4.57075 -3.33316 0
M  V30 1370 H 128.118 -5.48371 -3.52325 0
M  V30 1371 N 131.551 -0.354651 -1.53558 0
M  V30 1372 C 132.962 0.126902 -1.86268 0
M  V30 1373 C 133.313 1.49075 -1.27558 0
M  V30 1374 O 132.438 2.08105 -0.5934 0
M  V30 1375 C 133.033 0.237046 -3.3797 0
M  V30 1376 C 131.592 0.662842 -3.70518 0
M  V30 1377 C 130.739 -0.196652 -2.76602 0
M  V30 1378 H 133.69 -0.573849 -1.47962 0
M  V30 1379 H 133.711 1.06259 -3.65362 0
M  V30 1380 H 133.223 -0.755725 -3.80671 0
M  V30 1381 H 131.324 1.66424 -3.33367 0
M  V30 1382 H 131.437 0.445034 -4.77029 0
M  V30 1383 H 129.801 0.332763 -2.52517 0
M  V30 1384 H 130.584 -1.18676 -3.22135 0
M  V30 1385 N 133.029 1.57378 -0.0835403 0
M  V30 1386 C 134.277 1.93547 0.581718 0
M  V30 1387 C 134.598 0.96524 1.69435 0
M  V30 1388 O 133.868 0.0153369 1.95894 0
M  V30 1389 H 132.448 0.714521 0.217874 0
M  V30 1390 H 135.11 1.94366 -0.144158 0
M  V30 1391 H 134.206 2.95665 0.999423 0
M  V30 1392 N 134.507 -0.190092 1.56449 0
M  V30 1393 C 135.417 -1.25591 1.98152 0
M  V30 1394 C 136.433 -1.49519 0.889944 0
M  V30 1395 O 137.609 -1.62036 1.19609 0
M  V30 1396 C 134.674 -2.57916 2.3169 0
M  V30 1397 C 133.735 -2.42015 3.5458 0
M  V30 1398 C 132.968 -3.6803 3.8651 0
M  V30 1399 O 133.191 -4.72413 3.1966 0
M  V30 1400 O 132.125 -3.6326 4.79923 0
M  V30 1401 H 135.951 -0.931988 2.89046 0
M  V30 1402 H 133.536 -0.395488 1.4407 0
M  V30 1403 H 135.418 -3.36008 2.54316 0
M  V30 1404 H 134.093 -2.89925 1.43963 0
M  V30 1405 H 133 -1.62017 3.37196 0
M  V30 1406 H 134.333 -2.14937 4.4279 0
M  V30 1407 N 135.985 -1.50799 -0.457987 0
M  V30 1408 C 136.915 -1.73553 -1.5621 0
M  V30 1409 C 137.896 -0.584774 -1.59732 0
M  V30 1410 O 139.081 -0.825314 -1.7579 0
M  V30 1411 C 136.211 -1.84169 -2.94447 0
M  V30 1412 C 135.165 -2.99461 -3.0579 0
M  V30 1413 C 134.491 -2.95235 -4.45803 0
M  V30 1414 C 135.791 -4.39766 -2.81786 0
M  V30 1415 H 137.485 -2.66 -1.37421 0
M  V30 1416 H 135.031 -1.28002 -0.659662 0
M  V30 1417 H 136.984 -1.98672 -3.71628 0
M  V30 1418 H 135.708 -0.883545 -3.14422 0
M  V30 1419 H 134.367 -2.8463 -2.31044 0
M  V30 1420 H 134.015 -1.97239 -4.62715 0
M  V30 1421 H 133.715 -3.72642 -4.54326 0
M  V30 1422 H 135.239 -3.11803 -5.24987 0
M  V30 1423 H 136.653 -4.55054 -3.4871 0
M  V30 1424 H 135.05 -5.18722 -3.0174 0
M  V30 1425 H 136.12 -4.51229 -1.7754 0
M  V30 1426 N 137.463 0.71206 -1.40597 0
M  V30 1427 C 138.688 1.50617 -1.42581 0
M  V30 1428 C 139.113 1.88079 -0.0282102 0
M  V30 1429 O 138.471 1.53511 0.964579 0
M  V30 1430 C 138.519 2.7557 -2.3258 0
M  V30 1431 O 137.623 3.72414 -1.77148 0
M  V30 1432 H 136.964 0.453966 -0.484573 0
M  V30 1433 H 139.494 0.876649 -1.84868 0
M  V30 1434 H 139.504 3.2406 -2.47889 0
M  V30 1435 H 138.179 2.47639 -3.34138 0
M  V30 1436 H 136.756 3.31276 -1.71204 0
M  V30 1437 N 138.941 1.26152 0.944643 0
M  V30 1438 C 139.851 1.09176 2.07648 0
M  V30 1439 C 140.867 0.0261935 1.7398 0
M  V30 1440 O 142.043 0.229208 2.00091 0
M  V30 1441 C 139.108 0.722915 3.39079 0
M  V30 1442 C 138.169 1.86752 3.86552 0
M  V30 1443 C 137.402 1.51617 5.11711 0
M  V30 1444 O 137.625 0.416331 5.68879 0
M  V30 1445 O 136.559 2.34975 5.54139 0
M  V30 1446 H 140.385 2.0412 2.24875 0
M  V30 1447 H 137.97 1.05182 1.061 0
M  V30 1448 H 139.852 0.529787 4.18056 0
M  V30 1449 H 138.527 -0.197159 3.23099 0
M  V30 1450 H 137.434 2.11558 3.08535 0
M  V30 1451 H 138.767 2.76719 4.07047 0
M  V30 1452 N 140.419 -1.14872 1.07899 0
M  V30 1453 C 141.835 -1.37776 0.805606 0
M  V30 1454 C 142.035 -1.92743 -0.587555 0
M  V30 1455 O 141.091 -2.13678 -1.34528 0
M  V30 1456 C 142.404 -2.34361 1.88402 0
M  V30 1457 C 143.952 -2.48012 1.90942 0
M  V30 1458 C 144.427 -3.47893 2.97883 0
M  V30 1459 N 145.918 -3.55433 2.97021 0
M  V30 1460 C 146.653 -4.32553 3.76412 0
M  V30 1461 N 146.149 -5.12959 4.65666 0
M  V30 1462 N 147.942 -4.27697 3.64735 0
M  V30 1463 H 140.093 -0.775365 1.97742 0
M  V30 1464 H 142.356 -0.403521 0.857831 0
M  V30 1465 H 142.062 -2.01098 2.88535 0
M  V30 1466 H 141.936 -3.34206 1.74889 0
M  V30 1467 H 144.323 -2.8057 0.914579 0
M  V30 1468 H 144.404 -1.48147 2.08534 0
M  V30 1469 H 144.048 -3.16069 3.97571 0
M  V30 1470 H 143.978 -4.47527 2.77538 0
M  V30 1471 H 146.469 -2.98048 2.32326 0
M  V30 1472 H 146.782 -5.69065 5.22862 0
M  V30 1473 H 145.127 -5.12245 4.69712 0
M  V30 1474 H 148.318 -3.63949 2.94378 0
M  V30 1475 H 148.491 -4.8755 4.26848 0
M  V30 1476 N 141.898 -0.863906 -1.31812 0
M  V30 1477 C 143.128 -0.485406 -2.00817 0
M  V30 1478 C 143.536 0.925007 -1.65046 0
M  V30 1479 O 142.879 1.61653 -0.872574 0
M  V30 1480 C 142.941 -0.555589 -3.55181 0
M  V30 1481 C 142.605 -1.92654 -4.14407 0
M  V30 1482 C 143.602 -2.89324 -4.31958 0
M  V30 1483 C 141.287 -2.2262 -4.50273 0
M  V30 1484 C 143.281 -4.14108 -4.84555 0
M  V30 1485 C 140.968 -3.47654 -5.02573 0
M  V30 1486 C 141.966 -4.43214 -5.19664 0
M  V30 1487 O 141.654 -5.66033 -5.70843 0
M  V30 1488 H 141.386 -0.188224 -0.649267 0
M  V30 1489 H 143.94 -1.16514 -1.69156 0
M  V30 1490 H 142.17 0.181037 -3.86276 0
M  V30 1491 H 143.859 -0.19138 -4.05449 0
M  V30 1492 H 144.625 -2.6748 -4.04573 0
M  V30 1493 H 140.504 -1.4902 -4.3625 0
M  V30 1494 H 144.048 -4.88703 -4.9781 0
M  V30 1495 H 139.945 -3.69345 -5.29391 0
M  V30 1496 H 140.713 -5.6812 -5.89222 0
M  V30 1497 N 143.376 1.44774 -0.622745 0
M  V30 1498 C 144.653 1.95522 -0.0551974 0
M  V30 1499 C 145.033 1.5649 1.41683 0
M  V30 1500 O 144.381 0.834848 2.12703 0
M  V30 1501 C 144.591 3.4796 -0.269242 0
M  V30 1502 C 145.939 4.24306 -0.158014 0
M  V30 1503 O 146.963 3.55637 -0.200162 0
M  V30 1504 O 145.822 5.46471 -0.0558693 0
M  V30 1505 H 142.916 0.826556 0.0271015 0
M  V30 1506 H 145.462 1.54866 -0.693864 0
M  V30 1507 H 144.234 3.6939 -1.29099 0
M  V30 1508 H 143.857 3.95543 0.403966 0
M  V30 1509 N 144.854 0.36279 1.53368 0
M  V30 1510 C 145.817 -0.472679 2.24273 0
M  V30 1511 C 146.817 -1.012 1.24961 0
M  V30 1512 O 148.007 -0.898194 1.49259 0
M  V30 1513 C 145.139 -1.66039 2.97731 0
M  V30 1514 H 146.332 0.14773 2.99536 0
M  V30 1515 H 143.885 0.114434 1.55881 0
M  V30 1516 H 144.62 -2.31896 2.26704 0
M  V30 1517 H 144.405 -1.28066 3.70596 0
M  V30 1518 H 145.895 -2.25252 3.51641 0
M  V30 1519 N 146.332 -1.57332 0.0918853 0
M  V30 1520 C 147.578 -1.94524 -0.573425 0
M  V30 1521 C 147.911 -0.973578 -1.68033 0
M  V30 1522 O 147.186 -0.00609226 -1.94499 0
M  V30 1523 C 147.469 -3.41858 -1.13161 0
M  V30 1524 C 147.322 -4.4979 -0.0299747 0
M  V30 1525 C 148.641 -3.90435 -2.03098 0
M  V30 1526 H 145.76 -0.70734 -0.206975 0
M  V30 1527 H 148.402 -1.89309 0.161942 0
M  V30 1528 H 146.552 -3.46433 -1.7583 0
M  V30 1529 H 148.224 -4.57327 0.604112 0
M  V30 1530 H 146.467 -4.291 0.636833 0
M  V30 1531 H 147.138 -5.50069 -0.461287 0
M  V30 1532 H 149.614 -3.87992 -1.50338 0
M  V30 1533 H 148.49 -4.94097 -2.39081 0
M  V30 1534 H 148.751 -3.29541 -2.94712 0
M  V30 1535 N 147.81 0.181792 -1.56548 0
M  V30 1536 C 149.059 0.898348 -1.8059 0
M  V30 1537 C 149.372 1.83862 -0.667379 0
M  V30 1538 O 150.578 2.59678 -0.792446 0
M  V30 1539 C 149.034 1.64791 -3.19956 0
M  V30 1540 C 148.642 0.751789 -4.41647 0
M  V30 1541 C 150.386 2.35331 -3.53298 0
M  V30 1542 C 148.293 1.50098 -5.72035 0
M  V30 1543 H 147.223 0.339194 -0.673397 0
M  V30 1544 H 149.874 0.151413 -1.82874 0
M  V30 1545 H 148.256 2.43921 -3.11959 0
M  V30 1546 H 149.43 -0.0018076 -4.608 0
M  V30 1547 H 147.745 0.156562 -4.16106 0
M  V30 1548 H 150.342 2.91958 -4.47956 0
M  V30 1549 H 150.685 3.10164 -2.77676 0
M  V30 1550 H 151.218 1.63154 -3.62803 0
M  V30 1551 H 147.957 0.795175 -6.50659 0
M  V30 1552 H 147.477 2.22817 -5.56878 0
M  V30 1553 H 149.156 2.05125 -6.13622 0
M  V30 1554 N 149.288 1.51039 0.449983 0
M  V30 1555 C 150.518 1.66627 1.22143 0
M  V30 1556 C 150.926 0.357776 1.85786 0
M  V30 1557 O 150.269 -0.672424 1.70951 0
M  V30 1558 C 150.331 2.71562 2.35573 0
M  V30 1559 C 149.995 4.14526 1.92399 0
M  V30 1560 C 150.992 4.99717 1.43453 0
M  V30 1561 C 148.677 4.60559 2.00475 0
M  V30 1562 C 150.671 6.28998 1.03155 0
M  V30 1563 C 148.358 5.8984 1.59788 0
M  V30 1564 C 149.356 6.73886 1.11208 0
M  V30 1565 O 149.044 8.0075 0.710935 0
M  V30 1566 H 148.776 0.562635 0.374724 0
M  V30 1567 H 151.33 1.98146 0.541036 0
M  V30 1568 H 149.56 2.3533 3.06849 0
M  V30 1569 H 151.249 2.76156 2.97478 0
M  V30 1570 H 152.015 4.65361 1.36618 0
M  V30 1571 H 147.894 3.95273 2.37235 0
M  V30 1572 H 151.438 6.9455 0.651663 0
M  V30 1573 H 147.335 6.23713 1.66289 0
M  V30 1574 H 148.103 8.142 0.837913 0
M  V30 1575 N 150.766 -0.704594 1.40972 0
M  V30 1576 C 151.729 -1.80035 1.41845 0
M  V30 1577 C 152.729 -1.57774 0.310474 0
M  V30 1578 O 153.919 -1.64613 0.56992 0
M  V30 1579 C 151.051 -3.18284 1.22098 0
M  V30 1580 H 152.244 -1.80658 2.3938 0
M  V30 1581 H 149.797 -0.911329 1.26982 0
M  V30 1582 H 150.532 -3.23306 0.253672 0
M  V30 1583 H 150.317 -3.35843 2.02366 0
M  V30 1584 H 151.807 -3.98289 1.25522 0
M  V30 1585 N 152.244 -1.26651 -0.937939 0
M  V30 1586 C 153.49 -1.12553 -1.687 0
M  V30 1587 C 153.823 0.329782 -1.91379 0
M  V30 1588 O 153.098 1.24202 -1.4968 0
M  V30 1589 C 153.381 -1.89862 -3.05981 0
M  V30 1590 C 153.234 -3.43318 -2.90607 0
M  V30 1591 C 154.553 -1.69499 -4.0615 0
M  V30 1592 H 151.672 -0.410257 -0.612257 0
M  V30 1593 H 154.314 -1.55685 -1.08913 0
M  V30 1594 H 152.464 -1.53204 -3.57017 0
M  V30 1595 H 154.136 -3.89747 -2.46769 0
M  V30 1596 H 152.379 -3.70179 -2.26164 0
M  V30 1597 H 153.05 -3.92642 -3.8799 0
M  V30 1598 H 155.526 -2.01442 -3.64088 0
M  V30 1599 H 154.402 -2.26002 -5.00214 0
M  V30 1600 H 154.663 -0.640365 -4.37438 0
M  V30 1601 N 153.722 1.14298 -1.08507 0
M  V30 1602 C 154.97 1.84993 -0.813763 0
M  V30 1603 C 155.291 1.83405 0.662393 0
M  V30 1604 O 154.561 1.28319 1.48024 0
M  V30 1605 H 153.141 0.684966 -0.298045 0
M  V30 1606 H 155.803 1.385 -1.37126 0
M  V30 1607 H 154.899 2.89788 -1.15884 0
M  V30 1608 N 155.201 0.870884 1.31352 0
M  V30 1609 C 156.164 0.332243 2.26779 0
M  V30 1610 C 157.164 -0.517302 1.52252 0
M  V30 1611 O 158.354 -0.326477 1.71113 0
M  V30 1612 C 155.486 -0.528066 3.36785 0
M  V30 1613 H 156.679 1.17469 2.75937 0
M  V30 1614 H 154.232 0.64655 1.423 0
M  V30 1615 H 154.967 -1.39167 2.92922 0
M  V30 1616 H 154.752 0.0802582 3.92018 0
M  V30 1617 H 156.242 -0.897179 4.07849 0
M  V30 1618 N 156.679 -1.44442 0.630414 0
M  V30 1619 C 157.611 -2.2892 -0.113347 0
M  V30 1620 C 158.624 -1.41243 -0.80959 0
M  V30 1621 O 159.813 -1.65402 -0.671156 0
M  V30 1622 C 156.913 -3.17594 -1.18266 0
M  V30 1623 C 156.086 -4.33682 -0.569073 0
M  V30 1624 C 155.145 -5.03397 -1.53226 0
M  V30 1625 O 154.171 -5.59438 -1.04967 0
M  V30 1626 N 155.373 -5.04783 -2.86661 0
M  V30 1627 H 158.138 -2.93392 0.611636 0
M  V30 1628 H 155.699 -1.54881 0.471523 0
M  V30 1629 H 157.691 -3.61097 -1.82732 0
M  V30 1630 H 156.261 -2.54876 -1.80988 0
M  V30 1631 H 155.481 -3.9338 0.254187 0
M  V30 1632 H 156.769 -5.08608 -0.139767 0
M  V30 1633 H 156.167 -4.60584 -3.28449 0
M  V30 1634 H 154.724 -5.52077 -3.46489 0
M  V30 1635 N 158.157 -0.370918 -1.53173 0
M  V30 1636 C 159.382 0.220293 -2.06227 0
M  V30 1637 C 159.807 1.41243 -1.24225 0
M  V30 1638 O 159.165 1.79387 -0.262645 0
M  V30 1639 C 159.213 0.586663 -3.55796 0
M  V30 1640 O 158.317 1.68317 -3.76488 0
M  V30 1641 H 157.658 0.0308099 -0.663285 0
M  V30 1642 H 160.188 -0.533068 -1.97534 0
M  V30 1643 H 160.198 0.85617 -3.98916 0
M  V30 1644 H 158.873 -0.285013 -4.14922 0
M  V30 1645 H 157.45 1.40881 -3.45264 0
M  V30 1646 N 159.635 1.57281 -0.100228 0
M  V30 1647 C 160.912 1.86014 0.604812 0
M  V30 1648 C 161.292 0.998025 1.86018 0
M  V30 1649 O 160.64 0.0718184 2.28387 0
M  V30 1650 C 160.85 3.36784 0.915278 0
M  V30 1651 C 162.198 4.04957 1.27651 0
M  V30 1652 O 163.222 3.41695 1.00613 0
M  V30 1653 O 162.081 5.16593 1.7831 0
M  V30 1654 H 159.175 0.76942 0.303185 0
M  V30 1655 H 161.721 1.69176 -0.133313 0
M  V30 1656 H 160.493 3.91292 0.0248896 0
M  V30 1657 H 160.116 3.58987 1.70921 0
M  V30 1658 N 161.113 -0.173488 1.56642 0
M  V30 1659 C 162.529 -0.525174 1.50712 0
M  V30 1660 C 162.729 -1.8476 0.804107 0
M  V30 1661 O 161.785 -2.49869 0.363574 0
M  V30 1662 C 163.098 -0.559937 2.95441 0
M  V30 1663 C 164.646 -0.647288 3.06234 0
M  V30 1664 C 165.121 -0.712963 4.52417 0
M  V30 1665 N 166.612 -0.775911 4.56655 0
M  V30 1666 C 167.347 -0.847264 5.67106 0
M  V30 1667 N 166.843 -0.879585 6.87194 0
M  V30 1668 N 168.636 -0.886117 5.55071 0
M  V30 1669 H 160.787 0.693681 2.00753 0
M  V30 1670 H 163.05 0.249841 0.914485 0
M  V30 1671 H 162.756 0.343049 3.50023 0
M  V30 1672 H 162.63 -1.40718 3.49969 0
M  V30 1673 H 165.017 -1.5407 2.51687 0
M  V30 1674 H 165.098 0.226586 2.54794 0
M  V30 1675 H 164.742 0.176183 5.07594 0
M  V30 1676 H 164.672 -1.60295 5.0161 0
M  V30 1677 H 167.163 -0.759304 3.70193 0
M  V30 1678 H 167.476 -0.935144 7.67121 0
M  V30 1679 H 165.821 -0.847898 6.89808 0
M  V30 1680 H 169.012 -0.857853 4.60172 0
M  V30 1681 H 169.185 -0.938263 6.41171 0
M  V30 1682 N 162.591 -1.51276 -0.441967 0
M  V30 1683 C 163.524 -1.66933 -1.55591 0
M  V30 1684 C 164.502 -0.516958 -1.54163 0
M  V30 1685 O 165.686 -0.740209 -1.73358 0
M  V30 1686 C 162.813 -1.67866 -2.94174 0
M  V30 1687 C 161.859 -2.89013 -3.13646 0
M  V30 1688 S 162.692 -4.49897 -2.90436 0
M  V30 1689 C 163.848 -4.53568 -4.31308 0
M  V30 1690 H 164.081 -2.61155 -1.42076 0
M  V30 1691 H 161.614 -1.40902 -0.631341 0
M  V30 1692 H 163.572 -1.69089 -3.74058 0
M  V30 1693 H 162.233 -0.748296 -3.05056 0
M  V30 1694 H 161.426 -2.86054 -4.14957 0
M  V30 1695 H 161.028 -2.85509 -2.4158 0
M  V30 1696 H 163.32 -4.28924 -5.24434 0
M  V30 1697 H 164.263 -5.55355 -4.39303 0
M  V30 1698 H 164.671 -3.82943 -4.14747 0
M  V30 1699 N 164.069 0.697108 -1.41344 0
M  V30 1700 C 164.999 1.82353 -1.45841 0
M  V30 1701 C 165.98 1.67115 -0.317247 0
M  V30 1702 O 167.165 1.86871 -0.528474 0
M  V30 1703 C 164.295 3.20476 -1.33838 0
M  V30 1704 C 163.249 3.50415 -2.4575 0
M  V30 1705 C 162.575 4.87878 -2.18813 0
M  V30 1706 C 163.875 3.49546 -3.88091 0
M  V30 1707 H 165.569 1.78846 -2.40113 0
M  V30 1708 H 163.115 0.859028 -1.15571 0
M  V30 1709 H 165.068 3.98988 -1.35596 0
M  V30 1710 H 163.792 3.24604 -0.360498 0
M  V30 1711 H 162.451 2.74253 -2.43271 0
M  V30 1712 H 162.099 4.8863 -1.19371 0
M  V30 1713 H 161.799 5.08875 -2.93803 0
M  V30 1714 H 163.323 5.68702 -2.22284 0
M  V30 1715 H 164.737 4.18066 -3.92293 0
M  V30 1716 H 163.134 3.82075 -4.62751 0
M  V30 1717 H 164.204 2.48552 -4.16353 0
M  V30 1718 N 165.547 1.27147 0.931209 0
M  V30 1719 C 166.495 1.09398 2.05268 0
M  V30 1720 C 167.489 0.0180591 1.6939 0
M  V30 1721 O 168.695 0.17551 1.79142 0
M  V30 1722 H 165.07 0.336986 0.672268 0
M  V30 1723 H 167.041 2.04416 2.17386 0
M  V30 1724 C 165.79 0.75424 3.39421 0
M  V30 1725 H 165.113 1.57404 3.67511 0
M  V30 1726 H 166.553 0.669903 4.18674 0
M  V30 1727 C 165.012 -0.541197 3.32525 0
M  V30 1728 O 165.542 -1.57664 3.69466 0
M  V30 1729 N 163.748 -0.535517 2.85623 0
M  V30 1730 H 163.295 0.307511 2.55758 0
M  V30 1731 H 163.253 -1.40236 2.81392 0
M  V30 1732 N 167.025 -1.13721 1.09112 0
M  V30 1733 C 168.274 -1.84275 0.82009 0
M  V30 1734 C 168.587 -1.84253 -0.656509 0
M  V30 1735 O 169.793 -2.50668 -1.04296 0
M  V30 1736 C 168.249 -3.30825 1.41714 0
M  V30 1737 C 167.857 -3.39244 2.92605 0
M  V30 1738 C 169.601 -4.06443 1.22492 0
M  V30 1739 C 167.508 -4.80047 3.45411 0
M  V30 1740 H 166.438 -0.690387 0.30312 0
M  V30 1741 H 169.089 -1.28146 1.31343 0
M  V30 1742 H 167.471 -3.86737 0.851498 0
M  V30 1743 H 168.645 -2.93344 3.55367 0
M  V30 1744 H 166.96 -2.77088 3.10823 0
M  V30 1745 H 169.557 -5.10387 1.59402 0
M  V30 1746 H 169.9 -4.15972 0.165299 0
M  V30 1747 H 170.433 -3.56852 1.75788 0
M  V30 1748 H 167.172 -4.75709 4.50978 0
M  V30 1749 H 166.692 -5.26455 2.87411 0
M  V30 1750 H 168.371 -5.48957 3.42425 0
M  V30 1751 N 168.503 -0.877838 -1.30888 0
M  V30 1752 C 169.914 -0.544193 -1.78593 0
M  V30 1753 C 170.265 0.939301 -1.72254 0
M  V30 1754 O 169.39 1.7337 -1.29505 0
M  V30 1755 C 169.985 -0.98105 -3.24285 0
M  V30 1756 C 168.544 -0.698935 -3.69854 0
M  V30 1757 C 167.691 -1.168 -2.51502 0
M  V30 1758 H 170.642 -1.06278 -1.17859 0
M  V30 1759 H 170.663 -0.307009 -3.79259 0
M  V30 1760 H 170.175 -2.06079 -3.28866 0
M  V30 1761 H 168.276 0.369112 -3.70767 0
M  V30 1762 H 168.389 -1.28148 -4.61644 0
M  V30 1763 H 166.753 -0.587535 -2.47831 0
M  V30 1764 H 167.536 -2.25533 -2.58824 0
M  V30 1765 N 169.982 1.44106 -0.638065 0
M  V30 1766 C 171.23 2.01579 -0.145043 0
M  V30 1767 C 171.551 1.50496 1.24 0
M  V30 1768 O 170.821 0.711374 1.82527 0
M  V30 1769 H 169.401 0.745282 -0.05063 0
M  V30 1770 H 172.063 1.76516 -0.826327 0
M  V30 1771 H 171.159 3.11877 -0.118039 0
M  V30 1772 N 171.46 0.379036 1.52974 0
M  V30 1773 C 172.37 -0.468639 2.29872 0
M  V30 1774 C 173.386 -1.08067 1.36373 0
M  V30 1775 O 174.562 -1.08871 1.69438 0
M  V30 1776 C 171.627 -1.58594 3.083 0
M  V30 1777 C 170.688 -1.00007 4.17489 0
M  V30 1778 C 169.921 -2.06413 4.92168 0
M  V30 1779 O 170.144 -3.27751 4.66835 0
M  V30 1780 O 169.078 -1.68717 5.7777 0
M  V30 1781 H 172.904 0.157508 3.03291 0
M  V30 1782 H 170.489 0.143035 1.48714 0
M  V30 1783 H 172.371 -2.23525 3.57232 0
M  V30 1784 H 171.046 -2.19724 2.37703 0
M  V30 1785 H 169.953 -0.314299 3.72777 0
M  V30 1786 H 171.286 -0.433135 4.90291 0
M  V30 1787 N 172.938 -1.57226 0.108567 0
M  V30 1788 C 174.215 -1.86333 -0.594939 0
M  V30 1789 C 174.595 -1.00788 -1.85486 0
M  V30 1790 O 173.943 -0.0839293 -2.28346 0
M  V30 1791 C 174.153 -3.37265 -0.897405 0
M  V30 1792 C 175.501 -4.05629 -1.25501 0
M  V30 1793 O 176.525 -3.42224 -0.987998 0
M  V30 1794 O 175.384 -5.17531 -1.75567 0
M  V30 1795 H 172.478 -0.771018 -0.2991 0
M  V30 1796 H 175.024 -1.69102 0.142283 0
M  V30 1797 H 173.796 -3.913 -0.00413806 0
M  V30 1798 H 173.419 -3.59889 -1.69014 0
M  V30 1799 N 174.416 0.165178 -1.56732 0
M  V30 1800 C 175.346 1.20651 -1.99914 0
M  V30 1801 C 176.327 1.45827 -0.875705 0
M  V30 1802 O 177.512 1.57057 -1.14223 0
M  V30 1803 C 174.642 2.54401 -2.36427 0
M  V30 1804 C 173.596 2.43782 -3.51787 0
M  V30 1805 C 172.922 3.82078 -3.7406 0
M  V30 1806 C 174.222 1.93732 -4.85041 0
M  V30 1807 H 175.916 0.847534 -2.87154 0
M  V30 1808 H 173.462 0.40625 -1.38151 0
M  V30 1809 H 175.415 3.27458 -2.65234 0
M  V30 1810 H 174.139 2.92098 -1.46103 0
M  V30 1811 H 172.798 1.73178 -3.23117 0
M  V30 1812 H 172.446 4.17179 -2.81017 0
M  V30 1813 H 172.146 3.7584 -4.51684 0
M  V30 1814 H 173.67 4.56712 -4.05274 0
M  V30 1815 H 175.084 2.56569 -5.12684 0
M  V30 1816 H 173.481 1.98428 -5.66345 0
M  V30 1817 H 174.551 0.891962 -4.76626 0
M  V30 1818 N 175.894 1.51508 0.433938 0
M  V30 1819 C 177.305 1.56784 1.01369 0
M  V30 1820 C 177.656 0.393349 1.92217 0
M  V30 1821 O 176.781 -0.489441 2.10792 0
M  V30 1822 C 177.376 2.84144 1.8452 0
M  V30 1823 C 175.935 2.9198 2.37539 0
M  V30 1824 C 175.082 2.51482 1.16843 0
M  V30 1825 H 178.033 1.57236 0.215081 0
M  V30 1826 H 178.054 2.68098 2.70007 0
M  V30 1827 H 177.566 3.69607 1.18373 0
M  V30 1828 H 175.667 2.10955 3.0713 0
M  V30 1829 H 175.78 3.95704 2.70103 0
M  V30 1830 H 174.144 2.04758 1.51481 0
M  V30 1831 H 174.927 3.39293 0.523015 0
M  V30 1832 N 177.372 -0.689602 1.41712 0
M  V30 1833 C 178.62 -1.4468 1.4111 0
M  V30 1834 C 178.941 -1.94986 0.0232196 0
M  V30 1835 O 178.211 -1.72097 -0.935913 0
M  V30 1836 H 176.791 -0.536847 0.519427 0
M  V30 1837 H 179.453 -0.815825 1.77004 0
M  V30 1838 H 178.549 -2.30706 2.10193 0
M  V30 1839 N 178.85 -1.27639 -0.924453 0
M  V30 1840 C 180.075 -1.17101 -1.71179 0
M  V30 1841 C 180.5 0.268134 -1.86179 0
M  V30 1842 O 179.858 1.19415 -1.36418 0
M  V30 1843 C 179.906 -1.86313 -3.08739 0
M  V30 1844 O 179.01 -1.16331 -3.95652 0
M  V30 1845 H 178.351 -0.407091 -0.524569 0
M  V30 1846 H 180.881 -1.68767 -1.15666 0
M  V30 1847 H 180.891 -1.938 -3.59034 0
M  V30 1848 H 179.566 -2.91001 -2.97138 0
M  V30 1849 H 178.143 -1.16935 -3.54091 0
M  V30 1850 N 180.328 1.1314 -1.09713 0
M  V30 1851 C 181.577 1.83838 -0.829851 0
M  V30 1852 C 181.89 1.84599 0.646728 0
M  V30 1853 O 183.096 2.51218 1.02965 0
M  V30 1854 C 181.552 3.30069 -1.43466 0
M  V30 1855 C 181.16 3.37688 -2.94399 0
M  V30 1856 C 182.904 4.05788 -1.24645 0
M  V30 1857 C 180.811 4.78209 -3.47952 0
M  V30 1858 H 179.741 0.68877 -0.306777 0
M  V30 1859 H 182.392 1.27448 -1.3202 0
M  V30 1860 H 180.774 3.8628 -0.871996 0
M  V30 1861 H 181.948 2.91456 -3.56918 0
M  V30 1862 H 180.263 2.75436 -3.12289 0
M  V30 1863 H 182.86 5.09535 -1.62107 0
M  V30 1864 H 183.203 4.15878 -0.187357 0
M  V30 1865 H 183.736 3.55915 -1.77678 0
M  V30 1866 H 180.475 4.73311 -4.53495 0
M  V30 1867 H 179.995 5.24924 -2.90198 0
M  V30 1868 H 181.674 5.47133 -3.45332 0
M  V30 1869 N 181.806 0.884767 1.30421 0
M  V30 1870 C 182.769 0.356277 2.26414 0
M  V30 1871 C 183.769 -0.501124 1.52792 0
M  V30 1872 O 184.959 -0.30831 1.7145 0
M  V30 1873 C 182.091 -0.492316 3.37326 0
M  V30 1874 H 183.284 1.20389 2.74675 0
M  V30 1875 H 180.837 0.661607 1.41607 0
M  V30 1876 H 181.572 -1.36052 2.94381 0
M  V30 1877 H 181.357 0.121832 3.91911 0
M  V30 1878 H 182.847 -0.853871 4.08777 0
M  V30 1879 N 183.284 -1.43765 0.645699 0
M  V30 1880 C 184.247 -2.29163 -0.0409488 0
M  V30 1881 C 185.247 -1.41813 -0.757996 0
M  V30 1882 O 186.437 -1.63527 -0.600382 0
M  V30 1883 C 183.569 -3.23716 -1.06869 0
M  V30 1884 H 184.762 -2.91366 0.710345 0
M  V30 1885 H 182.315 -1.5092 0.406547 0
M  V30 1886 H 183.05 -2.66393 -1.84947 0
M  V30 1887 H 182.835 -3.88105 -0.558277 0
M  V30 1888 H 184.325 -3.87831 -1.54845 0
M  V30 1889 N 184.763 -0.387143 -1.52771 0
M  V30 1890 C 186.009 0.196025 -2.0185 0
M  V30 1891 C 186.342 1.46641 -1.27319 0
M  V30 1892 O 185.617 1.90889 -0.373032 0
M  V30 1893 C 185.9 0.466136 -3.5707 0
M  V30 1894 C 185.753 -0.819385 -4.42274 0
M  V30 1895 C 187.072 1.25768 -4.21747 0
M  V30 1896 H 184.191 0.0697708 -0.73369 0
M  V30 1897 H 186.833 -0.516286 -1.82851 0
M  V30 1898 H 184.983 1.07293 -3.7339 0
M  V30 1899 H 186.655 -1.4563 -4.37709 0
M  V30 1900 H 184.898 -1.43517 -4.09372 0
M  V30 1901 H 185.569 -0.585065 -5.48891 0
M  V30 1902 H 188.045 0.744167 -4.09391 0
M  V30 1903 H 186.921 1.41541 -5.30337 0
M  V30 1904 H 187.182 2.27228 -3.79236 0
M  V30 1905 N 186.241 1.57166 -0.116904 0
M  V30 1906 C 187.518 1.86645 0.585049 0
M  V30 1907 C 187.898 1.0177 1.84949 0
M  V30 1908 O 187.246 0.0960379 2.28298 0
M  V30 1909 C 187.456 3.37736 0.879507 0
M  V30 1910 C 188.804 4.06289 1.23348 0
M  V30 1911 O 189.828 3.42743 0.969836 0
M  V30 1912 O 188.687 5.18455 1.7282 0
M  V30 1913 H 185.781 0.772593 0.295007 0
M  V30 1914 H 188.327 1.69025 -0.151249 0
M  V30 1915 H 187.099 3.91296 -0.0166136 0
M  V30 1916 H 186.722 3.6078 1.67103 0
M  V30 1917 N 187.719 -0.156864 1.56817 0
M  V30 1918 C 188.966 -0.871125 1.82805 0
M  V30 1919 C 189.294 -1.81611 0.696262 0
M  V30 1920 O 188.549 -1.93141 -0.315459 0
M  V30 1921 C 188.848 -1.68737 3.1506 0
M  V30 1922 C 188.514 -0.890045 4.42028 0
M  V30 1923 C 187.176 -0.670042 4.76512 0
M  V30 1924 C 189.528 -0.331769 5.20143 0
M  V30 1925 C 186.856 0.119104 5.86579 0
M  V30 1926 C 189.208 0.444365 6.31037 0
M  V30 1927 C 187.872 0.675035 6.64078 0
M  V30 1928 H 187.142 -0.318767 0.668931 0
M  V30 1929 H 189.789 -0.135274 1.91022 0
M  V30 1930 H 188.094 -2.49304 3.0225 0
M  V30 1931 H 189.791 -2.24331 3.3238 0
M  V30 1932 H 186.381 -1.07157 4.14988 0
M  V30 1933 H 190.565 -0.489043 4.93885 0
M  V30 1934 H 185.821 0.307417 6.10627 0
M  V30 1935 H 189.995 0.884139 6.90765 0
M  V30 1936 H 187.622 1.28839 7.49203 0
M  V30 1937 N 189.197 -1.51736 -0.425897 0
M  V30 1938 C 190.443 -1.65214 -1.1761 0
M  V30 1939 C 190.776 -0.372778 -1.90589 0
M  V30 1940 O 190.051 0.628139 -1.84078 0
M  V30 1941 C 190.334 -2.86312 -2.18398 0
M  V30 1942 C 190.187 -4.24254 -1.49426 0
M  V30 1943 C 191.506 -3.02925 -3.19256 0
M  V30 1944 H 188.625 -0.601263 -0.426206 0
M  V30 1945 H 191.267 -1.8425 -0.463882 0
M  V30 1946 H 189.417 -2.70213 -2.79137 0
M  V30 1947 H 191.089 -4.52046 -0.919362 0
M  V30 1948 H 189.332 -4.26426 -0.796432 0
M  V30 1949 H 190.003 -5.05001 -2.22885 0
M  V30 1950 H 192.479 -3.1781 -2.68581 0
M  V30 1951 H 191.355 -3.89199 -3.8706 0
M  V30 1952 H 191.616 -2.15497 -3.86023 0
M  V30 1953 N 190.675 0.682077 -1.42076 0
M  V30 1954 C 191.923 1.4393 -1.41876 0
M  V30 1955 C 192.244 1.94971 -0.0335599 0
M  V30 1956 O 191.514 1.72591 0.926773 0
M  V30 1957 H 190.094 0.534085 -0.522267 0
M  V30 1958 H 192.756 0.806427 -1.77434 0
M  V30 1959 H 191.852 2.29588 -2.11414 0
M  V30 1960 N 192.153 1.28127 0.917671 0
M  V30 1961 C 193.399 1.16232 1.66918 0
M  V30 1962 C 193.754 -0.28701 1.90247 0
M  V30 1963 O 193.047 -1.20586 1.48895 0
M  V30 1964 C 193.241 1.89018 3.03327 0
M  V30 1965 C 193.07 3.4088 2.9331 0
M  V30 1966 C 191.84 4.10214 2.95047 0
M  V30 1967 C 194.038 4.36689 2.71675 0
M  V30 1968 N 192.02 5.48571 2.75577 0
M  V30 1969 C 193.391 5.62382 2.6101 0
M  V30 1970 C 195.446 4.26661 2.56641 0
M  V30 1971 C 194.149 6.79189 2.36843 0
M  V30 1972 C 196.175 5.432 2.33853 0
M  V30 1973 C 195.537 6.67855 2.23939 0
M  V30 1974 H 191.636 0.48024 0.617166 0
M  V30 1975 H 194.22 1.61727 1.08409 0
M  V30 1976 H 192.391 1.45963 3.59929 0
M  V30 1977 H 194.123 1.69541 3.67475 0
M  V30 1978 H 190.878 3.61762 3.05655 0
M  V30 1979 H 191.302 6.21287 2.68945 0
M  V30 1980 H 195.944 3.30998 2.63059 0
M  V30 1981 H 193.662 7.74926 2.29164 0
M  V30 1982 H 197.248 5.37328 2.23091 0
M  V30 1983 H 196.128 7.56511 2.06546 0
M  V30 1984 N 193.631 -1.12557 1.10312 0
M  V30 1985 C 194.861 -1.87592 0.865617 0
M  V30 1986 C 195.269 -1.79851 -0.587389 0
M  V30 1987 O 194.612 -1.16949 -1.41664 0
M  V30 1988 C 194.674 -3.37665 1.23381 0
M  V30 1989 C 194.338 -3.69181 2.69359 0
M  V30 1990 C 195.335 -3.67652 3.67597 0
M  V30 1991 C 193.02 -3.98555 3.05711 0
M  V30 1992 C 195.014 -3.95053 5.00212 0
M  V30 1993 C 192.701 -4.25616 4.38514 0
M  V30 1994 C 193.699 -4.23851 5.35574 0
M  V30 1995 O 193.387 -4.50242 6.65986 0
M  V30 1996 H 193.119 -0.600442 0.310557 0
M  V30 1997 H 195.673 -1.4335 1.47105 0
M  V30 1998 H 193.903 -3.82454 0.571467 0
M  V30 1999 H 195.592 -3.94041 0.973994 0
M  V30 2000 H 196.358 -3.45024 3.40857 0
M  V30 2001 H 192.237 -3.99071 2.30789 0
M  V30 2002 H 195.781 -3.93591 5.75962 0
M  V30 2003 H 191.678 -4.47718 4.64994 0
M  V30 2004 H 192.446 -4.67867 6.71597 0
M  V30 2005 N 195.109 -0.891671 -1.2995 0
M  V30 2006 C 196.057 -0.353066 -2.29905 0
M  V30 2007 C 197.051 0.543509 -1.60444 0
M  V30 2008 O 198.257 0.4272 -1.74857 0
M  V30 2009 H 194.632 -0.095531 -0.745907 0
M  V30 2010 H 196.603 -1.20961 -2.72784 0
M  V30 2011 C 195.352 0.411475 -3.45257 0
M  V30 2012 H 194.675 -0.269182 -3.98893 0
M  V30 2013 H 196.115 0.753328 -4.17254 0
M  V30 2014 C 194.574 1.6111 -2.9588 0
M  V30 2015 O 195.104 2.71045 -2.96475 0
M  V30 2016 N 193.31 1.45054 -2.51809 0
M  V30 2017 H 192.857 0.556175 -2.51524 0
M  V30 2018 H 192.815 2.25453 -2.1913 0
M  V30 2019 N 196.587 1.43421 -0.653314 0
M  V30 2020 C 197.55 2.29182 0.0287951 0
M  V30 2021 C 198.55 1.42213 0.750465 0
M  V30 2022 O 199.74 1.63843 0.591701 0
M  V30 2023 C 196.872 3.24278 1.05151 0
M  V30 2024 H 198.065 2.90985 -0.725786 0
M  V30 2025 H 195.618 1.50702 -0.414545 0
M  V30 2026 H 196.353 2.6737 1.83532 0
M  V30 2027 H 196.138 3.88396 0.537687 0
M  V30 2028 H 197.628 3.88647 1.52786 0
M  V30 2029 N 198.065 0.39524 1.52563 0
M  V30 2030 C 199.015 -0.4541 2.23432 0
M  V30 2031 C 199.999 -1.02482 1.24042 0
M  V30 2032 O 201.191 -0.949938 1.49349 0
M  V30 2033 C 198.32 -1.57769 3.049 0
M  V30 2034 C 197.406 -1.01842 4.1169 0
M  V30 2035 N 197.797 -0.184613 5.05463 0
M  V30 2036 C 196.095 -1.29033 4.26927 0
M  V30 2037 C 196.796 0.125013 5.81566 0
M  V30 2038 N 195.772 -0.480498 5.41472 0
M  V30 2039 H 199.574 0.189413 2.93289 0
M  V30 2040 H 197.088 0.204877 1.61102 0
M  V30 2041 H 199.085 -2.19862 3.54212 0
M  V30 2042 H 197.745 -2.22397 2.36579 0
M  V30 2043 H 198.756 0.178602 5.17592 0
M  V30 2044 H 195.433 -1.93721 3.69836 0
M  V30 2045 H 196.823 0.800962 6.67109 0
M  V30 2046 N 199.544 -1.57102 0.125237 0
M  V30 2047 C 200.955 -1.82384 -0.399142 0
M  V30 2048 C 201.306 -1.04276 -1.66195 0
M  V30 2049 O 200.431 -0.281269 -2.14564 0
M  V30 2050 C 201.026 -3.30821 -0.730932 0
M  V30 2051 C 199.585 -3.56762 -1.19992 0
M  V30 2052 C 198.732 -2.7649 -0.211792 0
M  V30 2053 H 201.683 -1.54786 0.350277 0
M  V30 2054 H 201.704 -3.4579 -1.58775 0
M  V30 2055 H 201.216 -3.87643 0.188345 0
M  V30 2056 H 199.317 -3.05305 -2.13588 0
M  V30 2057 H 199.43 -4.65317 -1.14093 0
M  V30 2058 H 197.794 -2.4489 -0.700085 0
M  V30 2059 H 198.577 -3.36073 0.700691 0
M  V30 2060 N 201.022 0.148545 -1.56898 0
M  V30 2061 C 201.972 1.1886 -1.94567 0
M  V30 2062 C 202.956 1.3863 -0.816735 0
M  V30 2063 O 204.148 1.40218 -1.08018 0
M  V30 2064 C 201.277 2.52262 -2.32849 0
M  V30 2065 C 200.363 2.36092 -3.52309 0
M  V30 2066 N 200.754 1.89674 -4.6889 0
M  V30 2067 C 199.052 2.66848 -3.57363 0
M  V30 2068 C 199.753 1.86511 -5.50989 0
M  V30 2069 N 198.729 2.29766 -4.92655 0
M  V30 2070 H 202.531 0.821793 -2.82177 0
M  V30 2071 H 200.045 0.356615 -1.58436 0
M  V30 2072 H 202.042 3.27447 -2.58039 0
M  V30 2073 H 200.702 2.89727 -1.46589 0
M  V30 2074 H 201.713 1.59663 -4.92674 0
M  V30 2075 H 198.39 3.08198 -2.81639 0
M  V30 2076 H 199.78 1.52128 -6.54452 0
M  V30 2077 N 202.5 1.5196 0.417844 0
M  V30 2078 C 203.747 1.65591 1.16559 0
M  V30 2079 C 204.075 0.381565 1.90721 0
M  V30 2080 O 203.33 -0.635156 1.85106 0
M  V30 2081 C 203.629 2.82269 2.19223 0
M  V30 2082 C 203.295 4.20819 1.61933 0
M  V30 2083 C 201.957 4.58506 1.46033 0
M  V30 2084 C 204.309 5.07196 1.20008 0
M  V30 2085 C 201.637 5.80257 0.867113 0
M  V30 2086 C 203.989 6.29544 0.621086 0
M  V30 2087 C 202.653 6.65987 0.449144 0
M  V30 2088 H 201.923 0.605939 0.42652 0
M  V30 2089 H 204.57 1.86041 0.45397 0
M  V30 2090 H 202.875 2.56118 2.96498 0
M  V30 2091 H 204.572 2.90012 2.76936 0
M  V30 2092 H 201.162 3.91116 1.7529 0
M  V30 2093 H 205.346 4.7867 1.31105 0
M  V30 2094 H 200.602 6.07124 0.721833 0
M  V30 2095 H 204.776 6.95805 0.287798 0
M  V30 2096 H 202.403 7.60199 -0.012632 0
M  V30 2097 N 203.978 -0.674533 1.42435 0
M  V30 2098 C 204.888 -1.81751 1.48337 0
M  V30 2099 C 205.904 -1.69975 0.372099 0
M  V30 2100 O 207.08 -1.91521 0.62304 0
M  V30 2101 C 204.145 -3.17895 1.38361 0
M  V30 2102 C 203.206 -3.41625 2.59982 0
M  V30 2103 C 202.439 -4.71274 2.50473 0
M  V30 2104 O 202.662 -5.49197 1.54075 0
M  V30 2105 O 201.596 -4.96254 3.4061 0
M  V30 2106 H 205.422 -1.79728 2.44809 0
M  V30 2107 H 203.007 -0.830312 1.24202 0
M  V30 2108 H 204.889 -3.99136 1.35161 0
M  V30 2109 H 203.564 -3.20555 0.450144 0
M  V30 2110 H 202.471 -2.60231 2.68757 0
M  V30 2111 H 203.804 -3.43796 3.52229 0
M  V30 2112 N 205.456 -1.28612 -0.910864 0
M  V30 2113 C 206.388 -1.08589 -2.01844 0
M  V30 2114 C 207.401 -0.0367419 -1.62759 0
M  V30 2115 O 208.59 -0.280101 -1.76289 0
M  V30 2116 C 205.69 -0.628626 -3.33019 0
M  V30 2117 C 204.863 -1.75382 -4.00699 0
M  V30 2118 C 203.922 -1.28945 -5.10156 0
M  V30 2119 O 202.948 -1.9922 -5.33198 0
M  V30 2120 N 204.15 -0.154224 -5.80295 0
M  V30 2121 H 206.915 -2.03973 -2.19579 0
M  V30 2122 H 204.476 -1.20403 -1.08234 0
M  V30 2123 H 206.468 -0.301508 -4.03575 0
M  V30 2124 H 205.038 0.232451 -3.11735 0
M  V30 2125 H 204.258 -2.25039 -3.23653 0
M  V30 2126 H 205.546 -2.50854 -4.42662 0
M  V30 2127 H 204.944 0.43194 -5.64049 0
M  V30 2128 H 203.501 0.113599 -6.51701 0
M  V30 2129 N 206.934 1.1197 -1.10907 0
M  V30 2130 C 208.18 1.8386 -0.855773 0
M  V30 2131 C 208.513 1.84134 0.617103 0
M  V30 2132 O 207.788 1.29041 1.45529 0
M  V30 2133 C 208.071 3.31305 -1.411 0
M  V30 2134 C 207.924 3.39456 -2.9511 0
M  V30 2135 C 209.243 4.2721 -1.05736 0
M  V30 2136 H 206.362 0.667545 -0.312334 0
M  V30 2137 H 209.004 1.31331 -1.37303 0
M  V30 2138 H 207.154 3.76169 -0.97105 0
M  V30 2139 H 208.826 3.03191 -3.47668 0
M  V30 2140 H 207.069 2.79849 -3.31462 0
M  V30 2141 H 207.74 4.43209 -3.29044 0
M  V30 2142 H 210.216 3.90497 -1.43706 0
M  V30 2143 H 209.092 5.28775 -1.47269 0
M  V30 2144 H 209.353 4.42088 0.0325958 0
M  V30 2145 N 208.412 0.89855 1.29475 0
M  V30 2146 C 209.637 0.538561 2.00285 0
M  V30 2147 C 210.062 -0.869135 1.66816 0
M  V30 2148 O 209.42 -1.57831 0.892145 0
M  V30 2149 C 209.468 0.736475 3.52999 0
M  V30 2150 O 208.572 -0.211537 4.11857 0
M  V30 2151 H 207.913 0.210563 0.62973 0
M  V30 2152 H 210.443 1.20982 1.64998 0
M  V30 2153 H 210.453 0.640685 4.02938 0
M  V30 2154 H 209.128 1.76276 3.76696 0
M  V30 2155 H 207.705 -0.0682991 3.72837 0
M  V30 2156 N 209.89 -1.43072 0.660911 0
M  V30 2157 C 211.301 -1.84932 0.256348 0
M  V30 2158 C 211.652 -1.55325 -1.19868 0
M  V30 2159 O 210.777 -1.00607 -1.91591 0
M  V30 2160 C 211.372 -3.35684 0.458475 0
M  V30 2161 C 209.931 -3.76245 0.108161 0
M  V30 2162 C 209.078 -2.66749 0.757641 0
M  V30 2163 H 212.029 -1.33116 0.864051 0
M  V30 2164 H 212.05 -3.79365 -0.293683 0
M  V30 2165 H 211.562 -3.572 1.51755 0
M  V30 2166 H 209.663 -3.60338 -0.948014 0
M  V30 2167 H 209.776 -4.76058 0.538992 0
M  V30 2168 H 208.14 -2.53989 0.190185 0
M  V30 2169 H 208.923 -2.91092 1.81989 0
M  V30 2170 N 211.368 -0.403325 -1.52352 0
M  V30 2171 C 212.645 0.232611 -1.94212 0
M  V30 2172 C 213.025 1.63133 -1.33981 0
M  V30 2173 O 212.373 2.22659 -0.513344 0
M  V30 2174 C 212.583 0.244811 -3.4814 0
M  V30 2175 C 213.931 0.46698 -4.22024 0
M  V30 2176 O 214.955 0.324419 -3.5472 0
M  V30 2177 O 213.814 0.74747 -5.41364 0
M  V30 2178 H 210.908 0.148223 -0.813609 0
M  V30 2179 H 213.454 -0.458848 -1.63379 0
M  V30 2180 H 212.226 -0.734378 -3.84347 0
M  V30 2181 H 211.849 0.980611 -3.85318 0
M  V30 2182 N 212.846 1.57033 -0.133567 0
M  V30 2183 C 213.776 2.1909 0.807567 0
M  V30 2184 C 214.757 1.13517 1.26681 0
M  V30 2185 O 215.942 1.41809 1.32679 0
M  V30 2186 C 213.072 2.80188 2.05212 0
M  V30 2187 C 212.026 3.91471 1.73015 0
M  V30 2188 C 211.352 4.39443 3.04622 0
M  V30 2189 C 212.652 5.12886 0.987168 0
M  V30 2190 H 214.346 2.97988 0.290403 0
M  V30 2191 H 211.892 1.43335 0.138239 0
M  V30 2192 H 213.845 3.22264 2.71521 0
M  V30 2193 H 212.569 1.98601 2.59278 0
M  V30 2194 H 211.228 3.49993 1.0909 0
M  V30 2195 H 210.876 3.54695 3.56651 0
M  V30 2196 H 210.576 5.14495 2.83847 0
M  V30 2197 H 212.1 4.8418 3.72024 0
M  V30 2198 H 213.514 5.51891 1.55208 0
M  V30 2199 H 211.911 5.93615 0.87985 0
M  V30 2200 H 212.981 4.84894 -0.0235286 0
M  V30 2201 N 214.325 -0.140222 1.56975 0
M  V30 2202 C 215.55 -0.870414 1.88251 0
M  V30 2203 C 215.975 -1.73637 0.723312 0
M  V30 2204 O 215.333 -1.78329 -0.32689 0
M  V30 2205 C 215.381 -1.69737 3.18154 0
M  V30 2206 O 214.485 -2.80229 3.02565 0
M  V30 2207 H 213.826 -0.242025 0.61832 0
M  V30 2208 H 216.356 -0.128999 2.04193 0
M  V30 2209 H 216.366 -2.09099 3.50345 0
M  V30 2210 H 215.041 -1.06152 4.02125 0
M  V30 2211 H 213.618 -2.44224 2.81796 0
M  V30 2212 N 215.803 -1.52179 -0.40978 0
M  V30 2213 C 217.051 -1.65878 -1.15451 0
M  V30 2214 C 217.372 -0.390771 -1.91044 0
M  V30 2215 O 216.642 0.594323 -1.86667 0
M  V30 2216 H 215.222 -0.611405 -0.429177 0
M  V30 2217 H 217.884 -1.89219 -0.467134 0
M  V30 2218 H 216.98 -2.49954 -1.86894 0
M  V30 2219 N 217.281 0.66697 -1.42791 0
M  V30 2220 C 218.244 1.76211 -1.46568 0
M  V30 2221 C 219.244 1.56896 -0.352196 0
M  V30 2222 O 220.434 1.63044 -0.613364 0
M  V30 2223 C 217.566 3.14935 -1.30494 0
M  V30 2224 H 218.759 1.74247 -2.44086 0
M  V30 2225 H 216.312 0.877342 -1.29354 0
M  V30 2226 H 217.047 3.2252 -0.339301 0
M  V30 2227 H 216.832 3.30359 -2.11199 0
M  V30 2228 H 218.322 3.94821 -1.36038 0
M  V30 2229 N 218.759 1.29093 0.90403 0
M  V30 2230 C 220.175 1.07011 1.1841 0
M  V30 2231 C 220.375 -0.181358 2.00682 0
M  V30 2232 O 219.431 -0.880331 2.36657 0
M  V30 2233 C 220.744 2.32311 1.90924 0
M  V30 2234 C 222.292 2.37587 2.03768 0
M  V30 2235 C 222.767 3.62679 2.79693 0
M  V30 2236 N 224.258 3.63376 2.87249 0
M  V30 2237 C 224.993 4.56848 3.46522 0
M  V30 2238 N 224.489 5.60648 4.06996 0
M  V30 2239 N 226.282 4.44426 3.44154 0
M  V30 2240 H 218.433 2.09412 0.354993 0
M  V30 2241 H 220.696 0.922181 0.219742 0
M  V30 2242 H 220.402 3.23536 1.37905 0
M  V30 2243 H 220.276 2.39483 2.91424 0
M  V30 2244 H 222.663 1.46853 2.55965 0
M  V30 2245 H 222.744 2.34403 1.02415 0
M  V30 2246 H 222.388 4.53762 2.28173 0
M  V30 2247 H 222.318 3.63119 3.81381 0
M  V30 2248 H 224.809 2.88321 2.44293 0
M  V30 2249 H 225.122 6.28101 4.50232 0
M  V30 2250 H 223.467 5.64463 4.05471 0
M  V30 2251 H 226.658 3.62529 2.96126 0
M  V30 2252 H 226.831 5.17457 3.90054 0
M  V30 2253 N 220.237 -1.11381 1.11499 0
M  V30 2254 C 221.2 -2.15622 0.777153 0
M  V30 2255 C 222.2 -1.59504 -0.203779 0
M  V30 2256 O 223.39 -1.74188 0.020782 0
M  V30 2257 C 220.522 -3.40556 0.153116 0
M  V30 2258 H 221.715 -2.47021 1.70061 0
M  V30 2259 H 219.268 -1.26577 0.916952 0
M  V30 2260 H 220.003 -3.14767 -0.780536 0
M  V30 2261 H 219.788 -3.8257 0.859238 0
M  V30 2262 H 221.278 -4.17546 -0.0671044 0
M  V30 2263 N 221.715 -0.905404 -1.28997 0
M  V30 2264 C 222.961 -0.535039 -1.95615 0
M  V30 2265 C 223.294 0.917404 -1.71165 0
M  V30 2266 O 222.569 1.65123 -1.02785 0
M  V30 2267 C 222.852 -0.834918 -3.50287 0
M  V30 2268 C 222.705 -2.33948 -3.84172 0
M  V30 2269 C 224.024 -0.325318 -4.38896 0
M  V30 2270 H 221.143 -0.195861 -0.710498 0
M  V30 2271 H 223.785 -1.13313 -1.52513 0
M  V30 2272 H 221.935 -0.325904 -3.87131 0
M  V30 2273 H 223.607 -2.91847 -3.57243 0
M  V30 2274 H 221.85 -2.79789 -3.31513 0
M  V30 2275 H 222.521 -2.49987 -4.92149 0
M  V30 2276 H 224.997 -0.761256 -4.09077 0
M  V30 2277 H 223.873 -0.564295 -5.45992 0
M  V30 2278 H 224.134 0.774144 -4.35269 0
M  V30 2279 N 223.193 1.4272 -0.668489 0
M  V30 2280 C 224.439 2.01923 -0.188419 0
M  V30 2281 C 224.772 1.52704 1.19979 0
M  V30 2282 O 224.047 0.726566 1.8042 0
M  V30 2283 C 224.33 3.59451 -0.216085 0
M  V30 2284 C 224.183 4.18864 -1.6393 0
M  V30 2285 C 225.502 4.37903 0.439179 0
M  V30 2286 H 222.621 0.733674 -0.0699412 0
M  V30 2287 H 225.263 1.69822 -0.852076 0
M  V30 2288 H 223.413 3.86929 0.349012 0
M  V30 2289 H 225.085 4.02362 -2.25616 0
M  V30 2290 H 223.328 3.74933 -2.18193 0
M  V30 2291 H 223.999 5.27987 -1.61039 0
M  V30 2292 H 226.475 4.16079 -0.0417878 0
M  V30 2293 H 225.351 5.47519 0.389157 0
M  V30 2294 H 225.612 4.15303 1.51577 0
M  V30 2295 N 224.671 0.411399 1.52136 0
M  V30 2296 C 225.92 -0.165009 2.01024 0
M  V30 2297 C 226.233 -1.4603 1.30133 0
M  V30 2298 O 227.439 -2.1181 1.69849 0
M  V30 2299 C 225.895 -0.344618 3.58246 0
M  V30 2300 C 225.503 0.938716 4.38055 0
M  V30 2301 C 227.247 -0.876195 4.15359 0
M  V30 2302 C 225.154 0.726172 5.86925 0
M  V30 2303 H 224.084 -0.0654407 0.751155 0
M  V30 2304 H 226.735 0.537192 1.75461 0
M  V30 2305 H 225.117 -1.10921 3.80148 0
M  V30 2306 H 226.291 1.70963 4.27912 0
M  V30 2307 H 224.606 1.39688 3.92271 0
M  V30 2308 H 227.203 -1.05128 5.24263 0
M  V30 2309 H 227.546 -1.85152 3.7286 0
M  V30 2310 H 228.079 -0.170607 3.97434 0
M  V30 2311 H 224.818 1.67312 6.33788 0
M  V30 2312 H 224.338 -0.00540283 5.998 0
M  V30 2313 H 226.017 0.369231 6.45946 0
M  V30 2314 N 226.149 -1.5696 0.141893 0
M  V30 2315 C 227.397 -1.95573 -0.509484 0
M  V30 2316 C 227.718 -1.02746 -1.65736 0
M  V30 2317 O 226.988 -0.0880311 -1.95702 0
M  V30 2318 H 225.568 -0.722115 -0.191205 0
M  V30 2319 H 228.23 -1.93697 0.216196 0
M  V30 2320 H 227.326 -2.99171 -0.889 0
M  V30 2321 N 227.627 0.131896 -1.57047 0
M  V30 2322 C 228.575 1.18146 -2.0036 0
M  V30 2323 C 229.569 1.43614 -0.898406 0
M  V30 2324 O 230.775 1.43729 -1.08361 0
M  V30 2325 H 227.15 0.398042 -0.638018 0
M  V30 2326 H 229.121 0.789564 -2.87765 0
M  V30 2327 C 227.87 2.50341 -2.41298 0
M  V30 2328 H 227.193 2.31578 -3.25902 0
M  V30 2329 H 228.633 3.22371 -2.75414 0
M  V30 2330 C 227.092 3.11984 -1.27153 0
M  V30 2331 O 227.622 3.97484 -0.580459 0
M  V30 2332 N 225.828 2.71662 -1.03189 0
M  V30 2333 H 225.375 2.02231 -1.59564 0
M  V30 2334 H 225.333 3.13238 -0.270077 0
M  V30 2335 N 229.106 1.52395 0.401703 0
M  V30 2336 C 230.354 1.66488 1.14569 0
M  V30 2337 C 230.675 0.400897 1.90835 0
M  V30 2338 O 229.945 -0.584415 1.8698 0
M  V30 2339 H 228.525 0.613672 0.425929 0
M  V30 2340 H 231.187 1.89464 0.457093 0
M  V30 2341 H 230.283 2.50942 1.85566 0
M  V30 2342 N 230.584 -0.659388 1.43143 0
M  V30 2343 C 231.532 -1.79374 1.4808 0
M  V30 2344 C 232.526 -1.65639 0.354988 0
M  V30 2345 O 233.732 -1.7206 0.528704 0
M  V30 2346 H 230.107 -0.591705 0.4641 0
M  V30 2347 H 232.078 -1.72329 2.43609 0
M  V30 2348 C 230.827 -3.17606 1.41499 0
M  V30 2349 H 230.15 -3.28809 2.27431 0
M  V30 2350 H 231.59 -3.96951 1.49015 0
M  V30 2351 C 230.049 -3.36642 0.131765 0
M  V30 2352 O 230.579 -3.93461 -0.809386 0
M  V30 2353 N 228.785 -2.90567 0.0439396 0
M  V30 2354 H 228.332 -2.44513 0.810619 0
M  V30 2355 H 228.29 -3.03681 -0.813969 0
M  V30 2356 N 232.062 -1.29571 -0.897171 0
M  V30 2357 C 233.308 -1.17863 -1.65034 0
M  V30 2358 C 233.641 0.268729 -1.92332 0
M  V30 2359 O 232.916 1.19378 -1.53555 0
M  V30 2360 C 233.199 -1.995 -2.99786 0
M  V30 2361 C 233.052 -3.5239 -2.79538 0
M  V30 2362 C 234.371 -1.82335 -4.00552 0
M  V30 2363 H 231.49 -0.429528 -0.598895 0
M  V30 2364 H 234.132 -1.59072 -1.03905 0
M  V30 2365 H 232.282 -1.64485 -3.51962 0
M  V30 2366 H 233.954 -3.97401 -2.34244 0
M  V30 2367 H 232.197 -3.77187 -2.14273 0
M  V30 2368 H 232.868 -4.04787 -3.75302 0
M  V30 2369 H 235.344 -2.12924 -3.57495 0
M  V30 2370 H 234.22 -2.41801 -4.92771 0
M  V30 2371 H 234.481 -0.779209 -4.35179 0
M  V30 2372 N 233.54 1.10788 -1.12088 0
M  V30 2373 C 234.503 2.15207 -0.788577 0
M  V30 2374 C 235.503 1.59609 0.195317 0
M  V30 2375 O 236.693 1.74174 -0.0300193 0
M  V30 2376 C 233.825 3.4047 -0.171174 0
M  V30 2377 H 235.018 2.46116 -1.71368 0
M  V30 2378 H 232.571 1.26089 -0.923652 0
M  V30 2379 H 233.306 3.15176 0.763832 0
M  V30 2380 H 233.091 3.82109 -0.879514 0
M  V30 2381 H 234.581 4.17576 0.04496 0
M  V30 2382 N 235.018 0.912232 1.28515 0
M  V30 2383 C 235.948 0.416403 2.29757 0
M  V30 2384 C 236.929 -0.515194 1.6211 0
M  V30 2385 O 238.114 -0.423253 1.89532 0
M  V30 2386 C 235.244 -0.34572 3.45575 0
M  V30 2387 C 234.198 0.496599 4.25109 0
M  V30 2388 C 233.524 -0.393771 5.33248 0
M  V30 2389 C 234.824 1.75307 4.92001 0
M  V30 2390 H 236.518 1.26249 2.7148 0
M  V30 2391 H 234.064 0.608515 1.30511 0
M  V30 2392 H 236.017 -0.703422 4.15488 0
M  V30 2393 H 234.741 -1.2257 3.02728 0
M  V30 2394 H 233.4 0.8368 3.56922 0
M  V30 2395 H 233.048 -1.27225 4.86644 0
M  V30 2396 H 232.748 0.166209 5.87365 0
M  V30 2397 H 234.272 -0.747389 6.06009 0
M  V30 2398 H 235.686 1.46437 5.54283 0
M  V30 2399 H 234.083 2.25534 5.56106 0
M  V30 2400 H 235.153 2.48176 4.16577 0
M  V30 2401 N 236.496 -1.42363 0.676048 0
M  V30 2402 C 237.773 -1.95183 0.127726 0
M  V30 2403 C 238.153 -1.61641 -1.35777 0
M  V30 2404 O 237.501 -0.913216 -2.09458 0
M  V30 2405 C 237.711 -3.46721 0.398199 0
M  V30 2406 C 239.059 -4.23427 0.315383 0
M  V30 2407 O 240.083 -3.54649 0.332016 0
M  V30 2408 O 238.942 -5.45888 0.25865 0
M  V30 2409 H 236.036 -0.826992 0.00359427 0
M  V30 2410 H 238.582 -1.52184 0.750864 0
M  V30 2411 H 237.354 -3.64344 1.4272 0
M  V30 2412 H 236.977 -3.96769 -0.256885 0
M  V30 2413 N 237.974 -0.419461 -1.51915 0
M  V30 2414 C 239.22 0.153166 -2.02221 0
M  V30 2415 C 239.553 1.43907 -1.30401 0
M  V30 2416 O 238.828 1.90055 -0.413438 0
M  V30 2417 C 239.111 0.390291 -3.57979 0
M  V30 2418 C 238.964 -0.913014 -4.40436 0
M  V30 2419 C 240.283 1.16794 -4.2432 0
M  V30 2420 H 237.402 0.0541924 -0.735005 0
M  V30 2421 H 240.044 -0.554955 -1.81715 0
M  V30 2422 H 238.194 0.993491 -3.75582 0
M  V30 2423 H 239.866 -1.54882 -4.34522 0
M  V30 2424 H 238.109 -1.52168 -4.06236 0
M  V30 2425 H 238.78 -0.701361 -5.47526 0
M  V30 2426 H 241.256 0.657161 -4.10878 0
M  V30 2427 H 240.132 1.3026 -5.3322 0
M  V30 2428 H 240.393 2.19132 -3.83971 0
M  V30 2429 N 239.452 1.56882 -0.150215 0
M  V30 2430 C 240.415 2.1573 0.774157 0
M  V30 2431 C 241.415 1.0999 1.17298 0
M  V30 2432 O 242.605 1.35613 1.09338 0
M  V30 2433 C 239.737 2.72302 2.05096 0
M  V30 2434 H 240.93 2.98752 0.262201 0
M  V30 2435 H 238.483 1.55985 0.099248 0
M  V30 2436 H 239.218 1.92956 2.6065 0
M  V30 2437 H 239.003 3.49665 1.77416 0
M  V30 2438 H 240.493 3.17632 2.71109 0
M  V30 2439 N 240.93 -0.123565 1.57115 0
M  V30 2440 C 242.346 -0.476961 1.52306 0
M  V30 2441 C 242.546 -1.82109 0.86248 0
M  V30 2442 O 241.602 -2.48586 0.442884 0
M  V30 2443 C 242.915 -0.465661 2.97073 0
M  V30 2444 C 244.463 -0.549534 3.08138 0
M  V30 2445 C 244.938 -0.568669 4.54456 0
M  V30 2446 N 246.429 -0.630237 4.58892 0
M  V30 2447 C 247.164 -0.666415 5.69514 0
M  V30 2448 N 246.66 -0.660514 6.89644 0
M  V30 2449 N 248.453 -0.709077 5.5761 0
M  V30 2450 H 240.604 0.757198 1.98445 0
M  V30 2451 H 242.867 0.278808 0.906074 0
M  V30 2452 H 242.573 0.454232 3.48754 0
M  V30 2453 H 242.447 -1.29513 3.54269 0
M  V30 2454 H 244.834 -1.45985 2.56461 0
M  V30 2455 H 244.915 0.307532 2.53945 0
M  V30 2456 H 244.559 0.337581 5.06777 0
M  V30 2457 H 244.489 -1.44256 5.06456 0
M  V30 2458 H 246.98 -0.641146 3.72421 0
M  V30 2459 H 247.293 -0.690616 7.69708 0
M  V30 2460 H 245.638 -0.628012 6.92157 0
M  V30 2461 H 248.829 -0.711019 4.62668 0
M  V30 2462 H 249.002 -0.733804 6.43832 0
M  V30 2463 N 242.408 -1.52605 -0.393616 0
M  V30 2464 C 243.657 -1.66649 -1.13627 0
M  V30 2465 C 243.97 -0.410364 -1.91247 0
M  V30 2466 O 245.176 -0.430854 -2.68059 0
M  V30 2467 C 243.632 -2.9449 -2.06891 0
M  V30 2468 C 243.24 -4.27266 -1.34714 0
M  V30 2469 C 244.984 -3.17899 -2.81319 0
M  V30 2470 C 242.891 -5.46217 -2.26717 0
M  V30 2471 H 241.821 -0.62084 -0.427871 0
M  V30 2472 H 244.472 -1.791 -0.399428 0
M  V30 2473 H 242.854 -2.75774 -2.84191 0
M  V30 2474 H 244.028 -4.56518 -0.626714 0
M  V30 2475 H 242.343 -4.10081 -0.722643 0
M  V30 2476 H 244.94 -4.03949 -3.50328 0
M  V30 2477 H 245.283 -2.32777 -3.45139 0
M  V30 2478 H 245.816 -3.37159 -2.11113 0
M  V30 2479 H 242.555 -6.33733 -1.67521 0
M  V30 2480 H 242.075 -5.21283 -2.96689 0
M  V30 2481 H 243.754 -5.7991 -2.86903 0
M  V30 2482 N 243.887 0.651787 -1.4349 0
M  V30 2483 C 244.817 1.77621 -1.51569 0
M  V30 2484 C 245.798 1.66022 -0.370253 0
M  V30 2485 O 246.983 1.85095 -0.587658 0
M  V30 2486 C 244.113 3.16056 -1.43966 0
M  V30 2487 C 243.067 3.4242 -2.56774 0
M  V30 2488 C 242.393 4.8067 -2.34223 0
M  V30 2489 C 243.693 3.37023 -3.99015 0
M  V30 2490 H 245.387 1.71117 -2.45681 0
M  V30 2491 H 242.933 0.821825 -1.18246 0
M  V30 2492 H 244.886 3.94472 -1.48221 0
M  V30 2493 H 243.61 3.23293 -0.463586 0
M  V30 2494 H 242.269 2.66375 -2.51873 0
M  V30 2495 H 241.917 4.84585 -1.34856 0
M  V30 2496 H 241.617 4.9927 -3.09844 0
M  V30 2497 H 243.141 5.61342 -2.40265 0
M  V30 2498 H 244.555 4.05374 -4.05395 0
M  V30 2499 H 242.952 3.67159 -4.74673 0
M  V30 2500 H 244.022 2.3518 -4.2405 0
M  V30 2501 N 245.365 1.30045 0.890287 0
M  V30 2502 C 246.295 1.18541 2.01172 0
M  V30 2503 C 247.276 0.0773356 1.69924 0
M  V30 2504 O 248.461 0.25845 1.92473 0
M  V30 2505 C 245.591 0.870941 3.36202 0
M  V30 2506 C 244.545 1.93637 3.81692 0
M  V30 2507 C 243.871 1.475 5.13953 0
M  V30 2508 C 245.171 3.34666 4.00994 0
M  V30 2509 H 246.865 2.12359 2.11054 0
M  V30 2510 H 244.411 1.02238 1.01407 0
M  V30 2511 H 246.364 0.777141 4.14172 0
M  V30 2512 H 245.088 -0.102926 3.26438 0
M  V30 2513 H 243.747 2.01972 3.05946 0
M  V30 2514 H 243.395 0.489551 5.00612 0
M  V30 2515 H 243.095 2.1876 5.4536 0
M  V30 2516 H 244.619 1.39489 5.94454 0
M  V30 2517 H 246.033 3.2912 4.69417 0
M  V30 2518 H 244.43 4.03966 4.43769 0
M  V30 2519 H 245.5 3.76949 3.05021 0
M  V30 2520 N 246.843 -1.10192 1.12674 0
M  V30 2521 C 248.071 -1.85983 0.906527 0
M  V30 2522 C 248.486 -1.80783 -0.544333 0
M  V30 2523 O 247.843 -1.19834 -1.37645 0
M  V30 2524 C 247.894 -3.34281 1.37618 0
M  V30 2525 O 247.615 -3.39401 2.77017 0
M  V30 2526 C 249.116 -4.26938 1.19325 0
M  V30 2527 H 246.336 -0.587716 0.323775 0
M  V30 2528 H 248.88 -1.39284 1.49734 0
M  V30 2529 H 247.035 -3.78436 0.828539 0
M  V30 2530 H 247.449 -4.31838 2.97684 0
M  V30 2531 H 248.923 -5.29181 1.57071 0
M  V30 2532 H 249.4 -4.38995 0.134097 0
M  V30 2533 H 250.006 -3.8859 1.72852 0
M  V30 2534 N 248.321 -0.919034 -1.28029 0
M  V30 2535 C 249.598 -0.473668 -1.89778 0
M  V30 2536 C 249.978 1.04783 -1.83259 0
M  V30 2537 O 249.326 1.8982 -1.27202 0
M  V30 2538 C 249.536 -1.00998 -3.34066 0
M  V30 2539 C 250.884 -1.06525 -4.1102 0
M  V30 2540 O 251.908 -0.958996 -3.43048 0
M  V30 2541 O 250.767 -1.22776 -5.3253 0
M  V30 2542 H 247.861 -0.15098 -0.813101 0
M  V30 2543 H 250.407 -1.01016 -1.36359 0
M  V30 2544 H 249.179 -2.05392 -3.33061 0
M  V30 2545 H 248.802 -0.454626 -3.94992 0
M  V30 2546 N 249.799 1.42003 -0.683588 0
M  V30 2547 C 251.21 1.84501 -0.285736 0
M  V30 2548 C 251.561 1.57213 1.17382 0
M  V30 2549 O 250.686 1.03642 1.89966 0
M  V30 2550 C 251.281 3.34912 -0.511821 0
M  V30 2551 C 249.84 3.76025 -0.168005 0
M  V30 2552 C 248.987 2.6551 -0.799983 0
M  V30 2553 H 251.938 1.31724 -0.885119 0
M  V30 2554 H 251.959 3.79784 0.233292 0
M  V30 2555 H 251.471 3.54741 -1.57418 0
M  V30 2556 H 249.572 3.61801 0.890567 0
M  V30 2557 H 249.685 4.75141 -0.614661 0
M  V30 2558 H 248.049 2.53654 -0.230568 0
M  V30 2559 H 248.832 2.8816 -1.86597 0
M  V30 2560 N 251.277 0.427512 1.51691 0
M  V30 2561 C 252.554 -0.201684 1.94557 0
M  V30 2562 C 252.934 -1.60981 1.36559 0
M  V30 2563 O 252.282 -2.21814 0.548702 0
M  V30 2564 C 252.492 -0.189394 3.48486 0
M  V30 2565 C 253.84 -0.39978 4.22714 0
M  V30 2566 O 254.864 -0.267945 3.55191 0
M  V30 2567 O 253.723 -0.661249 5.42485 0
M  V30 2568 H 250.817 -0.135261 0.815864 0
M  V30 2569 H 253.363 0.484782 1.62628 0
M  V30 2570 H 252.135 0.795431 3.8313 0
M  V30 2571 H 251.758 -0.919187 3.86829 0
M  V30 2572 N 252.755 -1.56801 0.158532 0
M  V30 2573 C 254.001 -1.96781 -0.490405 0
M  V30 2574 C 254.334 -1.04397 -1.63753 0
M  V30 2575 O 253.609 -0.0885805 -1.94298 0
M  V30 2576 C 253.892 -3.4635 -0.985594 0
M  V30 2577 C 253.745 -4.49512 0.160824 0
M  V30 2578 C 255.064 -3.98697 -1.86355 0
M  V30 2579 H 252.183 -0.715482 -0.176788 0
M  V30 2580 H 254.825 -1.88451 0.242088 0
M  V30 2581 H 252.975 -3.53579 -1.60978 0
M  V30 2582 H 254.647 -4.54353 0.797537 0
M  V30 2583 H 252.89 -4.26013 0.818256 0
M  V30 2584 H 253.561 -5.51531 -0.227569 0
M  V30 2585 H 256.037 -3.94019 -1.33746 0
M  V30 2586 H 254.913 -5.03792 -2.17909 0
M  V30 2587 H 255.174 -3.41744 -2.8047 0
M  V30 2588 N 254.233 0.115231 -1.57178 0
M  V30 2589 C 255.163 1.1423 -2.03651 0
M  V30 2590 C 256.144 1.42967 -0.921655 0
M  V30 2591 O 257.329 1.53343 -1.19162 0
M  V30 2592 C 254.459 2.4675 -2.44401 0
M  V30 2593 C 253.413 2.32467 -3.59365 0
M  V30 2594 C 252.739 3.69984 -3.86026 0
M  V30 2595 C 254.039 1.78203 -4.90959 0
M  V30 2596 H 255.733 0.755749 -2.89705 0
M  V30 2597 H 253.279 0.362093 -1.39373 0
M  V30 2598 H 255.232 3.18854 -2.75517 0
M  V30 2599 H 253.956 2.87302 -1.55322 0
M  V30 2600 H 252.615 1.62811 -3.28463 0
M  V30 2601 H 252.263 4.08028 -2.94147 0
M  V30 2602 H 251.963 3.61279 -4.63412 0
M  V30 2603 H 253.487 4.43587 -4.19599 0
M  V30 2604 H 254.901 2.40128 -5.20587 0
M  V30 2605 H 253.298 1.8031 -5.72371 0
M  V30 2606 H 254.368 0.739876 -4.79222 0
M  V30 2607 N 255.711 1.52812 0.385517 0
M  V30 2608 C 256.674 1.77188 1.45386 0
M  V30 2609 C 257.674 0.641953 1.4743 0
M  V30 2610 O 258.864 0.910033 1.4854 0
M  V30 2611 C 255.996 1.87582 2.8465 0
M  V30 2612 H 257.189 2.72583 1.25054 0
M  V30 2613 H 254.742 1.43586 0.617467 0
M  V30 2614 H 255.477 0.941849 3.10322 0
M  V30 2615 H 255.262 2.69748 2.84567 0
M  V30 2616 H 256.752 2.08102 3.62054 0
M  V30 2617 N 257.189 -0.644168 1.43834 0
M  V30 2618 C 258.605 -0.960875 1.27434 0
M  V30 2619 C 258.805 -2.00499 0.200618 0
M  V30 2620 O 257.861 -2.49018 -0.417906 0
M  V30 2621 C 259.174 -1.43653 2.64167 0
M  V30 2622 C 260.722 -1.55271 2.71772 0
M  V30 2623 C 261.197 -2.06224 4.08944 0
M  V30 2624 N 262.688 -2.13513 4.11055 0
M  V30 2625 C 263.423 -2.54081 5.14033 0
M  V30 2626 N 262.919 -2.9388 6.27381 0
M  V30 2627 N 264.712 -2.54101 5.01387 0
M  V30 2628 H 256.863 0.0465779 2.12349 0
M  V30 2629 H 259.126 -0.0417638 0.94708 0
M  V30 2630 H 258.832 -0.743706 3.43747 0
M  V30 2631 H 258.706 -2.40993 2.90176 0
M  V30 2632 H 261.093 -2.23653 1.92519 0
M  V30 2633 H 261.174 -0.563395 2.49519 0
M  V30 2634 H 260.818 -1.38441 4.88668 0
M  V30 2635 H 260.748 -3.06003 4.28567 0
M  V30 2636 H 263.239 -1.85493 3.29242 0
M  V30 2637 H 263.552 -3.2361 7.01781 0
M  V30 2638 H 261.897 -2.91663 6.30839 0
M  V30 2639 H 265.088 -2.22391 4.11898 0
M  V30 2640 H 265.261 -2.85394 5.81768 0
M  V30 2641 N 258.668 -1.30515 -0.883378 0
M  V30 2642 C 259.896 -1.22359 -1.66841 0
M  V30 2643 C 260.311 0.213296 -1.87591 0
M  V30 2644 O 259.668 1.14075 -1.42454 0
M  V30 2645 C 259.719 -1.95011 -3.04389 0
M  V30 2646 O 259.44 -3.3309 -2.84575 0
M  V30 2647 C 260.941 -1.93532 -3.98824 0
M  V30 2648 H 258.161 -0.423371 -0.520575 0
M  V30 2649 H 260.705 -1.72167 -1.10357 0
M  V30 2650 H 258.86 -1.48997 -3.57601 0
M  V30 2651 H 259.274 -3.69907 -3.71846 0
M  V30 2652 H 260.748 -2.48902 -4.92699 0
M  V30 2653 H 261.225 -0.914627 -4.29571 0
M  V30 2654 H 261.831 -2.39364 -3.51547 0
M  V30 2655 N 260.146 1.09593 -1.13257 0
M  V30 2656 C 261.423 1.78293 -0.804432 0
M  V30 2657 C 261.803 1.99004 0.70431 0
M  V30 2658 O 261.151 1.59007 1.641 0
M  V30 2659 C 261.361 3.10707 -1.5894 0
M  V30 2660 C 262.709 3.85443 -1.78099 0
M  V30 2661 O 263.733 3.20454 -1.55525 0
M  V30 2662 O 262.592 5.02108 -2.15753 0
M  V30 2663 H 259.686 0.773156 -0.293528 0
M  V30 2664 H 262.232 1.16164 -1.23709 0
M  V30 2665 H 261.004 2.91106 -2.61482 0
M  V30 2666 H 260.627 3.80558 -1.15157 0
M  V30 2667 N 261.624 0.925811 1.2754 0
M  V30 2668 C 262.873 0.561084 1.93739 0
M  V30 2669 C 263.186 -0.901685 1.73577 0
M  V30 2670 O 264.392 -1.37511 2.34101 0
M  V30 2671 C 262.848 0.952668 3.47062 0
M  V30 2672 C 262.456 2.43599 3.75983 0
M  V30 2673 C 264.2 0.659103 4.19352 0
M  V30 2674 C 262.107 2.76707 5.22673 0
M  V30 2675 H 261.037 0.206122 0.725279 0
M  V30 2676 H 263.688 1.12637 1.44863 0
M  V30 2677 H 262.07 0.316053 3.94737 0
M  V30 2678 H 263.244 3.12035 3.39073 0
M  V30 2679 H 261.559 2.70125 3.16893 0
M  V30 2680 H 264.156 0.882985 5.27359 0
M  V30 2681 H 264.499 -0.403607 4.14339 0
M  V30 2682 H 265.032 1.25473 3.77494 0
M  V30 2683 H 261.771 3.8188 5.32774 0
M  V30 2684 H 261.291 2.12919 5.60737 0
M  V30 2685 H 262.97 2.6435 5.90532 0
M  V30 2686 N 263.102 -1.41638 0.69111 0
M  V30 2687 C 264.065 -2.29178 0.0319786 0
M  V30 2688 C 265.065 -1.44153 -0.712496 0
M  V30 2689 O 266.255 -1.65354 -0.548053 0
M  V30 2690 C 263.387 -3.26952 -0.965161 0
M  V30 2691 H 264.58 -2.88959 0.802681 0
M  V30 2692 H 262.133 -1.4955 0.454356 0
M  V30 2693 H 262.868 -2.72142 -1.76378 0
M  V30 2694 H 262.653 -3.89685 -0.434522 0
M  V30 2695 H 264.143 -3.92561 -1.42428 0
M  V30 2696 N 264.58 -0.43555 -1.51462 0
M  V30 2697 C 265.857 0.191364 -1.94662 0
M  V30 2698 C 266.237 1.60254 -1.37411 0
M  V30 2699 O 265.585 2.2152 -0.560458 0
M  V30 2700 C 265.795 0.17091 -3.48581 0
M  V30 2701 C 267.143 0.377357 -4.2292 0
M  V30 2702 O 268.167 0.249104 -3.55328 0
M  V30 2703 O 267.026 0.63247 -5.42828 0
M  V30 2704 H 264.12 0.130932 -0.816569 0
M  V30 2705 H 266.666 -0.4934 -1.62369 0
M  V30 2706 H 265.438 -0.815738 -3.82703 0
M  V30 2707 H 265.061 0.898659 -3.87311 0
M  V30 2708 N 266.058 1.56714 -0.166846 0
M  V30 2709 C 267.008 2.14338 0.777382 0
M  V30 2710 C 267.992 1.07642 1.19591 0
M  V30 2711 O 269.184 1.33775 1.15902 0
M  V30 2712 C 266.313 2.78417 2.00846 0
M  V30 2713 C 265.399 3.92264 1.61212 0
M  V30 2714 N 265.79 4.97268 0.925104 0
M  V30 2715 C 264.088 4.03342 1.90346 0
M  V30 2716 C 264.789 5.77093 0.730627 0
M  V30 2717 N 263.765 5.2854 1.27067 0
M  V30 2718 H 267.567 2.9289 0.243466 0
M  V30 2719 H 265.081 1.62364 0.0339954 0
M  V30 2720 H 267.078 3.18073 2.69509 0
M  V30 2721 H 265.738 2.01344 2.54736 0
M  V30 2722 H 266.749 5.14601 0.583646 0
M  V30 2723 H 263.426 3.37368 2.45946 0
M  V30 2724 H 264.816 6.71638 0.187668 0
M  V30 2725 N 267.536 -0.106894 1.57237 0
M  V30 2726 C 268.499 -1.11466 2.0027 0
M  V30 2727 C 269.499 -1.33623 0.894519 0
M  V30 2728 O 270.689 -1.29935 1.16028 0
M  V30 2729 C 267.821 -2.46646 2.35327 0
M  V30 2730 H 269.014 -0.744516 2.90512 0
M  V30 2731 H 266.567 -0.351576 1.52295 0
M  V30 2732 H 267.302 -2.88558 1.48003 0
M  V30 2733 H 267.087 -2.31915 3.16161 0
M  V30 2734 H 268.577 -3.19151 2.69318 0
M  V30 2735 N 269.014 -1.53014 -0.377408 0
M  V30 2736 C 269.944 -1.81589 -1.46791 0
M  V30 2737 C 270.925 -0.668622 -1.56408 0
M  V30 2738 O 272.11 -0.917337 -1.71168 0
M  V30 2739 C 269.24 -1.99519 -2.8427 0
M  V30 2740 C 268.194 -3.15249 -2.89486 0
M  V30 2741 C 267.52 -3.18451 -4.29527 0
M  V30 2742 C 268.82 -4.54084 -2.58079 0
M  V30 2743 H 270.514 -2.7291 -1.23127 0
M  V30 2744 H 268.06 -1.31319 -0.590883 0
M  V30 2745 H 270.013 -2.18092 -3.60575 0
M  V30 2746 H 268.737 -1.04897 -3.09296 0
M  V30 2747 H 267.396 -2.96477 -2.15631 0
M  V30 2748 H 267.044 -2.2149 -4.5161 0
M  V30 2749 H 266.744 -3.962 -4.33934 0
M  V30 2750 H 268.268 -3.39193 -5.07721 0
M  V30 2751 H 269.682 -4.72899 -3.24098 0
M  V30 2752 H 268.079 -5.33987 -2.7382 0
M  V30 2753 H 269.149 -4.60006 -1.53372 0
M  V30 2754 N 270.492 0.636531 -1.44174 0
M  V30 2755 C 271.402 1.77754 -1.53103 0
M  V30 2756 C 272.418 1.68928 -0.417034 0
M  V30 2757 O 273.594 1.89801 -0.6736 0
M  V30 2758 C 270.659 3.14115 -1.46741 0
M  V30 2759 C 269.72 3.34612 -2.68948 0
M  V30 2760 C 268.953 4.64467 -2.6288 0
M  V30 2761 O 269.176 5.44919 -1.68581 0
M  V30 2762 O 268.11 4.87049 -3.53648 0
M  V30 2763 H 271.936 1.73174 -2.49489 0
M  V30 2764 H 269.521 0.79709 -1.2636 0
M  V30 2765 H 271.403 3.95412 -1.45696 0
M  V30 2766 H 270.078 3.19249 -0.534975 0
M  V30 2767 H 268.985 2.53014 -2.75562 0
M  V30 2768 H 270.318 3.34336 -3.61221 0
M  V30 2769 N 271.97 1.30982 0.876444 0
M  V30 2770 C 273.195 1.23373 1.66715 0
M  V30 2771 C 273.62 -0.19885 1.87046 0
M  V30 2772 O 272.978 -1.1427 1.40756 0
M  V30 2773 C 273.026 1.97644 3.01611 0
M  V30 2774 O 272.13 1.30935 3.91062 0
M  V30 2775 H 271.471 0.426279 0.509099 0
M  V30 2776 H 274.001 1.72944 1.09323 0
M  V30 2777 H 274.011 2.06992 3.51594 0
M  V30 2778 H 272.686 3.01829 2.86133 0
M  V30 2779 H 271.263 1.29996 3.49507 0
M  V30 2780 N 273.449 -1.08991 1.13837 0
M  V30 2781 C 274.379 -2.17771 0.842507 0
M  V30 2782 C 275.36 -1.6892 -0.20001 0
M  V30 2783 O 276.545 -1.94113 -0.0579731 0
M  V30 2784 C 273.675 -3.4589 0.312644 0
M  V30 2785 C 272.629 -4.08099 1.28992 0
M  V30 2786 C 271.955 -5.31098 0.619623 0
M  V30 2787 C 273.255 -4.50077 2.65005 0
M  V30 2788 H 274.949 -2.42777 1.75213 0
M  V30 2789 H 272.495 -1.16682 0.843875 0
M  V30 2790 H 274.448 -4.21297 0.0933043 0
M  V30 2791 H 273.172 -3.20419 -0.632382 0
M  V30 2792 H 271.831 -3.34717 1.49533 0
M  V30 2793 H 271.479 -5.0191 -0.33102 0
M  V30 2794 H 271.179 -5.73674 1.27167 0
M  V30 2795 H 272.703 -6.09224 0.409669 0
M  V30 2796 H 274.117 -5.16688 2.48407 0
M  V30 2797 H 272.514 -5.03553 3.26427 0
M  V30 2798 H 273.584 -3.62257 3.22332 0
M  V30 2799 N 274.927 -0.932562 -1.27047 0
M  V30 2800 C 276.343 -0.633544 -1.46487 0
M  V30 2801 C 276.543 0.815746 -1.84249 0
M  V30 2802 O 275.599 1.59319 -1.95892 0
M  V30 2803 C 276.912 -1.58758 -2.55375 0
M  V30 2804 C 278.46 -1.59634 -2.69232 0
M  V30 2805 C 278.935 -2.53747 -3.81283 0
M  V30 2806 N 280.426 -2.51982 -3.88664 0
M  V30 2807 C 281.161 -3.21491 -4.74796 0
M  V30 2808 N 280.657 -4.00395 -5.65381 0
M  V30 2809 N 282.45 -3.10485 -4.68568 0
M  V30 2810 H 274.601 -1.86946 -1.00821 0
M  V30 2811 H 276.864 -0.802897 -0.504044 0
M  V30 2812 H 276.57 -2.62172 -2.34432 0
M  V30 2813 H 276.444 -1.33301 -3.52861 0
M  V30 2814 H 278.831 -0.569488 -2.89553 0
M  V30 2815 H 278.912 -1.89142 -1.72218 0
M  V30 2816 H 278.556 -3.56545 -3.61715 0
M  V30 2817 H 278.486 -2.21532 -4.77735 0
M  V30 2818 H 280.977 -1.94681 -3.23895 0
M  V30 2819 H 281.29 -4.50406 -6.27976 0
M  V30 2820 H 279.635 -4.04498 -5.65161 0
M  V30 2821 H 282.826 -2.48331 -3.96799 0
M  V30 2822 H 282.999 -3.64925 -5.35475 0
M  V30 2823 N 276.405 1.4127 -0.698611 0
M  V30 2824 C 277.816 1.84187 -0.305289 0
M  V30 2825 C 278.167 1.58449 1.15708 0
M  V30 2826 O 277.292 1.05651 1.88856 0
M  V30 2827 C 277.887 3.3435 -0.547314 0
M  V30 2828 C 276.446 3.75826 -0.207878 0
M  V30 2829 C 275.593 2.64647 -0.828099 0
M  V30 2830 H 278.544 1.30778 -0.89904 0
M  V30 2831 H 278.565 3.8001 0.192998 0
M  V30 2832 H 278.077 3.53051 -1.61172 0
M  V30 2833 H 276.178 3.62725 0.852143 0
M  V30 2834 H 276.291 4.74462 -0.665021 0
M  V30 2835 H 274.655 2.53395 -0.257458 0
M  V30 2836 H 275.438 2.86165 -1.89643 0
M  V30 2837 N 277.883 0.443576 1.51229 0
M  V30 2838 C 279.299 0.0962001 1.5931 0
M  V30 2839 C 279.499 -1.39501 1.45402 0
M  V30 2840 O 278.555 -2.16557 1.29843 0
M  V30 2841 C 279.868 0.621875 2.94199 0
M  V30 2842 C 281.416 0.582865 3.07525 0
M  V30 2843 C 281.891 1.08562 4.44948 0
M  V30 2844 N 283.382 1.04387 4.51284 0
M  V30 2845 C 284.117 1.40368 5.55954 0
M  V30 2846 N 283.613 1.83664 6.68011 0
M  V30 2847 N 285.406 1.32145 5.46346 0
M  V30 2848 H 277.557 1.41376 1.58514 0
M  V30 2849 H 279.82 0.582965 0.747567 0
M  V30 2850 H 279.526 1.66546 3.09767 0
M  V30 2851 H 279.4 0.0502125 3.77167 0
M  V30 2852 H 281.787 -0.451749 2.91622 0
M  V30 2853 H 281.868 1.191 2.26382 0
M  V30 2854 H 281.512 2.11873 4.61598 0
M  V30 2855 H 281.442 0.453956 5.2464 0
M  V30 2856 H 283.933 0.725986 3.70861 0
M  V30 2857 H 284.246 2.0934 7.43906 0
M  V30 2858 H 282.591 1.87596 6.69203 0
M  V30 2859 H 285.782 0.981808 4.57688 0
M  V30 2860 H 285.955 1.60514 6.27805 0
M  V30 2861 N 279.361 -1.56624 0.175154 0
M  V30 2862 C 280.609 -1.96609 -0.467885 0
M  V30 2863 C 280.93 -1.06238 -1.63519 0
M  V30 2864 O 280.2 -0.129523 -1.95471 0
M  V30 2865 H 278.78 -0.726008 -0.175845 0
M  V30 2866 H 281.442 -1.93195 0.257234 0
M  V30 2867 H 280.538 -3.00989 -0.825342 0
M  V30 2868 N 280.839 0.0985539 -1.57292 0
M  V30 2869 C 282.088 0.801358 -1.85098 0
M  V30 2870 C 282.401 1.80066 -0.763902 0
M  V30 2871 O 283.607 2.55112 -0.928981 0
M  V30 2872 C 282.063 1.47599 -3.28242 0
M  V30 2873 C 281.671 0.516624 -4.45011 0
M  V30 2874 C 283.415 2.16272 -3.65276 0
M  V30 2875 C 281.322 1.19564 -5.79188 0
M  V30 2876 H 280.252 0.303022 -0.69043 0
M  V30 2877 H 282.903 0.0542623 -1.8342 0
M  V30 2878 H 281.285 2.27042 -3.2445 0
M  V30 2879 H 282.459 -0.246065 -4.60143 0
M  V30 2880 H 280.774 -0.064227 -4.1635 0
M  V30 2881 H 283.371 2.67802 -4.62803 0
M  V30 2882 H 283.714 2.95009 -2.93727 0
M  V30 2883 H 284.247 1.43693 -3.70941 0
M  V30 2884 H 280.986 0.449157 -6.53959 0
M  V30 2885 H 280.506 1.92984 -5.67906 0
M  V30 2886 H 282.185 1.7231 -6.23633 0
M  V30 2887 N 282.317 1.53212 0.369288 0
M  V30 2888 C 283.249 1.75668 1.47219 0
M  V30 2889 C 284.262 0.637387 1.49804 0
M  V30 2890 O 285.451 0.913561 1.5335 0
M  V30 2891 C 282.551 1.81818 2.85999 0
M  V30 2892 C 281.724 3.11409 3.07153 0
M  V30 2893 C 280.783 3.08849 4.26026 0
M  V30 2894 O 279.809 3.82659 4.2138 0
M  V30 2895 N 281.011 2.29409 5.33246 0
M  V30 2896 H 283.776 2.70832 1.28337 0
M  V30 2897 H 281.337 1.51944 0.55898 0
M  V30 2898 H 283.329 1.77588 3.63655 0
M  V30 2899 H 281.899 0.939544 2.98146 0
M  V30 2900 H 281.119 3.28971 2.1719 0
M  V30 2901 H 282.407 3.97059 3.18154 0
M  V30 2902 H 281.805 1.68946 5.39883 0
M  V30 2903 H 280.362 2.31001 6.09493 0
M  V30 2904 N 283.795 -0.628877 1.44509 0
M  V30 2905 C 284.705 -1.7694 1.54044 0
M  V30 2906 C 285.721 -1.68705 0.425987 0
M  V30 2907 O 286.897 -1.89442 0.683656 0
M  V30 2908 C 283.962 -3.13332 1.48405 0
M  V30 2909 C 283.023 -3.33181 2.70719 0
M  V30 2910 C 282.256 -4.63067 2.6534 0
M  V30 2911 O 282.479 -5.44017 1.71469 0
M  V30 2912 O 281.413 -4.85167 3.56226 0
M  V30 2913 H 285.239 -1.71848 2.50403 0
M  V30 2914 H 282.824 -0.790378 1.26781 0
M  V30 2915 H 284.706 -3.94634 1.47791 0
M  V30 2916 H 283.381 -3.1896 0.551898 0
M  V30 2917 H 282.288 -2.51549 2.769 0
M  V30 2918 H 283.621 -3.32416 3.62988 0
M  V30 2919 N 285.273 -1.31445 -0.869486 0
M  V30 2920 C 286.519 -1.21337 -1.62496 0
M  V30 2921 C 286.852 0.227872 -1.92858 0
M  V30 2922 O 286.127 1.16094 -1.56053 0
M  V30 2923 C 286.41 -2.05814 -2.95487 0
M  V30 2924 C 286.263 -3.5824 -2.72 0
M  V30 2925 C 287.582 -1.9079 -3.96594 0
M  V30 2926 H 284.701 -0.442135 -0.589649 0
M  V30 2927 H 287.343 -1.6124 -1.00507 0
M  V30 2928 H 285.493 -1.71913 -3.48394 0
M  V30 2929 H 287.165 -4.0228 -2.25762 0
M  V30 2930 H 285.408 -3.81647 -2.06224 0
M  V30 2931 H 286.079 -4.12657 -3.66631 0
M  V30 2932 H 288.555 -2.20459 -3.52898 0
M  V30 2933 H 287.431 -2.52199 -4.87531 0
M  V30 2934 H 287.692 -0.871341 -4.33428 0
M  V30 2935 N 286.751 1.08385 -1.14413 0
M  V30 2936 C 287.997 1.81044 -0.913834 0
M  V30 2937 C 288.33 1.86004 0.558209 0
M  V30 2938 O 287.605 1.33606 1.4135 0
M  V30 2939 C 287.888 3.26648 -1.51569 0
M  V30 2940 C 287.741 3.29895 -3.0576 0
M  V30 2941 C 289.06 4.23629 -1.19273 0
M  V30 2942 H 286.179 0.65727 -0.333414 0
M  V30 2943 H 288.821 1.26896 -1.41412 0
M  V30 2944 H 286.971 3.72889 -1.09023 0
M  V30 2945 H 288.643 2.91977 -3.57137 0
M  V30 2946 H 286.886 2.69163 -3.40197 0
M  V30 2947 H 287.557 4.32516 -3.42977 0
M  V30 2948 H 290.033 3.85727 -1.56057 0
M  V30 2949 H 288.909 5.23822 -1.64017 0
M  V30 2950 H 289.17 4.41968 -0.108068 0
M  V30 2951 N 288.23 0.939286 1.26551 0
M  V30 2952 C 289.479 0.581601 1.93133 0
M  V30 2953 C 289.792 -0.883224 1.74524 0
M  V30 2954 O 290.998 -1.3502 2.35546 0
M  V30 2955 C 289.454 0.989425 3.46032 0
M  V30 2956 C 289.062 2.47573 3.73379 0
M  V30 2957 C 290.806 0.703544 4.18629 0
M  V30 2958 C 288.713 2.82235 5.19709 0
M  V30 2959 H 287.643 0.213803 0.723052 0
M  V30 2960 H 290.294 1.14167 1.4366 0
M  V30 2961 H 288.676 0.357902 3.94379 0
M  V30 2962 H 289.85 3.15614 3.35744 0
M  V30 2963 H 288.165 2.73471 3.1401 0
M  V30 2964 H 290.762 0.938869 5.26393 0
M  V30 2965 H 291.105 -0.359639 4.14744 0
M  V30 2966 H 291.638 1.2947 3.76141 0
M  V30 2967 H 288.377 3.87509 5.28694 0
M  V30 2968 H 287.897 2.18854 5.58447 0
M  V30 2969 H 289.576 2.70599 5.87695 0
M  V30 2970 N 289.708 -1.40897 0.706093 0
M  V30 2971 C 290.954 -2.01352 0.241889 0
M  V30 2972 C 291.287 -1.55832 -1.15888 0
M  V30 2973 O 290.562 -0.774145 -1.7843 0
M  V30 2974 C 290.845 -3.58752 0.311311 0
M  V30 2975 C 290.698 -4.1437 1.74978 0
M  V30 2976 C 292.017 -4.38914 -0.322922 0
M  V30 2977 H 289.136 -0.731562 0.0893687 0
M  V30 2978 H 291.778 -1.67504 0.896802 0
M  V30 2979 H 289.928 -3.87718 -0.246302 0
M  V30 2980 H 291.6 -3.96239 2.36205 0
M  V30 2981 H 289.843 -3.69016 2.28057 0
M  V30 2982 H 290.514 -5.23532 1.74981 0
M  V30 2983 H 292.99 -4.15822 0.152089 0
M  V30 2984 H 291.866 -5.48358 -0.243855 0
M  V30 2985 H 292.127 -4.19176 -1.40513 0
M  V30 2986 N 291.186 -0.45159 -1.50991 0
M  V30 2987 C 292.434 0.109857 -2.01801 0
M  V30 2988 C 292.755 1.41958 -1.3369 0
M  V30 2989 O 292.025 1.9003 -0.475951 0
M  V30 2990 H 290.605 0.0435884 -0.745727 0
M  V30 2991 H 293.267 -0.597557 -1.85514 0
M  V30 2992 H 292.363 0.275489 -3.10882 0
M  V30 2993 N 292.664 1.56529 -0.183458 0
M  V30 2994 C 294.08 1.58664 0.172554 0
M  V30 2995 C 294.28 1.19925 1.61926 0
M  V30 2996 O 293.336 0.916534 2.35278 0
M  V30 2997 C 294.649 3.00463 -0.119262 0
M  V30 2998 C 296.197 3.12945 -0.0584396 0
M  V30 2999 C 296.672 4.56857 -0.323408 0
M  V30 3000 N 298.163 4.62403 -0.271612 0
M  V30 3001 C 298.898 5.71626 -0.450639 0
M  V30 3002 N 298.394 6.89362 -0.689384 0
M  V30 3003 N 300.187 5.60775 -0.385701 0
M  V30 3004 H 292.338 1.79994 -1.12765 0
M  V30 3005 H 294.601 0.834808 -0.449222 0
M  V30 3006 H 294.307 3.33326 -1.12192 0
M  V30 3007 H 294.181 3.72659 0.583544 0
M  V30 3008 H 296.568 2.79902 0.934805 0
M  V30 3009 H 296.649 2.4316 -0.794144 0
M  V30 3010 H 296.293 4.9061 -1.31392 0
M  V30 3011 H 296.223 5.24816 0.43305 0
M  V30 3012 H 298.714 3.77785 -0.0932256 0
M  V30 3013 H 299.027 7.68489 -0.815113 0
M  V30 3014 H 297.372 6.91196 -0.726142 0
M  V30 3015 H 300.563 4.67674 -0.199687 0
M  V30 3016 H 300.736 6.4584 -0.528646 0
M  V30 3017 N 294.142 -0.090211 1.57342 0
M  V30 3018 C 295.558 -0.444547 1.53284 0
M  V30 3019 C 295.758 -1.80238 0.900914 0
M  V30 3020 O 294.814 -2.4759 0.495513 0
M  V30 3021 C 296.127 -0.402543 2.97993 0
M  V30 3022 C 297.675 -0.48405 3.09234 0
M  V30 3023 C 298.15 -0.472144 4.5556 0
M  V30 3024 N 299.641 -0.532757 4.60126 0
M  V30 3025 C 300.376 -0.545462 5.708 0
M  V30 3026 N 299.872 -0.514082 6.9089 0
M  V30 3027 N 301.665 -0.59064 5.58988 0
M  V30 3028 H 293.816 0.799121 1.96794 0
M  V30 3029 H 296.079 0.297965 0.899956 0
M  V30 3030 H 295.785 0.528106 3.47712 0
M  V30 3031 H 295.659 -1.21969 3.56936 0
M  V30 3032 H 298.046 -1.40512 2.595 0
M  V30 3033 H 298.127 0.361328 2.53235 0
M  V30 3034 H 297.771 0.445 5.05947 0
M  V30 3035 H 297.701 -1.3348 5.09402 0
M  V30 3036 H 300.192 -0.562006 3.73698 0
M  V30 3037 H 300.505 -0.527195 7.71 0
M  V30 3038 H 298.85 -0.481054 6.93333 0
M  V30 3039 H 302.041 -0.61272 4.64073 0
M  V30 3040 H 302.214 -0.597073 6.45243 0
M  V30 3041 N 295.62 -1.53406 -0.361157 0
M  V30 3042 C 296.868 -1.69467 -1.10115 0
M  V30 3043 C 297.189 -0.451352 -1.89705 0
M  V30 3044 O 296.459 0.534636 -1.88463 0
M  V30 3045 H 295.039 -0.624749 -0.409508 0
M  V30 3046 H 297.701 -1.90609 -0.406699 0
M  V30 3047 H 296.797 -2.55774 -1.78847 0
M  V30 3048 N 297.098 0.621204 -1.44841 0
M  V30 3049 C 298.509 1.20298 -1.42777 0
M  V30 3050 C 298.86 1.95639 -0.148259 0
M  V30 3051 O 297.985 2.02955 0.750892 0
M  V30 3052 C 298.58 2.1882 -2.58657 0
M  V30 3053 C 297.139 2.72403 -2.59756 0
M  V30 3054 C 296.286 1.4757 -2.34773 0
M  V30 3055 H 299.237 0.411297 -1.53278 0
M  V30 3056 H 299.258 3.01607 -2.31977 0
M  V30 3057 H 298.77 1.63957 -3.51766 0
M  V30 3058 H 296.871 3.31242 -1.70615 0
M  V30 3059 H 296.984 3.17765 -3.58556 0
M  V30 3060 H 295.348 1.76051 -1.8406 0
M  V30 3061 H 296.131 0.945954 -3.3001 0
M  V30 3062 N 298.576 1.31904 0.862503 0
M  V30 3063 C 299.506 1.22782 1.98612 0
M  V30 3064 C 300.487 0.113362 1.69722 0
M  V30 3065 O 301.672 0.299218 1.91881 0
M  V30 3066 C 298.802 0.942058 3.34279 0
M  V30 3067 C 297.756 2.0169 3.77499 0
M  V30 3068 C 297.082 1.58369 5.10709 0
M  V30 3069 C 298.382 3.43096 3.93805 0
M  V30 3070 H 300.076 2.16788 2.06502 0
M  V30 3071 H 297.622 1.04366 0.992154 0
M  V30 3072 H 299.575 0.864818 4.1243 0
M  V30 3073 H 298.299 -0.0336603 3.26583 0
M  V30 3074 H 296.958 2.08416 3.01593 0
M  V30 3075 H 296.606 0.595628 4.99461 0
M  V30 3076 H 296.306 2.30279 5.40597 0
M  V30 3077 H 297.83 1.52067 5.91361 0
M  V30 3078 H 299.244 3.39003 4.62331 0
M  V30 3079 H 297.641 4.13288 4.35101 0
M  V30 3080 H 298.711 3.83334 2.96957 0
M  V30 3081 N 300.054 -1.07777 1.14986 0
M  V30 3082 C 300.986 -2.14769 0.800436 0
M  V30 3083 C 301.999 -1.61739 -0.185595 0
M  V30 3084 O 303.188 -1.78462 0.0370358 0
M  V30 3085 C 300.288 -3.38481 0.168533 0
M  V30 3086 C 299.461 -4.20876 1.1909 0
M  V30 3087 C 298.52 -5.22976 0.581575 0
M  V30 3088 O 297.546 -5.55388 1.24633 0
M  V30 3089 N 298.748 -5.76976 -0.638706 0
M  V30 3090 H 301.513 -2.45348 1.72118 0
M  V30 3091 H 299.074 -1.23645 1.04515 0
M  V30 3092 H 301.066 -4.03916 -0.251764 0
M  V30 3093 H 299.636 -3.05651 -0.655467 0
M  V30 3094 H 298.856 -3.51322 1.78791 0
M  V30 3095 H 300.144 -4.7274 1.88133 0
M  V30 3096 H 299.542 -5.52886 -1.19723 0
M  V30 3097 H 298.099 -6.44061 -1.00142 0
M  V30 3098 N 301.532 -0.945985 -1.26051 0
M  V30 3099 C 302.495 -0.463897 -2.24456 0
M  V30 3100 C 303.495 0.427655 -1.55009 0
M  V30 3101 O 304.685 0.226157 -1.72726 0
M  V30 3102 C 301.817 0.330812 -3.39291 0
M  V30 3103 H 303.01 -1.33357 -2.68619 0
M  V30 3104 H 300.563 -0.728416 -1.38289 0
M  V30 3105 H 301.298 1.21852 -3.00537 0
M  V30 3106 H 301.083 -0.308679 -3.90883 0
M  V30 3107 H 302.573 0.657865 -4.12386 0
M  V30 3108 N 303.011 1.40521 -0.713556 0
M  V30 3109 C 303.974 2.29098 -0.0684347 0
M  V30 3110 C 304.974 1.45268 0.689472 0
M  V30 3111 O 306.164 1.66205 0.521677 0
M  V30 3112 C 303.296 3.28446 0.913024 0
M  V30 3113 H 304.489 2.87645 -0.84855 0
M  V30 3114 H 302.042 1.48809 -0.47809 0
M  V30 3115 H 302.777 2.74913 1.72027 0
M  V30 3116 H 302.562 3.90327 0.372472 0
M  V30 3117 H 304.052 3.94777 1.36165 0
M  V30 3118 N 304.489 0.459591 1.5075 0
M  V30 3119 C 305.736 -0.0993495 2.02256 0
M  V30 3120 C 306.064 -1.40751 1.34237 0
M  V30 3121 O 305.319 -1.90379 0.453228 0
M  V30 3122 C 305.618 -0.342866 3.55752 0
M  V30 3123 C 305.284 0.88218 4.42186 0
M  V30 3124 C 303.946 1.21808 4.65528 0
M  V30 3125 C 306.298 1.69837 4.92752 0
M  V30 3126 C 303.626 2.37045 5.36681 0
M  V30 3127 C 305.978 2.84192 5.65171 0
M  V30 3128 C 304.642 3.1821 5.8677 0
M  V30 3129 H 303.912 -0.0363545 0.740108 0
M  V30 3130 H 306.559 0.611329 1.8148 0
M  V30 3131 H 304.864 -1.13567 3.7498 0
M  V30 3132 H 306.561 -0.789121 3.93159 0
M  V30 3133 H 303.151 0.610467 4.2423 0
M  V30 3134 H 307.335 1.45205 4.74583 0
M  V30 3135 H 302.591 2.63689 5.51614 0
M  V30 3136 H 306.765 3.4779 6.03337 0
M  V30 3137 H 304.392 4.07613 6.41682 0
M  V30 3138 N 305.967 -1.56429 0.191757 0
M  V30 3139 C 307.195 -2.01867 -0.453586 0
M  V30 3140 C 307.61 -1.07191 -1.5542 0
M  V30 3141 O 306.967 -0.0762108 -1.82341 0
M  V30 3142 C 307.018 -3.47017 -1.013 0
M  V30 3143 O 306.739 -4.38078 0.0437005 0
M  V30 3144 C 308.24 -4.07956 -1.73456 0
M  V30 3145 H 305.46 -0.661211 -0.114199 0
M  V30 3146 H 308.004 -2.02295 0.299483 0
M  V30 3147 H 306.159 -3.47298 -1.71647 0
M  V30 3148 H 306.573 -5.23178 -0.372212 0
M  V30 3149 H 308.047 -5.1138 -2.07833 0
M  V30 3150 H 308.524 -3.51222 -2.63704 0
M  V30 3151 H 309.13 -4.11437 -1.07702 0
M  V30 3152 N 307.445 0.0818655 -1.57387 0
M  V30 3153 C 308.673 0.796108 -1.9097 0
M  V30 3154 C 309.088 1.71626 -0.786757 0
M  V30 3155 O 308.445 1.80908 0.240513 0
M  V30 3156 C 308.496 1.59829 -3.24248 0
M  V30 3157 O 308.217 0.715131 -4.32224 0
M  V30 3158 C 309.718 2.41442 -3.7178 0
M  V30 3159 H 306.938 0.22691 -0.631469 0
M  V30 3160 H 309.482 0.0551439 -2.04426 0
M  V30 3161 H 307.637 2.29163 -3.12351 0
M  V30 3162 H 308.051 1.27205 -5.08841 0
M  V30 3163 H 309.525 2.932 -4.67694 0
M  V30 3164 H 310.002 3.2051 -3.00283 0
M  V30 3165 H 310.608 1.77283 -3.86589 0
M  V30 3166 N 308.923 1.53595 0.353017 0
M  V30 3167 C 309.853 1.83902 1.43883 0
M  V30 3168 C 310.834 0.693421 1.55324 0
M  V30 3169 O 312.019 0.944452 1.69687 0
M  V30 3170 C 309.149 2.04016 2.8106 0
M  V30 3171 C 308.103 3.19814 2.84434 0
M  V30 3172 C 307.429 3.25244 4.24406 0
M  V30 3173 C 308.729 4.58133 2.50822 0
M  V30 3174 H 310.423 2.74835 1.1877 0
M  V30 3175 H 307.969 1.32242 0.569917 0
M  V30 3176 H 309.922 2.238 3.57059 0
M  V30 3177 H 308.646 1.09804 3.07588 0
M  V30 3178 H 307.305 2.9987 2.10887 0
M  V30 3179 H 306.953 2.28646 4.48029 0
M  V30 3180 H 306.653 4.03054 4.27576 0
M  V30 3181 H 308.177 3.47228 5.0226 0
M  V30 3182 H 309.591 4.77995 3.16534 0
M  V30 3183 H 307.988 5.38276 2.6529 0
M  V30 3184 H 309.058 4.62387 1.46034 0
M  V30 3185 N 310.401 -0.613514 1.45168 0
M  V30 3186 C 311.311 -1.75296 1.55912 0
M  V30 3187 C 312.327 -1.68244 0.443856 0
M  V30 3188 O 313.503 -1.88706 0.70371 0
M  V30 3189 C 310.568 -3.1174 1.5172 0
M  V30 3190 C 309.629 -3.30291 2.74238 0
M  V30 3191 C 308.862 -4.60226 2.70236 0
M  V30 3192 O 309.085 -5.42168 1.77229 0
M  V30 3193 O 308.019 -4.81361 3.61352 0
M  V30 3194 H 311.845 -1.69183 2.52212 0
M  V30 3195 H 309.43 -0.776886 1.27612 0
M  V30 3196 H 311.312 -3.93044 1.51968 0
M  V30 3197 H 309.987 -3.18357 0.585697 0
M  V30 3198 H 308.894 -2.48598 2.79553 0
M  V30 3199 H 310.227 -3.28547 3.66494 0
M  V30 3200 N 311.879 -1.3236 -0.855495 0
M  V30 3201 C 312.809 -1.23833 -1.97958 0
M  V30 3202 C 313.79 -0.122361 -1.69659 0
M  V30 3203 O 314.975 -0.30939 -1.9172 0
M  V30 3204 C 312.105 -0.959772 -3.33775 0
M  V30 3205 C 311.059 -2.03689 -3.76424 0
M  V30 3206 C 310.385 -1.61075 -5.09862 0
M  V30 3207 C 311.685 -3.4518 -3.9198 0
M  V30 3208 H 313.379 -2.1788 -2.0535 0
M  V30 3209 H 310.925 -1.04891 -0.986605 0
M  V30 3210 H 312.878 -0.886678 -4.11966 0
M  V30 3211 H 311.602 0.0163404 -3.26596 0
M  V30 3212 H 310.261 -2.10012 -3.00484 0
M  V30 3213 H 309.909 -0.622107 -4.99138 0
M  V30 3214 H 309.609 -2.33143 -5.39368 0
M  V30 3215 H 311.133 -1.55201 -5.90546 0
M  V30 3216 H 312.547 -3.4145 -4.60526 0
M  V30 3217 H 310.944 -4.1559 -4.32903 0
M  V30 3218 H 312.014 -3.84903 -2.94919 0
M  V30 3219 N 313.357 1.07166 -1.15556 0
M  V30 3220 C 314.773 1.31899 -0.898603 0
M  V30 3221 C 314.973 1.96333 0.453383 0
M  V30 3222 O 314.029 2.22438 1.19489 0
M  V30 3223 C 315.342 2.20826 -2.04099 0
M  V30 3224 C 316.89 2.34269 -2.07574 0
M  V30 3225 C 317.365 3.26546 -3.21141 0
M  V30 3226 N 318.856 3.34127 -3.20801 0
M  V30 3227 C 319.591 4.05595 -4.05315 0
M  V30 3228 N 319.087 4.79661 -4.99897 0
M  V30 3229 N 320.88 4.01555 -3.93332 0
M  V30 3230 H 313.031 0.637302 -2.02613 0
M  V30 3231 H 315.294 0.343468 -0.883591 0
M  V30 3232 H 315 1.80744 -3.01703 0
M  V30 3233 H 314.874 3.21364 -1.97496 0
M  V30 3234 H 317.261 2.73603 -1.10568 0
M  V30 3235 H 317.342 1.33429 -2.18244 0
M  V30 3236 H 316.986 2.87931 -4.184 0
M  V30 3237 H 316.916 4.27345 -3.07708 0
M  V30 3238 H 319.407 2.81336 -2.52306 0
M  V30 3239 H 319.72 5.31694 -5.60822 0
M  V30 3240 H 318.065 4.78671 -5.03884 0
M  V30 3241 H 321.256 3.42806 -3.18751 0
M  V30 3242 H 321.429 4.56987 -4.5942 0
M  V30 3243 N 314.835 0.952656 1.25548 0
M  V30 3244 C 315.745 0.47782 2.29682 0
M  V30 3245 C 316.761 -0.453859 1.67977 0
M  V30 3246 O 317.937 -0.330587 1.98668 0
M  V30 3247 C 315.002 -0.238655 3.45878 0
M  V30 3248 C 314.063 0.730994 4.23031 0
M  V30 3249 C 313.296 0.0486165 5.33678 0
M  V30 3250 O 313.519 -1.16612 5.58353 0
M  V30 3251 O 312.453 0.733152 5.97418 0
M  V30 3252 H 316.279 1.34312 2.72386 0
M  V30 3253 H 313.864 0.719026 1.30959 0
M  V30 3254 H 315.746 -0.641774 4.16484 0
M  V30 3255 H 314.421 -1.07916 3.05181 0
M  V30 3256 H 313.328 1.18428 3.5486 0
M  V30 3257 H 314.661 1.53946 4.67506 0
M  V30 3258 N 316.313 -1.40141 0.720998 0
M  V30 3259 C 317.243 -2.33339 0.0867621 0
M  V30 3260 C 318.224 -1.53178 -0.739622 0
M  V30 3261 O 319.409 -1.81625 -0.687449 0
M  V30 3262 C 316.539 -3.37194 -0.831728 0
M  V30 3263 C 315.493 -4.27857 -0.110558 0
M  V30 3264 C 314.819 -5.22294 -1.14513 0
M  V30 3265 C 316.119 -5.11872 1.0385 0
M  V30 3266 H 317.813 -2.86626 0.865219 0
M  V30 3267 H 315.359 -1.37814 0.417516 0
M  V30 3268 H 317.312 -4.01335 -1.28485 0
M  V30 3269 H 316.036 -2.82314 -1.64214 0
M  V30 3270 H 314.695 -3.65176 0.322797 0
M  V30 3271 H 314.343 -4.63717 -1.94874 0
M  V30 3272 H 314.043 -5.83797 -0.667446 0
M  V30 3273 H 315.567 -5.89312 -1.59824 0
M  V30 3274 H 316.981 -5.69436 0.664482 0
M  V30 3275 H 315.378 -5.82445 1.4449 0
M  V30 3276 H 316.448 -4.4753 1.86668 0
M  V30 3277 N 317.792 -0.46758 -1.50504 0
M  V30 3278 C 318.755 0.317059 -2.26996 0
M  V30 3279 C 319.755 0.923513 -1.31635 0
M  V30 3280 O 320.945 0.793239 -1.55091 0
M  V30 3281 C 318.077 1.45134 -3.08462 0
M  V30 3282 H 319.27 -0.353723 -2.97807 0
M  V30 3283 H 316.823 -0.221545 -1.54722 0
M  V30 3284 H 317.558 2.15728 -2.4214 0
M  V30 3285 H 317.343 1.02232 -3.78538 0
M  V30 3286 H 318.833 2.00493 -3.66323 0
M  V30 3287 N 319.27 1.56325 -0.20005 0
M  V30 3288 C 320.547 1.89484 0.48529 0
M  V30 3289 C 320.927 1.1143 1.79294 0
M  V30 3290 O 320.275 0.216919 2.27468 0
M  V30 3291 C 320.485 3.41923 0.699243 0
M  V30 3292 C 321.833 4.12256 1.01638 0
M  V30 3293 O 322.857 3.47402 0.786792 0
M  V30 3294 O 321.716 5.26887 1.45095 0
M  V30 3295 H 318.81 0.787144 0.253639 0
M  V30 3296 H 321.356 1.67985 -0.240633 0
M  V30 3297 H 320.128 3.90658 -0.224008 0
M  V30 3298 H 319.751 3.69131 1.47744 0
M  V30 3299 N 320.748 -0.0735177 1.57428 0
M  V30 3300 C 321.678 -1.0879 2.06608 0
M  V30 3301 C 322.659 -1.40473 0.959237 0
M  V30 3302 O 323.844 -1.5013 1.23185 0
M  V30 3303 C 320.974 -2.40183 2.50857 0
M  V30 3304 C 319.928 -2.22858 3.65402 0
M  V30 3305 C 319.254 -3.59619 3.957 0
M  V30 3306 C 320.554 -1.65123 4.95511 0
M  V30 3307 H 322.248 -0.678673 2.91607 0
M  V30 3308 H 319.794 -0.325013 1.40284 0
M  V30 3309 H 321.747 -3.11437 2.83874 0
M  V30 3310 H 320.471 -2.83083 1.62885 0
M  V30 3311 H 319.13 -1.54045 3.32664 0
M  V30 3312 H 318.778 -4.00086 3.04861 0
M  V30 3313 H 318.478 -3.48866 4.72828 0
M  V30 3314 H 320.002 -4.32306 4.31212 0
M  V30 3315 H 321.416 -2.26241 5.26771 0
M  V30 3316 H 319.813 -1.65071 5.7695 0
M  V30 3317 H 320.883 -0.612559 4.81015 0
M  V30 3318 N 322.226 -1.5378 -0.344866 0
M  V30 3319 C 323.503 -1.61589 -1.10219 0
M  V30 3320 C 323.883 -0.436316 -2.06542 0
M  V30 3321 O 323.231 0.571543 -2.21237 0
M  V30 3322 C 323.441 -2.97602 -1.82301 0
M  V30 3323 C 324.789 -3.5291 -2.36093 0
M  V30 3324 O 325.813 -2.99768 -1.924 0
M  V30 3325 O 324.672 -4.45859 -3.16026 0
M  V30 3326 H 321.766 -0.653522 -0.506792 0
M  V30 3327 H 324.312 -1.66126 -0.346465 0
M  V30 3328 H 323.084 -3.74893 -1.12121 0
M  V30 3329 H 322.707 -2.9665 -2.64735 0
M  V30 3330 N 323.704 0.605807 -1.45491 0
M  V30 3331 C 324.952 1.36207 -1.49305 0
M  V30 3332 C 325.273 1.94519 -0.136863 0
M  V30 3333 O 324.543 1.77261 0.833983 0
M  V30 3334 H 323.123 0.50565 -0.549843 0
M  V30 3335 H 325.785 0.711239 -1.81459 0
M  V30 3336 H 324.881 2.18058 -2.23287 0
M  V30 3337 N 325.182 1.32811 0.848464 0
M  V30 3338 C 326.428 1.23907 1.60546 0
M  V30 3339 C 326.761 -0.197161 1.93197 0
M  V30 3340 O 326.036 -1.13596 1.5788 0
M  V30 3341 C 326.319 2.10489 2.92175 0
M  V30 3342 C 326.172 3.62522 2.66266 0
M  V30 3343 C 327.491 1.97075 3.93509 0
M  V30 3344 H 324.61 0.451459 0.58254 0
M  V30 3345 H 327.252 1.62818 0.979296 0
M  V30 3346 H 325.402 1.77434 3.45614 0
M  V30 3347 H 327.074 4.05821 2.19334 0
M  V30 3348 H 325.317 3.84879 2.00126 0
M  V30 3349 H 325.988 4.18437 3.6002 0
M  V30 3350 H 328.464 2.26045 3.49346 0
M  V30 3351 H 327.34 2.59923 4.83457 0
M  V30 3352 H 327.601 0.940186 4.31987 0
M  V30 3353 N 326.66 -1.06551 1.16123 0
M  V30 3354 C 327.937 -1.76097 0.85142 0
M  V30 3355 C 328.317 -2.00802 -0.6513 0
M  V30 3356 O 327.665 -1.63302 -1.59827 0
M  V30 3357 C 327.875 -3.06384 1.67122 0
M  V30 3358 C 329.223 -3.80585 1.88255 0
M  V30 3359 O 330.247 -3.16218 1.63966 0
M  V30 3360 O 329.106 -4.96212 2.2899 0
M  V30 3361 H 326.2 -0.765102 0.313923 0
M  V30 3362 H 328.746 -1.12844 1.26745 0
M  V30 3363 H 327.518 -2.84071 2.69108 0
M  V30 3364 H 327.141 -3.77371 1.25206 0
M  V30 3365 N 328.138 -0.959301 -1.25041 0
M  V30 3366 C 329.384 -0.617525 -1.9317 0
M  V30 3367 C 329.717 0.843981 -1.74902 0
M  V30 3368 O 328.992 1.60615 -1.09696 0
M  V30 3369 C 329.275 -0.982736 -3.46431 0
M  V30 3370 C 329.128 -2.50032 -3.73904 0
M  V30 3371 C 330.447 -0.511176 -4.37121 0
M  V30 3372 H 327.566 -0.22582 -0.701552 0
M  V30 3373 H 330.208 -1.19679 -1.4757 0
M  V30 3374 H 328.358 -0.489806 -3.854 0
M  V30 3375 H 330.03 -3.06737 -3.44544 0
M  V30 3376 H 328.273 -2.93598 -3.19348 0
M  V30 3377 H 328.944 -2.70635 -4.81103 0
M  V30 3378 H 331.42 -0.934075 -4.0548 0
M  V30 3379 H 330.296 -0.795361 -5.43107 0
M  V30 3380 H 330.557 0.588834 -4.38161 0
M  V30 3381 N 329.616 1.39756 -0.72842 0
M  V30 3382 C 330.862 2.00942 -0.273892 0
M  V30 3383 C 331.195 1.57656 1.13394 0
M  V30 3384 O 330.47 0.802434 1.77176 0
M  V30 3385 C 330.753 3.58211 -0.368346 0
M  V30 3386 C 330.606 4.11534 -1.81548 0
M  V30 3387 C 331.925 4.39372 0.253054 0
M  V30 3388 H 329.044 0.730047 -0.100996 0
M  V30 3389 H 331.686 1.66056 -0.923337 0
M  V30 3390 H 329.836 3.88061 0.184588 0
M  V30 3391 H 331.508 3.92431 -2.42478 0
M  V30 3392 H 329.751 3.65341 -2.33898 0
M  V30 3393 H 330.422 5.20682 -1.83288 0
M  V30 3394 H 332.898 4.15527 -0.218224 0
M  V30 3395 H 331.774 5.48677 0.156585 0
M  V30 3396 H 332.035 4.21358 1.33826 0
M  V30 3397 N 331.094 0.475555 1.50254 0
M  V30 3398 C 332.343 -0.0795996 2.01543 0
M  V30 3399 C 332.656 -1.4038 1.36209 0
M  V30 3400 O 333.862 -2.04415 1.7868 0
M  V30 3401 C 332.318 -0.192363 3.59386 0
M  V30 3402 C 331.926 1.12367 4.33679 0
M  V30 3403 C 333.67 -0.699238 4.18701 0
M  V30 3404 C 331.577 0.974453 5.83317 0
M  V30 3405 H 330.507 -0.0335228 0.753254 0
M  V30 3406 H 333.158 0.611128 1.73025 0
M  V30 3407 H 331.54 -0.946974 3.84511 0
M  V30 3408 H 332.714 1.88958 4.20276 0
M  V30 3409 H 331.029 1.562 3.85993 0
M  V30 3410 H 333.626 -0.827978 5.28251 0
M  V30 3411 H 333.969 -1.69171 3.80377 0
M  V30 3412 H 334.502 -0.00188807 3.978 0
M  V30 3413 H 331.241 1.94042 6.26121 0
M  V30 3414 H 330.761 0.248998 5.99283 0
M  V30 3415 H 332.44 0.642867 6.43798 0
M  V30 3416 N 332.573 -1.56217 0.208337 0
M  V30 3417 C 333.85 -1.89739 -0.475234 0
M  V30 3418 C 334.23 -1.1238 -1.78701 0
M  V30 3419 O 333.578 -0.228979 -2.2735 0
M  V30 3420 C 333.788 -3.42289 -0.681101 0
M  V30 3421 C 335.136 -4.12789 -0.994507 0
M  V30 3422 O 336.16 -3.47814 -0.768357 0
M  V30 3423 O 335.019 -5.27649 -1.42299 0
M  V30 3424 H 332.113 -0.788478 -0.249461 0
M  V30 3425 H 334.659 -1.67855 0.249538 0
M  V30 3426 H 333.431 -3.90534 0.244722 0
M  V30 3427 H 333.054 -3.69909 -1.45785 0
M  V30 3428 N 334.051 0.0651679 -1.57465 0
M  V30 3429 C 335.462 0.616213 -1.76238 0
M  V30 3430 C 335.813 1.7756 -0.834689 0
M  V30 3431 O 334.938 2.1639 -0.0204156 0
M  V30 3432 C 335.533 1.12462 -3.1959 0
M  V30 3433 C 334.092 1.62147 -3.39684 0
M  V30 3434 C 333.239 0.543739 -2.71917 0
M  V30 3435 H 336.19 -0.161022 -1.57881 0
M  V30 3436 H 336.211 1.99324 -3.24114 0
M  V30 3437 H 335.723 0.280592 -3.87084 0
M  V30 3438 H 333.824 2.48854 -2.77313 0
M  V30 3439 H 333.937 1.69385 -4.48158 0
M  V30 3440 H 332.301 0.990352 -2.34657 0
M  V30 3441 H 333.084 -0.290216 -3.42071 0
M  V30 3442 N 335.529 1.53961 0.336706 0
M  V30 3443 C 336.492 1.81724 1.39675 0
M  V30 3444 C 337.492 0.688532 1.45313 0
M  V30 3445 O 338.682 0.956829 1.45569 0
M  V30 3446 C 335.814 1.96543 2.78538 0
M  V30 3447 H 337.007 2.76424 1.16318 0
M  V30 3448 H 334.56 1.45478 0.571474 0
M  V30 3449 H 335.295 1.0401 3.07168 0
M  V30 3450 H 335.08 2.78665 2.75841 0
M  V30 3451 H 336.57 2.19516 3.5525 0
M  V30 3452 N 337.007 -0.598083 1.45811 0
M  V30 3453 C 337.917 -1.73632 1.57763 0
M  V30 3454 C 338.933 -1.67763 0.461676 0
M  V30 3455 O 340.109 -1.87949 0.723685 0
M  V30 3456 C 337.174 -3.10114 1.55018 0
M  V30 3457 C 336.235 -3.27364 2.77726 0
M  V30 3458 C 335.468 -4.57334 2.75102 0
M  V30 3459 O 335.691 -5.40258 1.8297 0
M  V30 3460 O 334.625 -4.77502 3.66437 0
M  V30 3461 H 338.451 -1.66498 2.53992 0
M  V30 3462 H 336.036 -0.763308 1.28429 0
M  V30 3463 H 337.918 -3.9141 1.56129 0
M  V30 3464 H 336.593 -3.17718 0.619431 0
M  V30 3465 H 335.5 -2.45619 2.82174 0
M  V30 3466 H 336.833 -3.24641 3.69958 0
M  V30 3467 N 338.485 -1.33259 -0.841409 0
M  V30 3468 C 339.415 -1.25926 -1.96634 0
M  V30 3469 C 340.396 -0.140349 -1.6952 0
M  V30 3470 O 341.581 -0.329707 -1.91381 0
M  V30 3471 C 338.711 -0.99512 -3.32738 0
M  V30 3472 C 337.665 -2.0767 -3.74242 0
M  V30 3473 C 336.991 -1.66474 -5.08125 0
M  V30 3474 C 338.291 -3.49318 -3.88297 0
M  V30 3475 H 339.985 -2.20046 -2.03027 0
M  V30 3476 H 337.531 -1.05931 -0.975425 0
M  V30 3477 H 339.484 -0.930323 -4.11002 0
M  V30 3478 H 338.208 -0.0183004 -3.26595 0
M  V30 3479 H 336.867 -2.13187 -2.98239 0
M  V30 3480 H 336.515 -0.675012 -4.9845 0
M  V30 3481 H 336.215 -2.3885 -5.36865 0
M  V30 3482 H 337.739 -1.61455 -5.88867 0
M  V30 3483 H 339.153 -3.46316 -4.56879 0
M  V30 3484 H 337.55 -4.20158 -4.28471 0
M  V30 3485 H 338.62 -3.8801 -2.9082 0
M  V30 3486 N 339.963 1.05934 -1.16686 0
M  V30 3487 C 341.24 1.75643 -0.860747 0
M  V30 3488 C 341.62 2.01144 0.640641 0
M  V30 3489 O 340.968 1.64147 1.58959 0
M  V30 3490 C 341.178 3.05493 -1.68745 0
M  V30 3491 C 342.526 3.79581 -1.90271 0
M  V30 3492 O 343.55 3.15344 -1.65641 0
M  V30 3493 O 342.409 4.9499 -2.31618 0
M  V30 3494 H 339.503 0.763426 -0.317977 0
M  V30 3495 H 342.049 1.1217 -1.27342 0
M  V30 3496 H 340.821 2.8264 -2.70611 0
M  V30 3497 H 340.444 3.76702 -1.27206 0
M  V30 3498 N 341.441 0.965919 1.2453 0
M  V30 3499 C 342.689 0.625593 1.92174 0
M  V30 3500 C 343.01 -0.841652 1.75901 0
M  V30 3501 O 342.28 -1.60061 1.12948 0
M  V30 3502 H 340.86 0.228388 0.71123 0
M  V30 3503 H 343.522 1.2266 1.51461 0
M  V30 3504 H 342.618 0.864653 2.99884 0
M  V30 3505 N 342.919 -1.39368 0.735821 0
M  V30 3506 C 344.168 -1.99733 0.281004 0
M  V30 3507 C 344.481 -1.59055 -1.13846 0
M  V30 3508 O 345.687 -2.12262 -1.69284 0
M  V30 3509 C 344.143 -3.57057 0.451462 0
M  V30 3510 C 343.751 -4.06697 1.87886 0
M  V30 3511 C 345.495 -4.2446 0.0584616 0
M  V30 3512 C 343.402 -5.56598 1.99883 0
M  V30 3513 H 342.332 -0.747163 0.101311 0
M  V30 3514 H 344.983 -1.59357 0.909819 0
M  V30 3515 H 343.365 -3.95234 -0.246263 0
M  V30 3516 H 344.539 -3.79853 2.60861 0
M  V30 3517 H 342.854 -3.5196 2.22515 0
M  V30 3518 H 345.451 -5.34549 0.127099 0
M  V30 3519 H 345.794 -4.04444 -0.986433 0
M  V30 3520 H 346.327 -3.9146 0.707374 0
M  V30 3521 H 343.066 -5.81494 3.02564 0
M  V30 3522 H 342.586 -5.85242 1.31346 0
M  V30 3523 H 344.265 -6.22022 1.78039 0
M  V30 3524 N 344.397 -0.483516 -1.5 0
M  V30 3525 C 345.625 0.0644831 -2.06799 0
M  V30 3526 C 346.04 1.32399 -1.34596 0
M  V30 3527 O 345.397 1.77626 -0.418946 0
M  V30 3528 C 345.448 0.339927 -3.59898 0
M  V30 3529 O 345.169 -0.869635 -4.29382 0
M  V30 3530 C 346.67 0.933515 -4.33359 0
M  V30 3531 H 343.89 -0.0126333 -0.670881 0
M  V30 3532 H 346.434 -0.675864 -1.93009 0
M  V30 3533 H 344.589 1.03022 -3.7345 0
M  V30 3534 H 345.003 -0.62179 -5.20801 0
M  V30 3535 H 346.477 1.07593 -5.41413 0
M  V30 3536 H 346.954 1.92685 -3.94676 0
M  V30 3537 H 347.56 0.281221 -4.24369 0
M  V30 3538 N 345.875 1.56104 -0.216619 0
M  V30 3539 C 347.152 1.89988 0.465165 0
M  V30 3540 C 347.532 1.13326 1.78102 0
M  V30 3541 O 346.88 0.241033 2.27225 0
M  V30 3542 C 347.09 3.42646 0.662939 0
M  V30 3543 C 348.438 4.13311 0.972602 0
M  V30 3544 O 349.462 3.48217 0.749901 0
M  V30 3545 O 348.321 5.28396 1.39499 0
M  V30 3546 H 345.415 0.78979 0.245276 0
M  V30 3547 H 347.961 1.67721 -0.258436 0
M  V30 3548 H 346.733 3.90399 -0.26543 0
M  V30 3549 H 346.356 3.70677 1.43821 0
M  V30 3550 N 347.353 -0.0568162 1.57498 0
M  V30 3551 C 348.263 -1.08346 2.08083 0
M  V30 3552 C 349.279 -1.41439 1.01346 0
M  V30 3553 O 350.455 -1.51316 1.32912 0
M  V30 3554 C 347.52 -2.37352 2.52715 0
M  V30 3555 C 346.581 -2.11093 3.73816 0
M  V30 3556 C 345.814 -3.33949 4.1631 0
M  V30 3557 O 346.037 -4.43622 3.58547 0
M  V30 3558 O 344.971 -3.21279 5.08983 0
M  V30 3559 H 348.797 -0.683667 2.95905 0
M  V30 3560 H 346.382 -0.271965 1.46904 0
M  V30 3561 H 348.264 -3.13246 2.81877 0
M  V30 3562 H 346.939 -2.76681 1.68016 0
M  V30 3563 H 345.846 -1.32856 3.49714 0
M  V30 3564 H 347.179 -1.76637 4.59413 0
M  V30 3565 N 348.832 -1.54138 -0.328536 0
M  V30 3566 C 350.109 -1.62749 -1.08499 0
M  V30 3567 C 350.489 -0.458198 -2.06067 0
M  V30 3568 O 349.837 0.548046 -2.2183 0
M  V30 3569 C 350.047 -2.99519 -1.79135 0
M  V30 3570 C 351.395 -3.55394 -2.32337 0
M  V30 3571 O 352.419 -3.01792 -1.89209 0
M  V30 3572 O 351.278 -4.49186 -3.11279 0
M  V30 3573 H 348.372 -0.65886 -0.499832 0
M  V30 3574 H 350.918 -1.66484 -0.328826 0
M  V30 3575 H 349.69 -3.76061 -1.08139 0
M  V30 3576 H 349.313 -2.99441 -2.61574 0
M  V30 3577 N 350.31 0.590341 -1.46126 0
M  V30 3578 C 351.273 1.68194 -1.55703 0
M  V30 3579 C 352.273 1.54808 -0.434868 0
M  V30 3580 O 353.463 1.59564 -0.698928 0
M  V30 3581 C 350.595 3.07575 -1.47005 0
M  V30 3582 H 351.788 1.61064 -2.52979 0
M  V30 3583 H 349.341 0.807541 -1.33823 0
M  V30 3584 H 350.076 3.20268 -0.509785 0
M  V30 3585 H 349.861 3.187 -2.28414 0
M  V30 3586 H 351.351 3.87055 -1.56776 0
M  V30 3587 N 351.788 1.33704 0.83433 0
M  V30 3588 C 352.751 1.24244 1.92603 0
M  V30 3589 C 353.751 0.160383 1.59998 0
M  V30 3590 O 354.941 0.412228 1.69252 0
M  V30 3591 C 352.073 0.91555 3.28376 0
M  V30 3592 H 353.266 2.21287 2.02416 0
M  V30 3593 H 350.819 1.17827 1.02696 0
M  V30 3594 H 351.554 -0.0521886 3.24258 0
M  V30 3595 H 351.339 1.69811 3.53422 0
M  V30 3596 H 352.829 0.874231 4.08347 0
M  V30 3597 N 353.266 -1.05314 1.17247 0
M  V30 3598 C 354.229 -2.112 0.890357 0
M  V30 3599 C 355.229 -1.60359 -0.118943 0
M  V30 3600 O 356.419 -1.73833 0.113086 0
M  V30 3601 C 353.551 -3.39266 0.333422 0
M  V30 3602 H 354.744 -2.37659 1.82916 0
M  V30 3603 H 352.297 -1.21538 0.982758 0
M  V30 3604 H 353.032 -3.18462 -0.612587 0
M  V30 3605 H 352.817 -3.77477 1.06082 0
M  V30 3606 H 354.307 -4.17315 0.154322 0
M  V30 3607 N 354.744 -0.972509 -1.24016 0
M  V30 3608 C 355.99 -0.637978 -1.92504 0
M  V30 3609 C 356.323 0.825383 -1.75787 0
M  V30 3610 O 355.598 1.59442 -1.11393 0
M  V30 3611 C 355.881 -1.01942 -3.45369 0
M  V30 3612 C 355.734 -2.53983 -3.71231 0
M  V30 3613 C 357.053 -0.55751 -4.36555 0
M  V30 3614 H 354.172 -0.233248 -0.699117 0
M  V30 3615 H 356.814 -1.21238 -1.46292 0
M  V30 3616 H 354.964 -0.530656 -3.84859 0
M  V30 3617 H 356.636 -3.10374 -3.41271 0
M  V30 3618 H 354.879 -2.96968 -3.16216 0
M  V30 3619 H 355.55 -2.75723 -4.78206 0
M  V30 3620 H 358.026 -0.977029 -4.04467 0
M  V30 3621 H 356.902 -0.85292 -5.42233 0
M  V30 3622 H 357.163 0.542328 -4.38761 0
M  V30 3623 N 356.222 1.38976 -0.743202 0
M  V30 3624 C 357.47 1.99948 -0.29417 0
M  V30 3625 C 357.791 1.59279 1.12495 0
M  V30 3626 O 357.061 0.844808 1.76748 0
M  V30 3627 H 355.641 0.739473 -0.105774 0
M  V30 3628 H 358.303 1.699 -0.954986 0
M  V30 3629 H 357.399 3.10142 -0.349056 0
M  V30 3630 N 357.7 0.491464 1.49741 0
M  V30 3631 C 358.647 -0.292027 2.28945 0
M  V30 3632 C 359.617 -0.968973 1.34908 0
M  V30 3633 O 360.802 -0.97748 1.6386 0
M  V30 3634 C 357.942 -1.35617 3.17336 0
M  V30 3635 C 357.055 -0.691957 4.26422 0
M  V30 3636 C 356.19 -1.73572 5.02042 0
M  V30 3637 C 355.229 -1.05286 6.02977 0
M  V30 3638 N 354.366 -2.0404 6.71798 0
M  V30 3639 H 359.206 0.389654 2.95442 0
M  V30 3640 H 356.743 0.204003 1.45679 0
M  V30 3641 H 358.701 -1.98502 3.66951 0
M  V30 3642 H 357.331 -2.00674 2.52844 0
M  V30 3643 H 356.383 0.0499523 3.80367 0
M  V30 3644 H 357.695 -0.153946 4.98562 0
M  V30 3645 H 356.849 -2.43987 5.55478 0
M  V30 3646 H 355.588 -2.30757 4.29654 0
M  V30 3647 H 354.593 -0.334446 5.48782 0
M  V30 3648 H 355.818 -0.487636 6.77347 0
M  V30 3649 H 353.764 -2.60205 6.02187 0
M  V30 3650 H 353.681 -1.55279 7.39881 0
M  V30 3651 H 354.949 -2.73772 7.29842 0
M  V30 3652 N 359.178 -1.55987 0.224894 0
M  V30 3653 C 360.424 -1.98684 -0.406502 0
M  V30 3654 C 360.757 -1.11248 -1.59177 0
M  V30 3655 O 360.032 -0.170909 -1.93748 0
M  V30 3656 C 360.315 -3.50218 -0.837808 0
M  V30 3657 C 360.168 -4.48426 0.351332 0
M  V30 3658 C 361.487 -4.06243 -1.69278 0
M  V30 3659 H 358.606 -0.722337 -0.146283 0
M  V30 3660 H 361.248 -1.87255 0.321799 0
M  V30 3661 H 359.398 -3.60089 -1.45837 0
M  V30 3662 H 361.07 -4.50562 0.989526 0
M  V30 3663 H 359.313 -4.22159 0.998207 0
M  V30 3664 H 359.984 -5.52 0.00655905 0
M  V30 3665 H 362.46 -3.99337 -1.16914 0
M  V30 3666 H 361.336 -5.12581 -1.96346 0
M  V30 3667 H 361.597 -3.53332 -2.65723 0
M  V30 3668 N 360.656 0.0484629 -1.57525 0
M  V30 3669 C 361.896 0.748196 -1.90214 0
M  V30 3670 C 362.26 1.73545 -0.821347 0
M  V30 3671 O 363.461 2.48201 -1.03198 0
M  V30 3672 C 361.732 1.41727 -3.28098 0
M  V30 3673 S 363.291 2.14884 -3.82584 0
M  V30 3674 H 360.109 0.248307 -0.666232 0
M  V30 3675 H 362.711 0.00343188 -1.955 0
M  V30 3676 H 361.415 0.685244 -4.04639 0
M  V30 3677 H 360.946 2.20099 -3.26068 0
M  V30 3678 H 362.961 3.41755 -3.59747 0
M  V30 3679 N 362.134 1.5431 0.320358 0
M  V30 3680 C 363.081 1.83918 1.39438 0
M  V30 3681 C 364.051 0.686525 1.51248 0
M  V30 3682 O 365.236 0.933269 1.66417 0
M  V30 3683 C 362.376 2.075 2.75749 0
M  V30 3684 C 361.489 3.35177 2.72544 0
M  V30 3685 C 360.624 3.48704 4.00723 0
M  V30 3686 C 359.663 4.70244 3.91838 0
M  V30 3687 N 358.8 4.80679 5.11754 0
M  V30 3688 H 363.64 2.75544 1.13489 0
M  V30 3689 H 361.177 1.36459 0.549309 0
M  V30 3690 H 363.135 2.19166 3.54996 0
M  V30 3691 H 361.765 1.19163 3 0
M  V30 3692 H 360.817 3.32233 1.85271 0
M  V30 3693 H 362.129 4.24534 2.61863 0
M  V30 3694 H 361.283 3.59928 4.88402 0
M  V30 3695 H 360.022 2.57445 4.14214 0
M  V30 3696 H 359.027 4.59072 3.02544 0
M  V30 3697 H 360.252 5.6289 3.7991 0
M  V30 3698 H 358.198 3.92337 5.25745 0
M  V30 3699 H 358.115 5.64007 5.0342 0
M  V30 3700 H 359.383 4.96239 6.01138 0
M  V30 3701 N 363.613 -0.582584 1.46437 0
M  V30 3702 C 364.545 -1.70618 1.53043 0
M  V30 3703 C 365.558 -1.57322 0.418769 0
M  V30 3704 O 366.747 -1.64744 0.687136 0
M  V30 3705 C 363.847 -3.08869 1.39474 0
M  V30 3706 C 363.02 -3.48166 2.64762 0
M  V30 3707 C 362.079 -4.65478 2.4539 0
M  V30 3708 O 361.105 -4.71333 3.19114 0
M  V30 3709 N 362.307 -5.60365 1.51564 0
M  V30 3710 H 365.072 -1.65405 2.49923 0
M  V30 3711 H 362.633 -0.768567 1.42494 0
M  V30 3712 H 364.625 -3.85143 1.24287 0
M  V30 3713 H 363.195 -3.08449 0.507758 0
M  V30 3714 H 362.415 -2.61598 2.9489 0
M  V30 3715 H 363.703 -3.71188 3.4799 0
M  V30 3716 H 363.101 -5.5837 0.907705 0
M  V30 3717 H 361.658 -6.36068 1.4234 0
M  V30 3718 N 365.091 -1.34144 -0.827227 0
M  V30 3719 C 366.039 -1.25364 -1.95925 0
M  V30 3720 C 367.033 -0.152608 -1.68711 0
M  V30 3721 O 368.239 -0.317311 -1.77181 0
M  V30 3722 H 364.614 -0.389342 -0.643364 0
M  V30 3723 H 366.585 -2.21045 -2.00454 0
M  V30 3724 C 365.334 -1.02158 -3.32354 0
M  V30 3725 H 364.657 -1.86111 -3.5384 0
M  V30 3726 H 366.097 -1.00048 -4.12027 0
M  V30 3727 C 364.556 0.275244 -3.35774 0
M  V30 3728 O 365.086 1.27806 -3.80826 0
M  V30 3729 N 363.292 0.306853 -2.88975 0
M  V30 3730 H 362.839 -0.509777 -2.52506 0
M  V30 3731 H 362.797 1.17432 -2.91646 0
M  V30 3732 N 366.569 1.04691 -1.17803 0
M  V30 3733 C 367.818 1.77176 -0.963931 0
M  V30 3734 C 368.131 1.88888 0.508015 0
M  V30 3735 O 369.337 2.58164 0.840465 0
M  V30 3736 C 367.793 3.18518 -1.67555 0
M  V30 3737 C 367.401 3.14919 -3.18637 0
M  V30 3738 C 369.145 3.95424 -1.54402 0
M  V30 3739 C 367.052 4.51081 -3.82466 0
M  V30 3740 H 365.982 0.664116 -0.357023 0
M  V30 3741 H 368.633 1.17303 -1.4111 0
M  V30 3742 H 367.015 3.78748 -1.15613 0
M  V30 3743 H 368.189 2.64178 -3.77554 0
M  V30 3744 H 366.504 2.51512 -3.31859 0
M  V30 3745 H 369.101 4.96106 -1.99456 0
M  V30 3746 H 369.444 4.13343 -0.495329 0
M  V30 3747 H 369.977 3.41754 -2.0359 0
M  V30 3748 H 366.716 4.38368 -4.87354 0
M  V30 3749 H 366.236 5.01951 -3.28337 0
M  V30 3750 H 367.915 5.2001 -3.84965 0
M  V30 3751 N 368.047 0.979072 1.23499 0
M  V30 3752 C 368.994 0.517904 2.24914 0
M  V30 3753 C 369.964 -0.442525 1.60097 0
M  V30 3754 O 371.149 -0.350365 1.87556 0
M  V30 3755 C 368.289 -0.174813 3.44657 0
M  V30 3756 C 367.402 0.825721 4.24035 0
M  V30 3757 C 366.537 0.107946 5.3109 0
M  V30 3758 C 365.576 1.09778 6.02175 0
M  V30 3759 N 364.713 0.40925 7.00906 0
M  V30 3760 H 369.553 1.38751 2.63727 0
M  V30 3761 H 367.09 0.695303 1.2963 0
M  V30 3762 H 369.048 -0.593233 4.12961 0
M  V30 3763 H 367.678 -1.0083 3.06648 0
M  V30 3764 H 366.73 1.36253 3.55161 0
M  V30 3765 H 368.042 1.58005 4.73113 0
M  V30 3766 H 367.196 -0.367904 6.05583 0
M  V30 3767 H 365.935 -0.678994 4.8295 0
M  V30 3768 H 364.94 1.5844 5.26476 0
M  V30 3769 H 366.165 1.88536 6.52404 0
M  V30 3770 H 364.111 -0.358506 6.5502 0
M  V30 3771 H 364.028 1.10226 7.47921 0
M  V30 3772 H 365.296 -0.0442557 7.79487 0
M  V30 3773 N 369.525 -1.3858 0.750561 0
M  V30 3774 C 370.771 -2.00481 0.305825 0
M  V30 3775 C 371.104 -1.5944 -1.10872 0
M  V30 3776 O 370.379 -0.83052 -1.75877 0
M  V30 3777 C 370.662 -3.5758 0.425287 0
M  V30 3778 C 370.515 -4.08594 1.88072 0
M  V30 3779 C 371.834 -4.39719 -0.183122 0
M  V30 3780 H 368.953 -0.728348 0.112598 0
M  V30 3781 H 371.595 -1.64566 0.949638 0
M  V30 3782 H 369.745 -3.88306 -0.122828 0
M  V30 3783 H 371.417 -3.88523 2.48691 0
M  V30 3784 H 369.66 -3.61574 2.39681 0
M  V30 3785 H 370.331 -5.177 1.91548 0
M  V30 3786 H 372.807 -4.15128 0.284303 0
M  V30 3787 H 371.683 -5.48856 -0.0692757 0
M  V30 3788 H 371.944 -4.23434 -1.27106 0
M  V30 3789 N 371.003 -0.499398 -1.49478 0
M  V30 3790 C 371.933 0.269244 -2.31943 0
M  V30 3791 C 372.914 0.964054 -1.40143 0
M  V30 3792 O 374.099 0.955767 -1.69052 0
M  V30 3793 C 371.229 1.33504 -3.20615 0
M  V30 3794 C 370.183 0.760202 -4.21195 0
M  V30 3795 C 369.509 1.9264 -4.98792 0
M  V30 3796 C 370.809 -0.247661 -5.21712 0
M  V30 3797 H 372.503 -0.419082 -2.96452 0
M  V30 3798 H 370.049 -0.202988 -1.42562 0
M  V30 3799 H 372.002 1.88048 -3.77115 0
M  V30 3800 H 370.726 2.05253 -2.54045 0
M  V30 3801 H 369.385 0.23653 -3.65836 0
M  V30 3802 H 369.033 2.63154 -4.28671 0
M  V30 3803 H 368.733 1.54785 -5.66847 0
M  V30 3804 H 370.257 2.4762 -5.58137 0
M  V30 3805 H 371.671 0.209579 -5.72917 0
M  V30 3806 H 370.068 -0.541962 -5.97648 0
M  V30 3807 H 371.138 -1.16409 -4.7072 0
M  V30 3808 N 372.481 1.55866 -0.233164 0
M  V30 3809 C 373.897 1.59133 0.121988 0
M  V30 3810 C 374.097 1.25016 1.58029 0
M  V30 3811 O 373.153 0.990922 2.32243 0
M  V30 3812 C 374.466 2.99932 -0.214792 0
M  V30 3813 C 376.014 3.12601 -0.157971 0
M  V30 3814 C 376.489 4.55597 -0.46859 0
M  V30 3815 N 377.98 4.61305 -0.418585 0
M  V30 3816 C 378.715 5.69903 -0.63227 0
M  V30 3817 N 378.211 6.86819 -0.90835 0
M  V30 3818 N 380.004 5.59264 -0.563913 0
M  V30 3819 H 372.155 1.76315 -1.18434 0
M  V30 3820 H 374.418 0.820093 -0.475553 0
M  V30 3821 H 374.124 3.29588 -1.22739 0
M  V30 3822 H 373.998 3.74327 0.464691 0
M  V30 3823 H 376.385 2.82735 0.845283 0
M  V30 3824 H 376.466 2.40511 -0.871102 0
M  V30 3825 H 376.11 4.86182 -1.46934 0
M  V30 3826 H 376.04 5.25928 0.265865 0
M  V30 3827 H 378.531 3.77297 -0.213368 0
M  V30 3828 H 378.844 7.65507 -1.05919 0
M  V30 3829 H 377.189 6.88536 -0.945673 0
M  V30 3830 H 380.38 4.66802 -0.348372 0
M  V30 3831 H 380.553 6.43831 -0.733847 0
M  V30 3832 N 373.959 -0.0401083 1.57549 0
M  V30 3833 C 375.207 -0.731677 1.8839 0
M  V30 3834 C 375.528 -1.76481 0.829425 0
M  V30 3835 O 374.798 -1.95411 -0.1383 0
M  V30 3836 H 373.378 -0.273225 0.695239 0
M  V30 3837 H 376.04 -0.00867725 1.94898 0
M  V30 3838 H 375.136 -1.22816 2.86919 0
M  V30 3839 N 375.437 -1.54477 -0.31217 0
M  V30 3840 C 376.667 -1.76948 -1.06645 0
M  V30 3841 C 377.075 -0.523593 -1.81811 0
M  V30 3842 O 376.418 0.51578 -1.76311 0
M  V30 3843 C 376.48 -2.91668 -2.10166 0
M  V30 3844 C 376.144 -4.30165 -1.54296 0
M  V30 3845 C 377.141 -5.10603 -0.978793 0
M  V30 3846 C 374.826 -4.76738 -1.58196 0
M  V30 3847 C 376.82 -6.3573 -0.461048 0
M  V30 3848 C 374.507 -6.01831 -1.06034 0
M  V30 3849 C 375.505 -6.81161 -0.500844 0
M  V30 3850 O 375.193 -8.03899 0.0128958 0
M  V30 3851 H 374.925 -0.594088 -0.322546 0
M  V30 3852 H 377.479 -2.02213 -0.360441 0
M  V30 3853 H 375.709 -2.62001 -2.84416 0
M  V30 3854 H 377.398 -3.01817 -2.71406 0
M  V30 3855 H 378.164 -4.75771 -0.941651 0
M  V30 3856 H 374.043 -4.15027 -2.00683 0
M  V30 3857 H 377.587 -6.97596 -0.0236894 0
M  V30 3858 H 373.484 -6.36152 -1.09459 0
M  V30 3859 H 374.252 -8.18437 -0.101457 0
M  V30 3860 N 376.915 0.57481 -1.46744 0
M  V30 3861 C 377.878 1.66533 -1.57478 0
M  V30 3862 C 378.878 1.54338 -0.451263 0
M  V30 3863 O 380.068 1.58814 -0.715813 0
M  V30 3864 C 377.2 3.05999 -1.50259 0
M  V30 3865 H 378.393 1.58372 -2.54673 0
M  V30 3866 H 375.946 0.793301 -1.34672 0
M  V30 3867 H 376.681 3.19709 -0.543725 0
M  V30 3868 H 376.466 3.16259 -2.31781 0
M  V30 3869 H 377.956 3.8537 -1.60872 0
M  V30 3870 N 378.394 1.34581 0.820102 0
M  V30 3871 C 379.671 1.17675 1.56244 0
M  V30 3872 C 380.051 -0.249541 2.0962 0
M  V30 3873 O 379.399 -1.25125 1.91196 0
M  V30 3874 C 379.609 2.23364 2.6816 0
M  V30 3875 C 380.957 2.58485 3.36854 0
M  V30 3876 O 381.981 2.22175 2.78418 0
M  V30 3877 O 380.84 3.20868 4.42386 0
M  V30 3878 H 377.934 0.456333 0.689702 0
M  V30 3879 H 380.48 1.46222 0.861231 0
M  V30 3880 H 379.252 3.19087 2.26493 0
M  V30 3881 H 378.875 1.96009 3.45928 0
M  V30 3882 N 379.872 -1.04064 1.18357 0
M  V30 3883 C 381.288 -1.2947 0.933258 0
M  V30 3884 C 381.488 -1.97466 -0.401169 0
M  V30 3885 O 380.544 -2.25528 -1.13549 0
M  V30 3886 C 381.857 -2.15337 2.09882 0
M  V30 3887 C 383.405 -2.28683 2.13712 0
M  V30 3888 C 383.88 -3.17917 3.29686 0
M  V30 3889 N 385.371 -3.25504 3.29547 0
M  V30 3890 C 386.106 -3.94706 4.15926 0
M  V30 3891 N 385.602 -4.66239 5.12439 0
M  V30 3892 N 387.395 -3.90986 4.0384 0
M  V30 3893 H 379.546 -0.583359 2.04232 0
M  V30 3894 H 381.809 -0.319921 0.892387 0
M  V30 3895 H 381.515 -1.72682 3.06389 0
M  V30 3896 H 381.389 -3.16015 2.05947 0
M  V30 3897 H 383.776 -2.70575 1.17784 0
M  V30 3898 H 383.857 -1.27596 2.21705 0
M  V30 3899 H 383.501 -2.76736 4.25887 0
M  V30 3900 H 383.431 -4.19036 3.1893 0
M  V30 3901 H 385.922 -2.74547 2.59677 0
M  V30 3902 H 386.235 -5.16638 5.74722 0
M  V30 3903 H 384.58 -4.65143 5.16398 0
M  V30 3904 H 387.771 -3.34234 3.27727 0
M  V30 3905 H 387.944 -4.44646 4.71375 0
M  V30 3906 N 381.35 -0.985608 -1.22978 0
M  V30 3907 C 382.26 -0.538548 -2.28335 0
M  V30 3908 C 383.276 0.409163 -1.69121 0
M  V30 3909 O 384.452 0.277797 -1.99475 0
M  V30 3910 C 381.517 0.146867 -3.46389 0
M  V30 3911 C 380.578 -0.842896 -4.20944 0
M  V30 3912 C 379.811 -0.190095 -5.33361 0
M  V30 3913 O 380.034 1.01767 -5.61248 0
M  V30 3914 O 378.968 -0.891289 -5.95264 0
M  V30 3915 H 382.794 -1.41487 -2.68729 0
M  V30 3916 H 380.379 -0.753495 -1.29007 0
M  V30 3917 H 382.261 0.531125 -4.1804 0
M  V30 3918 H 380.936 0.997871 -3.07935 0
M  V30 3919 H 379.843 -1.27795 -3.51595 0
M  V30 3920 H 381.176 -1.66287 -4.6326 0
M  V30 3921 N 382.828 1.3818 -0.7579 0
M  V30 3922 C 384.239 1.82726 -0.383134 0
M  V30 3923 C 384.59 1.63214 1.08884 0
M  V30 3924 O 383.715 1.13566 1.84205 0
M  V30 3925 C 384.31 3.31728 -0.688631 0
M  V30 3926 C 382.869 3.74606 -0.367091 0
M  V30 3927 C 382.016 2.60896 -0.939599 0
M  V30 3928 H 384.967 1.26847 -0.953699 0
M  V30 3929 H 384.988 3.80487 0.0316492 0
M  V30 3930 H 384.5 3.45898 -1.76001 0
M  V30 3931 H 382.601 3.66013 0.697532 0
M  V30 3932 H 382.714 4.71215 -0.865658 0
M  V30 3933 H 381.078 2.52075 -0.3647 0
M  V30 3934 H 381.861 2.77864 -2.0161 0
M  V30 3935 N 384.306 0.507319 1.49211 0
M  V30 3936 C 385.722 0.163682 1.58758 0
M  V30 3937 C 385.922 -1.33208 1.51188 0
M  V30 3938 O 384.978 -2.10855 1.38911 0
M  V30 3939 C 386.291 0.746095 2.91297 0
M  V30 3940 C 387.839 0.712773 3.04776 0
M  V30 3941 C 388.314 1.27336 4.39943 0
M  V30 3942 N 389.805 1.23433 4.46451 0
M  V30 3943 C 390.54 1.63821 5.495 0
M  V30 3944 N 390.036 2.11832 6.5962 0
M  V30 3945 N 391.829 1.55198 5.4025 0
M  V30 3946 H 383.98 1.47972 1.52375 0
M  V30 3947 H 386.243 0.614147 0.722168 0
M  V30 3948 H 385.949 1.79534 3.02424 0
M  V30 3949 H 385.823 0.210137 3.76614 0
M  V30 3950 H 388.21 -0.327656 2.93275 0
M  V30 3951 H 388.291 1.28595 2.21127 0
M  V30 3952 H 387.935 2.3126 4.52196 0
M  V30 3953 H 387.865 0.676066 5.22242 0
M  V30 3954 H 390.356 0.882627 3.67448 0
M  V30 3955 H 390.669 2.40703 7.34358 0
M  V30 3956 H 389.014 2.1581 6.60644 0
M  V30 3957 H 392.205 1.17505 4.53112 0
M  V30 3958 H 392.378 1.86997 6.20432 0
M  V30 3959 N 385.784 -1.5574 0.241426 0
M  V30 3960 C 387.195 -1.84842 -0.262755 0
M  V30 3961 C 387.546 -1.16317 -1.58003 0
M  V30 3962 O 386.671 -0.439653 -2.11887 0
M  V30 3963 C 387.266 -3.35332 -0.483523 0
M  V30 3964 C 385.825 -3.6468 -0.931977 0
M  V30 3965 C 384.972 -2.77299 -0.0061151 0
M  V30 3966 H 387.923 -1.51761 0.464129 0
M  V30 3967 H 387.944 -3.56615 -1.32688 0
M  V30 3968 H 387.456 -3.85178 0.47537 0
M  V30 3969 H 385.557 -3.20307 -1.90353 0
M  V30 3970 H 385.67 -4.72498 -0.792628 0
M  V30 3971 H 384.034 -2.49408 -0.516503 0
M  V30 3972 H 384.817 -3.2995 0.948052 0
M  V30 3973 N 387.262 0.0317525 -1.57568 0
M  V30 3974 C 388.51 0.721676 -1.88776 0
M  V30 3975 C 388.831 1.76039 -0.838772 0
M  V30 3976 O 388.101 1.95482 0.127935 0
M  V30 3977 H 386.681 0.269534 -0.696678 0
M  V30 3978 H 389.343 -0.00165879 -1.949 0
M  V30 3979 H 388.439 1.21293 -2.87566 0
M  V30 3980 N 388.74 1.54641 0.303973 0
M  V30 3981 C 389.69 1.8177 1.37636 0
M  V30 3982 C 390.674 0.674697 1.46071 0
M  V30 3983 O 391.866 0.935251 1.50273 0
M  V30 3984 C 388.995 2.06584 2.74186 0
M  V30 3985 C 388.081 3.2706 2.69986 0
M  V30 3986 N 388.472 4.47682 2.35402 0
M  V30 3987 C 386.77 3.29028 3.01092 0
M  V30 3988 C 387.471 5.29689 2.40426 0
M  V30 3989 N 386.447 4.67339 2.7766 0
M  V30 3990 H 390.249 2.72596 1.09857 0
M  V30 3991 H 387.763 1.541 0.51254 0
M  V30 3992 H 389.76 2.24166 3.51504 0
M  V30 3993 H 388.42 1.17024 3.02879 0
M  V30 3994 H 389.431 4.74336 2.07908 0
M  V30 3995 H 386.108 2.49565 3.34699 0
M  V30 3996 H 387.498 6.3606 2.16512 0
M  V30 3997 N 390.218 -0.567019 1.47046 0
M  V30 3998 C 391.634 -0.891975 1.32348 0
M  V30 3999 C 391.834 -1.99154 0.306616 0
M  V30 4000 O 390.89 -2.50883 -0.28532 0
M  V30 4001 C 392.203 -1.29449 2.7141 0
M  V30 4002 C 393.751 -1.40646 2.79621 0
M  V30 4003 C 394.226 -1.84257 4.19301 0
M  V30 4004 N 395.717 -1.91424 4.21795 0
M  V30 4005 C 396.452 -2.26476 5.26779 0
M  V30 4006 N 395.948 -2.60211 6.42077 0
M  V30 4007 N 397.741 -2.27166 5.14152 0
M  V30 4008 H 389.892 0.159074 2.11803 0
M  V30 4009 H 392.155 0.00849752 0.947962 0
M  V30 4010 H 391.861 -0.560448 3.47206 0
M  V30 4011 H 391.735 -2.25273 3.02542 0
M  V30 4012 H 394.122 -2.13133 2.04104 0
M  V30 4013 H 394.203 -0.430339 2.52154 0
M  V30 4014 H 393.847 -1.12343 4.95319 0
M  V30 4015 H 393.777 -2.82855 4.44185 0
M  V30 4016 H 396.268 -1.6778 3.38612 0
M  V30 4017 H 396.581 -2.85956 7.17948 0
M  V30 4018 H 394.926 -2.57813 6.45413 0
M  V30 4019 H 398.117 -2.00244 4.23107 0
M  V30 4020 H 398.29 -2.54154 5.96079 0
M  V30 4021 N 391.696 -1.35014 -0.812953 0
M  V30 4022 C 393.112 -1.14914 -1.10757 0
M  V30 4023 C 393.312 0.0426818 -2.01455 0
M  V30 4024 O 392.368 0.715212 -2.42159 0
M  V30 4025 C 393.681 -2.44911 -1.74468 0
M  V30 4026 C 395.229 -2.5106 -1.86917 0
M  V30 4027 C 395.704 -3.81085 -2.54044 0
M  V30 4028 N 397.195 -3.82301 -2.61535 0
M  V30 4029 C 397.93 -4.79634 -3.14227 0
M  V30 4030 N 397.426 -5.87353 -3.67407 0
M  V30 4031 N 399.219 -4.67078 -3.12721 0
M  V30 4032 H 391.37 -2.1136 -0.20989 0
M  V30 4033 H 393.633 -0.935128 -0.155692 0
M  V30 4034 H 393.339 -3.32267 -1.15289 0
M  V30 4035 H 393.213 -2.58989 -2.74234 0
M  V30 4036 H 395.6 -1.64137 -2.45241 0
M  V30 4037 H 395.681 -2.40901 -0.860242 0
M  V30 4038 H 395.325 -4.68402 -1.96372 0
M  V30 4039 H 395.255 -3.88529 -3.55461 0
M  V30 4040 H 397.746 -3.04465 -2.23851 0
M  V30 4041 H 398.059 -6.57624 -4.05894 0
M  V30 4042 H 396.404 -5.91054 -3.65623 0
M  V30 4043 H 399.595 -3.82067 -2.70449 0
M  V30 4044 H 399.768 -5.43098 -3.53481 0
M  V30 4045 N 393.175 1.03435 -1.18907 0
M  V30 4046 C 394.108 2.11162 -0.86521 0
M  V30 4047 C 395.086 1.6165 0.175473 0
M  V30 4048 O 396.27 1.88425 0.0530129 0
M  V30 4049 C 393.397 3.37423 -0.293868 0
M  V30 4050 C 392.443 4.05795 -1.31274 0
M  V30 4051 S 393.276 4.52027 -2.8711 0
M  V30 4052 C 394.432 5.81513 -2.31504 0
M  V30 4053 H 394.665 2.38308 -1.77754 0
M  V30 4054 H 392.198 1.16295 -1.01562 0
M  V30 4055 H 394.156 4.1049 0.0292572 0
M  V30 4056 H 392.817 3.0838 0.596682 0
M  V30 4057 H 392.01 4.96574 -0.86198 0
M  V30 4058 H 391.612 3.38874 -1.58242 0
M  V30 4059 H 393.904 6.55784 -1.70157 0
M  V30 4060 H 394.847 6.3136 -3.20608 0
M  V30 4061 H 395.255 5.36921 -1.74286 0
M  V30 4062 N 394.653 0.992116 1.22453 0
M  V30 4063 C 395.899 0.668523 1.91464 0
M  V30 4064 C 396.232 -0.797313 1.77078 0
M  V30 4065 O 395.507 -1.5765 1.13916 0
M  V30 4066 C 395.79 1.07424 3.43703 0
M  V30 4067 C 395.643 2.59857 3.67143 0
M  V30 4068 C 396.962 0.626891 4.35612 0
M  V30 4069 H 394.081 0.244341 0.695318 0
M  V30 4070 H 396.723 1.2355 1.44345 0
M  V30 4071 H 394.873 0.591816 3.83966 0
M  V30 4072 H 396.545 3.15764 3.3629 0
M  V30 4073 H 394.788 3.01961 3.11451 0
M  V30 4074 H 395.459 2.83296 4.73759 0
M  V30 4075 H 397.935 1.04125 4.02861 0
M  V30 4076 H 396.811 0.939076 5.40807 0
M  V30 4077 H 397.072 -0.472457 4.39568 0
M  V30 4078 N 396.131 -1.37776 0.765217 0
M  V30 4079 C 397.378 -1.99849 0.326588 0
M  V30 4080 C 397.706 -1.60746 -1.09504 0
M  V30 4081 O 396.961 -0.84202 -1.76659 0
M  V30 4082 C 397.26 -3.5504 0.410053 0
M  V30 4083 C 396.926 -4.13891 1.78899 0
M  V30 4084 C 395.588 -4.29678 2.16635 0
M  V30 4085 C 397.94 -4.46236 2.69301 0
M  V30 4086 C 395.268 -4.7511 3.44221 0
M  V30 4087 C 397.62 -4.93089 3.9629 0
M  V30 4088 C 396.284 -5.07082 4.34078 0
M  V30 4089 H 395.554 -0.7313 0.119507 0
M  V30 4090 H 398.201 -1.64645 0.977968 0
M  V30 4091 H 396.506 -3.90451 -0.324878 0
M  V30 4092 H 398.203 -4.00966 0.0520699 0
M  V30 4093 H 394.793 -4.02026 1.48569 0
M  V30 4094 H 398.977 -4.3363 2.41409 0
M  V30 4095 H 394.233 -4.84129 3.73402 0
M  V30 4096 H 398.407 -5.17084 4.66472 0
M  V30 4097 H 396.034 -5.42046 5.33001 0
M  V30 4098 N 397.609 -0.515225 -1.4894 0
M  V30 4099 C 399.025 -0.172099 -1.58669 0
M  V30 4100 C 399.225 1.32405 -1.51892 0
M  V30 4101 O 398.281 2.10116 -1.40027 0
M  V30 4102 C 399.594 -0.761533 -2.90897 0
M  V30 4103 C 401.142 -0.728926 -3.04394 0
M  V30 4104 C 401.617 -1.29667 -4.39261 0
M  V30 4105 N 403.108 -1.25799 -4.4579 0
M  V30 4106 C 403.843 -1.66733 -5.48623 0
M  V30 4107 N 403.339 -2.15327 -6.58488 0
M  V30 4108 N 405.132 -1.58061 -5.39419 0
M  V30 4109 H 397.283 -1.48778 -1.51588 0
M  V30 4110 H 399.546 -0.617968 -0.718901 0
M  V30 4111 H 399.252 -1.81136 -3.01468 0
M  V30 4112 H 399.126 -0.230106 -3.76497 0
M  V30 4113 H 401.513 0.312098 -2.93445 0
M  V30 4114 H 401.594 -1.29766 -2.20442 0
M  V30 4115 H 401.238 -2.33655 -4.50963 0
M  V30 4116 H 401.168 -0.703752 -5.21876 0
M  V30 4117 H 403.659 -0.902102 -3.66975 0
M  V30 4118 H 403.972 -2.44594 -7.33071 0
M  V30 4119 H 402.317 -2.19311 -6.59491 0
M  V30 4120 H 405.508 -1.19906 -4.52482 0
M  V30 4121 H 405.681 -1.90284 -6.19432 0
M  V30 4122 N 399.087 1.5561 -0.249682 0
M  V30 4123 C 400.334 1.99011 0.374287 0
M  V30 4124 C 400.662 1.13785 1.57744 0
M  V30 4125 O 399.917 0.189326 1.94782 0
M  V30 4126 C 400.216 3.4775 0.824887 0
M  V30 4127 C 399.882 4.50086 -0.270819 0
M  V30 4128 C 398.544 4.77791 -0.571746 0
M  V30 4129 C 400.896 5.11312 -1.01041 0
M  V30 4130 C 398.224 5.63997 -1.61629 0
M  V30 4131 C 400.576 5.98651 -2.0445 0
M  V30 4132 C 399.24 6.24688 -2.35204 0
M  V30 4133 H 398.51 0.728233 0.136961 0
M  V30 4134 H 401.157 1.88122 -0.358087 0
M  V30 4135 H 399.462 3.55985 1.63651 0
M  V30 4136 H 401.159 3.78721 1.31799 0
M  V30 4137 H 397.749 4.28592 -0.026136 0
M  V30 4138 H 401.933 4.89953 -0.791177 0
M  V30 4139 H 397.189 5.82425 -1.85988 0
M  V30 4140 H 401.363 6.45135 -2.62248 0
M  V30 4141 H 398.99 6.91281 -3.16282 0
M  V30 4142 N 400.565 -0.0233959 1.57583 0
M  V30 4143 C 401.495 -1.02162 2.09965 0
M  V30 4144 C 402.476 -1.3735 1.00344 0
M  V30 4145 O 403.661 -1.46135 1.27899 0
M  V30 4146 C 400.791 -2.32081 2.58371 0
M  V30 4147 C 399.745 -2.1112 3.72307 0
M  V30 4148 C 399.071 -3.46848 4.06941 0
M  V30 4149 C 400.371 -1.49276 5.00514 0
M  V30 4150 H 402.065 -0.585557 2.93618 0
M  V30 4151 H 399.611 -0.280218 1.41247 0
M  V30 4152 H 401.564 -3.02249 2.93639 0
M  V30 4153 H 400.288 -2.77758 1.71808 0
M  V30 4154 H 398.947 -1.43384 3.37397 0
M  V30 4155 H 398.595 -3.90184 3.17436 0
M  V30 4156 H 398.295 -3.33646 4.83688 0
M  V30 4157 H 399.819 -4.18369 4.44747 0
M  V30 4158 H 401.233 -2.09368 5.33702 0
M  V30 4159 H 399.63 -1.46632 5.8191 0
M  V30 4160 H 400.7 -0.459217 4.82721 0
M  V30 4161 N 402.043 -1.548 -0.295768 0
M  V30 4162 C 403.271 -1.78327 -1.04914 0
M  V30 4163 C 403.686 -0.545316 -1.80753 0
M  V30 4164 O 403.043 0.485013 -1.75937 0
M  V30 4165 C 403.094 -2.99418 -2.02561 0
M  V30 4166 O 402.815 -4.18431 -1.29798 0
M  V30 4167 C 404.316 -3.35375 -2.89895 0
M  V30 4168 H 401.536 -0.594618 -0.310918 0
M  V30 4169 H 404.08 -2.01763 -0.333454 0
M  V30 4170 H 402.235 -2.78175 -2.69624 0
M  V30 4171 H 402.649 -4.86736 -1.95419 0
M  V30 4172 H 404.123 -4.23332 -3.54251 0
M  V30 4173 H 404.6 -2.53761 -3.58472 0
M  V30 4174 H 405.206 -3.58796 -2.28355 0
M  V30 4175 N 403.521 0.559213 -1.47345 0
M  V30 4176 C 404.746 1.34676 -1.57725 0
M  V30 4177 C 405.171 1.86723 -0.227164 0
M  V30 4178 O 404.529 1.6286 0.796642 0
M  V30 4179 C 404.577 2.49399 -2.60447 0
M  V30 4180 O 403.681 3.51567 -2.15578 0
M  V30 4181 H 403.022 0.400115 -0.52991 0
M  V30 4182 H 405.552 0.676009 -1.93109 0
M  V30 4183 H 405.562 2.95996 -2.80803 0
M  V30 4184 H 404.237 2.10873 -3.58477 0
M  V30 4185 H 402.814 3.11289 -2.05313 0
M  V30 4186 N 404.999 1.35443 0.805782 0
M  V30 4187 C 406.41 1.25768 1.37983 0
M  V30 4188 C 406.761 -0.10958 1.95894 0
M  V30 4189 O 405.886 -1.01056 1.91355 0
M  V30 4190 C 406.481 2.27727 2.5085 0
M  V30 4191 C 405.04 2.2179 3.04115 0
M  V30 4192 C 404.187 2.13393 1.77084 0
M  V30 4193 H 407.138 1.4656 0.608752 0
M  V30 4194 H 407.159 1.90422 3.29424 0
M  V30 4195 H 406.671 3.27227 2.08671 0
M  V30 4196 H 404.772 1.25703 3.50756 0
M  V30 4197 H 404.885 3.13788 3.62042 0
M  V30 4198 H 403.249 1.59384 1.98668 0
M  V30 4199 H 404.032 3.14755 1.37056 0
M  V30 4200 N 406.477 -1.02803 1.19454 0
M  V30 4201 C 407.726 -1.7562 0.991996 0
M  V30 4202 C 408.039 -1.89672 -0.477901 0
M  V30 4203 O 409.245 -2.59468 -0.799287 0
M  V30 4204 C 407.701 -3.15812 1.72601 0
M  V30 4205 C 407.309 -3.0981 3.23607 0
M  V30 4206 C 409.053 -3.92918 1.60674 0
M  V30 4207 C 406.96 -4.44939 3.89594 0
M  V30 4208 H 405.89 -0.658352 0.367543 0
M  V30 4209 H 408.541 -1.15044 1.42959 0
M  V30 4210 H 406.923 -3.7686 1.21624 0
M  V30 4211 H 408.097 -2.58138 3.81709 0
M  V30 4212 H 406.412 -2.46201 3.35819 0
M  V30 4213 H 409.009 -4.9287 2.07323 0
M  V30 4214 H 409.352 -4.12502 0.561025 0
M  V30 4215 H 409.885 -3.38472 2.09001 0
M  V30 4216 H 406.624 -4.30559 4.94267 0
M  V30 4217 H 406.144 -4.96664 3.36281 0
M  V30 4218 H 407.823 -5.1382 3.93189 0
M  V30 4219 N 407.956 -0.998596 -1.21925 0
M  V30 4220 C 408.866 -0.562736 -2.27751 0
M  V30 4221 C 409.882 0.391203 -1.69545 0
M  V30 4222 O 411.058 0.256625 -1.99758 0
M  V30 4223 C 408.123 0.11012 -3.46525 0
M  V30 4224 C 407.184 -0.887495 -4.20026 0
M  V30 4225 C 406.417 -0.246654 -5.3313 0
M  V30 4226 O 406.64 0.958088 -5.62296 0
M  V30 4227 O 405.574 -0.954374 -5.94286 0
M  V30 4228 H 409.4 -1.44329 -2.67213 0
M  V30 4229 H 406.985 -0.767135 -1.28201 0
M  V30 4230 H 408.867 0.486756 -4.18579 0
M  V30 4231 H 407.542 0.965154 -3.08976 0
M  V30 4232 H 406.449 -1.31517 -3.5022 0
M  V30 4233 H 407.782 -1.71191 -4.6147 0
M  V30 4234 N 409.434 1.37368 -0.772513 0
M  V30 4235 C 410.683 1.98918 -0.333861 0
M  V30 4236 C 410.996 1.62017 1.09589 0
M  V30 4237 O 412.202 2.16676 1.63596 0
M  V30 4238 C 410.658 3.55735 -0.545971 0
M  V30 4239 C 410.266 4.01573 -1.98603 0
M  V30 4240 C 412.01 4.24156 -0.170979 0
M  V30 4241 C 409.917 5.51102 -2.1457 0
M  V30 4242 H 408.847 0.744214 -0.121085 0
M  V30 4243 H 411.498 1.56888 -0.95175 0
M  V30 4244 H 409.88 3.95748 0.141387 0
M  V30 4245 H 411.054 3.72803 -2.7084 0
M  V30 4246 H 409.369 3.45937 -2.31769 0
M  V30 4247 H 411.966 5.34024 -0.26878 0
M  V30 4248 H 412.309 4.06917 0.878855 0
M  V30 4249 H 412.842 3.89447 -0.810914 0
M  V30 4250 H 409.581 5.73268 -3.17875 0
M  V30 4251 H 409.101 5.81554 -1.46817 0
M  V30 4252 H 410.78 6.17083 -1.94468 0
M  V30 4253 N 410.912 0.523116 1.48665 0
M  V30 4254 C 411.859 -0.243398 2.29513 0
M  V30 4255 C 412.829 -0.940139 1.36933 0
M  V30 4256 O 414.014 -0.942503 1.65896 0
M  V30 4257 C 411.154 -1.28855 3.20141 0
M  V30 4258 C 410.267 -0.60135 4.27794 0
M  V30 4259 C 409.402 -1.62884 5.05611 0
M  V30 4260 C 408.441 -0.924726 6.05075 0
M  V30 4261 N 407.578 -1.89744 6.75975 0
M  V30 4262 H 412.418 0.452234 2.94549 0
M  V30 4263 H 409.955 0.234858 1.45213 0
M  V30 4264 H 411.913 -1.90674 3.71079 0
M  V30 4265 H 410.543 -1.95266 2.57043 0
M  V30 4266 H 409.595 0.130623 3.80176 0
M  V30 4267 H 410.907 -0.0481585 4.98777 0
M  V30 4268 H 410.061 -2.32149 5.60528 0
M  V30 4269 H 408.8 -2.21592 4.34452 0
M  V30 4270 H 407.805 -0.217966 5.49368 0
M  V30 4271 H 409.03 -0.343851 6.78229 0
M  V30 4272 H 406.976 -2.47373 6.07571 0
M  V30 4273 H 406.893 -1.3955 7.43009 0
M  V30 4274 H 408.161 -2.58229 7.35485 0
M  V30 4275 N 412.39 -1.55475 0.257931 0
M  V30 4276 C 413.638 -1.98813 -0.363009 0
M  V30 4277 C 413.959 -1.14757 -1.57657 0
M  V30 4278 O 413.229 -0.232956 -1.9451 0
M  V30 4279 H 411.809 -0.734308 -0.137113 0
M  V30 4280 H 414.471 -1.9156 0.359281 0
M  V30 4281 H 413.567 -3.04941 -0.664634 0
M  V30 4282 N 413.868 0.0150385 -1.57593 0
M  V30 4283 C 414.815 1.01126 -2.07466 0
M  V30 4284 C 415.785 1.35064 -0.966794 0
M  V30 4285 O 416.97 1.4516 -1.23827 0
M  V30 4286 C 414.11 2.30276 -2.57035 0
M  V30 4287 C 413.223 2.02373 -3.81666 0
M  V30 4288 C 412.358 3.25496 -4.19793 0
M  V30 4289 C 411.397 2.93211 -5.37303 0
M  V30 4290 N 410.534 4.08826 -5.70794 0
M  V30 4291 H 415.374 0.57901 -2.92321 0
M  V30 4292 H 412.911 0.27426 -1.44521 0
M  V30 4293 H 414.869 3.05757 -2.83846 0
M  V30 4294 H 413.499 2.71197 -1.75077 0
M  V30 4295 H 412.551 1.17327 -3.61854 0
M  V30 4296 H 413.863 1.74567 -4.67256 0
M  V30 4297 H 413.017 4.09333 -4.47807 0
M  V30 4298 H 411.756 3.56428 -3.32882 0
M  V30 4299 H 410.761 2.07777 -5.09027 0
M  V30 4300 H 411.986 2.63542 -6.25877 0
M  V30 4301 H 409.932 4.39682 -4.86842 0
M  V30 4302 H 409.849 3.84491 -6.50924 0
M  V30 4303 H 411.117 4.93496 -6.03392 0
M  V30 4304 N 415.346 1.54954 0.287554 0
M  V30 4305 C 416.762 1.46469 0.633964 0
M  V30 4306 C 416.962 0.666865 1.90145 0
M  V30 4307 O 416.018 0.179906 2.51858 0
M  V30 4308 C 417.331 2.90556 0.774454 0
M  V30 4309 C 418.879 3.00681 0.869462 0
M  V30 4310 C 419.354 4.45993 1.04184 0
M  V30 4311 N 420.845 4.4976 1.10772 0
M  V30 4312 C 421.58 5.59393 1.25964 0
M  V30 4313 N 421.076 6.78923 1.37968 0
M  V30 4314 N 422.869 5.47107 1.28959 0
M  V30 4315 H 415.02 2.05288 -0.545041 0
M  V30 4316 H 417.283 0.930305 -0.182308 0
M  V30 4317 H 416.989 3.51594 -0.086207 0
M  V30 4318 H 416.863 3.38743 1.6593 0
M  V30 4319 H 419.25 2.39749 1.7206 0
M  V30 4320 H 419.331 2.55769 -0.0396831 0
M  V30 4321 H 418.975 5.07524 0.195422 0
M  V30 4322 H 418.905 4.88548 1.96542 0
M  V30 4323 H 421.396 3.63651 1.02794 0
M  V30 4324 H 421.709 7.58231 1.49353 0
M  V30 4325 H 420.054 6.81763 1.34999 0
M  V30 4326 H 423.245 4.52668 1.19202 0
M  V30 4327 H 423.418 6.32595 1.40455 0
M  V30 4328 N 416.824 -0.551391 1.4764 0
M  V30 4329 C 417.771 -1.65796 1.60563 0
M  V30 4330 C 418.741 -1.59932 0.448428 0
M  V30 4331 O 419.926 -1.78679 0.669222 0
M  V30 4332 C 417.066 -3.04108 1.63133 0
M  V30 4333 C 416.179 -3.20365 2.89811 0
M  V30 4334 C 415.314 -4.49109 2.8368 0
M  V30 4335 C 414.353 -4.58819 4.05156 0
M  V30 4336 N 413.49 -5.78926 3.97227 0
M  V30 4337 H 418.33 -1.54088 2.5507 0
M  V30 4338 H 415.867 -0.75052 1.26513 0
M  V30 4339 H 417.825 -3.84207 1.62606 0
M  V30 4340 H 416.455 -3.14637 0.721341 0
M  V30 4341 H 415.507 -2.33659 3.00179 0
M  V30 4342 H 416.819 -3.23402 3.79753 0
M  V30 4343 H 415.973 -5.37475 2.81434 0
M  V30 4344 H 414.712 -4.4856 1.91431 0
M  V30 4345 H 413.717 -3.68864 4.077 0
M  V30 4346 H 414.942 -4.61124 4.98539 0
M  V30 4347 H 412.888 -5.79314 3.07785 0
M  V30 4348 H 412.805 -5.83367 4.80853 0
M  V30 4349 H 414.073 -6.69637 3.99007 0
M  V30 4350 N 418.302 -1.35869 -0.798587 0
M  V30 4351 C 419.548 -1.2978 -1.55836 0
M  V30 4352 C 419.881 0.125322 -1.93795 0
M  V30 4353 O 419.156 1.07658 -1.61987 0
M  V30 4354 C 419.439 -2.21188 -2.84162 0
M  V30 4355 C 419.292 -3.72155 -2.52628 0
M  V30 4356 C 420.611 -2.11545 -3.85923 0
M  V30 4357 H 417.73 -0.472769 -0.565383 0
M  V30 4358 H 420.372 -1.66341 -0.918192 0
M  V30 4359 H 418.522 -1.90139 -3.38791 0
M  V30 4360 H 420.194 -4.13682 -2.04121 0
M  V30 4361 H 418.437 -3.92042 -1.85704 0
M  V30 4362 H 419.108 -4.31511 -3.44242 0
M  V30 4363 H 421.584 -2.38855 -3.40716 0
M  V30 4364 H 420.46 -2.77688 -4.73477 0
M  V30 4365 H 420.721 -1.09987 -4.282 0
M  V30 4366 N 419.78 1.02168 -1.19998 0
M  V30 4367 C 420.69 2.14069 -0.959774 0
M  V30 4368 C 421.706 1.73804 0.082655 0
M  V30 4369 O 422.882 2.01133 -0.103633 0
M  V30 4370 C 419.947 3.42936 -0.509459 0
M  V30 4371 C 419.008 3.97474 -1.62213 0
M  V30 4372 C 418.241 5.2019 -1.19321 0
M  V30 4373 O 418.464 5.70369 -0.0597726 0
M  V30 4374 O 417.398 5.67749 -1.99863 0
M  V30 4375 H 421.224 2.37199 -1.89658 0
M  V30 4376 H 418.809 1.12469 -0.983411 0
M  V30 4377 H 420.691 4.20551 -0.267322 0
M  V30 4378 H 419.366 3.21234 0.398821 0
M  V30 4379 H 418.273 3.21161 -1.9185 0
M  V30 4380 H 419.606 4.23555 -2.50723 0
M  V30 4381 N 421.258 1.00505 1.21394 0
M  V30 4382 C 422.674 0.717873 1.42544 0
M  V30 4383 C 422.874 -0.706936 1.88692 0
M  V30 4384 O 421.93 -1.47627 2.04847 0
M  V30 4385 C 423.243 1.73377 2.45684 0
M  V30 4386 C 424.791 1.75059 2.59467 0
M  V30 4387 C 425.266 2.75545 3.6584 0
M  V30 4388 N 426.757 2.74213 3.73311 0
M  V30 4389 C 427.492 3.48626 4.55245 0
M  V30 4390 N 426.988 4.32678 5.41075 0
M  V30 4391 N 428.781 3.37276 4.49668 0
M  V30 4392 H 420.932 1.92506 0.897503 0
M  V30 4393 H 423.195 0.830919 0.456375 0
M  V30 4394 H 422.901 2.75395 2.18748 0
M  V30 4395 H 422.775 1.53647 3.44489 0
M  V30 4396 H 425.162 0.737337 2.8574 0
M  V30 4397 H 425.243 1.98861 1.60897 0
M  V30 4398 H 424.887 3.77028 3.40313 0
M  V30 4399 H 424.817 2.49009 4.64007 0
M  V30 4400 H 427.308 2.13234 3.11993 0
M  V30 4401 H 427.621 4.86253 6.00648 0
M  V30 4402 H 425.966 4.3676 5.40616 0
M  V30 4403 H 429.157 2.71043 3.81646 0
M  V30 4404 H 429.33 3.95524 5.13288 0
M  V30 4405 N 422.737 -1.36956 0.779787 0
M  V30 4406 C 423.986 -1.98738 0.344405 0
M  V30 4407 C 424.299 -1.62596 -1.08728 0
M  V30 4408 O 425.505 -2.1754 -1.62445 0
M  V30 4409 C 423.961 -3.5544 0.564829 0
M  V30 4410 C 423.569 -4.00514 2.0073 0
M  V30 4411 C 425.313 -4.24059 0.193471 0
M  V30 4412 C 423.22 -5.49957 2.17489 0
M  V30 4413 H 422.15 -0.743561 0.12503 0
M  V30 4414 H 424.801 -1.56381 0.960057 0
M  V30 4415 H 423.183 -3.95817 -0.120397 0
M  V30 4416 H 424.357 -3.71362 2.72814 0
M  V30 4417 H 422.672 -3.44703 2.336 0
M  V30 4418 H 425.269 -5.33874 0.297097 0
M  V30 4419 H 425.612 -4.07378 -0.857263 0
M  V30 4420 H 426.145 -3.89012 0.831556 0
M  V30 4421 H 422.884 -5.71574 3.2091 0
M  V30 4422 H 422.404 -5.80767 1.49899 0
M  V30 4423 H 424.083 -6.16043 1.97738 0
M  V30 4424 N 424.215 -0.530993 -1.48385 0
M  V30 4425 C 425.461 0.00274135 -2.028 0
M  V30 4426 C 425.794 1.33838 -1.40716 0
M  V30 4427 O 425.069 1.86465 -0.553277 0
M  V30 4428 C 425.352 0.123676 -3.59888 0
M  V30 4429 C 425.205 -1.2372 -4.3245 0
M  V30 4430 C 426.524 0.849967 -4.31814 0
M  V30 4431 H 423.643 -0.000477758 -0.737 0
M  V30 4432 H 426.285 -0.688217 -1.77098 0
M  V30 4433 H 424.435 0.712157 -3.81917 0
M  V30 4434 H 426.107 -1.86687 -4.21836 0
M  V30 4435 H 424.35 -1.81882 -3.93829 0
M  V30 4436 H 425.021 -1.10557 -5.40815 0
M  V30 4437 H 427.497 0.350572 -4.14621 0
M  V30 4438 H 426.373 0.903486 -5.41413 0
M  V30 4439 H 426.634 1.90047 -3.99167 0
M  V30 4440 N 425.693 1.55336 -0.266172 0
M  V30 4441 C 426.623 2.25146 0.618981 0
M  V30 4442 C 427.604 1.23845 1.16604 0
M  V30 4443 O 428.789 1.52544 1.20183 0
M  V30 4444 C 425.919 2.96572 1.80728 0
M  V30 4445 C 424.873 4.04726 1.39215 0
M  V30 4446 C 424.199 4.63678 2.66283 0
M  V30 4447 C 425.499 5.19407 0.548942 0
M  V30 4448 H 427.193 2.99377 0.0368116 0
M  V30 4449 H 424.739 1.43991 0.0162651 0
M  V30 4450 H 426.692 3.44116 2.43232 0
M  V30 4451 H 425.416 2.19861 2.41514 0
M  V30 4452 H 424.075 3.57979 0.790351 0
M  V30 4453 H 423.723 3.83646 3.25308 0
M  V30 4454 H 423.423 5.367 2.39222 0
M  V30 4455 H 424.947 5.13967 3.29651 0
M  V30 4456 H 426.361 5.63059 1.07876 0
M  V30 4457 H 424.758 5.98936 0.373593 0
M  V30 4458 H 425.828 4.8295 -0.434394 0
M  V30 4459 N 427.171 -0.0066808 1.57599 0
M  V30 4460 C 428.419 -0.691552 1.899 0
M  V30 4461 C 428.74 -1.74682 0.866672 0
M  V30 4462 O 428.01 -1.95661 -0.0968189 0
M  V30 4463 H 426.59 -0.258416 0.700878 0
M  V30 4464 H 429.252 0.0326655 1.94873 0
M  V30 4465 H 428.348 -1.16702 2.8946 0
M  V30 4466 N 428.649 -1.55105 -0.279332 0
M  V30 4467 C 430.065 -1.46803 -0.626187 0
M  V30 4468 C 430.265 -0.676939 -1.89789 0
M  V30 4469 O 429.321 -0.19326 -2.51759 0
M  V30 4470 C 430.634 -2.90962 -0.759034 0
M  V30 4471 C 432.182 -3.01138 -0.853504 0
M  V30 4472 C 432.657 -4.46539 -1.01818 0
M  V30 4473 N 434.148 -4.50341 -1.08386 0
M  V30 4474 C 434.883 -5.60053 -1.22996 0
M  V30 4475 N 434.379 -6.79645 -1.34366 0
M  V30 4476 N 436.172 -5.47783 -1.26056 0
M  V30 4477 H 428.323 -2.04996 0.555921 0
M  V30 4478 H 430.586 -0.929325 0.187239 0
M  V30 4479 H 430.292 -3.51544 0.104852 0
M  V30 4480 H 430.166 -3.39619 -1.64131 0
M  V30 4481 H 432.553 -2.40658 -1.70786 0
M  V30 4482 H 432.634 -2.55745 0.0532466 0
M  V30 4483 H 432.278 -5.0762 -0.168504 0
M  V30 4484 H 432.208 -4.89583 -1.93948 0
M  V30 4485 H 434.699 -3.64191 -1.00864 0
M  V30 4486 H 435.012 -7.59012 -1.4533 0
M  V30 4487 H 433.357 -6.82469 -1.31382 0
M  V30 4488 H 436.548 -4.53294 -1.168 0
M  V30 4489 H 436.721 -6.33331 -1.37098 0
M  V30 4490 N 430.127 0.543554 -1.4793 0
M  V30 4491 C 431.075 1.67039 -1.61866 0
M  V30 4492 C 432.069 1.62294 -0.48549 0
M  V30 4493 O 433.275 1.67315 -0.66376 0
M  V30 4494 H 429.65 0.552954 -0.509652 0
M  V30 4495 H 431.621 1.52426 -2.56533 0
M  V30 4496 C 430.37 3.05357 -1.6629 0
M  V30 4497 H 429.693 3.09696 -2.5284 0
M  V30 4498 H 431.133 3.83855 -1.80088 0
M  V30 4499 C 429.592 3.34531 -0.398861 0
M  V30 4500 O 430.122 3.98649 0.494162 0
M  V30 4501 N 428.328 2.89299 -0.2747 0
M  V30 4502 H 427.875 2.37298 -1.00236 0
M  V30 4503 H 427.833 3.09188 0.570075 0
M  V30 4504 N 431.605 1.3629 0.791371 0
M  V30 4505 C 432.515 1.32606 1.93527 0
M  V30 4506 C 433.531 0.228541 1.72493 0
M  V30 4507 O 434.707 0.460571 1.96063 0
M  V30 4508 C 431.772 1.11271 3.28359 0
M  V30 4509 C 430.833 2.3048 3.62185 0
M  V30 4510 C 430.066 2.10154 4.90583 0
M  V30 4511 O 430.289 1.07572 5.60165 0
M  V30 4512 O 429.223 2.97884 5.23019 0
M  V30 4513 H 433.049 2.28909 1.99585 0
M  V30 4514 H 430.634 1.16818 0.931344 0
M  V30 4515 H 432.516 1.01283 4.09047 0
M  V30 4516 H 431.191 0.180292 3.23198 0
M  V30 4517 H 430.098 2.46036 2.81811 0
M  V30 4518 H 431.431 3.22221 3.72068 0
M  V30 4519 N 433.083 -1.0153 1.20538 0
M  V30 4520 C 434.013 -2.11972 0.979295 0
M  V30 4521 C 434.994 -1.6985 -0.0921787 0
M  V30 4522 O 436.179 -1.94089 0.0655932 0
M  V30 4523 C 433.309 -3.43201 0.531984 0
M  V30 4524 C 432.263 -3.9907 1.54685 0
M  V30 4525 C 431.589 -5.26082 0.956127 0
M  V30 4526 C 432.889 -4.32313 2.93092 0
M  V30 4527 H 434.583 -2.31143 1.90298 0
M  V30 4528 H 432.129 -1.11079 0.916372 0
M  V30 4529 H 434.082 -4.1985 0.361044 0
M  V30 4530 H 432.806 -3.23792 -0.427327 0
M  V30 4531 H 431.465 -3.2453 1.70517 0
M  V30 4532 H 431.113 -5.02999 -0.0111538 0
M  V30 4533 H 430.813 -5.64426 1.63393 0
M  V30 4534 H 432.337 -6.05386 0.796284 0
M  V30 4535 H 433.751 -4.99845 2.80763 0
M  V30 4536 H 432.148 -4.81774 3.57791 0
M  V30 4537 H 433.218 -3.41025 3.44717 0
M  V30 4538 N 434.561 -1.01147 -1.20859 0
M  V30 4539 C 435.807 -0.698899 -1.90377 0
M  V30 4540 C 436.14 0.76904 -1.78324 0
M  V30 4541 O 435.415 1.55817 -1.16409 0
M  V30 4542 C 435.698 -1.12878 -3.41951 0
M  V30 4543 C 435.551 -2.65665 -3.62963 0
M  V30 4544 C 436.87 -0.696114 -4.3456 0
M  V30 4545 H 433.989 -0.255372 -0.691342 0
M  V30 4546 H 436.631 -1.25831 -1.42361 0
M  V30 4547 H 434.781 -0.652827 -3.82976 0
M  V30 4548 H 436.453 -3.21074 -3.31224 0
M  V30 4549 H 434.696 -3.06878 -3.06608 0
M  V30 4550 H 435.367 -2.90797 -4.69192 0
M  V30 4551 H 437.843 -1.10521 -4.01154 0
M  V30 4552 H 436.719 -1.025 -5.39245 0
M  V30 4553 H 436.98 0.402465 -4.40264 0
M  V30 4554 N 436.039 1.36541 -0.78704 0
M  V30 4555 C 437.264 2.0409 -0.369053 0
M  V30 4556 C 437.689 1.58957 1.00569 0
M  V30 4557 O 437.047 0.756926 1.64743 0
M  V30 4558 C 437.095 3.57924 -0.438466 0
M  V30 4559 O 436.199 4.08642 0.555479 0
M  V30 4560 H 435.54 0.645142 -0.157122 0
M  V30 4561 H 438.07 1.74545 -1.06749 0
M  V30 4562 H 438.08 4.06887 -0.301218 0
M  V30 4563 H 436.755 3.90127 -1.44132 0
M  V30 4564 H 435.332 3.70958 0.380088 0
M  V30 4565 N 437.518 0.538854 1.48102 0
M  V30 4566 C 438.795 -0.0568108 1.95517 0
M  V30 4567 C 439.175 -1.50408 1.48124 0
M  V30 4568 O 438.523 -2.17133 0.711727 0
M  V30 4569 C 438.733 0.0696262 3.48931 0
M  V30 4570 C 440.081 -0.0851202 4.24515 0
M  V30 4571 O 441.105 -0.0037347 3.562 0
M  V30 4572 O 439.964 -0.257025 5.45895 0
M  V30 4573 H 437.058 -0.0743695 0.823649 0
M  V30 4574 H 439.604 0.604081 1.58584 0
M  V30 4575 H 438.376 1.07744 3.76174 0
M  V30 4576 H 437.999 -0.629714 3.92582 0
M  V30 4577 N 438.996 -1.55193 0.274407 0
M  V30 4578 C 440.244 -1.99187 -0.341902 0
M  V30 4579 C 440.565 -1.16422 -1.56431 0
M  V30 4580 O 439.835 -0.253573 -1.94252 0
M  V30 4581 H 438.415 -0.735721 -0.129317 0
M  V30 4582 H 441.077 -1.91168 0.379578 0
M  V30 4583 H 440.173 -3.05629 -0.632253 0
M  V30 4584 N 440.474 -0.00167713 -1.576 0
M  V30 4585 C 441.699 0.69739 -1.95323 0
M  V30 4586 C 442.124 1.6642 -0.876706 0
M  V30 4587 O 441.482 1.80548 0.165007 0
M  V30 4588 C 441.53 1.40403 -3.32144 0
M  V30 4589 O 440.634 2.5185 -3.26566 0
M  V30 4590 H 439.975 0.185373 -0.637599 0
M  V30 4591 H 442.505 -0.0553665 -2.04525 0
M  V30 4592 H 442.515 1.76707 -3.67748 0
M  V30 4593 H 441.19 0.695167 -4.10049 0
M  V30 4594 H 439.767 2.17861 -3.0264 0
M  V30 4595 N 441.952 1.55251 0.271103 0
M  V30 4596 C 443.2 1.75599 1.00047 0
M  V30 4597 C 443.521 0.561188 1.8675 0
M  V30 4598 O 442.791 -0.423846 1.9126 0
M  V30 4599 H 441.371 0.647562 0.372387 0
M  V30 4600 H 444.033 1.92656 0.294876 0
M  V30 4601 H 443.129 2.65766 1.6363 0
M  V30 4602 N 443.43 -0.535701 1.48216 0
M  V30 4603 C 444.846 -0.863701 1.3421 0
M  V30 4604 C 445.046 -1.98458 0.34879 0
M  V30 4605 O 444.102 -2.51432 -0.23204 0
M  V30 4606 C 445.415 -1.23662 2.74095 0
M  V30 4607 C 446.963 -1.34683 2.82541 0
M  V30 4608 C 447.438 -1.75322 4.23115 0
M  V30 4609 N 448.929 -1.82434 4.2576 0
M  V30 4610 C 449.664 -2.15252 5.31464 0
M  V30 4611 N 449.16 -2.46533 6.47452 0
M  V30 4612 N 450.953 -2.16209 5.18855 0
M  V30 4613 H 443.104 0.203965 2.11418 0
M  V30 4614 H 445.367 0.0286033 0.947568 0
M  V30 4615 H 445.073 -0.486674 3.48316 0
M  V30 4616 H 444.947 -2.18805 3.07253 0
M  V30 4617 H 447.334 -2.08756 2.08579 0
M  V30 4618 H 447.415 -0.376756 2.5301 0
M  V30 4619 H 447.059 -1.01812 4.97591 0
M  V30 4620 H 446.989 -2.7337 4.50085 0
M  V30 4621 H 449.48 -1.6056 3.42095 0
M  V30 4622 H 449.793 -2.70662 7.23852 0
M  V30 4623 H 448.138 -2.44065 6.50736 0
M  V30 4624 H 451.329 -1.91224 4.2726 0
M  V30 4625 H 451.502 -2.41453 6.01335 0
M  V30 4626 N 444.908 -1.36708 -0.784132 0
M  V30 4627 C 446.154 -1.31426 -1.54451 0
M  V30 4628 C 446.487 0.10476 -1.93917 0
M  V30 4629 O 445.762 1.05934 -1.6312 0
M  V30 4630 C 446.045 -2.24189 -2.818 0
M  V30 4631 C 445.898 -3.74813 -2.48667 0
M  V30 4632 C 447.217 -2.15626 -3.83658 0
M  V30 4633 H 444.336 -0.478739 -0.560337 0
M  V30 4634 H 446.978 -1.67305 -0.900498 0
M  V30 4635 H 445.128 -1.93722 -3.36755 0
M  V30 4636 H 446.8 -4.15823 -1.99722 0
M  V30 4637 H 445.043 -3.93989 -1.81535 0
M  V30 4638 H 445.714 -4.35138 -3.39646 0
M  V30 4639 H 448.19 -2.42456 -3.38163 0
M  V30 4640 H 447.066 -2.82694 -4.70506 0
M  V30 4641 H 447.327 -1.14522 -4.27009 0
M  V30 4642 N 446.386 1.0089 -1.21074 0
M  V30 4643 C 447.349 2.0775 -0.968129 0
M  V30 4644 C 448.349 1.6069 0.0593445 0
M  V30 4645 O 449.539 1.73293 -0.177525 0
M  V30 4646 C 446.671 3.37794 -0.459108 0
M  V30 4647 H 447.864 2.30707 -1.9161 0
M  V30 4648 H 445.417 1.17807 -1.02719 0
M  V30 4649 H 446.152 3.20516 0.49397 0
M  V30 4650 H 445.937 3.7328 -1.20019 0
M  V30 4651 H 447.427 4.16454 -0.309099 0
M  V30 4652 N 447.864 1.01787 1.20321 0
M  V30 4653 C 448.827 0.593972 2.2137 0
M  V30 4654 C 449.827 -0.336553 1.57239 0
M  V30 4655 O 451.017 -0.125069 1.7375 0
M  V30 4656 C 448.149 -0.132433 3.40643 0
M  V30 4657 H 449.342 1.48791 2.60387 0
M  V30 4658 H 446.895 0.807803 1.33807 0
M  V30 4659 H 447.63 -1.04123 3.0713 0
M  V30 4660 H 447.415 0.53605 3.88418 0
M  V30 4661 H 448.905 -0.416314 4.1552 0
M  V30 4662 N 449.342 -1.36122 0.79427 0
M  V30 4663 C 450.289 -2.29982 0.194101 0
M  V30 4664 C 451.259 -1.52214 -0.664833 0
M  V30 4665 O 452.444 -1.80702 -0.612498 0
M  V30 4666 C 449.584 -3.38706 -0.661244 0
M  V30 4667 C 448.697 -4.31456 0.216766 0
M  V30 4668 C 447.832 -5.27265 -0.645411 0
M  V30 4669 C 446.871 -6.11653 0.233756 0
M  V30 4670 N 446.008 -6.99636 -0.587682 0
M  V30 4671 H 450.848 -2.80722 0.999965 0
M  V30 4672 H 448.385 -1.38172 0.504677 0
M  V30 4673 H 450.343 -4.00394 -1.17219 0
M  V30 4674 H 448.973 -2.89274 -1.43249 0
M  V30 4675 H 448.025 -3.7088 0.845724 0
M  V30 4676 H 449.337 -4.90724 0.893973 0
M  V30 4677 H 448.491 -5.94266 -1.22198 0
M  V30 4678 H 447.23 -4.68463 -1.35623 0
M  V30 4679 H 446.235 -5.4361 0.82269 0
M  V30 4680 H 447.46 -6.72531 0.942247 0
M  V30 4681 H 445.406 -6.43337 -1.2827 0
M  V30 4682 H 445.323 -7.55993 0.0317402 0
M  V30 4683 H 446.591 -7.71001 -1.14792 0
M  V30 4684 N 450.82 -0.546701 -1.47814 0
M  V30 4685 C 452.097 0.0464413 -1.95545 0
M  V30 4686 C 452.477 1.4962 -1.48919 0
M  V30 4687 O 451.825 2.16752 -0.723232 0
M  V30 4688 C 452.035 -0.0881298 -3.48889 0
M  V30 4689 C 453.383 0.0626059 -4.24554 0
M  V30 4690 O 454.407 -0.0151555 -3.56197 0
M  V30 4691 O 453.266 0.228071 -5.46024 0
M  V30 4692 H 450.36 0.0700004 -0.824032 0
M  V30 4693 H 452.906 -0.612482 -1.58262 0
M  V30 4694 H 451.678 -1.09737 -3.75597 0
M  V30 4695 H 451.301 0.608886 -3.9291 0
M  V30 4696 N 452.299 1.55045 -0.282633 0
M  V30 4697 C 453.527 2.04168 0.33512 0
M  V30 4698 C 453.942 1.16071 1.48906 0
M  V30 4699 O 453.299 0.182391 1.81586 0
M  V30 4700 C 453.35 3.52332 0.808957 0
M  V30 4701 O 453.071 4.37078 -0.299038 0
M  V30 4702 C 454.572 4.17375 1.49375 0
M  V30 4703 H 451.792 0.666744 0.0754543 0
M  V30 4704 H 454.336 2.00205 -0.416918 0
M  V30 4705 H 452.491 3.56715 1.51106 0
M  V30 4706 H 452.905 5.24458 0.0665514 0
M  V30 4707 H 454.379 5.22627 1.77664 0
M  V30 4708 H 454.856 3.65999 2.42778 0
M  V30 4709 H 455.462 4.17016 0.835305 0
M  V30 4710 N 453.777 0.010035 1.57597 0
M  V30 4711 C 455.025 -0.671371 1.90623 0
M  V30 4712 C 455.346 -1.73753 0.885151 0
M  V30 4713 O 454.616 -1.95752 -0.0760611 0
M  V30 4714 H 453.196 -0.250968 0.703579 0
M  V30 4715 H 455.858 0.0533325 1.94827 0
M  V30 4716 H 454.954 -1.13626 2.90681 0
M  V30 4717 N 455.255 -1.55392 -0.262866 0
M  V30 4718 C 456.165 -1.92077 -1.34698 0
M  V30 4719 C 457.181 -0.819227 -1.53508 0
M  V30 4720 O 458.357 -1.11921 -1.67439 0
M  V30 4721 C 455.422 -2.19407 -2.68443 0
M  V30 4722 C 454.483 -3.42905 -2.58292 0
M  V30 4723 C 453.716 -3.68921 -3.85659 0
M  V30 4724 O 453.939 -2.97275 -4.8681 0
M  V30 4725 O 452.873 -4.62455 -3.85252 0
M  V30 4726 H 456.699 -2.84384 -1.06581 0
M  V30 4727 H 454.284 -1.42069 -0.462264 0
M  V30 4728 H 456.166 -2.38365 -3.47506 0
M  V30 4729 H 454.841 -1.30282 -2.96325 0
M  V30 4730 H 453.748 -3.29272 -1.7757 0
M  V30 4731 H 455.081 -4.32282 -2.35358 0
M  V30 4732 N 456.733 0.527833 -1.48498 0
M  V30 4733 C 458.149 0.856571 -1.34666 0
M  V30 4734 C 458.349 1.98271 -0.35931 0
M  V30 4735 O 457.405 2.51551 0.218703 0
M  V30 4736 C 458.718 1.22207 -2.74747 0
M  V30 4737 C 460.266 1.33183 -2.83251 0
M  V30 4738 C 460.741 1.73075 -4.24039 0
M  V30 4739 N 462.232 1.80174 -4.26722 0
M  V30 4740 C 462.967 2.1243 -5.32598 0
M  V30 4741 N 462.463 2.43096 -6.4875 0
M  V30 4742 N 464.256 2.13454 -5.19994 0
M  V30 4743 H 456.407 -0.215174 -2.11307 0
M  V30 4744 H 458.67 -0.0336281 -0.947403 0
M  V30 4745 H 458.376 0.468195 -3.4857 0
M  V30 4746 H 458.25 2.17173 -3.08409 0
M  V30 4747 H 460.637 2.07647 -2.09683 0
M  V30 4748 H 460.718 0.363333 -2.53206 0
M  V30 4749 H 460.362 0.991712 -4.98124 0
M  V30 4750 H 460.292 2.70979 -4.51529 0
M  V30 4751 H 462.783 1.58744 -3.42942 0
M  V30 4752 H 463.096 2.6682 -7.25277 0
M  V30 4753 H 461.441 2.40611 -6.52021 0
M  V30 4754 H 464.632 1.88956 -4.28268 0
M  V30 4755 H 464.805 2.38261 -6.02608 0
M  V30 4756 N 458.211 1.37122 0.776871 0
M  V30 4757 C 459.121 1.34651 1.9211 0
M  V30 4758 C 460.137 0.246824 1.7224 0
M  V30 4759 O 461.313 0.48134 1.95563 0
M  V30 4760 C 458.378 1.14748 3.2716 0
M  V30 4761 C 457.439 2.34308 3.5972 0
M  V30 4762 C 456.672 2.15345 4.88326 0
M  V30 4763 O 456.895 1.13507 5.58992 0
M  V30 4764 O 455.829 3.03414 5.1983 0
M  V30 4765 H 459.655 2.31013 1.97146 0
M  V30 4766 H 457.24 1.17799 0.918901 0
M  V30 4767 H 459.122 1.05616 4.0795 0
M  V30 4768 H 457.797 0.214562 3.22988 0
M  V30 4769 H 456.704 2.49011 2.79185 0
M  V30 4770 H 458.037 3.26149 3.68629 0
M  V30 4771 N 459.689 -1.00246 1.21608 0
M  V30 4772 C 460.599 -2.12515 0.993709 0
M  V30 4773 C 461.615 -1.73913 -0.0549939 0
M  V30 4774 O 462.791 -2.00943 0.135619 0
M  V30 4775 C 459.856 -3.42083 0.563953 0
M  V30 4776 C 458.917 -3.94843 1.68516 0
M  V30 4777 C 458.15 -5.18226 1.27582 0
M  V30 4778 O 458.373 -5.70201 0.150506 0
M  V30 4779 O 457.307 -5.64497 2.0887 0
M  V30 4780 H 461.133 -2.34152 1.93407 0
M  V30 4781 H 458.718 -1.10891 1.00118 0
M  V30 4782 H 460.6 -4.20073 0.334194 0
M  V30 4783 H 459.275 -3.21828 -0.347665 0
M  V30 4784 H 458.182 -3.18068 1.96935 0
M  V30 4785 H 459.515 -4.19512 2.5743 0
M  V30 4786 N 461.167 -1.02423 -1.1978 0
M  V30 4787 C 462.097 -0.62157 -2.25075 0
M  V30 4788 C 463.078 0.367148 -1.6609 0
M  V30 4789 O 464.263 0.250892 -1.92573 0
M  V30 4790 C 461.393 0.0331826 -3.47284 0
M  V30 4791 C 460.347 -0.877323 -4.18912 0
M  V30 4792 C 459.673 -0.0879296 -5.34628 0
M  V30 4793 C 460.973 -2.18892 -4.74219 0
M  V30 4794 H 462.667 -1.50179 -2.59011 0
M  V30 4795 H 460.213 -0.723547 -1.24502 0
M  V30 4796 H 462.166 0.326488 -4.20133 0
M  V30 4797 H 460.89 0.948164 -3.12534 0
M  V30 4798 H 459.549 -1.15475 -3.47938 0
M  V30 4799 H 459.197 0.828941 -4.96123 0
M  V30 4800 H 458.897 -0.694359 -5.83483 0
M  V30 4801 H 460.421 0.198743 -6.10276 0
M  V30 4802 H 461.835 -1.95746 -5.38847 0
M  V30 4803 H 460.232 -2.74686 -5.33542 0
M  V30 4804 H 461.302 -2.84674 -3.92541 0
M  V30 4805 N 462.645 1.35699 -0.801477 0
M  V30 4806 C 464.056 1.81415 -0.441073 0
M  V30 4807 C 464.407 1.66595 1.03636 0
M  V30 4808 O 463.532 1.19369 1.80499 0
M  V30 4809 C 464.127 3.29369 -0.793819 0
M  V30 4810 C 462.686 3.73248 -0.486083 0
M  V30 4811 C 461.833 2.57775 -1.02213 0
M  V30 4812 H 464.784 1.23749 -0.993572 0
M  V30 4813 H 464.805 3.80395 -0.0894158 0
M  V30 4814 H 464.317 3.40123 -1.86917 0
M  V30 4815 H 462.418 3.68046 0.580735 0
M  V30 4816 H 462.531 4.68222 -1.01513 0
M  V30 4817 H 460.895 2.50788 -0.444712 0
M  V30 4818 H 461.678 2.71309 -2.10348 0
M  V30 4819 N 464.123 0.554532 1.47522 0
M  V30 4820 C 465.086 -0.184174 2.28459 0
M  V30 4821 C 466.086 -0.845195 1.36796 0
M  V30 4822 O 467.276 -0.701467 1.59452 0
M  V30 4823 C 464.408 -1.26903 3.16399 0
M  V30 4824 H 465.601 0.526751 2.95238 0
M  V30 4825 H 463.154 0.311375 1.53167 0
M  V30 4826 H 463.889 -2.01244 2.54306 0
M  V30 4827 H 463.674 -0.799883 3.83854 0
M  V30 4828 H 465.164 -1.78794 3.77389 0
M  V30 4829 N 465.601 -1.54893 0.290851 0
M  V30 4830 C 466.533 -2.20564 -0.623236 0
M  V30 4831 C 467.546 -1.19519 -1.1054 0
M  V30 4832 O 468.735 -1.46165 -1.02459 0
M  V30 4833 C 465.835 -2.83033 -1.86401 0
M  V30 4834 C 465.008 -4.09916 -1.52604 0
M  V30 4835 C 464.067 -4.56284 -2.62091 0
M  V30 4836 O 463.093 -5.2171 -2.27612 0
M  V30 4837 N 464.295 -4.27746 -3.92446 0
M  V30 4838 H 467.06 -2.99638 -0.0610915 0
M  V30 4839 H 464.621 -1.61508 0.112615 0
M  V30 4840 H 466.613 -3.1099 -2.58973 0
M  V30 4841 H 465.183 -2.0786 -2.33481 0
M  V30 4842 H 464.403 -3.89078 -0.633424 0
M  V30 4843 H 465.691 -4.92554 -1.27547 0
M  V30 4844 H 465.089 -3.7531 -4.23272 0
M  V30 4845 H 463.646 -4.60437 -4.61347 0
M  V30 4846 N 467.08 -0.0183926 -1.57589 0
M  V30 4847 C 468.01 0.965596 -2.12599 0
M  V30 4848 C 468.991 1.34641 -1.0395 0
M  V30 4849 O 470.176 1.42693 -1.31729 0
M  V30 4850 C 467.306 2.25149 -2.64434 0
M  V30 4851 C 466.26 2.01175 -3.77773 0
M  V30 4852 C 465.586 3.35937 -4.15994 0
M  V30 4853 C 466.886 1.35953 -5.04296 0
M  V30 4854 H 468.58 0.507504 -2.95067 0
M  V30 4855 H 466.126 0.242671 -1.41941 0
M  V30 4856 H 468.079 2.94357 -3.01549 0
M  V30 4857 H 466.803 2.73105 -1.79112 0
M  V30 4858 H 465.462 1.34388 -3.4108 0
M  V30 4859 H 465.11 3.81631 -3.27669 0
M  V30 4860 H 464.81 3.20705 -4.92364 0
M  V30 4861 H 466.334 4.0643 -4.55683 0
M  V30 4862 H 467.748 1.95144 -5.39065 0
M  V30 4863 H 466.145 1.31152 -5.85593 0
M  V30 4864 H 467.215 0.331071 -4.83768 0
M  V30 4865 N 468.558 1.5553 0.254621 0
M  V30 4866 C 469.804 1.77262 0.985193 0
M  V30 4867 C 470.137 0.582286 1.85265 0
M  V30 4868 O 469.412 -0.419666 1.89919 0
M  V30 4869 C 469.695 3.0881 1.85225 0
M  V30 4870 C 469.548 4.38233 1.0135 0
M  V30 4871 C 470.867 3.3653 2.83612 0
M  V30 4872 H 467.986 0.644906 0.356742 0
M  V30 4873 H 470.628 1.88264 0.256236 0
M  V30 4874 H 468.778 2.99562 2.47376 0
M  V30 4875 H 470.45 4.59463 0.411269 0
M  V30 4876 H 468.693 4.32636 0.317574 0
M  V30 4877 H 469.364 5.26644 1.65379 0
M  V30 4878 H 471.84 3.45691 2.31596 0
M  V30 4879 H 470.716 4.29805 3.41407 0
M  V30 4880 H 470.977 2.57064 3.59681 0
M  V30 4881 N 470.036 -0.519951 1.48776 0
M  V30 4882 C 471.282 -1.27711 1.57536 0
M  V30 4883 C 471.615 -1.92547 0.252866 0
M  V30 4884 O 470.89 -1.7979 -0.742021 0
M  V30 4885 C 471.173 -2.35875 2.72094 0
M  V30 4886 C 471.026 -1.75664 4.1408 0
M  V30 4887 C 472.345 -3.37575 2.82367 0
M  V30 4888 H 469.464 -0.462971 0.573434 0
M  V30 4889 H 472.106 -0.578194 1.80989 0
M  V30 4890 H 470.256 -2.95488 2.52228 0
M  V30 4891 H 471.928 -1.20025 4.45412 0
M  V30 4892 H 470.171 -1.06154 4.20611 0
M  V30 4893 H 470.842 -2.54029 4.90075 0
M  V30 4894 H 473.318 -2.87929 3.00393 0
M  V30 4895 H 472.194 -4.1064 3.64233 0
M  V30 4896 H 472.455 -3.98743 1.90936 0
M  V30 4897 N 471.514 -1.37532 -0.769588 0
M  V30 4898 C 472.93 -1.18379 -1.07045 0
M  V30 4899 C 473.13 -0.0214312 -2.01489 0
M  V30 4900 O 472.186 0.637809 -2.44312 0
M  V30 4901 C 473.499 -2.50338 -1.66588 0
M  V30 4902 C 475.047 -2.56879 -1.78835 0
M  V30 4903 C 475.522 -3.88974 -2.41792 0
M  V30 4904 N 477.013 -3.90428 -2.4924 0
M  V30 4905 C 477.748 -4.89388 -2.98809 0
M  V30 4906 N 477.244 -5.98745 -3.48535 0
M  V30 4907 N 479.037 -4.76791 -2.97703 0
M  V30 4908 H 471.188 -2.11921 -0.142541 0
M  V30 4909 H 473.451 -0.939608 -0.125863 0
M  V30 4910 H 473.157 -3.35767 -1.0466 0
M  V30 4911 H 473.031 -2.67583 -2.65856 0
M  V30 4912 H 475.418 -1.71856 -2.39895 0
M  V30 4913 H 475.499 -2.43516 -0.783166 0
M  V30 4914 H 475.143 -4.74412 -1.81371 0
M  V30 4915 H 475.073 -3.99641 -3.4292 0
M  V30 4916 H 477.564 -3.11433 -2.14052 0
M  V30 4917 H 477.877 -6.70205 -3.84767 0
M  V30 4918 H 476.222 -6.02387 -3.46634 0
M  V30 4919 H 479.413 -3.90478 -2.58157 0
M  V30 4920 H 479.586 -5.54069 -3.36024 0
M  V30 4921 N 472.992 0.995999 -1.22138 0
M  V30 4922 C 474.217 1.77601 -1.0711 0
M  V30 4923 C 474.642 1.84339 0.374264 0
M  V30 4924 O 474 1.29359 1.27028 0
M  V30 4925 C 474.048 3.18897 -1.68336 0
M  V30 4926 O 473.152 4.01663 -0.934928 0
M  V30 4927 H 472.493 0.547011 -0.376397 0
M  V30 4928 H 475.023 1.25137 -1.6187 0
M  V30 4929 H 475.033 3.69539 -1.72931 0
M  V30 4930 H 473.708 3.13308 -2.73516 0
M  V30 4931 H 472.285 3.60204 -0.964751 0
M  V30 4932 N 474.47 1.03057 1.19235 0
M  V30 4933 C 475.716 0.729098 1.89241 0
M  V30 4934 C 476.049 -0.740573 1.79525 0
M  V30 4935 O 475.324 -1.53946 1.18874 0
M  V30 4936 C 475.607 1.18304 3.40112 0
M  V30 4937 C 475.46 2.71406 3.5869 0
M  V30 4938 C 476.779 0.765161 4.33397 0
M  V30 4939 H 473.898 0.266338 0.687192 0
M  V30 4940 H 476.54 1.28079 1.40341 0
M  V30 4941 H 474.69 0.713672 3.81889 0
M  V30 4942 H 476.362 3.26303 3.26074 0
M  V30 4943 H 474.605 3.11717 3.01687 0
M  V30 4944 H 475.276 2.98225 4.64506 0
M  V30 4945 H 477.752 1.16889 3.99345 0
M  V30 4946 H 476.628 1.11065 5.37546 0
M  V30 4947 H 476.889 -0.332372 4.40849 0
M  V30 4948 N 475.948 -1.35272 0.808662 0
M  V30 4949 C 477.196 -1.98316 0.389233 0
M  V30 4950 C 477.517 -1.64465 -1.04767 0
M  V30 4951 O 476.787 -0.928175 -1.72516 0
M  V30 4952 H 475.367 -0.733585 0.140935 0
M  V30 4953 H 478.029 -1.6515 1.03496 0
M  V30 4954 H 477.125 -3.08123 0.496631 0
M  V30 4955 N 477.426 -0.562348 -1.47226 0
M  V30 4956 C 478.656 -0.0451619 -2.06551 0
M  V30 4957 C 479.064 1.25626 -1.41473 0
M  V30 4958 O 478.407 1.76563 -0.507061 0
M  V30 4959 C 478.469 0.216068 -3.5885 0
M  V30 4960 C 478.133 -0.996691 -4.45999 0
M  V30 4961 C 479.13 -1.90358 -4.83797 0
M  V30 4962 C 476.815 -1.21281 -4.87438 0
M  V30 4963 C 478.809 -3.01023 -5.6184 0
M  V30 4964 C 476.496 -2.32255 -5.65244 0
M  V30 4965 C 477.494 -3.21956 -6.02356 0
M  V30 4966 O 477.182 -4.31005 -6.78594 0
M  V30 4967 H 476.914 -0.0451646 -0.67449 0
M  V30 4968 H 479.468 -0.776842 -1.90143 0
M  V30 4969 H 477.698 1.00212 -3.7349 0
M  V30 4970 H 479.387 0.679264 -4.00176 0
M  V30 4971 H 480.153 -1.74868 -4.52378 0
M  V30 4972 H 476.032 -0.523767 -4.58015 0
M  V30 4973 H 479.576 -3.71064 -5.90726 0
M  V30 4974 H 475.473 -2.47715 -5.96077 0
M  V30 4975 H 476.241 -4.29118 -6.96994 0
M  V30 4976 N 478.904 1.54736 -0.299062 0
M  V30 4977 C 480.32 1.59507 0.0543849 0
M  V30 4978 C 480.52 1.31606 1.52585 0
M  V30 4979 O 479.576 1.08853 2.27832 0
M  V30 4980 C 480.889 2.98751 -0.34181 0
M  V30 4981 C 482.437 3.1165 -0.290414 0
M  V30 4982 C 482.912 4.53199 -0.661402 0
M  V30 4983 N 484.403 4.59114 -0.613863 0
M  V30 4984 C 485.138 5.66709 -0.873417 0
M  V30 4985 N 484.634 6.82349 -1.19884 0
M  V30 4986 N 486.427 5.56369 -0.800608 0
M  V30 4987 H 478.578 1.71133 -1.25806 0
M  V30 4988 H 480.841 0.799186 -0.509908 0
M  V30 4989 H 480.547 3.24085 -1.36608 0
M  V30 4990 H 480.421 3.75961 0.305508 0
M  V30 4991 H 482.808 2.86066 0.724605 0
M  V30 4992 H 482.889 2.366 -0.972327 0
M  V30 4993 H 482.533 4.79513 -1.67422 0
M  V30 4994 H 482.463 5.26583 0.0425612 0
M  V30 4995 H 484.954 3.76053 -0.3732 0
M  V30 4996 H 485.267 7.60326 -1.38291 0
M  V30 4997 H 483.612 6.83906 -1.23685 0
M  V30 4998 H 486.803 4.64904 -0.546045 0
M  V30 4999 H 486.976 6.40139 -1.00626 0
M  V30 5000 N 480.382 0.0267497 1.57577 0
M  V30 5001 C 481.63 -0.651116 1.91324 0
M  V30 5002 C 481.951 -1.72804 0.90353 0
M  V30 5003 O 481.221 -1.95822 -0.0552946 0
M  V30 5004 H 479.801 -0.243491 0.706202 0
M  V30 5005 H 482.463 0.0739935 1.94759 0
M  V30 5006 H 481.559 -1.10536 2.9187 0
M  V30 5007 N 481.861 -1.55662 -0.24637 0
M  V30 5008 C 483.107 -1.77782 -0.975779 0
M  V30 5009 C 483.44 -0.592103 -1.84953 0
M  V30 5010 O 482.715 0.409588 -1.90138 0
M  V30 5011 C 482.998 -3.09788 -1.83584 0
M  V30 5012 C 482.851 -4.38764 -0.990241 0
M  V30 5013 C 484.17 -3.38029 -2.81823 0
M  V30 5014 H 481.289 -0.646789 -0.353317 0
M  V30 5015 H 483.931 -1.88398 -0.246248 0
M  V30 5016 H 482.081 -3.00869 -2.45784 0
M  V30 5017 H 483.753 -4.59675 -0.386897 0
M  V30 5018 H 481.996 -4.32798 -0.294626 0
M  V30 5019 H 482.667 -5.27514 -1.62584 0
M  V30 5020 H 485.143 -3.46915 -2.2976 0
M  V30 5021 H 484.019 -4.3161 -3.39122 0
M  V30 5022 H 484.28 -2.58968 -3.58313 0
M  V30 5023 N 483.339 0.512053 -1.4905 0
M  V30 5024 C 484.75 1.09376 -1.51307 0
M  V30 5025 C 485.101 1.94 -0.292971 0
M  V30 5026 O 484.226 2.07965 0.598277 0
M  V30 5027 C 484.821 1.99031 -2.74176 0
M  V30 5028 C 483.38 2.52385 -2.79247 0
M  V30 5029 C 482.527 1.29749 -2.45073 0
M  V30 5030 H 485.478 0.296467 -1.55906 0
M  V30 5031 H 485.499 2.83569 -2.53711 0
M  V30 5032 H 485.011 1.37412 -3.62959 0
M  V30 5033 H 483.112 3.17673 -1.94716 0
M  V30 5034 H 483.225 2.90293 -3.81139 0
M  V30 5035 H 481.589 1.61912 -1.96612 0
M  V30 5036 H 482.372 0.698555 -3.36118 0
M  V30 5037 N 484.817 1.37938 0.762283 0
M  V30 5038 C 486.045 1.36883 1.55147 0
M  V30 5039 C 486.46 -0.0435348 1.8875 0
M  V30 5040 O 485.817 -1.00786 1.52146 0
M  V30 5041 C 485.868 2.21624 2.85596 0
M  V30 5042 O 485.589 3.57358 2.5343 0
M  V30 5043 C 487.09 2.28653 3.7978 0
M  V30 5044 H 484.31 0.468521 0.480343 0
M  V30 5045 H 486.854 1.81404 0.944079 0
M  V30 5046 H 485.009 1.80588 3.42734 0
M  V30 5047 H 485.423 4.01883 3.37032 0
M  V30 5048 H 486.897 2.9225 4.68288 0
M  V30 5049 H 487.374 1.29767 4.19592 0
M  V30 5050 H 487.98 2.70043 3.28568 0
M  V30 5051 N 486.295 -0.989507 1.22664 0
M  V30 5052 C 487.706 -1.54406 1.04955 0
M  V30 5053 C 488.057 -1.92366 -0.385951 0
M  V30 5054 O 487.182 -1.75111 -1.27142 0
M  V30 5055 C 487.777 -2.80578 1.89899 0
M  V30 5056 C 486.336 -3.32464 1.76478 0
M  V30 5057 C 485.483 -2.05524 1.86159 0
M  V30 5058 H 488.434 -0.810211 1.3646 0
M  V30 5059 H 488.455 -3.53075 1.4184 0
M  V30 5060 H 487.967 -2.52918 2.94371 0
M  V30 5061 H 486.068 -3.65024 0.747528 0
M  V30 5062 H 486.181 -4.02838 2.59342 0
M  V30 5063 H 484.545 -2.19241 1.29636 0
M  V30 5064 H 485.328 -1.80258 2.92168 0
M  V30 5065 N 487.773 -1.03688 -1.18687 0
M  V30 5066 C 489.021 -0.736572 -1.88199 0
M  V30 5067 C 489.342 0.737665 -1.80509 0
M  V30 5068 O 488.612 1.53204 -1.22088 0
M  V30 5069 H 487.192 -0.269466 -0.696704 0
M  V30 5070 H 489.854 -1.31282 -1.44052 0
M  V30 5071 H 488.95 -1.03802 -2.94332 0
M  V30 5072 N 489.251 1.34841 -0.815825 0
M  V30 5073 C 490.181 2.32187 -0.247298 0
M  V30 5074 C 491.162 1.5791 0.632344 0
M  V30 5075 O 492.347 1.8593 0.560698 0
M  V30 5076 C 489.477 3.42122 0.597466 0
M  V30 5077 C 488.431 4.27602 -0.184446 0
M  V30 5078 C 487.757 5.28942 0.782609 0
M  V30 5079 C 489.057 5.03502 -1.38865 0
M  V30 5080 H 490.751 2.79985 -1.06061 0
M  V30 5081 H 488.297 1.34611 -0.511461 0
M  V30 5082 H 490.25 4.09232 1.00533 0
M  V30 5083 H 488.974 2.92956 1.44376 0
M  V30 5084 H 487.633 3.62085 -0.573592 0
M  V30 5085 H 487.281 4.7604 1.62466 0
M  V30 5086 H 486.981 5.87008 0.263695 0
M  V30 5087 H 488.505 5.98922 1.18848 0
M  V30 5088 H 489.919 5.63506 -1.05518 0
M  V30 5089 H 488.316 5.71108 -1.8427 0
M  V30 5090 H 489.386 4.33608 -2.17054 0
M  V30 5091 N 490.729 0.570148 1.46925 0
M  V30 5092 C 492.14 0.1402 1.86173 0
M  V30 5093 C 492.491 -1.29347 1.47526 0
M  V30 5094 O 491.616 -1.97508 0.884292 0
M  V30 5095 C 492.211 0.247661 3.37894 0
M  V30 5096 C 490.77 -0.127332 3.76185 0
M  V30 5097 C 489.917 0.589349 2.70965 0
M  V30 5098 H 492.868 0.779117 1.38259 0
M  V30 5099 H 492.889 -0.530341 3.76786 0
M  V30 5100 H 492.401 1.29121 3.65991 0
M  V30 5101 H 490.502 -1.17149 3.53704 0
M  V30 5102 H 490.615 0.240238 4.78497 0
M  V30 5103 H 488.979 0.0309824 2.54681 0
M  V30 5104 H 489.762 1.6343 3.01903 0
M  V30 5105 N 492.207 -1.54576 0.307264 0
M  V30 5106 C 493.454 -2.00263 -0.300167 0
M  V30 5107 C 493.782 -1.19561 -1.53413 0
M  V30 5108 O 493.037 -0.261487 -1.93945 0
M  V30 5109 C 493.336 -3.50572 -0.695253 0
M  V30 5110 C 493.002 -4.48771 0.437679 0
M  V30 5111 C 491.664 -4.7534 0.748681 0
M  V30 5112 C 494.016 -5.0721 1.19949 0
M  V30 5113 C 491.344 -5.5761 1.8245 0
M  V30 5114 C 493.696 -5.90651 2.26527 0
M  V30 5115 C 492.36 -6.15528 2.58227 0
M  V30 5116 H 491.63 -0.732814 -0.109839 0
M  V30 5117 H 494.277 -1.86664 0.427661 0
M  V30 5118 H 492.582 -3.61814 -1.50326 0
M  V30 5119 H 494.279 -3.83352 -1.17653 0
M  V30 5120 H 490.869 -4.282 0.185187 0
M  V30 5121 H 495.053 -4.86679 0.972474 0
M  V30 5122 H 490.309 -5.75121 2.07476 0
M  V30 5123 H 494.483 -6.34957 2.86011 0
M  V30 5124 H 492.11 -6.79066 3.4172 0
M  V30 5125 N 493.685 -0.035106 -1.57561 0
M  V30 5126 C 494.962 0.681212 -1.83354 0
M  V30 5127 C 495.342 1.89986 -0.920252 0
M  V30 5128 O 494.69 2.28489 0.0226815 0
M  V30 5129 C 494.9 1.05376 -3.32712 0
M  V30 5130 C 496.248 1.44286 -3.99333 0
M  V30 5131 O 497.272 1.14656 -3.37242 0
M  V30 5132 O 496.131 1.99518 -5.08778 0
M  V30 5133 H 493.225 0.334741 -0.756226 0
M  V30 5134 H 495.771 -0.0632448 -1.69582 0
M  V30 5135 H 494.543 0.186668 -3.90854 0
M  V30 5136 H 494.166 1.85619 -3.51613 0
M  V30 5137 N 495.163 1.55791 0.238111 0
M  V30 5138 C 496.44 1.68798 0.98826 0
M  V30 5139 C 496.82 0.577562 2.03045 0
M  V30 5140 O 496.168 -0.41778 2.24648 0
M  V30 5141 C 496.378 3.09454 1.61367 0
M  V30 5142 C 497.726 3.68335 2.11221 0
M  V30 5143 O 498.75 3.1231 1.71292 0
M  V30 5144 O 497.609 4.6657 2.84561 0
M  V30 5145 H 494.703 0.686881 0.460568 0
M  V30 5146 H 497.249 1.68118 0.231202 0
M  V30 5147 H 496.021 3.81726 0.860295 0
M  V30 5148 H 495.644 3.14182 2.4367 0
M  V30 5149 N 496.642 -0.504142 1.49319 0
M  V30 5150 C 497.574 -1.62265 1.61872 0
M  V30 5151 C 498.587 -1.54881 0.501573 0
M  V30 5152 O 499.776 -1.6087 0.773497 0
M  V30 5153 C 496.876 -3.01042 1.55651 0
M  V30 5154 C 496.049 -3.33642 2.82845 0
M  V30 5155 C 495.108 -4.51816 2.69719 0
M  V30 5156 O 494.134 -4.53755 3.4365 0
M  V30 5157 N 495.336 -5.51543 1.81055 0
M  V30 5158 H 498.101 -1.51924 2.58339 0
M  V30 5159 H 495.662 -0.691954 1.46368 0
M  V30 5160 H 497.654 -3.78013 1.44528 0
M  V30 5161 H 496.224 -3.05323 0.670546 0
M  V30 5162 H 495.444 -2.45598 3.08343 0
M  V30 5163 H 496.732 -3.5222 3.67177 0
M  V30 5164 H 496.13 -5.52774 1.20241 0
M  V30 5165 H 494.687 -6.27629 1.75856 0
M  V30 5166 N 498.12 -1.38341 -0.754957 0
M  V30 5167 C 499.345 -1.37882 -1.5493 0
M  V30 5168 C 499.77 0.0296385 -1.88077 0
M  V30 5169 O 499.128 1.01133 -1.50472 0
M  V30 5170 C 499.176 -2.23996 -2.82592 0
M  V30 5171 O 498.28 -1.65612 -3.77686 0
M  V30 5172 H 497.621 -0.470384 -0.468652 0
M  V30 5173 H 500.151 -1.82084 -0.933082 0
M  V30 5174 H 500.161 -2.37806 -3.3153 0
M  V30 5175 H 498.836 -3.26365 -2.57796 0
M  V30 5176 H 497.413 -1.60936 -3.36384 0
M  V30 5177 N 499.598 0.982988 -1.23187 0
M  V30 5178 C 500.846 1.72052 -1.06031 0
M  V30 5179 C 501.167 1.90769 0.404019 0
M  V30 5180 O 500.437 1.47446 1.28982 0
M  V30 5181 H 499.017 0.637499 -0.389363 0
M  V30 5182 H 501.679 1.18338 -1.54862 0
M  V30 5183 H 500.775 2.7111 -1.54615 0
M  V30 5184 N 501.076 1.04316 1.18135 0
M  V30 5185 C 502.304 0.768117 1.92113 0
M  V30 5186 C 502.719 -0.675057 1.76319 0
M  V30 5187 O 502.076 -1.46038 1.09449 0
M  V30 5188 C 502.127 1.12808 3.43448 0
M  V30 5189 O 501.848 2.5146 3.58747 0
M  V30 5190 C 503.349 0.8779 4.3452 0
M  V30 5191 H 500.569 0.279937 0.609817 0
M  V30 5192 H 503.113 1.39149 1.49859 0
M  V30 5193 H 501.268 0.549623 3.83481 0
M  V30 5194 H 501.682 2.65313 4.52448 0
M  V30 5195 H 503.156 1.17959 5.39249 0
M  V30 5196 H 503.633 -0.187239 4.38801 0
M  V30 5197 H 504.239 1.43977 4.00188 0
M  V30 5198 N 502.554 -1.34406 0.822964 0
M  V30 5199 C 503.803 -1.97542 0.407458 0
M  V30 5200 C 504.116 -1.65973 -1.035 0
M  V30 5201 O 505.322 -2.22598 -1.55442 0
M  V30 5202 C 503.778 -3.53463 0.677623 0
M  V30 5203 C 503.386 -3.93925 2.1337 0
M  V30 5204 C 505.13 -4.23229 0.328284 0
M  V30 5205 C 503.037 -5.42759 2.34876 0
M  V30 5206 H 501.967 -0.739207 0.148623 0
M  V30 5207 H 504.618 -1.53248 1.00932 0
M  V30 5208 H 503 -3.96 0.00558965 0
M  V30 5209 H 504.174 -3.62494 2.8449 0
M  V30 5210 H 502.489 -3.37097 2.44448 0
M  V30 5211 H 505.086 -5.32659 0.466794 0
M  V30 5212 H 505.429 -4.09899 -0.727224 0
M  V30 5213 H 505.962 -3.86169 0.954896 0
M  V30 5214 H 502.701 -5.61075 3.38932 0
M  V30 5215 H 502.221 -5.75704 1.68299 0
M  V30 5216 H 503.9 -6.0944 2.17236 0
M  V30 5217 N 504.032 -0.577932 -1.46621 0
M  V30 5218 C 505.443 -0.150071 -1.86096 0
M  V30 5219 C 505.794 1.28563 -1.48209 0
M  V30 5220 O 504.919 1.97036 -0.894754 0
M  V30 5221 C 505.514 -0.265576 -3.37758 0
M  V30 5222 C 504.073 0.10738 -3.76247 0
M  V30 5223 C 503.22 -0.603711 -2.70649 0
M  V30 5224 H 506.171 -0.786438 -1.37844 0
M  V30 5225 H 506.192 0.510352 -3.77062 0
M  V30 5226 H 505.704 -1.3106 -3.65301 0
M  V30 5227 H 503.805 1.15272 -3.54321 0
M  V30 5228 H 503.918 -0.26561 -4.78363 0
M  V30 5229 H 502.282 -0.0444884 -2.54661 0
M  V30 5230 H 503.065 -1.65029 -3.01032 0
M  V30 5231 N 505.51 1.54411 -0.315457 0
M  V30 5232 C 506.458 2.25514 0.569771 0
M  V30 5233 C 507.452 1.2663 1.12522 0
M  V30 5234 O 508.658 1.44434 1.07419 0
M  V30 5235 H 505.033 0.724257 0.202376 0
M  V30 5236 H 507.004 2.98354 -0.0522895 0
M  V30 5237 C 505.753 3.02004 1.72305 0
M  V30 5238 H 505.076 3.77906 1.30488 0
M  V30 5239 H 506.516 3.55014 2.31821 0
M  V30 5240 C 504.975 2.09822 2.63583 0
M  V30 5241 O 505.505 1.67574 3.65078 0
M  V30 5242 N 503.711 1.75478 2.31637 0
M  V30 5243 H 503.258 2.10032 1.49145 0
M  V30 5244 H 503.216 1.14079 2.92973 0
M  V30 5245 N 506.988 0.0434614 1.5754 0
M  V30 5246 C 508.234 -0.632971 1.92669 0
M  V30 5247 C 508.567 -1.70947 0.921446 0
M  V30 5248 O 507.842 -1.94426 -0.0537202 0
M  V30 5249 C 508.125 -1.23619 3.38216 0
M  V30 5250 C 507.978 -0.168274 4.49485 0
M  V30 5251 C 509.297 -2.15008 3.84005 0
M  V30 5252 H 506.416 -0.228629 0.700641 0
M  V30 5253 H 509.058 0.103651 1.89717 0
M  V30 5254 H 507.208 -1.864 3.40863 0
M  V30 5255 H 508.88 0.463196 4.58969 0
M  V30 5256 H 507.123 0.504581 4.30855 0
M  V30 5257 H 507.794 -0.630218 5.48391 0
M  V30 5258 H 510.27 -1.62198 3.83185 0
M  V30 5259 H 509.146 -2.54161 4.86511 0
M  V30 5260 H 509.407 -3.04707 3.20322 0
M  V30 5261 N 508.466 -1.55915 -0.229846 0
M  V30 5262 C 509.714 -1.7819 -0.953565 0
M  V30 5263 C 510.035 -0.610504 -1.85197 0
M  V30 5264 O 509.305 0.372988 -1.92316 0
M  V30 5265 H 507.885 -0.657208 -0.355087 0
M  V30 5266 H 510.547 -1.9337 -0.243693 0
M  V30 5267 H 509.643 -2.70011 -1.56527 0
M  V30 5268 N 509.944 0.496216 -1.49584 0
M  V30 5269 C 511.192 1.24756 -1.58998 0
M  V30 5270 C 511.513 1.92968 -0.280775 0
M  V30 5271 O 510.783 1.82959 0.700198 0
M  V30 5272 H 509.363 0.463471 -0.585836 0
M  V30 5273 H 512.025 0.574678 -1.86235 0
M  V30 5274 H 511.121 2.00895 -2.38847 0
M  V30 5275 N 511.423 1.38739 0.74761 0
M  V30 5276 C 512.839 1.20067 1.05148 0
M  V30 5277 C 513.039 0.0534835 2.01429 0
M  V30 5278 O 512.095 -0.59886 2.45296 0
M  V30 5279 C 513.408 2.52957 1.62584 0
M  V30 5280 C 514.956 2.59692 1.74726 0
M  V30 5281 C 515.431 3.92772 2.35573 0
M  V30 5282 N 516.922 3.94343 2.42997 0
M  V30 5283 C 517.657 4.9408 2.90985 0
M  V30 5284 N 517.153 6.04214 3.38965 0
M  V30 5285 N 518.946 4.81466 2.9008 0
M  V30 5286 H 511.097 2.12121 0.108808 0
M  V30 5287 H 513.36 0.941491 0.110899 0
M  V30 5288 H 513.066 3.37389 0.993051 0
M  V30 5289 H 512.94 2.71779 2.61565 0
M  V30 5290 H 515.327 1.75651 2.3713 0
M  V30 5291 H 515.408 2.44731 0.744326 0
M  V30 5292 H 515.052 4.77238 1.738 0
M  V30 5293 H 514.982 4.05046 3.36519 0
M  V30 5294 H 517.473 3.14799 2.0907 0
M  V30 5295 H 517.786 6.76241 3.74056 0
M  V30 5296 H 516.131 6.07825 3.37007 0
M  V30 5297 H 519.322 3.94535 2.51912 0
M  V30 5298 H 519.495 5.59344 3.27166 0
M  V30 5299 N 512.901 -0.976442 1.23707 0
M  V30 5300 C 514.15 -1.71254 1.06559 0
M  V30 5301 C 514.463 -1.91528 -0.397024 0
M  V30 5302 O 515.669 -2.62625 -0.688518 0
M  V30 5303 C 514.125 -3.08207 1.8584 0
M  V30 5304 C 513.733 -2.95806 3.36456 0
M  V30 5305 C 515.477 -3.85749 1.77194 0
M  V30 5306 C 513.384 -4.28015 4.08114 0
M  V30 5307 H 512.314 -0.642171 0.395136 0
M  V30 5308 H 514.965 -1.08877 1.4771 0
M  V30 5309 H 513.347 -3.71363 1.37498 0
M  V30 5310 H 514.521 -2.41716 3.92314 0
M  V30 5311 H 512.836 -2.31736 3.45959 0
M  V30 5312 H 515.433 -4.83633 2.28041 0
M  V30 5313 H 515.776 -4.09752 0.735477 0
M  V30 5314 H 516.309 -3.29303 2.23169 0
M  V30 5315 H 513.048 -4.09208 5.12083 0
M  V30 5316 H 512.568 -4.81955 3.57043 0
M  V30 5317 H 514.247 -4.96681 4.14629 0
M  V30 5318 N 514.379 -1.04941 -1.1758 0
M  V30 5319 C 515.327 -0.64204 -2.23563 0
M  V30 5320 C 516.321 0.335453 -1.66045 0
M  V30 5321 O 517.527 0.20179 -1.78865 0
M  V30 5322 H 513.902 -0.18944 -0.727748 0
M  V30 5323 H 515.873 -1.54609 -2.55223 0
M  V30 5324 C 514.622 -0.0301051 -3.47687 0
M  V30 5325 H 513.945 -0.773339 -3.92249 0
M  V30 5326 H 515.385 0.217592 -4.23441 0
M  V30 5327 C 513.844 1.2225 -3.13937 0
M  V30 5328 O 514.374 2.3122 -3.28482 0
M  V30 5329 N 512.58 1.11917 -2.68185 0
M  V30 5330 H 512.127 0.232403 -2.5655 0
M  V30 5331 H 512.085 1.95814 -2.45976 0
M  V30 5332 N 515.857 1.33968 -0.830081 0
M  V30 5333 C 517.105 1.97672 -0.420734 0
M  V30 5334 C 517.426 1.66111 1.02138 0
M  V30 5335 O 516.696 0.955503 1.71017 0
M  V30 5336 H 515.276 0.73125 -0.152587 0
M  V30 5337 H 517.938 1.63483 -1.0611 0
M  V30 5338 H 517.034 3.07294 -0.545588 0
M  V30 5339 N 517.335 0.585699 1.46312 0
M  V30 5340 C 518.56 0.0762461 2.0726 0
M  V30 5341 C 518.985 -1.22071 1.43109 0
M  V30 5342 O 518.343 -1.73804 0.515942 0
M  V30 5343 C 518.391 -0.0729404 3.60526 0
M  V30 5344 O 517.495 -1.1287 3.96654 0
M  V30 5345 H 516.836 0.0641558 0.660893 0
M  V30 5346 H 519.366 0.809492 1.87905 0
M  V30 5347 H 519.376 -0.278158 4.07051 0
M  V30 5348 H 518.051 0.874188 4.06609 0
M  V30 5349 H 516.628 -0.901703 3.61834 0
M  V30 5350 N 518.813 -1.54241 0.323641 0
M  V30 5351 C 520.224 -1.85975 -0.164405 0
M  V30 5352 C 520.575 -1.24529 -1.51615 0
M  V30 5353 O 519.7 -0.551351 -2.09258 0
M  V30 5354 C 520.295 -3.37424 -0.305091 0
M  V30 5355 C 518.854 -3.69107 -0.737358 0
M  V30 5356 C 518.001 -2.76942 0.140884 0
M  V30 5357 H 520.952 -1.49088 0.543922 0
M  V30 5358 H 520.973 -3.63147 -1.13598 0
M  V30 5359 H 520.485 -3.82116 0.678876 0
M  V30 5360 H 518.586 -3.29947 -1.73107 0
M  V30 5361 H 518.699 -4.76035 -0.541053 0
M  V30 5362 H 517.063 -2.51795 -0.383572 0
M  V30 5363 H 517.846 -3.24461 1.12162 0
M  V30 5364 N 520.291 -0.0518155 -1.57515 0
M  V30 5365 C 521.239 0.940195 -2.12751 0
M  V30 5366 C 522.233 1.3218 -1.05948 0
M  V30 5367 O 523.439 1.30138 -1.24355 0
M  V30 5368 H 519.814 0.321066 -0.680015 0
M  V30 5369 H 521.785 0.449217 -2.94999 0
M  V30 5370 C 520.534 2.2055 -2.68799 0
M  V30 5371 H 519.857 1.92066 -3.50643 0
M  V30 5372 H 521.297 2.88119 -3.11068 0
M  V30 5373 C 519.756 2.95061 -1.62605 0
M  V30 5374 O 520.286 3.88025 -1.03921 0
M  V30 5375 N 518.492 2.57804 -1.34111 0
M  V30 5376 H 518.039 1.82281 -1.8202 0
M  V30 5377 H 517.997 3.07964 -0.632872 0
M  V30 5378 N 521.769 1.56035 0.221574 0
M  V30 5379 C 522.679 1.95581 1.29558 0
M  V30 5380 C 523.695 0.859639 1.51282 0
M  V30 5381 O 524.871 1.16321 1.64413 0
M  V30 5382 C 521.936 2.26447 2.62531 0
M  V30 5383 C 520.997 3.49632 2.4911 0
M  V30 5384 C 520.23 3.79017 3.75742 0
M  V30 5385 O 520.453 3.10077 4.78757 0
M  V30 5386 O 519.387 4.72507 3.72855 0
M  V30 5387 H 523.213 2.8711 0.990035 0
M  V30 5388 H 520.798 1.43244 0.424434 0
M  V30 5389 H 522.68 2.47494 3.41064 0
M  V30 5390 H 521.355 1.38092 2.92766 0
M  V30 5391 H 520.262 3.33864 1.68777 0
M  V30 5392 H 521.595 4.3837 2.23814 0
M  V30 5393 N 523.247 -0.488276 1.49845 0
M  V30 5394 C 524.477 -1.26344 1.63465 0
M  V30 5395 C 524.885 -1.86637 0.310379 0
M  V30 5396 O 524.228 -1.69184 -0.715712 0
M  V30 5397 C 524.29 -2.42407 2.65479 0
M  V30 5398 C 523.954 -2.02886 4.09495 0
M  V30 5399 C 524.951 -1.56124 4.95904 0
M  V30 5400 C 522.636 -2.12131 4.55308 0
M  V30 5401 C 524.63 -1.19129 6.26169 0
M  V30 5402 C 522.317 -1.74747 5.85582 0
M  V30 5403 C 523.315 -1.28322 6.70837 0
M  V30 5404 O 523.003 -0.914491 7.98682 0
M  V30 5405 H 522.735 -0.388921 0.552916 0
M  V30 5406 H 525.289 -0.591288 1.96705 0
M  V30 5407 H 523.519 -3.12739 2.27445 0
M  V30 5408 H 525.208 -3.04409 2.68495 0
M  V30 5409 H 525.974 -1.48417 4.61733 0
M  V30 5410 H 521.853 -2.47217 3.89107 0
M  V30 5411 H 525.397 -0.828211 6.92666 0
M  V30 5412 H 521.294 -1.82109 6.19279 0
M  V30 5413 H 522.062 -1.04485 8.11804 0
M  V30 5414 N 524.725 -1.39134 -0.740242 0
M  V30 5415 C 525.971 -1.36273 -1.50192 0
M  V30 5416 C 526.304 0.0430136 -1.94152 0
M  V30 5417 O 525.579 1.00691 -1.66408 0
M  V30 5418 C 525.862 -2.33041 -2.74525 0
M  V30 5419 C 525.715 -3.82535 -2.36617 0
M  V30 5420 C 527.034 -2.27723 -3.76604 0
M  V30 5421 H 524.153 -0.496323 -0.544823 0
M  V30 5422 H 526.795 -1.70085 -0.846815 0
M  V30 5423 H 524.945 -2.04337 -3.30422 0
M  V30 5424 H 526.617 -4.21967 -1.86391 0
M  V30 5425 H 524.86 -3.99565 -1.68909 0
M  V30 5426 H 525.531 -4.45723 -3.2563 0
M  V30 5427 H 528.007 -2.53091 -3.30279 0
M  V30 5428 H 526.883 -2.97519 -4.61274 0
M  V30 5429 H 527.144 -1.28049 -4.2315 0
M  V30 5430 N 526.204 0.969867 -1.24223 0
M  V30 5431 C 527.45 1.7151 -1.08223 0
M  V30 5432 C 527.783 1.90478 0.37838 0
M  V30 5433 O 527.058 1.4647 1.27971 0
M  V30 5434 C 527.341 3.10714 -1.82013 0
M  V30 5435 C 527.194 2.9925 -3.35811 0
M  V30 5436 C 528.513 4.10332 -1.59108 0
M  V30 5437 H 525.632 0.622499 -0.394543 0
M  V30 5438 H 528.274 1.1284 -1.52863 0
M  V30 5439 H 526.424 3.608 -1.44068 0
M  V30 5440 H 528.096 2.56608 -3.83341 0
M  V30 5441 H 526.339 2.35512 -3.64303 0
M  V30 5442 H 527.01 3.97857 -3.82641 0
M  V30 5443 H 529.486 3.69097 -1.92111 0
M  V30 5444 H 528.362 5.05804 -2.13198 0
M  V30 5445 H 528.623 4.38926 -0.528832 0
M  V30 5446 N 527.682 1.05563 1.17022 0
M  V30 5447 C 528.93 0.76642 1.87004 0
M  V30 5448 C 529.251 -0.708854 1.8166 0
M  V30 5449 O 528.521 -1.51242 1.2451 0
M  V30 5450 H 527.101 0.280516 0.692329 0
M  V30 5451 H 529.763 1.33557 1.41945 0
M  V30 5452 H 528.859 1.08472 2.92644 0
M  V30 5453 N 529.16 -1.33526 0.837174 0
M  V30 5454 C 530.406 -1.98541 0.44193 0
M  V30 5455 C 530.761 -1.65124 -0.987517 0
M  V30 5456 O 530.054 -0.919948 -1.6807 0
M  V30 5457 C 530.248 -3.52367 0.597675 0
M  V30 5458 C 530.077 -4.00731 2.04071 0
M  V30 5459 C 528.847 -4.28649 2.67559 0
M  V30 5460 C 531.045 -4.17073 3.00923 0
M  V30 5461 N 529.027 -4.63142 4.02955 0
M  V30 5462 C 530.398 -4.54905 4.21261 0
M  V30 5463 C 532.453 -3.99358 2.97351 0
M  V30 5464 C 531.156 -4.76874 5.38501 0
M  V30 5465 C 533.182 -4.22501 4.1382 0
M  V30 5466 C 532.544 -4.60634 5.32912 0
M  V30 5467 H 528.643 -0.753246 0.210105 0
M  V30 5468 H 531.227 -1.61674 1.08488 0
M  V30 5469 H 529.398 -3.88397 -0.0154658 0
M  V30 5470 H 531.13 -4.04326 0.17404 0
M  V30 5471 H 527.885 -4.20077 2.18706 0
M  V30 5472 H 528.309 -4.84601 4.72748 0
M  V30 5473 H 532.951 -3.68993 2.06408 0
M  V30 5474 H 530.669 -5.06101 6.2999 0
M  V30 5475 H 534.255 -4.10316 4.12471 0
M  V30 5476 H 533.135 -4.78187 6.21536 0
M  V30 5477 N 530.638 -0.59345 -1.46 0
M  V30 5478 C 531.887 -0.0808084 -2.01538 0
M  V30 5479 C 532.2 1.29112 -1.46934 0
M  V30 5480 O 533.406 1.8957 -1.94359 0
M  V30 5481 C 531.862 -0.0938311 -3.59778 0
M  V30 5482 C 531.47 -1.46474 -4.23379 0
M  V30 5483 C 533.214 0.364306 -4.22934 0
M  V30 5484 C 531.121 -1.4349 -5.73729 0
M  V30 5485 H 530.051 -0.0264407 -0.753536 0
M  V30 5486 H 532.702 -0.746689 -1.67621 0
M  V30 5487 H 531.084 0.638427 -3.9082 0
M  V30 5488 H 532.258 -2.21758 -4.03931 0
M  V30 5489 H 530.573 -1.86379 -3.7236 0
M  V30 5490 H 533.17 0.405584 -5.3316 0
M  V30 5491 H 533.513 1.38409 -3.92618 0
M  V30 5492 H 534.046 -0.31423 -3.96557 0
M  V30 5493 H 530.785 -2.43184 -6.08722 0
M  V30 5494 H 530.305 -0.724431 -5.95409 0
M  V30 5495 H 531.984 -1.15243 -6.36654 0
M  V30 5496 N 532.116 1.54067 -0.331816 0
M  V30 5497 C 533.063 2.24623 0.530372 0
M  V30 5498 C 534.033 1.24009 1.10503 0
M  V30 5499 O 535.218 1.52712 1.14384 0
M  V30 5500 C 532.358 3.01374 1.68129 0
M  V30 5501 C 531.471 4.16821 1.13507 0
M  V30 5502 C 530.606 4.81085 2.25234 0
M  V30 5503 C 529.645 5.88621 1.67903 0
M  V30 5504 N 528.782 6.46713 2.73326 0
M  V30 5505 H 533.622 2.97898 -0.0778607 0
M  V30 5506 H 531.159 1.47014 -0.0501965 0
M  V30 5507 H 533.117 3.44125 2.35868 0
M  V30 5508 H 531.747 2.30419 2.26069 0
M  V30 5509 H 530.799 3.78796 0.348979 0
M  V30 5510 H 532.111 4.94203 0.675633 0
M  V30 5511 H 531.265 5.26846 3.00862 0
M  V30 5512 H 530.004 4.03102 2.74518 0
M  V30 5513 H 529.009 5.42254 0.907773 0
M  V30 5514 H 530.234 6.68506 1.19487 0
M  V30 5515 H 528.18 5.71599 3.21886 0
M  V30 5516 H 528.097 7.19532 2.3197 0
M  V30 5517 H 529.365 6.97129 3.48758 0
M  V30 5518 N 533.594 0.0601682 1.57485 0
M  V30 5519 C 535.01 -0.296422 1.56823 0
M  V30 5520 C 535.21 -1.70831 1.0686 0
M  V30 5521 O 534.266 -2.4174 0.729245 0
M  V30 5522 C 535.579 -0.116681 3.00474 0
M  V30 5523 C 537.127 -0.187103 3.1244 0
M  V30 5524 C 537.602 -0.035783 4.57986 0
M  V30 5525 N 539.093 -0.0917676 4.63109 0
M  V30 5526 C 539.828 0.00107251 5.734 0
M  V30 5527 N 539.324 0.146773 6.92645 0
M  V30 5528 N 541.117 -0.0551577 5.62073 0
M  V30 5529 H 533.268 0.983055 1.88281 0
M  V30 5530 H 535.531 0.382386 0.867459 0
M  V30 5531 H 535.237 0.85712 3.41096 0
M  V30 5532 H 535.111 -0.873929 3.66936 0
M  V30 5533 H 537.498 -1.15138 2.71712 0
M  V30 5534 H 537.579 0.601052 2.48638 0
M  V30 5535 H 537.223 0.925212 4.99402 0
M  V30 5536 H 537.153 -0.843196 5.19806 0
M  V30 5537 H 539.644 -0.203261 3.77353 0
M  V30 5538 H 539.957 0.210076 7.72514 0
M  V30 5539 H 538.302 0.181979 6.94762 0
M  V30 5540 H 541.493 -0.167605 4.678 0
M  V30 5541 H 541.666 0.020652 6.47997 0
M  V30 5542 N 535.072 -1.5615 -0.213296 0
M  V30 5543 C 536.32 -1.79191 -0.934612 0
M  V30 5544 C 536.641 -0.630112 -1.84539 0
M  V30 5545 O 535.911 0.35257 -1.92701 0
M  V30 5546 H 534.491 -0.660937 -0.348097 0
M  V30 5547 H 537.153 -1.93618 -0.22317 0
M  V30 5548 H 536.249 -2.71656 -1.53654 0
M  V30 5549 N 536.55 0.480323 -1.50102 0
M  V30 5550 C 537.961 1.06142 -1.53593 0
M  V30 5551 C 538.312 1.93335 -0.334055 0
M  V30 5552 O 537.437 2.09188 0.55403 0
M  V30 5553 C 538.032 1.9317 -2.78336 0
M  V30 5554 C 536.591 2.46405 -2.84538 0
M  V30 5555 C 535.738 1.24521 -2.4777 0
M  V30 5556 H 538.689 0.26333 -1.565 0
M  V30 5557 H 538.71 2.78123 -2.59669 0
M  V30 5558 H 538.222 1.29683 -3.65792 0
M  V30 5559 H 536.323 3.13472 -2.01411 0
M  V30 5560 H 536.436 2.82143 -3.87211 0
M  V30 5561 H 534.8 1.57706 -2.00003 0
M  V30 5562 H 535.583 0.627102 -3.37524 0
M  V30 5563 N 538.028 1.39524 0.732853 0
M  V30 5564 C 539.256 1.40143 1.52209 0
M  V30 5565 C 539.671 -0.00348836 1.888 0
M  V30 5566 O 539.028 -0.975357 1.5425 0
M  V30 5567 C 539.079 2.27632 2.8083 0
M  V30 5568 O 538.8 3.62654 2.45792 0
M  V30 5569 C 540.301 2.36658 3.74844 0
M  V30 5570 H 537.521 0.478604 0.470297 0
M  V30 5571 H 540.065 1.83366 0.905388 0
M  V30 5572 H 538.22 1.87818 3.38826 0
M  V30 5573 H 538.634 4.08941 3.28431 0
M  V30 5574 H 540.108 3.02118 4.61984 0
M  V30 5575 H 540.585 1.38638 4.16745 0
M  V30 5576 H 541.191 2.76951 3.22766 0
M  V30 5577 N 539.506 -0.963266 1.24736 0
M  V30 5578 C 540.754 -1.70343 1.08755 0
M  V30 5579 C 541.075 -1.91387 -0.373619 0
M  V30 5580 O 540.345 -1.4948 -1.2662 0
M  V30 5581 H 538.925 -0.631224 0.399456 0
M  V30 5582 H 541.587 -1.15859 1.56725 0
M  V30 5583 H 540.683 -2.68616 1.58909 0
M  V30 5584 N 540.985 -1.06182 -1.16461 0
M  V30 5585 C 542.231 -0.779015 -1.87241 0
M  V30 5586 C 542.564 0.692715 -1.81425 0
M  V30 5587 O 541.839 1.5074 -1.22913 0
M  V30 5588 C 542.122 -1.2728 -3.36856 0
M  V30 5589 C 541.975 -2.80821 -3.51368 0
M  V30 5590 C 543.294 -0.879799 -4.31216 0
M  V30 5591 H 540.413 -0.284464 -0.679889 0
M  V30 5592 H 543.055 -1.31755 -1.36896 0
M  V30 5593 H 541.205 -0.814673 -3.79862 0
M  V30 5594 H 542.877 -3.34833 -3.17308 0
M  V30 5595 H 541.12 -3.19606 -2.93316 0
M  V30 5596 H 541.791 -3.10435 -4.56436 0
M  V30 5597 H 544.267 -1.27436 -3.96105 0
M  V30 5598 H 543.143 -1.25278 -5.34412 0
M  V30 5599 H 543.404 0.215372 -4.41575 0
M  V30 5600 N 542.463 1.3308 -0.844243 0
M  V30 5601 C 543.712 1.96868 -0.438833 0
M  V30 5602 C 544.025 1.67599 1.00846 0
M  V30 5603 O 545.231 2.25043 1.51881 0
M  V30 5604 C 543.687 3.5234 -0.73377 0
M  V30 5605 C 543.295 3.90481 -2.1961 0
M  V30 5606 C 545.039 4.22653 -0.395574 0
M  V30 5607 C 542.946 5.38954 -2.43481 0
M  V30 5608 H 541.876 0.736749 -0.160364 0
M  V30 5609 H 544.527 1.51623 -1.03358 0
M  V30 5610 H 542.909 3.95941 -0.068589 0
M  V30 5611 H 544.083 3.57922 -2.90221 0
M  V30 5612 H 542.398 3.33165 -2.4978 0
M  V30 5613 H 544.995 5.31848 -0.551477 0
M  V30 5614 H 545.338 4.11004 0.661921 0
M  V30 5615 H 545.871 3.84601 -1.01621 0
M  V30 5616 H 542.61 5.55612 -3.47816 0
M  V30 5617 H 542.13 5.72954 -1.77437 0
M  V30 5618 H 543.809 6.05907 -2.26905 0
M  V30 5619 N 543.941 0.601185 1.45683 0
M  V30 5620 C 545.189 0.0936957 2.01883 0
M  V30 5621 C 545.51 -1.2779 1.47291 0
M  V30 5622 O 544.78 -1.84279 0.664691 0
M  V30 5623 H 543.36 0.0316466 0.746329 0
M  V30 5624 H 546.022 0.781137 1.78562 0
M  V30 5625 H 545.118 0.0386297 3.12076 0
M  V30 5626 N 545.419 -1.53889 0.339982 0
M  V30 5627 C 546.647 -2.05271 -0.259114 0
M  V30 5628 C 547.062 -1.21517 -1.44496 0
M  V30 5629 O 546.419 -0.24966 -1.80784 0
M  V30 5630 C 546.47 -3.55092 -0.677634 0
M  V30 5631 O 546.191 -4.35667 0.461051 0
M  V30 5632 C 547.692 -4.22631 -1.33782 0
M  V30 5633 H 544.912 -0.669085 -0.0506566 0
M  V30 5634 H 547.456 -1.9852 0.490935 0
M  V30 5635 H 545.611 -3.62077 -1.37763 0
M  V30 5636 H 546.025 -5.24343 0.128144 0
M  V30 5637 H 547.499 -5.28861 -1.58145 0
M  V30 5638 H 547.976 -3.74758 -2.29027 0
M  V30 5639 H 548.582 -4.19829 -0.679957 0
M  V30 5640 N 546.897 -0.0685191 -1.57451 0
M  V30 5641 C 547.845 0.917577 -2.13736 0
M  V30 5642 C 548.839 1.31049 -1.07344 0
M  V30 5643 O 550.045 1.28811 -1.25728 0
M  V30 5644 H 546.42 0.313835 -0.683382 0
M  V30 5645 H 548.391 0.417903 -2.95459 0
M  V30 5646 C 547.14 2.17686 -2.71123 0
M  V30 5647 H 546.463 1.88336 -3.52661 0
M  V30 5648 H 547.903 2.84803 -3.14107 0
M  V30 5649 C 546.362 2.9332 -1.65726 0
M  V30 5650 O 546.892 3.86901 -1.08031 0
M  V30 5651 N 545.098 2.56367 -1.36837 0
M  V30 5652 H 544.645 1.80341 -1.83943 0
M  V30 5653 H 544.603 3.07276 -0.665501 0
M  V30 5654 N 548.375 1.56261 0.205012 0
M  V30 5655 C 549.322 1.93754 1.25411 0
M  V30 5656 C 550.292 0.796826 1.45739 0
M  V30 5657 O 551.477 1.05414 1.59036 0
M  V30 5658 C 548.617 2.27383 2.59598 0
M  V30 5659 C 547.73 3.5447 2.46931 0
M  V30 5660 C 546.865 3.77468 3.73753 0
M  V30 5661 C 545.904 4.98014 3.55877 0
M  V30 5662 N 545.041 5.17316 4.74688 0
M  V30 5663 H 549.881 2.83203 0.92737 0
M  V30 5664 H 547.418 1.40158 0.446574 0
M  V30 5665 H 549.376 2.44895 3.37761 0
M  V30 5666 H 548.006 1.41088 2.90335 0
M  V30 5667 H 547.058 3.45061 1.60116 0
M  V30 5668 H 548.37 4.42789 2.29651 0
M  V30 5669 H 547.524 3.95165 4.60358 0
M  V30 5670 H 546.263 2.87461 3.93976 0
M  V30 5671 H 545.268 4.80249 2.67657 0
M  V30 5672 H 546.493 5.8952 3.37109 0
M  V30 5673 H 544.439 4.30255 4.95194 0
M  V30 5674 H 544.356 5.99796 4.60197 0
M  V30 5675 H 545.624 5.39463 5.62672 0
M  V30 5676 N 549.853 -0.472356 1.50355 0
M  V30 5677 C 550.8 -1.57051 1.69126 0
M  V30 5678 C 551.77 -1.5733 0.532574 0
M  V30 5679 O 552.955 -1.7488 0.762994 0
M  V30 5680 C 550.095 -2.95033 1.79024 0
M  V30 5681 C 549.208 -3.04552 3.06386 0
M  V30 5682 C 548.343 -4.33441 3.07087 0
M  V30 5683 C 547.382 -4.36697 4.28908 0
M  V30 5684 N 546.519 -5.57056 4.27356 0
M  V30 5685 H 551.359 -1.40351 2.62879 0
M  V30 5686 H 548.896 -0.682403 1.30314 0
M  V30 5687 H 550.854 -3.75048 1.82744 0
M  V30 5688 H 549.484 -3.10371 0.887109 0
M  V30 5689 H 548.536 -2.17419 3.12143 0
M  V30 5690 H 549.848 -3.02818 3.96362 0
M  V30 5691 H 549.002 -5.21801 3.09529 0
M  V30 5692 H 547.741 -4.37782 2.14939 0
M  V30 5693 H 546.746 -3.46734 4.2668 0
M  V30 5694 H 547.971 -4.34049 5.22282 0
M  V30 5695 H 545.917 -5.62184 3.3806 0
M  V30 5696 H 545.834 -5.57058 5.111 0
M  V30 5697 H 547.102 -6.47545 4.33942 0
M  V30 5698 N 551.331 -1.39911 -0.725443 0
M  V30 5699 C 552.608 -1.28158 -1.47766 0
M  V30 5700 C 552.988 0.104545 -2.10841 0
M  V30 5701 O 552.336 1.11657 -1.99361 0
M  V30 5702 C 552.546 -2.41306 -2.52135 0
M  V30 5703 C 553.894 -2.81076 -3.18247 0
M  V30 5704 O 554.918 -2.40827 -2.62452 0
M  V30 5705 O 553.777 -3.50581 -4.19231 0
M  V30 5706 H 550.871 -0.502761 -0.656628 0
M  V30 5707 H 553.417 -1.51808 -0.758456 0
M  V30 5708 H 552.189 -3.33932 -2.03974 0
M  V30 5709 H 551.812 -2.19374 -3.31603 0
M  V30 5710 N 552.809 0.956637 -1.25245 0
M  V30 5711 C 553.772 2.03457 -1.05537 0
M  V30 5712 C 554.772 1.60798 -0.00886317 0
M  V30 5713 O 555.962 1.72384 -0.250865 0
M  V30 5714 C 553.094 3.35543 -0.601965 0
M  V30 5715 H 554.287 2.22372 -2.01223 0
M  V30 5716 H 551.84 1.13344 -1.07623 0
M  V30 5717 H 552.575 3.22323 0.357584 0
M  V30 5718 H 552.36 3.67854 -1.35743 0
M  V30 5719 H 553.85 4.14769 -0.485454 0
M  V30 5720 N 554.287 1.06798 1.15896 0
M  V30 5721 C 555.219 0.641263 2.20046 0
M  V30 5722 C 556.232 -0.303355 1.59949 0
M  V30 5723 O 557.421 -0.0935478 1.78255 0
M  V30 5724 C 554.521 -0.0794029 3.38807 0
M  V30 5725 C 553.694 0.879986 4.28457 0
M  V30 5726 C 552.753 0.197638 5.25829 0
M  V30 5727 O 551.779 0.836913 5.63014 0
M  V30 5728 N 552.981 -1.05886 5.70761 0
M  V30 5729 H 555.746 1.53718 2.57276 0
M  V30 5730 H 553.307 0.951951 1.30956 0
M  V30 5731 H 555.299 -0.546418 4.00994 0
M  V30 5732 H 553.869 -0.877193 3.0004 0
M  V30 5733 H 553.089 1.52625 3.63454 0
M  V30 5734 H 554.377 1.53065 4.8523 0
M  V30 5735 H 553.775 -1.59828 5.42652 0
M  V30 5736 H 552.332 -1.46965 6.35015 0
M  V30 5737 N 555.766 -1.3263 0.851289 0
M  V30 5738 C 557.043 -1.91982 0.374448 0
M  V30 5739 C 557.423 -1.77568 -1.14161 0
M  V30 5740 O 556.771 -1.1717 -1.96172 0
M  V30 5741 C 556.981 -3.38862 0.835088 0
M  V30 5742 C 558.329 -4.15999 0.850309 0
M  V30 5743 O 559.353 -3.47566 0.779505 0
M  V30 5744 O 558.212 -5.38189 0.949481 0
M  V30 5745 H 555.306 -0.819846 0.10854 0
M  V30 5746 H 557.852 -1.41422 0.937966 0
M  V30 5747 H 556.624 -3.43281 1.87814 0
M  V30 5748 H 556.247 -3.96821 0.248833 0
M  V30 5749 N 557.244 -0.608902 -1.45362 0
M  V30 5750 C 558.472 -0.111013 -2.06602 0
M  V30 5751 C 558.887 1.20516 -1.45332 0
M  V30 5752 O 558.244 1.73437 -0.567978 0
M  V30 5753 C 558.295 0.033688 -3.61484 0
M  V30 5754 O 558.016 -1.23041 -4.20467 0
M  V30 5755 C 559.517 0.562882 -4.39712 0
M  V30 5756 H 556.737 -0.0694453 -0.667397 0
M  V30 5757 H 559.281 -0.837008 -1.86586 0
M  V30 5758 H 557.436 0.710016 -3.80838 0
M  V30 5759 H 557.85 -1.06094 -5.13658 0
M  V30 5760 H 559.324 0.613213 -5.48583 0
M  V30 5761 H 559.801 1.58543 -4.09586 0
M  V30 5762 H 560.407 -0.0794454 -4.25226 0
M  V30 5763 N 558.722 1.53707 -0.348139 0
M  V30 5764 C 559.968 2.01286 0.247332 0
M  V30 5765 C 560.301 1.23546 1.49834 0
M  V30 5766 O 559.576 0.324331 1.91777 0
M  V30 5767 C 559.859 3.55768 0.556858 0
M  V30 5768 C 559.712 4.44216 -0.706564 0
M  V30 5769 C 561.031 4.1841 1.3646 0
M  V30 5770 H 558.15 0.731677 0.0884201 0
M  V30 5771 H 560.792 1.84106 -0.469584 0
M  V30 5772 H 558.942 3.70539 1.16761 0
M  V30 5773 H 560.614 4.41274 -1.34444 0
M  V30 5774 H 558.857 4.12892 -1.33052 0
M  V30 5775 H 559.528 5.50202 -0.445186 0
M  V30 5776 H 562.004 4.07365 0.848113 0
M  V30 5777 H 560.88 5.26563 1.54992 0
M  V30 5778 H 561.141 3.7333 2.36805 0
M  V30 5779 N 560.2 0.0768682 1.57412 0
M  V30 5780 C 561.477 -0.632359 1.85096 0
M  V30 5781 C 561.857 -1.87479 0.9703 0
M  V30 5782 O 561.205 -2.28469 0.0379062 0
M  V30 5783 C 561.415 -0.965174 3.35388 0
M  V30 5784 C 562.763 -1.33648 4.03018 0
M  V30 5785 O 563.787 -1.05675 3.40164 0
M  V30 5786 O 562.646 -1.85959 5.13889 0
M  V30 5787 H 559.74 -0.314574 0.764835 0
M  V30 5788 H 562.286 0.108184 1.69355 0
M  V30 5789 H 561.058 -0.0829745 3.91212 0
M  V30 5790 H 560.681 -1.76231 3.5641 0
M  V30 5791 N 561.678 -1.56367 -0.196722 0
M  V30 5792 C 562.906 -1.84639 -0.933608 0
M  V30 5793 C 563.321 -0.659164 -1.76919 0
M  V30 5794 O 562.678 0.372142 -1.78665 0
M  V30 5795 C 562.729 -3.11694 -1.83109 0
M  V30 5796 O 562.45 -4.25838 -1.02924 0
M  V30 5797 C 563.951 -3.53132 -2.67979 0
M  V30 5798 H 561.171 -0.613188 -0.272473 0
M  V30 5799 H 563.715 -2.03475 -0.204465 0
M  V30 5800 H 561.87 -2.94759 -2.51387 0
M  V30 5801 H 562.284 -4.98178 -1.64069 0
M  V30 5802 H 563.758 -4.45005 -3.26611 0
M  V30 5803 H 564.235 -2.76045 -3.41608 0
M  V30 5804 H 564.841 -3.72592 -2.05074 0
M  V30 5805 N 563.156 0.464375 -1.50603 0
M  V30 5806 C 564.086 1.56944 -1.72889 0
M  V30 5807 C 565.067 1.59979 -0.577997 0
M  V30 5808 O 566.252 1.76138 -0.817855 0
M  V30 5809 C 563.382 2.95225 -1.8292 0
M  V30 5810 C 562.336 3.07056 -2.98162 0
M  V30 5811 C 561.662 4.47051 -2.93343 0
M  V30 5812 C 562.962 2.83648 -4.38567 0
M  V30 5813 H 564.656 1.38547 -2.65415 0
M  V30 5814 H 562.202 0.665082 -1.27721 0
M  V30 5815 H 564.155 3.72467 -1.97095 0
M  V30 5816 H 562.879 3.14793 -0.870209 0
M  V30 5817 H 561.538 2.32248 -2.83648 0
M  V30 5818 H 561.186 4.63547 -1.95276 0
M  V30 5819 H 560.886 4.55902 -3.70712 0
M  V30 5820 H 562.41 5.26304 -3.09575 0
M  V30 5821 H 563.824 3.50636 -4.53572 0
M  V30 5822 H 562.221 3.03937 -5.17438 0
M  V30 5823 H 563.291 1.79451 -4.50472 0
M  V30 5824 N 564.634 1.40294 0.718013 0
M  V30 5825 C 565.883 1.37746 1.4734 0
M  V30 5826 C 566.196 -0.0180754 1.95592 0
M  V30 5827 O 567.402 -0.166166 2.70991 0
M  V30 5828 C 565.858 2.4208 2.66318 0
M  V30 5829 C 565.466 3.87432 2.24945 0
M  V30 5830 C 567.21 2.48635 3.44065 0
M  V30 5831 C 565.117 4.83368 3.40748 0
M  V30 5832 H 564.047 0.512165 0.553356 0
M  V30 5833 H 566.698 1.66019 0.781661 0
M  V30 5834 H 565.08 2.06903 3.3765 0
M  V30 5835 H 566.254 4.3174 1.6105 0
M  V30 5836 H 564.569 3.8433 1.60249 0
M  V30 5837 H 567.166 3.17499 4.30231 0
M  V30 5838 H 567.509 1.51611 3.87711 0
M  V30 5839 H 568.042 2.82791 2.79775 0
M  V30 5840 H 564.781 5.81716 3.02136 0
M  V30 5841 H 564.301 4.43726 4.03568 0
M  V30 5842 H 565.98 5.03074 4.06848 0
M  V30 5843 N 566.112 -0.949982 1.2575 0
M  V30 5844 C 567.059 -2.04738 1.06541 0
M  V30 5845 C 568.029 -1.66078 -0.0268818 0
M  V30 5846 O 569.214 -1.90348 0.131196 0
M  V30 5847 C 566.354 -3.38027 0.695127 0
M  V30 5848 C 565.467 -3.89776 1.86276 0
M  V30 5849 C 564.602 -5.11411 1.4364 0
M  V30 5850 C 563.641 -5.554 2.57287 0
M  V30 5851 N 562.778 -6.68244 2.15395 0
M  V30 5852 H 567.618 -2.20502 2.00457 0
M  V30 5853 H 565.155 -1.0805 0.998178 0
M  V30 5854 H 567.113 -4.14641 0.461375 0
M  V30 5855 H 565.743 -3.22135 -0.207046 0
M  V30 5856 H 564.795 -3.0964 2.20969 0
M  V30 5857 H 566.107 -4.18368 2.71606 0
M  V30 5858 H 565.261 -5.95457 1.16257 0
M  V30 5859 H 564 -4.84545 0.553879 0
M  V30 5860 H 563.005 -4.69916 2.85409 0
M  V30 5861 H 564.23 -5.84272 3.46125 0
M  V30 5862 H 562.176 -6.43078 1.29565 0
M  V30 5863 H 562.093 -6.96377 2.94272 0
M  V30 5864 H 563.361 -7.55687 1.91201 0
M  V30 5865 N 567.59 -1.07411 -1.15328 0
M  V30 5866 C 568.538 -0.689316 -2.22151 0
M  V30 5867 C 569.532 0.300156 -1.6672 0
M  V30 5868 O 570.738 0.163804 -1.79253 0
M  V30 5869 H 567.113 -0.204834 -0.723566 0
M  V30 5870 H 569.084 -1.59988 -2.51886 0
M  V30 5871 C 567.833 -0.103848 -3.47545 0
M  V30 5872 H 567.156 -0.856367 -3.90521 0
M  V30 5873 H 568.596 0.127725 -4.23808 0
M  V30 5874 C 567.055 1.15563 -3.1646 0
M  V30 5875 O 567.585 2.242 -3.33312 0
M  V30 5876 N 565.791 1.06203 -2.70498 0
M  V30 5877 H 565.338 0.177933 -2.56985 0
M  V30 5878 H 565.296 1.90553 -2.50074 0
M  V30 5879 N 569.068 1.32177 -0.85831 0
M  V30 5880 C 569.998 2.31282 -0.321041 0
M  V30 5881 C 570.979 1.59841 0.581786 0
M  V30 5882 O 572.164 1.87619 0.501262 0
M  V30 5883 C 569.294 3.4385 0.48832 0
M  V30 5884 C 568.248 4.26799 -0.320391 0
M  V30 5885 C 567.574 5.31164 0.613934 0
M  V30 5886 C 568.874 4.98829 -1.54813 0
M  V30 5887 H 570.568 2.76469 -1.14915 0
M  V30 5888 H 568.114 1.32916 -0.554028 0
M  V30 5889 H 570.067 4.12224 0.874626 0
M  V30 5890 H 568.791 2.97401 1.34983 0
M  V30 5891 H 567.45 3.60077 -0.688497 0
M  V30 5892 H 567.098 4.80967 1.47239 0
M  V30 5893 H 566.798 5.8755 0.0768097 0
M  V30 5894 H 568.322 6.024 0.997336 0
M  V30 5895 H 569.736 5.59864 -1.23392 0
M  V30 5896 H 568.133 5.64957 -2.02346 0
M  V30 5897 H 569.203 4.26483 -2.30739 0
M  V30 5898 N 570.547 0.616602 1.45037 0
M  V30 5899 C 571.795 0.115103 2.01772 0
M  V30 5900 C 572.116 -1.2622 1.48639 0
M  V30 5901 O 571.386 -1.83563 0.684199 0
M  V30 5902 H 569.966 0.0395607 0.745952 0
M  V30 5903 H 572.628 0.800032 1.77723 0
M  V30 5904 H 571.724 0.0717274 3.12018 0
M  V30 5905 N 572.025 -1.5352 0.356285 0
M  V30 5906 C 572.973 -2.26945 -0.50978 0
M  V30 5907 C 573.967 -1.29569 -1.09125 0
M  V30 5908 O 575.173 -1.47231 -1.03552 0
M  V30 5909 H 571.548 -0.729368 -0.183102 0
M  V30 5910 H 573.519 -2.98111 0.131374 0
M  V30 5911 C 572.268 -3.06466 -1.64237 0
M  V30 5912 H 571.591 -3.81233 -1.20423 0
M  V30 5913 H 573.031 -3.61035 -2.22327 0
M  V30 5914 C 571.49 -2.16737 -2.57928 0
M  V30 5915 O 572.02 -1.77195 -3.60507 0
M  V30 5916 N 570.226 -1.81558 -2.26903 0
M  V30 5917 H 569.773 -2.13913 -1.43524 0
M  V30 5918 H 569.731 -1.21806 -2.89846 0
M  V30 5919 N 573.503 -0.0852151 -1.57369 0
M  V30 5920 C 574.466 0.8627 -2.12344 0
M  V30 5921 C 575.466 1.21746 -1.05046 0
M  V30 5922 O 576.656 1.14852 -1.30976 0
M  V30 5923 C 573.788 2.1618 -2.63589 0
M  V30 5924 H 574.981 0.385511 -2.97412 0
M  V30 5925 H 572.534 0.163663 -1.55441 0
M  V30 5926 H 573.269 2.68406 -1.82013 0
M  V30 5927 H 573.054 1.91723 -3.4203 0
M  V30 5928 H 574.544 2.84011 -3.06149 0
M  V30 5929 N 574.981 1.5647 0.188427 0
M  V30 5930 C 575.928 1.95073 1.23349 0
M  V30 5931 C 576.898 0.812238 1.44886 0
M  V30 5932 O 578.083 1.07095 1.57909 0
M  V30 5933 C 575.223 2.30124 2.57171 0
M  V30 5934 C 574.336 3.57069 2.43157 0
M  V30 5935 C 573.471 3.81411 3.69729 0
M  V30 5936 C 572.51 5.0176 3.50575 0
M  V30 5937 N 571.647 5.22321 4.69175 0
M  V30 5938 H 576.487 2.84171 0.89728 0
M  V30 5939 H 574.024 1.40623 0.431683 0
M  V30 5940 H 575.982 2.48463 3.35145 0
M  V30 5941 H 574.612 1.44159 2.88822 0
M  V30 5942 H 573.664 3.4674 1.56447 0
M  V30 5943 H 574.976 4.452 2.24942 0
M  V30 5944 H 574.13 4.00026 4.56141 0
M  V30 5945 H 572.869 2.91624 3.90905 0
M  V30 5946 H 571.874 4.83061 2.62549 0
M  V30 5947 H 573.099 5.93063 3.30837 0
M  V30 5948 H 571.045 4.35483 4.90602 0
M  V30 5949 H 570.962 6.04643 4.53809 0
M  V30 5950 H 572.23 5.45401 5.56919 0
M  V30 5951 N 576.459 -0.456382 1.50847 0
M  V30 5952 C 577.369 -1.57805 1.73594 0
M  V30 5953 C 578.385 -1.62599 0.619476 0
M  V30 5954 O 579.561 -1.80195 0.899532 0
M  V30 5955 C 576.626 -2.93926 1.8387 0
M  V30 5956 C 575.687 -2.99402 3.07663 0
M  V30 5957 C 574.92 -4.29031 3.1744 0
M  V30 5958 O 575.143 -5.20358 2.33631 0
M  V30 5959 O 574.077 -4.40401 4.10281 0
M  V30 5960 H 577.903 -1.41531 2.68705 0
M  V30 5961 H 575.488 -0.637422 1.3512 0
M  V30 5962 H 577.37 -3.74747 1.92725 0
M  V30 5963 H 576.045 -3.10368 0.91944 0
M  V30 5964 H 574.952 -2.17606 3.043 0
M  V30 5965 H 576.285 -2.87901 3.99216 0
M  V30 5966 N 577.937 -1.40673 -0.710563 0
M  V30 5967 C 579.185 -1.38947 -1.46759 0
M  V30 5968 C 579.506 0.00572879 -1.94999 0
M  V30 5969 O 578.776 0.961358 -1.70689 0
M  V30 5970 H 577.356 -0.5114 -0.544499 0
M  V30 5971 H 580.018 -1.75773 -0.842012 0
M  V30 5972 H 579.114 -2.06745 -2.33801 0
M  V30 5973 N 579.415 0.9433 -1.26252 0
M  V30 5974 C 580.378 2.02326 -1.07689 0
M  V30 5975 C 581.378 1.60779 -0.0259174 0
M  V30 5976 O 582.568 1.72108 -0.269134 0
M  V30 5977 C 579.7 3.34886 -0.63752 0
M  V30 5978 H 580.893 2.20225 -2.0357 0
M  V30 5979 H 578.446 1.12197 -1.08819 0
M  V30 5980 H 579.181 3.22684 0.323377 0
M  V30 5981 H 578.966 3.66393 -1.39637 0
M  V30 5982 H 580.456 4.14231 -0.529418 0
M  V30 5983 N 580.893 1.08022 1.14757 0
M  V30 5984 C 581.803 0.718292 2.23333 0
M  V30 5985 C 582.819 -0.273477 1.71837 0
M  V30 5986 O 583.995 -0.118406 2.01052 0
M  V30 5987 C 581.06 0.128855 3.4646 0
M  V30 5988 C 580.121 1.17473 4.12915 0
M  V30 5989 C 579.354 0.61333 5.30164 0
M  V30 5990 O 579.577 -0.568458 5.6756 0
M  V30 5991 O 578.511 1.3615 5.86299 0
M  V30 5992 H 582.337 1.62394 2.56636 0
M  V30 5993 H 579.922 0.853628 1.22611 0
M  V30 5994 H 581.804 -0.197249 4.20938 0
M  V30 5995 H 580.479 -0.750014 3.14891 0
M  V30 5996 H 579.386 1.5533 3.40328 0
M  V30 5997 H 580.719 2.02574 4.48581 0
M  V30 5998 N 582.371 -1.3172 0.865308 0
M  V30 5999 C 583.611 -1.98675 0.480365 0
M  V30 6000 C 583.975 -1.66929 -0.948621 0
M  V30 6001 O 585.176 -2.27059 -1.43867 0
M  V30 6002 C 583.447 -3.49972 0.724858 0
M  V30 6003 S 585.006 -4.36598 0.439078 0
M  V30 6004 H 581.824 -0.687967 0.179506 0
M  V30 6005 H 584.426 -1.60215 1.12033 0
M  V30 6006 H 583.13 -3.70567 1.76375 0
M  V30 6007 H 582.661 -3.93335 0.0717173 0
M  V30 6008 H 584.676 -4.90792 -0.730564 0
M  V30 6009 N 583.85 -0.624285 -1.44708 0
M  V30 6010 C 584.797 0.0847135 -2.30644 0
M  V30 6011 C 585.767 0.843575 -1.43084 0
M  V30 6012 O 586.952 0.825982 -1.71995 0
M  V30 6013 C 584.091 1.06495 -3.28257 0
M  V30 6014 C 583.205 0.305224 -4.3092 0
M  V30 6015 C 582.34 1.27667 -5.1563 0
M  V30 6016 C 581.379 0.505706 -6.10007 0
M  V30 6017 N 580.516 1.42727 -6.8744 0
M  V30 6018 H 585.356 -0.654068 -2.90733 0
M  V30 6019 H 582.893 -0.334334 -1.4325 0
M  V30 6020 H 584.851 1.64658 -3.83332 0
M  V30 6021 H 583.481 1.77094 -2.69884 0
M  V30 6022 H 582.533 -0.392207 -3.78373 0
M  V30 6023 H 583.845 -0.295553 -4.97924 0
M  V30 6024 H 582.999 1.92984 -5.75189 0
M  V30 6025 H 581.738 1.91137 -4.48685 0
M  V30 6026 H 580.743 -0.160999 -5.49564 0
M  V30 6027 H 581.968 -0.124183 -6.78986 0
M  V30 6028 H 579.913 2.04931 -6.23169 0
M  V30 6029 H 579.831 0.880345 -7.50857 0
M  V30 6030 H 581.099 2.0695 -7.51526 0
M  V30 6031 N 585.328 1.53329 -0.364422 0
M  V30 6032 C 586.553 2.06132 0.229033 0
M  V30 6033 C 586.978 1.23625 1.41769 0
M  V30 6034 O 586.336 0.255038 1.79497 0
M  V30 6035 C 586.384 3.55544 0.60174 0
M  V30 6036 O 585.488 3.75771 1.69912 0
M  V30 6037 H 584.829 0.663148 0.0336213 0
M  V30 6038 H 587.359 1.97758 -0.524689 0
M  V30 6039 H 587.369 3.98549 0.873073 0
M  V30 6040 H 586.044 4.15039 -0.267421 0
M  V30 6041 H 584.621 3.44663 1.42343 0
M  V30 6042 N 586.806 0.0935595 1.57322 0
M  V30 6043 C 588.053 -0.570509 1.94297 0
M  V30 6044 C 588.381 -1.68286 0.97519 0
M  V30 6045 O 587.636 -1.95699 -0.00548655 0
M  V30 6046 C 587.935 -1.16692 3.37813 0
M  V30 6047 C 587.601 -0.178509 4.50547 0
M  V30 6048 C 586.263 0.0933475 4.81109 0
M  V30 6049 C 588.615 0.496472 5.1883 0
M  V30 6050 C 585.943 1.0469 5.77284 0
M  V30 6051 C 588.295 1.43849 6.16028 0
M  V30 6052 C 586.959 1.71859 6.44997 0
M  V30 6053 H 586.229 -0.208764 0.710984 0
M  V30 6054 H 588.876 0.169066 1.90752 0
M  V30 6055 H 587.181 -1.98271 3.37929 0
M  V30 6056 H 588.878 -1.6884 3.63722 0
M  V30 6057 H 585.468 -0.400584 4.26724 0
M  V30 6058 H 589.652 0.299584 4.95395 0
M  V30 6059 H 584.908 1.27094 5.98044 0
M  V30 6060 H 589.082 1.96734 6.68034 0
M  V30 6061 H 586.709 2.45906 7.19329 0
M  V30 6062 N 588.284 -1.56567 -0.180126 0
M  V30 6063 C 589.695 -1.7126 -0.743422 0
M  V30 6064 C 590.046 -0.70263 -1.83187 0
M  V30 6065 O 589.171 0.137856 -2.1596 0
M  V30 6066 C 589.766 -3.10512 -1.35528 0
M  V30 6067 C 588.325 -3.26919 -1.8655 0
M  V30 6068 C 587.472 -2.67213 -0.741099 0
M  V30 6069 H 590.423 -1.58636 0.0451543 0
M  V30 6070 H 590.444 -3.08673 -2.22489 0
M  V30 6071 H 589.956 -3.83997 -0.562862 0
M  V30 6072 H 588.057 -2.58376 -2.68464 0
M  V30 6073 H 588.17 -4.34574 -2.01699 0
M  V30 6074 H 586.534 -2.26788 -1.15927 0
M  V30 6075 H 587.317 -3.43277 0.0393291 0
M  V30 6076 N 589.762 0.448376 -1.51087 0
M  V30 6077 C 590.672 1.56882 -1.74428 0
M  V30 6078 C 591.688 1.62268 -0.62809 0
M  V30 6079 O 592.864 1.79716 -0.909075 0
M  V30 6080 C 589.929 2.92947 -1.85426 0
M  V30 6081 C 588.99 2.97766 -3.09247 0
M  V30 6082 C 588.223 4.27341 -3.19711 0
M  V30 6083 O 588.446 5.19112 -2.36387 0
M  V30 6084 O 587.38 4.38219 -4.12611 0
M  V30 6085 H 591.206 1.40104 -2.69452 0
M  V30 6086 H 588.791 0.630247 -1.35456 0
M  V30 6087 H 590.673 3.73719 -1.94709 0
M  V30 6088 H 589.348 3.09876 -0.935887 0
M  V30 6089 H 588.255 2.15989 -3.0545 0
M  V30 6090 H 589.588 2.8578 -4.00738 0
M  V30 6091 N 591.24 1.41047 0.703093 0
M  V30 6092 C 592.517 1.30493 1.45708 0
M  V30 6093 C 592.897 -0.0709892 2.10981 0
M  V30 6094 O 592.245 -1.08471 2.01113 0
M  V30 6095 C 592.455 2.45287 2.48265 0
M  V30 6096 C 593.803 2.86104 3.13735 0
M  V30 6097 O 594.827 2.44971 2.58587 0
M  V30 6098 O 593.686 3.57206 4.13601 0
M  V30 6099 H 590.78 0.513144 0.648546 0
M  V30 6100 H 593.326 1.52995 0.734208 0
M  V30 6101 H 592.098 3.37135 1.98635 0
M  V30 6102 H 591.721 2.24622 3.28071 0
M  V30 6103 N 592.718 -0.936591 1.26751 0
M  V30 6104 C 593.668 -2.0219 1.05371 0
M  V30 6105 C 594.652 -1.60893 -0.0154112 0
M  V30 6106 O 595.844 -1.75843 0.202085 0
M  V30 6107 C 592.973 -3.36222 0.693541 0
M  V30 6108 C 592.059 -3.8399 1.80035 0
M  V30 6109 N 592.45 -4.0436 3.03852 0
M  V30 6110 C 590.748 -4.12945 1.685 0
M  V30 6111 C 591.449 -4.44 3.75818 0
M  V30 6112 N 590.425 -4.50966 3.03531 0
M  V30 6113 H 594.227 -2.15958 1.99347 0
M  V30 6114 H 591.741 -1.12277 1.17335 0
M  V30 6115 H 593.738 -4.13625 0.521513 0
M  V30 6116 H 592.398 -3.23821 -0.238693 0
M  V30 6117 H 593.409 -3.9092 3.39709 0
M  V30 6118 H 590.086 -4.09308 0.822986 0
M  V30 6119 H 591.476 -4.67914 4.82189 0
M  V30 6120 N 594.196 -1.08629 -1.14182 0
M  V30 6121 C 595.159 -0.722027 -2.1753 0
M  V30 6122 C 596.159 0.244305 -1.58933 0
M  V30 6123 O 597.349 0.0235545 -1.74184 0
M  V30 6124 C 594.481 -0.0663966 -3.40835 0
M  V30 6125 H 595.674 -1.63719 -2.51269 0
M  V30 6126 H 593.227 -0.884442 -1.28869 0
M  V30 6127 H 593.962 0.860389 -3.12678 0
M  V30 6128 H 593.747 -0.761598 -3.84632 0
M  V30 6129 H 595.237 0.173346 -4.1724 0
M  V30 6130 N 595.674 1.31259 -0.872281 0
M  V30 6131 C 596.951 1.91362 -0.404943 0
M  V30 6132 C 597.331 1.79362 1.11321 0
M  V30 6133 O 596.679 1.20277 1.94283 0
M  V30 6134 C 596.889 3.3749 -0.888893 0
M  V30 6135 C 598.237 4.14593 -0.916384 0
M  V30 6136 O 599.261 3.46282 -0.834701 0
M  V30 6137 O 598.12 5.3661 -1.03498 0
M  V30 6138 H 595.214 0.818016 -0.121569 0
M  V30 6139 H 597.76 1.39912 -0.960346 0
M  V30 6140 H 596.532 3.40249 -1.93251 0
M  V30 6141 H 596.155 3.96375 -0.311932 0
M  V30 6142 N 597.152 0.631951 1.44375 0
M  V30 6143 C 598.084 -0.110911 2.28931 0
M  V30 6144 C 599.097 -0.808086 1.41329 0
M  V30 6145 O 600.286 -0.669396 1.65473 0
M  V30 6146 C 597.386 -1.17928 3.1772 0
M  V30 6147 C 596.559 -0.564458 4.33743 0
M  V30 6148 C 595.618 -1.5269 5.0356 0
M  V30 6149 O 594.644 -1.04372 5.59549 0
M  V30 6150 N 595.846 -2.86123 5.05088 0
M  V30 6151 H 598.611 0.614758 2.93327 0
M  V30 6152 H 596.172 0.473171 1.54831 0
M  V30 6153 H 598.164 -1.82348 3.61291 0
M  V30 6154 H 596.734 -1.80717 2.55069 0
M  V30 6155 H 595.954 0.258373 3.93352 0
M  V30 6156 H 597.242 -0.134355 5.08623 0
M  V30 6157 H 596.64 -3.27959 4.60933 0
M  V30 6158 H 595.197 -3.45901 5.52445 0
M  V30 6159 N 598.631 -1.53133 0.372548 0
M  V30 6160 C 599.877 -2.01654 -0.215277 0
M  V30 6161 C 600.21 -1.25914 -1.47849 0
M  V30 6162 O 599.485 -0.3548 -1.91237 0
M  V30 6163 C 599.768 -3.56609 -0.500187 0
M  V30 6164 C 599.621 -4.43036 0.777145 0
M  V30 6165 C 600.94 -4.20528 -1.29786 0
M  V30 6166 H 598.059 -0.732991 -0.0767686 0
M  V30 6167 H 600.701 -1.83335 0.498814 0
M  V30 6168 H 598.851 -3.7235 -1.10852 0
M  V30 6169 H 600.523 -4.39079 1.41447 0
M  V30 6170 H 598.766 -4.10723 1.39604 0
M  V30 6171 H 599.437 -5.49424 0.532662 0
M  V30 6172 H 601.913 -4.08663 -0.783198 0
M  V30 6173 H 600.789 -5.28962 -1.46596 0
M  V30 6174 H 601.05 -3.77051 -2.30836 0
M  V30 6175 N 600.109 -0.101901 -1.5727 0
M  V30 6176 C 601.072 0.840129 -2.13247 0
M  V30 6177 C 602.072 1.20625 -1.06331 0
M  V30 6178 O 603.262 1.13456 -1.32186 0
M  V30 6179 C 600.394 2.13372 -2.65867 0
M  V30 6180 H 601.587 0.353945 -2.97804 0
M  V30 6181 H 599.14 0.147167 -1.55606 0
M  V30 6182 H 599.875 2.66461 -1.84849 0
M  V30 6183 H 599.66 1.88085 -3.44044 0
M  V30 6184 H 601.15 2.80748 -3.09145 0
M  V30 6185 N 601.587 1.56661 0.17182 0
M  V30 6186 C 602.864 1.72838 0.915778 0
M  V30 6187 C 603.244 0.66316 2.00413 0
M  V30 6188 O 602.592 -0.322123 2.26218 0
M  V30 6189 C 602.802 3.16019 1.48097 0
M  V30 6190 C 604.15 3.76962 1.95408 0
M  V30 6191 O 605.174 3.19294 1.57892 0
M  V30 6192 O 604.033 4.78219 2.64516 0
M  V30 6193 H 601.127 0.705797 0.431021 0
M  V30 6194 H 603.673 1.68947 0.159689 0
M  V30 6195 H 602.445 3.85031 0.697618 0
M  V30 6196 H 602.068 3.24234 2.30126 0
M  V30 6197 N 603.065 -0.440357 1.51323 0
M  V30 6198 C 604.311 -1.18874 1.65047 0
M  V30 6199 C 604.666 -1.88988 0.360742 0
M  V30 6200 O 603.959 -1.80479 -0.643272 0
M  V30 6201 C 604.153 -2.2339 2.78984 0
M  V30 6202 C 603.982 -1.63534 4.18911 0
M  V30 6203 C 602.752 -1.42158 4.84891 0
M  V30 6204 C 604.95 -1.11324 5.02107 0
M  V30 6205 N 602.932 -0.778679 6.08942 0
M  V30 6206 C 604.303 -0.595421 6.17134 0
M  V30 6207 C 606.358 -1.00471 4.87658 0
M  V30 6208 C 605.061 0.0202557 7.19297 0
M  V30 6209 C 607.087 -0.402928 5.90026 0
M  V30 6210 C 606.449 0.10436 7.04323 0
M  V30 6211 H 602.548 -0.422771 0.657866 0
M  V30 6212 H 605.132 -0.485814 1.88542 0
M  V30 6213 H 603.303 -2.91074 2.57158 0
M  V30 6214 H 605.035 -2.90366 2.81904 0
M  V30 6215 H 601.79 -1.68247 4.42707 0
M  V30 6216 H 602.214 -0.474755 6.75333 0
M  V30 6217 H 606.856 -1.38278 3.99548 0
M  V30 6218 H 604.574 0.410468 8.07057 0
M  V30 6219 H 608.16 -0.320897 5.80914 0
M  V30 6220 H 607.04 0.562697 7.82179 0
M  V30 6221 N 604.543 -1.41418 -0.695603 0
M  V30 6222 C 605.473 -1.46035 -1.82197 0
M  V30 6223 C 606.454 -0.319025 -1.67082 0
M  V30 6224 O 607.639 -0.530462 -1.86815 0
M  V30 6225 C 604.769 -1.34179 -3.20333 0
M  V30 6226 C 603.723 -2.46123 -3.50154 0
M  V30 6227 C 603.049 -2.19332 -4.87645 0
M  V30 6228 C 604.349 -3.88463 -3.49133 0
M  V30 6229 H 606.043 -2.40303 -1.78591 0
M  V30 6230 H 603.589 -1.15663 -0.857797 0
M  V30 6231 H 605.542 -1.36021 -3.98844 0
M  V30 6232 H 604.266 -0.363952 -3.24566 0
M  V30 6233 H 602.925 -2.43563 -2.73994 0
M  V30 6234 H 602.573 -1.19891 -4.88503 0
M  V30 6235 H 602.273 -2.94344 -5.08562 0
M  V30 6236 H 603.797 -2.22889 -5.68465 0
M  V30 6237 H 605.211 -3.92738 -4.17648 0
M  V30 6238 H 603.608 -4.63158 -3.81582 0
M  V30 6239 H 604.678 -4.16617 -2.48109 0
M  V30 6240 N 606.021 0.929856 -1.27246 0
M  V30 6241 C 606.984 2.01172 -1.09829 0
M  V30 6242 C 607.984 1.60743 -0.0429687 0
M  V30 6243 O 609.174 1.71813 -0.287373 0
M  V30 6244 C 606.306 3.34191 -0.673003 0
M  V30 6245 H 607.499 2.18054 -2.05895 0
M  V30 6246 H 605.052 1.11036 -1.10003 0
M  V30 6247 H 605.787 3.23009 0.289134 0
M  V30 6248 H 605.572 3.64892 -1.43515 0
M  V30 6249 H 607.062 4.13646 -0.573323 0
M  V30 6250 N 607.499 1.09233 1.13605 0
M  V30 6251 C 608.462 0.733553 2.17144 0
M  V30 6252 C 609.462 -0.235873 1.59061 0
M  V30 6253 O 610.652 -0.0143167 1.74194 0
M  V30 6254 C 607.784 0.084471 3.40795 0
M  V30 6255 H 608.977 1.65049 2.50397 0
M  V30 6256 H 606.53 0.891264 1.28399 0
M  V30 6257 H 607.265 -0.843795 3.1313 0
M  V30 6258 H 607.05 0.781985 3.84223 0
M  V30 6259 H 608.54 -0.151216 4.17326 0
M  V30 6260 N 608.977 -1.30795 0.87923 0
M  V30 6261 C 610.393 -1.48981 0.57243 0
M  V30 6262 C 610.593 -1.80719 -0.891236 0
M  V30 6263 O 609.649 -1.89136 -1.67283 0
M  V30 6264 C 610.962 -2.61721 1.48063 0
M  V30 6265 C 612.51 -2.75603 1.48365 0
M  V30 6266 C 612.985 -3.91449 2.37763 0
M  V30 6267 N 614.476 -3.98751 2.35695 0
M  V30 6268 C 615.211 -4.87684 3.01583 0
M  V30 6269 N 614.707 -5.81454 3.76674 0
M  V30 6270 N 616.5 -4.81005 2.90844 0
M  V30 6271 H 608.651 -1.08465 1.82617 0
M  V30 6272 H 610.914 -0.536813 0.781368 0
M  V30 6273 H 610.62 -2.45073 2.52254 0
M  V30 6274 H 610.494 -3.58071 1.18596 0
M  V30 6275 H 612.881 -2.9166 0.44927 0
M  V30 6276 H 612.962 -1.79891 1.81859 0
M  V30 6277 H 612.606 -3.76149 3.41283 0
M  V30 6278 H 612.536 -4.86487 2.01589 0
M  V30 6279 H 615.027 -3.31668 1.81121 0
M  V30 6280 H 615.34 -6.46063 4.24054 0
M  V30 6281 H 613.685 -5.81403 3.80782 0
M  V30 6282 H 616.876 -4.06728 2.31711 0
M  V30 6283 H 617.049 -5.50107 3.42471 0
M  V30 6284 N 610.455 -0.639598 -1.44038 0
M  V30 6285 C 611.387 0.0987684 -2.28987 0
M  V30 6286 C 612.4 0.80058 -1.41755 0
M  V30 6287 O 613.589 0.660611 -1.65826 0
M  V30 6288 C 610.689 1.16242 -3.18341 0
M  V30 6289 C 609.862 0.541447 -4.34036 0
M  V30 6290 C 608.921 1.50017 -5.04362 0
M  V30 6291 O 607.947 1.01403 -5.60095 0
M  V30 6292 N 609.149 2.83441 -5.06598 0
M  V30 6293 H 611.914 -0.630305 -2.92997 0
M  V30 6294 H 609.475 -0.481376 -1.54578 0
M  V30 6295 H 611.467 1.80429 -3.62253 0
M  V30 6296 H 610.037 1.79362 -2.56024 0
M  V30 6297 H 609.257 -0.27923 -3.9321 0
M  V30 6298 H 610.545 0.107379 -5.08687 0
M  V30 6299 H 609.943 3.2551 -4.62666 0
M  V30 6300 H 608.5 3.42966 -5.54272 0
M  V30 6301 N 611.933 1.52934 -0.380664 0
M  V30 6302 C 613.344 1.86457 0.0952684 0
M  V30 6303 C 613.695 1.3007 1.46889 0
M  V30 6304 O 612.82 0.628636 2.07068 0
M  V30 6305 C 613.415 3.38323 0.179648 0
M  V30 6306 C 611.974 3.71589 0.599858 0
M  V30 6307 C 611.121 2.76228 -0.243572 0
M  V30 6308 H 614.072 1.46966 -0.59888 0
M  V30 6309 H 614.093 3.67113 1.00042 0
M  V30 6310 H 613.605 3.79333 -0.820228 0
M  V30 6311 H 611.706 3.36144 1.60742 0
M  V30 6312 H 611.819 4.77715 0.364003 0
M  V30 6313 H 610.183 2.53045 0.289855 0
M  V30 6314 H 610.966 3.20074 -1.24127 0
M  V30 6315 N 613.412 0.11024 1.57214 0
M  V30 6316 C 614.359 -0.843195 2.14846 0
M  V30 6317 C 615.329 -1.26954 1.07107 0
M  V30 6318 O 616.514 -1.34861 1.34971 0
M  V30 6319 C 613.654 -2.09123 2.74521 0
M  V30 6320 C 612.767 -1.71404 3.96541 0
M  V30 6321 C 611.902 -2.91107 4.44331 0
M  V30 6322 C 610.941 -2.49586 5.58903 0
M  V30 6323 N 610.078 -3.62175 6.01477 0
M  V30 6324 H 614.918 -0.344886 2.95998 0
M  V30 6325 H 612.455 -0.15855 1.46243 0
M  V30 6326 H 614.413 -2.82234 3.07246 0
M  V30 6327 H 613.043 -2.56427 1.96074 0
M  V30 6328 H 612.095 -0.88201 3.70033 0
M  V30 6329 H 613.407 -1.36884 4.7965 0
M  V30 6330 H 612.561 -3.72454 4.78919 0
M  V30 6331 H 611.3 -3.28848 3.60153 0
M  V30 6332 H 610.305 -1.6667 5.23929 0
M  V30 6333 H 611.53 -2.12973 6.4484 0
M  V30 6334 H 609.476 -3.99605 5.20242 0
M  V30 6335 H 609.393 -3.3155 6.79419 0
M  V30 6336 H 610.661 -4.43987 6.407 0
M  V30 6337 N 614.89 -1.56749 -0.16351 0
M  V30 6338 C 615.82 -2.00042 -1.20438 0
M  V30 6339 C 616.801 -0.877256 -1.45733 0
M  V30 6340 O 617.986 -1.1439 -1.56935 0
M  V30 6341 C 615.116 -2.36697 -2.54149 0
M  V30 6342 C 614.07 -3.52046 -2.43408 0
M  V30 6343 C 613.396 -3.74466 -3.81679 0
M  V30 6344 C 614.696 -4.85247 -1.93216 0
M  V30 6345 H 616.39 -2.87244 -0.844477 0
M  V30 6346 H 613.936 -1.38194 -0.40478 0
M  V30 6347 H 615.889 -2.65582 -3.27176 0
M  V30 6348 H 614.613 -1.46414 -2.91943 0
M  V30 6349 H 613.272 -3.23301 -1.72834 0
M  V30 6350 H 612.92 -2.81461 -4.1688 0
M  V30 6351 H 612.62 -4.52084 -3.75359 0
M  V30 6352 H 614.144 -4.0576 -4.5628 0
M  V30 6353 H 615.558 -5.12957 -2.56023 0
M  V30 6354 H 613.955 -5.66556 -1.97825 0
M  V30 6355 H 615.025 -4.7672 -0.88689 0
M  V30 6356 N 616.368 0.432326 -1.51554 0
M  V30 6357 C 617.614 1.18309 -1.64714 0
M  V30 6358 C 617.947 1.90745 -0.364696 0
M  V30 6359 O 617.222 1.8381 0.635936 0
M  V30 6360 C 617.505 2.1961 -2.85383 0
M  V30 6361 C 617.358 1.51223 -4.23617 0
M  V30 6362 C 618.677 3.20538 -3.01569 0
M  V30 6363 H 615.796 0.428751 -0.599451 0
M  V30 6364 H 618.438 0.471689 -1.84052 0
M  V30 6365 H 616.588 2.8028 -2.69027 0
M  V30 6366 H 618.26 0.938516 -4.51652 0
M  V30 6367 H 616.503 0.814501 -4.26085 0
M  V30 6368 H 617.174 2.25024 -5.04052 0
M  V30 6369 H 619.65 2.69926 -3.16669 0
M  V30 6370 H 618.526 3.88706 -3.87555 0
M  V30 6371 H 618.787 3.86933 -2.13859 0
M  V30 6372 N 617.846 1.41785 0.688094 0
M  V30 6373 C 619.074 1.44915 1.47673 0
M  V30 6374 C 619.489 0.0565786 1.88715 0
M  V30 6375 O 618.846 -0.92579 1.57275 0
M  V30 6376 C 618.897 2.36452 2.73446 0
M  V30 6377 O 618.618 3.7029 2.34131 0
M  V30 6378 C 620.119 2.48463 3.67125 0
M  V30 6379 H 617.339 0.493324 0.454832 0
M  V30 6380 H 619.883 1.86153 0.846594 0
M  V30 6381 H 618.038 1.98502 3.3268 0
M  V30 6382 H 618.452 4.19183 3.15255 0
M  V30 6383 H 619.926 3.16662 4.52138 0
M  V30 6384 H 620.403 1.51826 4.12123 0
M  V30 6385 H 621.009 2.8708 3.13792 0
M  V30 6386 N 619.324 -0.923095 1.27737 0
M  V30 6387 C 620.549 -1.71054 1.17283 0
M  V30 6388 C 620.974 -1.86208 -0.266153 0
M  V30 6389 O 620.332 -1.36545 -1.1927 0
M  V30 6390 C 620.38 -3.0854 1.86642 0
M  V30 6391 O 619.484 -3.95528 1.16752 0
M  V30 6392 H 618.825 -0.524136 0.407649 0
M  V30 6393 H 621.355 -1.15487 1.6889 0
M  V30 6394 H 621.365 -3.58828 1.94182 0
M  V30 6395 H 620.04 -2.96828 2.91317 0
M  V30 6396 H 618.617 -3.53967 1.17312 0
M  V30 6397 N 620.802 -1.09834 -1.13024 0
M  V30 6398 C 621.765 -0.745058 -2.16752 0
M  V30 6399 C 622.765 0.227435 -1.59183 0
M  V30 6400 O 623.955 0.0050786 -1.74199 0
M  V30 6401 C 621.087 -0.102543 -3.40746 0
M  V30 6402 H 622.28 -1.66375 -2.49518 0
M  V30 6403 H 619.833 -0.898061 -1.27924 0
M  V30 6404 H 620.568 0.827177 -3.13573 0
M  V30 6405 H 620.353 -0.80235 -3.83803 0
M  V30 6406 H 621.843 0.129082 -4.174 0
M  V30 6407 N 622.28 1.30327 -0.886154 0
M  V30 6408 C 623.23 2.25668 -0.325248 0
M  V30 6409 C 624.214 1.51318 0.546972 0
M  V30 6410 O 625.406 1.72623 0.391203 0
M  V30 6411 C 622.535 3.40229 0.458167 0
M  V30 6412 C 621.621 4.21933 -0.428208 0
M  V30 6413 N 622.012 4.82129 -1.52921 0
M  V30 6414 C 620.31 4.45439 -0.223535 0
M  V30 6415 C 621.011 5.43351 -2.07714 0
M  V30 6416 N 619.987 5.26002 -1.37195 0
M  V30 6417 H 623.789 2.69759 -1.1665 0
M  V30 6418 H 621.303 1.4478 -0.735691 0
M  V30 6419 H 623.3 4.07579 0.876648 0
M  V30 6420 H 621.96 2.97678 1.29684 0
M  V30 6421 H 622.971 4.81312 -1.91205 0
M  V30 6422 H 619.648 4.13481 0.577875 0
M  V30 6423 H 621.038 6.01118 -3.00178 0
M  V30 6424 N 623.758 0.647228 1.43697 0
M  V30 6425 C 625.004 0.167001 2.02713 0
M  V30 6426 C 625.359 -1.20351 1.50111 0
M  V30 6427 O 624.652 -1.79047 0.682113 0
M  V30 6428 C 624.846 0.111481 3.57226 0
M  V30 6429 C 624.675 1.47507 4.2482 0
M  V30 6430 C 623.445 2.06594 4.61137 0
M  V30 6431 C 625.643 2.41224 4.54219 0
M  V30 6432 N 623.625 3.3602 5.13774 0
M  V30 6433 C 624.996 3.55278 5.08112 0
M  V30 6434 C 627.051 2.40102 4.36183 0
M  V30 6435 C 625.754 4.68426 5.45866 0
M  V30 6436 C 627.78 3.52326 4.74995 0
M  V30 6437 C 627.142 4.65104 5.29015 0
M  V30 6438 H 623.241 0.105402 0.774864 0
M  V30 6439 H 625.825 0.854229 1.7496 0
M  V30 6440 H 623.996 -0.545073 3.84556 0
M  V30 6441 H 625.728 -0.379063 4.02921 0
M  V30 6442 H 622.483 1.59366 4.45981 0
M  V30 6443 H 622.907 4.02233 5.44552 0
M  V30 6444 H 627.549 1.54151 3.93697 0
M  V30 6445 H 625.267 5.55074 5.87298 0
M  V30 6446 H 628.853 3.52652 4.6274 0
M  V30 6447 H 627.733 5.50506 5.58492 0
M  V30 6448 N 625.236 -1.5273 0.388769 0
M  V30 6449 C 626.168 -2.24081 -0.481704 0
M  V30 6450 C 627.181 -1.26307 -1.02715 0
M  V30 6451 O 628.37 -1.52386 -0.929565 0
M  V30 6452 C 625.47 -2.94315 -1.68024 0
M  V30 6453 C 624.643 -4.18791 -1.26226 0
M  V30 6454 C 623.702 -4.72028 -2.32542 0
M  V30 6455 O 622.728 -5.35129 -1.93972 0
M  V30 6456 N 623.93 -4.51838 -3.64448 0
M  V30 6457 H 626.695 -2.9942 0.129591 0
M  V30 6458 H 624.256 -1.60465 0.2151 0
M  V30 6459 H 626.248 -3.26831 -2.38671 0
M  V30 6460 H 624.818 -2.22287 -2.19789 0
M  V30 6461 H 624.038 -3.92318 -0.384703 0
M  V30 6462 H 625.326 -4.99668 -0.959647 0
M  V30 6463 H 624.724 -4.01468 -3.98547 0
M  V30 6464 H 623.281 -4.88845 -4.31131 0
M  V30 6465 N 626.714 -0.118576 -1.57153 0
M  V30 6466 C 627.96 0.540326 -1.95469 0
M  V30 6467 C 628.293 1.66356 -1.00196 0
M  V30 6468 O 627.568 1.94461 -0.039104 0
M  V30 6469 C 627.851 1.07342 -3.43729 0
M  V30 6470 C 627.704 -0.0463732 -4.49776 0
M  V30 6471 C 629.023 1.96442 -3.93826 0
M  V30 6472 H 626.142 0.19494 -0.710751 0
M  V30 6473 H 628.784 -0.19405 -1.89006 0
M  V30 6474 H 626.934 1.69925 -3.49368 0
M  V30 6475 H 628.606 -0.681648 -4.56236 0
M  V30 6476 H 626.849 -0.709574 -4.27957 0
M  V30 6477 H 627.52 0.367856 -5.50773 0
M  V30 6478 H 629.996 1.43731 -3.90488 0
M  V30 6479 H 628.872 2.3066 -4.98084 0
M  V30 6480 H 629.133 2.89077 -3.34495 0
M  V30 6481 N 628.193 1.56834 0.155195 0
M  V30 6482 C 629.442 1.82088 0.867567 0
M  V30 6483 C 629.755 0.69849 1.82703 0
M  V30 6484 O 630.961 0.836407 2.58295 0
M  V30 6485 C 629.417 3.22707 1.59336 0
M  V30 6486 C 629.025 4.42859 0.676719 0
M  V30 6487 C 630.769 3.57242 2.293 0
M  V30 6488 C 628.676 5.74501 1.40367 0
M  V30 6489 H 627.606 0.679057 0.327715 0
M  V30 6490 H 630.257 1.83105 0.120351 0
M  V30 6491 H 628.639 3.16054 2.38591 0
M  V30 6492 H 629.813 4.60731 -0.0800196 0
M  V30 6493 H 628.128 4.16311 0.0859129 0
M  V30 6494 H 630.725 4.52847 2.84312 0
M  V30 6495 H 631.068 2.82901 3.05406 0
M  V30 6496 H 631.601 3.6552 1.56972 0
M  V30 6497 H 628.34 6.51915 0.684623 0
M  V30 6498 H 627.86 5.60579 2.13332 0
M  V30 6499 H 629.539 6.17016 1.94681 0
M  V30 6500 N 629.671 -0.424282 1.51781 0
M  V30 6501 C 630.948 -1.18464 1.55646 0
M  V30 6502 C 631.328 -2.08529 0.328438 0
M  V30 6503 O 630.676 -2.17969 -0.685693 0
M  V30 6504 C 630.886 -1.97514 2.87731 0
M  V30 6505 C 632.234 -2.54106 3.40169 0
M  V30 6506 O 633.258 -2.07711 2.89369 0
M  V30 6507 O 632.117 -3.38759 4.28841 0
M  V30 6508 H 629.211 -0.540055 0.626314 0
M  V30 6509 H 631.757 -0.432291 1.64102 0
M  V30 6510 H 630.529 -1.31444 3.68562 0
M  V30 6511 H 630.152 -2.79787 2.82498 0
M  V30 6512 N 631.149 -1.42148 -0.680565 0
M  V30 6513 C 632.112 -1.4488 -1.77602 0
M  V30 6514 C 633.112 -0.337209 -1.57224 0
M  V30 6515 O 634.302 -0.597778 -1.63622 0
M  V30 6516 C 631.434 -1.27483 -3.16166 0
M  V30 6517 H 632.627 -2.42412 -1.76568 0
M  V30 6518 H 630.18 -1.28511 -0.889645 0
M  V30 6519 H 630.915 -0.30851 -3.22829 0
M  V30 6520 H 630.7 -2.08037 -3.3236 0
M  V30 6521 H 632.19 -1.32265 -3.96101 0
M  V30 6522 N 632.627 0.916307 -1.28225 0
M  V30 6523 C 633.874 1.66518 -1.1523 0
M  V30 6524 C 634.202 1.92178 0.299632 0
M  V30 6525 O 633.457 1.51842 1.2346 0
M  V30 6526 C 633.756 3.03125 -1.8934 0
M  V30 6527 C 633.422 2.97135 -3.39148 0
M  V30 6528 C 632.084 2.95208 -3.80007 0
M  V30 6529 C 634.436 2.87574 -4.34685 0
M  V30 6530 C 631.764 2.81518 -5.14747 0
M  V30 6531 C 634.116 2.75424 -5.69495 0
M  V30 6532 C 632.78 2.71854 -6.09632 0
M  V30 6533 H 632.05 0.609334 -0.421655 0
M  V30 6534 H 634.697 1.06776 -1.58969 0
M  V30 6535 H 633.002 3.66639 -1.38143 0
M  V30 6536 H 634.699 3.59968 -1.76704 0
M  V30 6537 H 631.289 2.99428 -3.06661 0
M  V30 6538 H 635.473 2.88152 -4.04082 0
M  V30 6539 H 630.729 2.77148 -5.44976 0
M  V30 6540 H 634.903 2.66993 -6.43185 0
M  V30 6541 H 632.53 2.61003 -7.1399 0
M  V30 6542 N 634.105 1.10431 1.1244 0
M  V30 6543 C 635.015 0.765502 2.21759 0
M  V30 6544 C 636.031 -0.236966 1.72379 0
M  V30 6545 O 637.207 -0.0757329 2.01258 0
M  V30 6546 C 634.272 0.202316 3.46109 0
M  V30 6547 C 633.333 1.26205 4.1033 0
M  V30 6548 C 632.566 0.725648 5.28744 0
M  V30 6549 O 632.789 -0.447942 5.68638 0
M  V30 6550 O 631.723 1.48555 5.83279 0
M  V30 6551 H 635.549 1.67801 2.53133 0
M  V30 6552 H 633.134 0.879443 1.20773 0
M  V30 6553 H 635.016 -0.107918 4.21262 0
M  V30 6554 H 633.691 -0.683052 3.16411 0
M  V30 6555 H 632.598 1.62514 3.36957 0
M  V30 6556 H 633.931 2.12044 4.44183 0
M  V30 6557 N 635.583 -1.29855 0.893053 0
M  V30 6558 C 636.999 -1.48366 0.588199 0
M  V30 6559 C 637.199 -1.81654 -0.872018 0
M  V30 6560 O 636.255 -1.909 -1.65268 0
M  V30 6561 C 637.568 -2.60136 1.5083 0
M  V30 6562 C 639.116 -2.74014 1.51279 0
M  V30 6563 C 639.591 -3.88905 2.41902 0
M  V30 6564 N 641.082 -3.96228 2.39911 0
M  V30 6565 C 641.817 -4.84458 3.06738 0
M  V30 6566 N 641.313 -5.77426 3.8282 0
M  V30 6567 N 643.106 -4.77894 2.95929 0
M  V30 6568 H 635.257 -1.06522 1.83757 0
M  V30 6569 H 637.52 -0.528495 0.787018 0
M  V30 6570 H 637.226 -2.42383 2.54839 0
M  V30 6571 H 637.1 -3.56793 1.22388 0
M  V30 6572 H 639.487 -2.91167 0.480179 0
M  V30 6573 H 639.568 -1.77952 1.83757 0
M  V30 6574 H 639.212 -3.72508 3.45253 0
M  V30 6575 H 639.142 -4.84322 2.06737 0
M  V30 6576 H 641.633 -3.29728 1.84629 0
M  V30 6577 H 641.946 -6.41529 4.30883 0
M  V30 6578 H 640.291 -5.77332 3.86927 0
M  V30 6579 H 643.482 -4.04248 2.36012 0
M  V30 6580 H 643.655 -5.46444 3.48286 0
M  V30 6581 N 637.061 -0.65484 -1.43351 0
M  V30 6582 C 638.024 0.0263562 -2.29185 0
M  V30 6583 C 639.024 0.748951 -1.42293 0
M  V30 6584 O 640.214 0.589957 -1.63906 0
M  V30 6585 C 637.346 1.04806 -3.2439 0
M  V30 6586 H 638.539 -0.728883 -2.90908 0
M  V30 6587 H 636.092 -0.416149 -1.50658 0
M  V30 6588 H 636.827 1.83247 -2.67565 0
M  V30 6589 H 636.612 0.533554 -3.88453 0
M  V30 6590 H 638.102 1.52372 -3.88809 0
M  V30 6591 N 638.539 1.52521 -0.396863 0
M  V30 6592 C 639.502 2.2527 0.422604 0
M  V30 6593 C 640.502 1.27184 0.983913 0
M  V30 6594 O 641.692 1.51222 0.864723 0
M  V30 6595 C 638.824 3.01356 1.59365 0
M  V30 6596 H 640.017 2.99133 -0.214416 0
M  V30 6597 H 637.57 1.55587 -0.149128 0
M  V30 6598 H 638.305 2.31813 2.26789 0
M  V30 6599 H 638.09 3.73357 1.19779 0
M  V30 6600 H 639.58 3.56571 2.17363 0
M  V30 6601 N 640.017 0.126909 1.57088 0
M  V30 6602 C 641.265 -0.528123 1.95078 0
M  V30 6603 C 641.586 -1.66708 1.0116 0
M  V30 6604 O 640.856 -1.95777 0.0693527 0
M  V30 6605 H 639.436 -0.198087 0.720257 0
M  V30 6606 H 642.098 0.197703 1.93895 0
M  V30 6607 H 641.194 -0.917507 2.98309 0
M  V30 6608 N 641.495 -1.56914 -0.146875 0
M  V30 6609 C 642.405 -2.0154 -1.20079 0
M  V30 6610 C 643.421 -0.930838 -1.47008 0
M  V30 6611 O 644.597 -1.24032 -1.58676 0
M  V30 6612 C 641.662 -2.38715 -2.51428 0
M  V30 6613 C 640.723 -3.6112 -2.32145 0
M  V30 6614 C 639.956 -3.96512 -3.57231 0
M  V30 6615 O 640.179 -3.32566 -4.63418 0
M  V30 6616 O 639.113 -4.89758 -3.49887 0
M  V30 6617 H 642.939 -2.91506 -0.851924 0
M  V30 6618 H 640.524 -1.45106 -0.355607 0
M  V30 6619 H 642.406 -2.63485 -3.28867 0
M  V30 6620 H 641.081 -1.51903 -2.85845 0
M  V30 6621 H 639.988 -3.41536 -1.52656 0
M  V30 6622 H 641.321 -4.48549 -2.02644 0
M  V30 6623 N 642.974 0.416227 -1.52004 0
M  V30 6624 C 644.385 0.995319 -1.57957 0
M  V30 6625 C 644.736 1.91744 -0.415754 0
M  V30 6626 O 643.861 2.11349 0.464808 0
M  V30 6627 C 644.456 1.81191 -2.86278 0
M  V30 6628 C 643.015 2.34115 -2.94732 0
M  V30 6629 C 642.162 1.139 -2.52828 0
M  V30 6630 H 645.113 0.196716 -1.57476 0
M  V30 6631 H 645.134 2.66859 -2.71231 0
M  V30 6632 H 644.646 1.14051 -3.70963 0
M  V30 6633 H 642.747 3.04647 -2.14525 0
M  V30 6634 H 642.86 2.65466 -3.98829 0
M  V30 6635 H 641.224 1.49081 -2.06511 0
M  V30 6636 H 642.007 0.483383 -3.3988 0
M  V30 6637 N 644.452 1.42507 0.673017 0
M  V30 6638 C 645.402 1.4258 1.77919 0
M  V30 6639 C 646.386 0.296885 1.58137 0
M  V30 6640 O 647.578 0.539243 1.68586 0
M  V30 6641 C 644.707 1.33238 3.1639 0
M  V30 6642 C 643.793 2.51081 3.41788 0
M  V30 6643 N 644.184 3.76498 3.37761 0
M  V30 6644 C 642.482 2.4538 3.72431 0
M  V30 6645 C 643.183 4.54784 3.62693 0
M  V30 6646 N 642.159 3.8522 3.83544 0
M  V30 6647 H 645.961 2.37442 1.73201 0
M  V30 6648 H 643.475 1.36881 0.873924 0
M  V30 6649 H 645.472 1.31372 3.9566 0
M  V30 6650 H 644.132 0.393794 3.22303 0
M  V30 6651 H 645.143 4.09068 3.17622 0
M  V30 6652 H 641.82 1.60109 3.85579 0
M  V30 6653 H 643.21 5.63774 3.65525 0
M  V30 6654 N 645.93 -0.909495 1.28709 0
M  V30 6655 C 647.178 -1.65577 1.15882 0
M  V30 6656 C 647.499 -1.928 -0.292108 0
M  V30 6657 O 646.769 -1.54716 -1.20166 0
M  V30 6658 H 645.349 -0.613714 0.425869 0
M  V30 6659 H 648.011 -1.09108 1.61498 0
M  V30 6660 H 647.107 -2.61634 1.70159 0
M  V30 6661 N 647.408 -1.11026 -1.11852 0
M  V30 6662 C 648.824 -0.843294 -1.35502 0
M  V30 6663 C 649.024 0.534179 -1.9429 0
M  V30 6664 O 648.08 1.28585 -2.17307 0
M  V30 6665 C 649.393 -1.94793 -2.29077 0
M  V30 6666 C 650.941 -1.97709 -2.42652 0
M  V30 6667 C 651.416 -3.07364 -3.39546 0
M  V30 6668 N 652.907 -3.0671 -3.47107 0
M  V30 6669 C 653.642 -3.88197 -4.22008 0
M  V30 6670 N 653.138 -4.79635 -4.99922 0
M  V30 6671 N 654.931 -3.76391 -4.17476 0
M  V30 6672 H 647.082 -1.99805 -0.720538 0
M  V30 6673 H 649.345 -0.868633 -0.379711 0
M  V30 6674 H 649.051 -2.93971 -1.93065 0
M  V30 6675 H 648.925 -1.84039 -3.29256 0
M  V30 6676 H 651.312 -0.991604 -2.77941 0
M  V30 6677 H 651.393 -2.1254 -1.4234 0
M  V30 6678 H 651.037 -4.06136 -3.04985 0
M  V30 6679 H 650.967 -2.89774 -4.39703 0
M  V30 6680 H 653.458 -2.40457 -2.91528 0
M  V30 6681 H 653.771 -5.38357 -5.54429 0
M  V30 6682 H 652.116 -4.8366 -4.99097 0
M  V30 6683 H 655.307 -3.04303 -3.55693 0
M  V30 6684 H 655.48 -4.40131 -4.75593 0
M  V30 6685 N 648.886 1.2938 -0.899927 0
M  V30 6686 C 650.297 1.77644 -0.574427 0
M  V30 6687 C 650.648 1.73824 0.909928 0
M  V30 6688 O 649.773 1.32429 1.71147 0
M  V30 6689 C 650.368 3.22573 -1.03595 0
M  V30 6690 C 648.927 3.68614 -0.76161 0
M  V30 6691 C 648.074 2.49483 -1.21052 0
M  V30 6692 H 651.025 1.16038 -1.08263 0
M  V30 6693 H 651.046 3.78684 -0.371337 0
M  V30 6694 H 650.558 3.25321 -2.11631 0
M  V30 6695 H 648.659 3.7134 0.306127 0
M  V30 6696 H 648.772 4.59402 -1.35965 0
M  V30 6697 H 647.136 2.46798 -0.629515 0
M  V30 6698 H 647.919 2.54959 -2.29893 0
M  V30 6699 N 650.364 0.662433 1.43002 0
M  V30 6700 C 651.78 0.330835 1.56133 0
M  V30 6701 C 651.98 -1.16454 1.64441 0
M  V30 6702 O 651.036 -1.94964 1.60453 0
M  V30 6703 C 652.349 1.05029 2.81761 0
M  V30 6704 C 653.897 1.03142 2.95518 0
M  V30 6705 C 654.372 1.73196 4.2399 0
M  V30 6706 N 655.863 1.70004 4.30875 0
M  V30 6707 C 656.598 2.21074 5.29069 0
M  V30 6708 N 656.094 2.80473 6.33488 0
M  V30 6709 N 657.887 2.1152 5.20784 0
M  V30 6710 H 650.038 1.63272 1.35853 0
M  V30 6711 H 652.301 0.687149 0.653092 0
M  V30 6712 H 652.007 2.10542 2.81718 0
M  V30 6713 H 651.881 0.607664 3.72273 0
M  V30 6714 H 654.268 -0.0153339 2.95096 0
M  V30 6715 H 654.349 1.51282 2.0627 0
M  V30 6716 H 653.993 2.77833 4.25172 0
M  V30 6717 H 653.923 1.22515 5.1215 0
M  V30 6718 H 656.414 1.26667 3.56039 0
M  V30 6719 H 656.727 3.17094 7.04749 0
M  V30 6720 H 655.072 2.84538 6.34085 0
M  V30 6721 H 658.263 1.64814 4.38126 0
M  V30 6722 H 658.436 2.51629 5.97149 0
M  V30 6723 N 651.842 -1.52309 0.404946 0
M  V30 6724 C 653.088 -2.02065 -0.172455 0
M  V30 6725 C 653.421 -1.29022 -1.45145 0
M  V30 6726 O 652.696 -0.395284 -1.90441 0
M  V30 6727 C 652.979 -3.5759 -0.424433 0
M  V30 6728 C 652.832 -4.41287 0.870945 0
M  V30 6729 C 654.151 -4.23186 -1.20837 0
M  V30 6730 H 651.27 -0.734454 -0.0612035 0
M  V30 6731 H 653.912 -1.82236 0.53759 0
M  V30 6732 H 652.062 -3.74617 -1.02929 0
M  V30 6733 H 653.734 -4.3598 1.50729 0
M  V30 6734 H 651.977 -4.07669 1.48284 0
M  V30 6735 H 652.648 -5.48171 0.649083 0
M  V30 6736 H 655.124 -4.10232 -0.696338 0
M  V30 6737 H 654 -5.31953 -1.35343 0
M  V30 6738 H 654.261 -3.81862 -2.22786 0
M  V30 6739 N 653.32 -0.135238 -1.57019 0
M  V30 6740 C 654.267 0.808908 -2.1616 0
M  V30 6741 C 655.237 1.25234 -1.09113 0
M  V30 6742 O 656.422 1.32697 -1.37099 0
M  V30 6743 C 653.562 2.04729 -2.77813 0
M  V30 6744 C 652.675 1.65074 -3.99218 0
M  V30 6745 C 651.81 2.84002 -4.48906 0
M  V30 6746 C 650.849 2.40663 -5.62803 0
M  V30 6747 N 649.986 3.5256 -6.07162 0
M  V30 6748 H 654.826 0.297751 -2.96509 0
M  V30 6749 H 652.363 0.135264 -1.46477 0
M  V30 6750 H 654.321 2.7731 -3.11697 0
M  V30 6751 H 652.951 2.53275 -2.00128 0
M  V30 6752 H 652.003 0.823029 -3.7139 0
M  V30 6753 H 653.315 1.29236 -4.81767 0
M  V30 6754 H 652.469 3.64788 -4.84783 0
M  V30 6755 H 651.208 3.23076 -3.65339 0
M  V30 6756 H 650.213 1.58314 -5.26514 0
M  V30 6757 H 651.438 2.02687 -6.48147 0
M  V30 6758 H 649.384 3.91278 -5.26534 0
M  V30 6759 H 649.301 3.20699 -6.84608 0
M  V30 6760 H 650.569 4.33738 -6.47682 0
M  V30 6761 N 654.798 1.5699 0.138552 0
M  V30 6762 C 655.728 2.01933 1.17241 0
M  V30 6763 C 656.709 0.90033 1.44319 0
M  V30 6764 O 657.894 1.16872 1.55095 0
M  V30 6765 C 655.024 2.40711 2.50351 0
M  V30 6766 C 653.978 3.55874 2.37776 0
M  V30 6767 C 653.304 3.80491 3.75674 0
M  V30 6768 C 654.604 4.8826 1.85472 0
M  V30 6769 H 656.298 2.88551 0.798672 0
M  V30 6770 H 653.844 1.3882 0.382743 0
M  V30 6771 H 655.797 2.70754 3.22909 0
M  V30 6772 H 654.521 1.5104 2.89576 0
M  V30 6773 H 653.18 3.2601 1.67669 0
M  V30 6774 H 652.828 2.88057 4.12349 0
M  V30 6775 H 652.528 4.57998 3.68119 0
M  V30 6776 H 654.052 4.12967 4.49767 0
M  V30 6777 H 655.466 5.16965 2.4783 0
M  V30 6778 H 653.863 5.69631 1.88787 0
M  V30 6779 H 654.933 4.78071 0.810935 0
M  V30 6780 N 656.276 -0.40816 1.52223 0
M  V30 6781 C 657.239 -1.48 1.7501 0
M  V30 6782 C 658.239 -1.48367 0.619996 0
M  V30 6783 O 659.429 -1.49874 0.887881 0
M  V30 6784 C 656.561 -2.87403 1.83336 0
M  V30 6785 H 657.754 -1.29086 2.70697 0
M  V30 6786 H 655.307 -0.638715 1.42654 0
M  V30 6787 H 656.042 -3.11686 0.895677 0
M  V30 6788 H 655.827 -2.8854 2.65494 0
M  V30 6789 H 657.317 -3.65103 2.02705 0
M  V30 6790 N 657.755 -1.42862 -0.66545 0
M  V30 6791 C 658.98 -1.47456 -1.45848 0
M  V30 6792 C 659.405 -0.0900312 -1.87884 0
M  V30 6793 O 658.763 0.913587 -1.56599 0
M  V30 6794 C 658.811 -2.41514 -2.67774 0
M  V30 6795 O 657.915 -1.89296 -3.66389 0
M  V30 6796 H 657.256 -0.499236 -0.437789 0
M  V30 6797 H 659.786 -1.8765 -0.815394 0
M  V30 6798 H 659.796 -2.58409 -3.15735 0
M  V30 6799 H 658.471 -3.42099 -2.36519 0
M  V30 6800 H 657.048 -1.82003 -3.25468 0
M  V30 6801 N 659.233 0.902656 -1.29189 0
M  V30 6802 C 660.163 2.02294 -1.16616 0
M  V30 6803 C 661.144 1.6999 -0.0611175 0
M  V30 6804 O 662.329 1.9271 -0.240072 0
M  V30 6805 C 659.459 3.37018 -0.83882 0
M  V30 6806 C 658.413 3.83522 -1.89986 0
M  V30 6807 C 657.739 5.15337 -1.42589 0
M  V30 6808 C 659.039 4.04169 -3.30824 0
M  V30 6809 H 660.733 2.13071 -2.10336 0
M  V30 6810 H 658.279 1.02378 -1.01266 0
M  V30 6811 H 660.232 4.14895 -0.737584 0
M  V30 6812 H 658.956 3.26325 0.134071 0
M  V30 6813 H 657.615 3.07859 -1.99043 0
M  V30 6814 H 657.263 5.01056 -0.441759 0
M  V30 6815 H 656.963 5.47423 -2.13547 0
M  V30 6816 H 658.487 5.95758 -1.3381 0
M  V30 6817 H 659.901 4.72537 -3.24626 0
M  V30 6818 H 658.298 4.47604 -3.99713 0
M  V30 6819 H 659.368 3.08604 -3.74021 0
M  V30 6820 N 660.711 1.11618 1.11262 0
M  V30 6821 C 661.674 0.779447 2.15539 0
M  V30 6822 C 662.674 -0.202081 1.59525 0
M  V30 6823 O 663.864 0.0226356 1.74185 0
M  V30 6824 C 660.996 0.15674 3.40539 0
M  V30 6825 H 662.189 1.70324 2.4684 0
M  V30 6826 H 659.742 0.918298 1.26479 0
M  V30 6827 H 660.477 -0.777186 3.1485 0
M  V30 6828 H 660.262 0.863308 3.82478 0
M  V30 6829 H 661.752 -0.062661 4.17553 0
M  V30 6830 N 662.189 -1.289 0.906776 0
M  V30 6831 C 663.099 -2.31256 0.394707 0
M  V30 6832 C 664.115 -1.66231 -0.514121 0
M  V30 6833 O 665.291 -1.97347 -0.401994 0
M  V30 6834 C 662.356 -3.44792 -0.363191 0
M  V30 6835 C 661.417 -4.25391 0.578012 0
M  V30 6836 C 660.65 -5.33506 -0.143811 0
M  V30 6837 O 660.873 -5.53786 -1.36665 0
M  V30 6838 O 659.807 -5.99673 0.5173 0
M  V30 6839 H 663.633 -2.77051 1.24405 0
M  V30 6840 H 661.218 -1.33466 0.671346 0
M  V30 6841 H 663.1 -4.139 -0.791503 0
M  V30 6842 H 661.775 -3.01093 -1.18848 0
M  V30 6843 H 660.682 -3.58899 1.05558 0
M  V30 6844 H 662.015 -4.72752 1.36992 0
M  V30 6845 N 663.667 -0.670007 -1.42649 0
M  V30 6846 C 664.597 -0.00258501 -2.335 0
M  V30 6847 C 665.578 0.794364 -1.50412 0
M  V30 6848 O 666.763 0.75248 -1.79029 0
M  V30 6849 C 663.893 0.952748 -3.33976 0
M  V30 6850 C 662.847 0.264733 -4.2718 0
M  V30 6851 C 662.173 1.33267 -5.17826 0
M  V30 6852 C 663.473 -0.853289 -5.15283 0
M  V30 6853 H 665.167 -0.761326 -2.89559 0
M  V30 6854 H 662.713 -0.367561 -1.3923 0
M  V30 6855 H 664.666 1.4287 -3.96442 0
M  V30 6856 H 663.39 1.74285 -2.7621 0
M  V30 6857 H 662.049 -0.190938 -3.66102 0
M  V30 6858 H 661.697 2.11464 -4.5639 0
M  V30 6859 H 661.397 0.877476 -5.81011 0
M  V30 6860 H 662.921 1.80965 -5.83167 0
M  V30 6861 H 664.335 -0.458763 -5.71462 0
M  V30 6862 H 662.732 -1.23398 -5.87276 0
M  V30 6863 H 663.802 -1.70412 -4.53969 0
M  V30 6864 N 665.145 1.52092 -0.413018 0
M  V30 6865 C 666.075 2.30021 0.401567 0
M  V30 6866 C 667.056 1.34395 1.04269 0
M  V30 6867 O 668.241 1.63304 1.05097 0
M  V30 6868 C 665.371 3.12447 1.51638 0
M  V30 6869 C 664.325 4.16153 1.00005 0
M  V30 6870 C 663.651 4.86948 2.20875 0
M  V30 6871 C 664.951 5.22275 0.0513757 0
M  V30 6872 H 666.645 2.98365 -0.248704 0
M  V30 6873 H 664.191 1.4349 -0.121052 0
M  V30 6874 H 666.144 3.65733 2.09326 0
M  V30 6875 H 664.868 2.41879 2.19458 0
M  V30 6876 H 663.527 3.63882 0.445549 0
M  V30 6877 H 663.175 4.12905 2.8726 0
M  V30 6878 H 662.875 5.57057 1.86978 0
M  V30 6879 H 664.399 5.43048 2.79162 0
M  V30 6880 H 665.813 5.70778 0.537176 0
M  V30 6881 H 664.21 5.9977 -0.198977 0
M  V30 6882 H 665.28 4.76611 -0.892736 0
M  V30 6883 N 666.623 0.143563 1.56945 0
M  V30 6884 C 668.039 -0.212877 1.58174 0
M  V30 6885 C 668.239 -1.64926 1.15766 0
M  V30 6886 O 667.295 -2.37535 0.856361 0
M  V30 6887 C 668.608 0.0427573 3.0067 0
M  V30 6888 C 670.156 -0.0212221 3.12993 0
M  V30 6889 C 670.631 0.207036 4.57532 0
M  V30 6890 N 672.122 0.153845 4.62944 0
M  V30 6891 C 672.857 0.305018 5.72588 0
M  V30 6892 N 672.353 0.513722 6.90893 0
M  V30 6893 N 674.146 0.242862 5.61575 0
M  V30 6894 H 666.297 1.08148 1.82805 0
M  V30 6895 H 668.56 0.427831 0.84597 0
M  V30 6896 H 668.266 1.03672 3.36073 0
M  V30 6897 H 668.14 -0.678195 3.71053 0
M  V30 6898 H 670.527 -1.00574 2.77433 0
M  V30 6899 H 670.608 0.732004 2.45103 0
M  V30 6900 H 670.252 1.18863 4.93795 0
M  V30 6901 H 670.182 -0.566473 5.23544 0
M  V30 6902 H 672.673 -0.00294866 3.779 0
M  V30 6903 H 672.986 0.619273 7.70315 0
M  V30 6904 H 671.331 0.550001 6.9282 0
M  V30 6905 H 674.522 0.0806015 4.68031 0
M  V30 6906 H 674.695 0.364112 6.46976 0
M  V30 6907 N 668.101 -1.57061 -0.130224 0
M  V30 6908 C 669.35 -1.83446 -0.838488 0
M  V30 6909 C 669.663 -0.727468 -1.81569 0
M  V30 6910 O 670.869 -0.877394 -2.56932 0
M  V30 6911 C 669.325 -3.25201 -1.54182 0
M  V30 6912 C 668.933 -4.4388 -0.606178 0
M  V30 6913 C 670.677 -3.60844 -2.23588 0
M  V30 6914 C 668.584 -5.76661 -1.31209 0
M  V30 6915 H 667.514 -0.684185 -0.316871 0
M  V30 6916 H 670.165 -1.83273 -0.0912059 0
M  V30 6917 H 668.547 -3.1981 -2.33533 0
M  V30 6918 H 669.721 -4.60545 0.153308 0
M  V30 6919 H 668.036 -4.16395 -0.0196705 0
M  V30 6920 H 670.633 -4.57313 -2.77072 0
M  V30 6921 H 670.976 -2.87724 -3.00867 0
M  V30 6922 H 671.509 -3.67971 -1.51137 0
M  V30 6923 H 668.248 -6.52922 -0.580823 0
M  V30 6924 H 667.768 -5.63902 -2.04387 0
M  V30 6925 H 669.447 -6.20035 -1.8484 0
M  V30 6926 N 669.579 0.400081 -1.52437 0
M  V30 6927 C 670.827 1.14392 -1.6661 0
M  V30 6928 C 671.148 1.90792 -0.402927 0
M  V30 6929 O 670.418 1.87042 0.582425 0
M  V30 6930 H 668.998 0.425275 -0.614125 0
M  V30 6931 H 671.66 0.455076 -1.89513 0
M  V30 6932 H 670.756 1.85298 -2.51139 0
M  V30 6933 N 671.057 1.43213 0.657864 0
M  V30 6934 C 671.987 1.50815 1.78262 0
M  V30 6935 C 672.968 0.363211 1.66177 0
M  V30 6936 O 674.153 0.579806 1.85343 0
M  V30 6937 C 671.283 1.42625 3.16663 0
M  V30 6938 C 670.237 2.5532 3.43505 0
M  V30 6939 C 669.563 2.32184 4.81658 0
M  V30 6940 C 670.863 3.97583 3.38711 0
M  V30 6941 H 672.557 2.44954 1.72157 0
M  V30 6942 H 670.103 1.17896 0.82683 0
M  V30 6943 H 672.056 1.46548 3.95097 0
M  V30 6944 H 670.78 0.449877 3.23487 0
M  V30 6945 H 669.439 2.50742 2.6744 0
M  V30 6946 H 669.087 1.32801 4.85153 0
M  V30 6947 H 668.787 3.07724 5.00579 0
M  V30 6948 H 670.311 2.37883 5.62356 0
M  V30 6949 H 671.725 4.03673 4.07089 0
M  V30 6950 H 670.122 4.73112 3.69168 0
M  V30 6951 H 671.192 4.23049 2.36976 0
M  V30 6952 N 672.536 -0.895792 1.29666 0
M  V30 6953 C 673.784 -1.64339 1.17631 0
M  V30 6954 C 674.105 -1.93099 -0.271643 0
M  V30 6955 O 673.375 -1.55981 -1.18518 0
M  V30 6956 H 671.955 -0.609162 0.432354 0
M  V30 6957 H 674.617 -1.07389 1.62646 0
M  V30 6958 H 673.713 -2.59815 1.72924 0
M  V30 6959 O 674.053 -1.24272 -1.03144 0
M  V30 6960 H 674.744 -1.0191 -1.64724 0
M  V30 END ATOM
M  V30 BEGIN BOND
M  V30 END BOND
M  V30 END CTAB
M  END
$$$$
