drugbank_target|P9WJ63 16S/23S rRNA (cytidine-2'-O)-methyltransferase TlyA (DB00314; DB06827)
 OpenBabel12092121203D

  0  0  0     0  0            999 V3000
M  V30 BEGIN CTAB
M  V30 COUNTS 6365 6826 0 0 0
M  V30 BEGIN ATOM
M  V30 1 H -2.588 8.49073 -0.0679273 0
M  V30 2 O -1.492 9.37262 0.0843559 0
M  V30 3 P 0 8.791 0 0
M  V30 4 O 1.422 9.31096 0.027933 0
M  V30 5 O -0.36 7.77869 -1.04071 0
M  V30 6 O -0.323 8.09533 1.41463 0
M  V30 7 C -0.483 9.0349 2.53943 0
M  V30 8 C 0.057 8.35226 3.79016 0
M  V30 9 O -0.999 7.57992 4.15078 0
M  V30 10 C 1.275 7.45087 3.67298 0
M  V30 11 O 2.013 7.27796 4.85194 0
M  V30 12 C 0.606 6.17323 3.12027 0
M  V30 13 O 1.405 5.04231 3.47188 0
M  V30 14 C -0.731 6.19961 3.81809 0
M  V30 15 H -0.699 5.58218 4.73051 0
M  V30 16 H 0.484 6.21726 2.02589 0
M  V30 17 H 1.968 7.86112 2.9231 0
M  V30 18 H 0.274 9.11627 4.55076 0
M  V30 19 H 0.084 9.9573 2.34194 0
M  V30 20 H -1.546 9.2792 2.67832 0
M  V30 21 H 1.093 4.67702 4.28772 0
M  V30 22 P 2.95057 7.39546 4.75277 0
M  V30 23 O 4.37157 7.81861 5.05793 0
M  V30 24 O 2.59057 7.1065 3.32998 0
M  V30 25 O 2.62757 6.04542 5.56673 0
M  V30 26 C 2.46657 6.22839 7.02169 0
M  V30 27 C 3.00757 4.97725 7.70406 0
M  V30 28 O 1.95257 4.13208 7.58899 0
M  V30 29 C 4.22557 4.28231 7.11815 0
M  V30 30 O 4.96357 3.49945 8.01648 0
M  V30 31 C 3.55757 3.5063 5.96244 0
M  V30 32 O 4.35557 2.37008 5.64352 0
M  V30 33 C 2.21957 3.15122 6.56374 0
M  V30 34 N 1.17657 3.22311 5.55692 0
M  V30 35 C 1.34557 3.99655 4.46046 0
M  V30 36 N 0.31857 3.97599 3.63918 0
M  V30 37 C -0.56643 3.11159 4.25334 0
M  V30 38 C -1.83343 2.64972 3.85157 0
M  V30 39 N -2.43243 3.02132 2.69405 0
M  V30 40 N -2.39843 1.78482 4.74759 0
M  V30 41 C -1.79643 1.37463 5.90819 0
M  V30 42 N -0.61943 1.7733 6.31889 0
M  V30 43 C -0.04443 2.64393 5.43725 0
M  V30 44 H 2.25157 2.13823 6.99656 0
M  V30 45 H 3.43457 4.12931 5.06895 0
M  V30 46 H 4.91757 5.03285 6.70911 0
M  V30 47 H 3.22357 5.20001 8.76217 0
M  V30 48 H 3.03357 7.11046 7.35349 0
M  V30 49 H 1.40357 6.35815 7.26986 0
M  V30 50 H -2.33243 0.66574 6.53015 0
M  V30 51 H 2.24557 4.58037 4.27732 0
M  V30 52 H -3.36243 2.64828 2.45331 0
M  V30 53 H -1.95843 3.67472 2.05644 0
M  V30 54 H 4.04357 1.61619 6.13468 0
M  V30 55 P 5.90114 3.65191 7.99657 0
M  V30 56 O 7.32214 3.84292 8.48206 0
M  V30 57 O 5.54114 4.17805 6.64342 0
M  V30 58 O 5.57814 2.07613 7.95143 0
M  V30 59 C 5.41714 1.44344 9.27435 0
M  V30 60 C 5.95814 0.0220036 9.17197 0
M  V30 61 O 4.90314 -0.626794 8.61824 0
M  V30 62 C 7.17614 -0.24586 8.30336 0
M  V30 63 O 7.91414 -1.39011 8.63583 0
M  V30 64 C 6.50814 -0.273849 6.91158 0
M  V30 65 O 7.30614 -1.05728 6.029 0
M  V30 66 C 5.17014 -0.897649 7.22545 0
M  V30 67 N 4.12714 -0.292839 6.41732 0
M  V30 68 C 4.29614 0.950603 5.91308 0
M  V30 69 N 3.26914 1.37732 5.21105 0
M  V30 70 C 2.38414 0.318109 5.26039 0
M  V30 71 C 1.11714 0.146766 4.6727 0
M  V30 72 N 0.55214 -1.06525 4.95887 0
M  V30 73 C 1.15414 -2.0378 5.71347 0
M  V30 74 N 2.33114 -1.92445 6.27451 0
M  V30 75 C 2.90614 -0.715382 6.00353 0
M  V30 76 H 6.38514 0.733318 6.49674 0
M  V30 77 H 7.86814 0.60668 8.36503 0
M  V30 78 H 6.17414 -0.362662 10.1825 0
M  V30 79 H 5.98414 2.00611 10.0304 0
M  V30 80 H 4.35414 1.41843 9.55327 0
M  V30 81 H 5.19614 1.54076 6.07465 0
M  V30 82 H 6.99414 -1.95704 6.0346 0
M  V30 83 P 8.85171 -1.25109 8.70152 0
M  V30 84 O 10.2727 -1.35288 9.2132 0
M  V30 85 O 8.49171 -0.0769065 7.84762 0
M  V30 86 O 8.52871 -2.55232 7.81161 0
M  V30 87 C 8.36771 -3.79979 8.58246 0
M  V30 88 C 8.90871 -4.94023 7.72785 0
M  V30 89 O 7.85371 -5.18666 6.91125 0
M  V30 90 C 10.1267 -4.69597 6.85231 0
M  V30 91 O 10.8647 -5.83832 6.51337 0
M  V30 92 C 9.45871 -3.96706 5.66633 0
M  V30 93 O 10.2567 -4.14896 4.5003 0
M  V30 94 C 8.12071 -4.66153 5.59313 0
M  V30 95 N 7.07771 -3.71582 5.24027 0
M  V30 96 C 7.24671 -2.39715 5.48833 0
M  V30 97 N 6.21971 -1.65863 5.12845 0
M  V30 98 C 5.33471 -2.57637 4.5973 0
M  V30 99 C 4.06771 -2.40278 4.01027 0
M  V30 100 N 3.50271 -3.57711 3.59575 0
M  V30 101 C 4.10471 -4.80324 3.70476 0
M  V30 102 N 5.28171 -5.01121 4.23801 0
M  V30 103 C 5.85671 -3.84757 4.66372 0
M  V30 104 H 9.33571 -2.8955 5.86187 0
M  V30 105 H 10.8187 -4.0121 7.36511 0
M  V30 106 H 9.12471 -5.81019 8.37003 0
M  V30 107 H 8.93471 -3.73517 9.52265 0
M  V30 108 H 7.30471 -3.97163 8.80359 0
M  V30 109 H 8.14671 -1.98804 5.94332 0
M  V30 110 H 9.94471 -4.90891 4.01857 0
M  V30 111 P 11.8023 -5.75688 6.64379 0
M  V30 112 O 13.2233 -6.11915 7.01921 0
M  V30 113 O 11.4423 -4.30744 6.56026 0
M  V30 114 O 11.4793 -6.37042 5.19165 0
M  V30 115 C 11.3183 -7.83662 5.1657 0
M  V30 116 C 11.8593 -8.33398 3.83019 0
M  V30 117 O 10.8043 -8.0998 3.00999 0
M  V30 118 C 13.0773 -7.65514 3.2257 0
M  V30 119 O 13.8153 -8.4329 2.32297 0
M  V30 120 C 12.4093 -6.40075 2.62207 0
M  V30 121 O 13.2073 -5.92338 1.5428 0
M  V30 122 C 11.0713 -6.9454 2.18503 0
M  V30 123 N 10.0283 -5.95905 2.39948 0
M  V30 124 C 10.1973 -4.98383 3.32108 0
M  V30 125 N 9.17028 -4.16798 3.41761 0
M  V30 126 C 8.28528 -4.65287 2.47461 0
M  V30 127 C 7.01828 -4.18946 2.07461 0
M  V30 128 N 6.41928 -3.09661 2.60717 0
M  V30 129 N 6.45328 -4.95327 1.09101 0
M  V30 130 C 7.05528 -6.04369 0.519812 0
M  V30 131 N 8.23228 -6.50694 0.855982 0
M  V30 132 C 8.80728 -5.75818 1.84322 0
M  V30 133 H 11.1033 -7.22964 1.12076 0
M  V30 134 H 12.2863 -5.60502 3.36589 0
M  V30 135 H 13.7693 -7.35707 4.02681 0
M  V30 136 H 12.0753 -9.41302 3.90009 0
M  V30 137 H 11.8853 -8.29056 5.99158 0
M  V30 138 H 10.2553 -8.10073 5.25882 0
M  V30 139 H 6.51928 -6.55843 -0.270373 0
M  V30 140 H 11.0973 -4.88564 3.92502 0
M  V30 141 H 5.48928 -2.80523 2.27218 0
M  V30 142 H 6.89328 -2.55848 3.34465 0
M  V30 143 H 12.8953 -6.30224 0.72668 0
M  V30 144 P 14.7528 -8.4349 2.47671 0
M  V30 145 O 16.1738 -8.94263 2.59668 0
M  V30 146 O 14.3928 -7.1704 3.19006 0
M  V30 147 O 14.4298 -8.16596 0.923387 0
M  V30 148 C 14.2688 -9.38537 0.108869 0
M  V30 149 C 14.8098 -9.08175 -1.28353 0
M  V30 150 O 13.7548 -8.44131 -1.84692 0
M  V30 151 C 16.0278 -8.18386 -1.42505 0
M  V30 152 O 16.7659 -8.3501 -2.60497 0
M  V30 153 C 15.3598 -6.80225 -1.25468 0
M  V30 154 O 16.1578 -5.81716 -1.90454 0
M  V30 155 C 14.0218 -7.02416 -1.9168 0
M  V30 156 N 12.9788 -6.31033 -1.20314 0
M  V30 157 C 13.1478 -5.98817 0.0994088 0
M  V30 158 N 12.1208 -5.35403 0.621694 0
M  V30 159 C 11.2358 -5.25212 -0.43376 0
M  V30 160 C 9.96885 -4.64602 -0.519722 0
M  V30 161 N 9.40385 -4.7568 -1.76013 0
M  V30 162 C 10.0058 -5.3653 -2.83017 0
M  V30 163 N 11.1828 -5.93676 -2.79782 0
M  V30 164 C 11.7578 -5.84061 -1.56249 0
M  V30 165 H 15.2368 -6.53498 -0.198729 0
M  V30 166 H 16.7198 -8.36622 -0.589963 0
M  V30 167 H 15.0258 -10.0273 -1.8081 0
M  V30 168 H 14.8358 -10.2138 0.558219 0
M  V30 169 H 13.2058 -9.6579 0.0444202 0
M  V30 170 H 14.0478 -6.23209 0.660562 0
M  V30 171 H 15.8458 -5.69466 -2.79593 0
M  V30 172 P 17.7034 -8.4349 -2.47671 0
M  V30 173 O 19.1254 -8.92593 -2.65 0
M  V30 174 O 17.3434 -7.7568 -1.19296 0
M  V30 175 O 17.3804 -7.36886 -3.63805 0
M  V30 176 C 17.2204 -7.95349 -4.982 0
M  V30 177 C 17.7604 -6.94612 -5.98974 0
M  V30 178 O 16.7044 -6.10347 -6.11815 0
M  V30 179 C 18.9784 -6.11426 -5.62335 0
M  V30 180 O 19.7164 -5.6162 -6.70584 0
M  V30 181 C 18.3094 -5.04409 -4.73308 0
M  V30 182 O 19.1084 -3.85992 -4.75183 0
M  V30 183 C 16.9724 -4.8728 -5.41006 0
M  V30 184 H 17.0044 -4.02333 -6.11157 0
M  V30 185 H 18.1874 -5.39466 -3.69543 0
M  V30 186 H 19.6714 -6.71916 -5.01943 0
M  V30 187 H 17.9774 -7.4649 -6.93477 0
M  V30 188 H 17.7874 -8.89416 -5.05237 0
M  V30 189 H 16.1574 -8.14876 -5.18409 0
M  V30 190 H 18.7964 -3.27957 -5.4317 0
M  V30 191 P 20.654 -5.75688 -6.64379 0
M  V30 192 O 22.076 -6.07627 -7.05504 0
M  V30 193 O 20.294 -5.88047 -5.19722 0
M  V30 194 O 20.331 -4.2322 -7.04443 0
M  V30 195 C 20.171 -3.99743 -8.4911 0
M  V30 196 C 20.711 -2.60516 -8.79425 0
M  V30 197 O 19.655 -1.82684 -8.4467 0
M  V30 198 C 21.929 -2.10343 -8.03628 0
M  V30 199 O 22.667 -1.09919 -8.67766 0
M  V30 200 C 21.26 -1.68446 -6.70876 0
M  V30 201 O 22.059 -0.678137 -6.08433 0
M  V30 202 C 19.923 -1.17436 -7.18567 0
M  V30 203 H 19.955 -0.0804732 -7.31656 0
M  V30 204 H 21.138 -2.54037 -6.02537 0
M  V30 205 H 22.622 -2.93881 -7.85526 0
M  V30 206 H 20.928 -2.53065 -9.86973 0
M  V30 207 H 20.738 -4.75072 -9.05887 0
M  V30 208 H 19.108 -4.05244 -8.76668 0
M  V30 209 H 21.747 0.177647 -6.34251 0
M  V30 210 P 23.6046 -1.25109 -8.70152 0
M  V30 211 O 25.0256 -1.29758 -9.22115 0
M  V30 212 O 23.2446 -2.13714 -7.55141 0
M  V30 213 O 23.2816 0.248149 -8.21425 0
M  V30 214 C 23.1206 1.22792 -9.30533 0
M  V30 215 C 23.6616 2.56293 -8.80664 0
M  V30 216 O 22.6066 3.02944 -8.09255 0
M  V30 217 C 24.8796 2.57523 -7.89775 0
M  V30 218 O 25.6176 3.7668 -7.89438 0
M  V30 219 C 24.2116 2.20997 -6.55446 0
M  V30 220 O 25.0096 2.71302 -5.48691 0
M  V30 221 C 22.8736 2.89693 -6.67988 0
M  V30 222 N 21.8306 2.08895 -6.07487 0
M  V30 223 C 21.9996 0.753809 -5.94137 0
M  V30 224 N 20.9726 0.146592 -5.38801 0
M  V30 225 C 20.0876 1.1768 -5.13693 0
M  V30 226 C 18.8206 1.17563 -4.52477 0
M  V30 227 N 18.2216 0.057481 -4.04759 0
M  V30 228 N 18.2556 2.41918 -4.45789 0
M  V30 229 C 18.8576 3.56493 -4.90792 0
M  V30 230 N 20.0346 3.61423 -5.47817 0
M  V30 231 C 20.6096 2.37779 -5.5588 0
M  V30 232 H 22.9056 3.8874 -6.19774 0
M  V30 233 H 24.0886 1.12673 -6.44018 0
M  V30 234 H 25.5716 1.7746 -8.19711 0
M  V30 235 H 23.8776 3.21673 -9.66791 0
M  V30 236 H 23.6876 0.901032 -10.1892 0
M  V30 237 H 22.0576 1.33049 -9.56592 0
M  V30 238 H 18.3216 4.49919 -4.77947 0
M  V30 239 H 22.8996 0.233081 -6.26266 0
M  V30 240 H 17.2916 0.119831 -3.60801 0
M  V30 241 H 18.6956 -0.852272 -4.12385 0
M  V30 242 H 24.6976 3.5779 -5.23879 0
M  V30 243 P 26.5551 3.65191 -7.99657 0
M  V30 244 O 27.9771 3.89332 -8.45794 0
M  V30 245 O 26.1951 2.28472 -7.50807 0
M  V30 246 O 26.2321 4.64972 -6.77611 0
M  V30 247 C 26.0721 6.06319 -7.16352 0
M  V30 248 C 26.6121 6.91731 -6.02299 0
M  V30 249 O 25.5561 6.92449 -5.17064 0
M  V30 250 C 27.8301 6.43627 -5.25174 0
M  V30 251 O 28.5681 7.43686 -4.60469 0
M  V30 252 C 27.1611 5.40275 -4.31916 0
M  V30 253 O 27.9601 5.25279 -3.14438 0
M  V30 254 C 25.8241 6.04847 -4.05327 0
M  V30 255 H 25.8561 6.62195 -3.11261 0
M  V30 256 H 27.0391 4.42556 -4.81383 0
M  V30 257 H 28.5231 5.92458 -5.93643 0
M  V30 258 H 26.8291 7.92655 -6.402 0
M  V30 259 H 26.6391 6.26671 -8.0846 0
M  V30 260 H 25.0091 6.29101 -7.32804 0
M  V30 261 H 27.6481 5.84315 -2.47318 0
M  V30 262 P 29.5057 7.39546 -4.75277 0
M  V30 263 O 30.9277 7.84798 -5.01039 0
M  V30 264 O 29.1457 5.9812 -5.08098 0
M  V30 265 O 29.1827 7.57503 -3.1866 0
M  V30 266 C 29.0227 8.97357 -2.74833 0
M  V30 267 C 29.5627 9.07548 -1.32709 0
M  V30 268 O 28.5067 8.62072 -0.606159 0
M  V30 269 C 30.7807 8.25383 -0.938334 0
M  V30 270 O 31.5187 8.74577 0.146954 0
M  V30 271 C 30.1117 6.8802 -0.712559 0
M  V30 272 O 30.9107 6.1189 0.194655 0
M  V30 273 C 28.7747 7.27966 -0.139777 0
M  V30 274 H 28.8067 7.25354 0.961601 0
M  V30 275 H 29.9897 6.32557 -1.65702 0
M  V30 276 H 31.4737 8.19355 -1.79097 0
M  V30 277 H 29.7797 10.1294 -1.10029 0
M  V30 278 H 29.5897 9.64276 -3.41316 0
M  V30 279 H 27.9597 9.25417 -2.76357 0
M  V30 280 H 30.5987 6.25267 1.07847 0
M  V30 281 P 32.4563 8.791 -9.96115e-15 0
M  V30 282 O 33.8783 9.31096 0.027933 0
M  V30 283 O 32.0963 7.77869 -1.04071 0
M  V30 284 O 32.1333 8.09533 1.41463 0
M  V30 285 C 31.9733 9.0349 2.53943 0
M  V30 286 C 32.5133 8.35226 3.79016 0
M  V30 287 O 31.4573 7.57992 4.15078 0
M  V30 288 C 33.7313 7.45087 3.67298 0
M  V30 289 O 34.4693 7.27796 4.85194 0
M  V30 290 C 33.0623 6.17323 3.12027 0
M  V30 291 O 33.8613 5.04231 3.47188 0
M  V30 292 C 31.7253 6.19961 3.81809 0
M  V30 293 H 31.7573 5.58218 4.73051 0
M  V30 294 H 32.9403 6.21726 2.02589 0
M  V30 295 H 34.4243 7.86112 2.9231 0
M  V30 296 H 32.7303 9.11627 4.55076 0
M  V30 297 H 32.5403 9.9573 2.34194 0
M  V30 298 H 30.9103 9.2792 2.67832 0
M  V30 299 H 33.5493 4.67702 4.28772 0
M  V30 300 P 35.4068 7.39546 4.75277 0
M  V30 301 O 36.8278 7.81861 5.05793 0
M  V30 302 O 35.0468 7.1065 3.32998 0
M  V30 303 O 35.0838 6.04542 5.56673 0
M  V30 304 C 34.9228 6.22839 7.02169 0
M  V30 305 C 35.4638 4.97725 7.70406 0
M  V30 306 O 34.4088 4.13208 7.58899 0
M  V30 307 C 36.6818 4.28231 7.11815 0
M  V30 308 O 37.4198 3.49945 8.01648 0
M  V30 309 C 36.0138 3.5063 5.96244 0
M  V30 310 O 36.8118 2.37008 5.64352 0
M  V30 311 C 34.6758 3.15122 6.56374 0
M  V30 312 N 33.6328 3.22311 5.55692 0
M  V30 313 C 33.8018 3.99655 4.46046 0
M  V30 314 N 32.7748 3.97599 3.63918 0
M  V30 315 C 31.8898 3.11159 4.25334 0
M  V30 316 C 30.6228 2.64972 3.85157 0
M  V30 317 N 30.0578 1.78482 4.74759 0
M  V30 318 C 30.6598 1.37463 5.90819 0
M  V30 319 N 31.8368 1.7733 6.31889 0
M  V30 320 C 32.4118 2.64393 5.43725 0
M  V30 321 H 35.8908 4.12931 5.06895 0
M  V30 322 H 37.3738 5.03285 6.70911 0
M  V30 323 H 35.6798 5.20001 8.76217 0
M  V30 324 H 35.4898 7.11046 7.35349 0
M  V30 325 H 33.8598 6.35815 7.26986 0
M  V30 326 H 34.7018 4.58037 4.27732 0
M  V30 327 H 36.4998 1.61619 6.13468 0
M  V30 328 P 38.3574 3.65191 7.99657 0
M  V30 329 O 39.7784 3.84292 8.48206 0
M  V30 330 O 37.9974 4.17805 6.64342 0
M  V30 331 O 38.0344 2.07613 7.95143 0
M  V30 332 C 37.8734 1.44344 9.27435 0
M  V30 333 C 38.4144 0.0220036 9.17197 0
M  V30 334 O 37.3594 -0.626794 8.61824 0
M  V30 335 C 39.6324 -0.24586 8.30336 0
M  V30 336 O 40.3704 -1.39011 8.63583 0
M  V30 337 C 38.9644 -0.273849 6.91158 0
M  V30 338 O 39.7624 -1.05728 6.029 0
M  V30 339 C 37.6264 -0.897649 7.22545 0
M  V30 340 N 36.5834 -0.292839 6.41732 0
M  V30 341 C 36.7524 0.950603 5.91308 0
M  V30 342 N 35.7254 1.37732 5.21105 0
M  V30 343 C 34.8404 0.318109 5.26039 0
M  V30 344 C 33.5734 0.146766 4.6727 0
M  V30 345 N 33.0084 -1.06525 4.95887 0
M  V30 346 C 33.6104 -2.0378 5.71347 0
M  V30 347 N 34.7874 -1.92445 6.27451 0
M  V30 348 C 35.3624 -0.715382 6.00353 0
M  V30 349 H 38.8414 0.733318 6.49674 0
M  V30 350 H 40.3244 0.60668 8.36503 0
M  V30 351 H 38.6304 -0.362662 10.1825 0
M  V30 352 H 38.4404 2.00611 10.0304 0
M  V30 353 H 36.8104 1.41843 9.55327 0
M  V30 354 H 37.6524 1.54076 6.07465 0
M  V30 355 H 39.4504 -1.95704 6.0346 0
M  V30 356 P 41.308 -1.25109 8.70152 0
M  V30 357 O 42.73 -1.35303 9.21419 0
M  V30 358 O 40.948 -0.0769065 7.84762 0
M  V30 359 O 40.985 -2.55232 7.81161 0
M  V30 360 C 40.825 -3.79939 8.58154 0
M  V30 361 C 41.365 -4.93969 7.72701 0
M  V30 362 O 40.31 -5.18726 6.91205 0
M  V30 363 C 42.583 -4.69597 6.85231 0
M  V30 364 O 43.321 -5.83832 6.51337 0
M  V30 365 C 41.915 -3.96706 5.66633 0
M  V30 366 O 42.713 -4.15346 4.49615 0
M  V30 367 C 40.577 -4.66153 5.59313 0
M  V30 368 N 39.534 -3.71582 5.24027 0
M  V30 369 C 39.596 -2.46018 5.67902 0
M  V30 370 N 38.551 -1.74868 5.24518 0
M  V30 371 C 37.817 -2.61333 4.54528 0
M  V30 372 C 36.511 -2.46162 3.95441 0
M  V30 373 O 35.778 -1.46013 3.94122 0
M  V30 374 N 36.081 -3.59334 3.34752 0
M  V30 375 C 36.83 -4.79605 3.3023 0
M  V30 376 N 36.233 -5.82109 2.6065 0
M  V30 377 N 37.983 -4.97402 3.8843 0
M  V30 378 C 38.44 -3.86258 4.50476 0
M  V30 379 H 40.609 -5.47679 4.85214 0
M  V30 380 H 41.792 -2.88964 5.86476 0
M  V30 381 H 43.277 -4.01947 7.36109 0
M  V30 382 H 41.582 -5.80182 8.37584 0
M  V30 383 H 41.392 -3.73517 9.52265 0
M  V30 384 H 39.761 -3.97163 8.80359 0
M  V30 385 H 35.185 -3.5825 2.90294 0
M  V30 386 H 40.392 -2.06161 6.30974 0
M  V30 387 H 35.322 -5.66979 2.15354 0
M  V30 388 H 36.698 -6.73686 2.54344 0
M  V30 389 H 42.402 -4.90891 4.01857 0
M  V30 390 P 44.2585 -5.75688 6.64379 0
M  V30 391 O 45.6805 -6.11849 7.01846 0
M  V30 392 O 43.8985 -4.30744 6.56026 0
M  V30 393 O 43.9355 -6.37042 5.19165 0
M  V30 394 C 43.7755 -7.83578 5.16515 0
M  V30 395 C 44.3155 -8.33398 3.83019 0
M  V30 396 O 43.2595 -8.10074 3.01034 0
M  V30 397 C 45.5335 -7.65514 3.2257 0
M  V30 398 O 46.2715 -8.4329 2.32297 0
M  V30 399 C 44.8645 -6.40075 2.62207 0
M  V30 400 O 45.6635 -5.92589 1.53712 0
M  V30 401 C 43.5275 -6.9454 2.18503 0
M  V30 402 H 43.5595 -7.23063 1.12091 0
M  V30 403 H 44.7425 -5.6025 3.37201 0
M  V30 404 H 46.2265 -7.35707 4.02681 0
M  V30 405 H 44.5325 -9.40912 3.9095 0
M  V30 406 H 44.3425 -8.29056 5.99158 0
M  V30 407 H 42.7125 -8.10073 5.25882 0
M  V30 408 H 45.3515 -6.30324 0.726794 0
M  V30 409 P 47.2091 -8.4349 2.47671 0
M  V30 410 O 48.6301 -8.94263 2.59668 0
M  V30 411 O 46.8491 -7.1704 3.19006 0
M  V30 412 O 46.8861 -8.16596 0.923387 0
M  V30 413 C 46.7251 -9.38537 0.108869 0
M  V30 414 C 47.2661 -9.08175 -1.28353 0
M  V30 415 O 46.2111 -8.44131 -1.84692 0
M  V30 416 C 48.4841 -8.18386 -1.42505 0
M  V30 417 O 49.2221 -8.3501 -2.60497 0
M  V30 418 C 47.8161 -6.80225 -1.25468 0
M  V30 419 O 48.6141 -5.81716 -1.90454 0
M  V30 420 C 46.4781 -7.02416 -1.9168 0
M  V30 421 N 45.4351 -6.31033 -1.20314 0
M  V30 422 C 45.6041 -5.98817 0.0994088 0
M  V30 423 N 44.5771 -5.35403 0.621694 0
M  V30 424 C 43.6921 -5.25212 -0.43376 0
M  V30 425 C 42.4251 -4.64602 -0.519722 0
M  V30 426 N 41.8261 -4.01457 0.519136 0
M  V30 427 N 41.8601 -4.7568 -1.76013 0
M  V30 428 C 42.4621 -5.3653 -2.83017 0
M  V30 429 N 43.6391 -5.93676 -2.79782 0
M  V30 430 C 44.2141 -5.84061 -1.56249 0
M  V30 431 H 46.5101 -6.68789 -2.9658 0
M  V30 432 H 47.6931 -6.53498 -0.198729 0
M  V30 433 H 49.1761 -8.36622 -0.589963 0
M  V30 434 H 47.4821 -10.0273 -1.8081 0
M  V30 435 H 47.2921 -10.2138 0.558219 0
M  V30 436 H 45.6621 -9.6579 0.0444202 0
M  V30 437 H 41.9261 -5.37113 -3.77321 0
M  V30 438 H 46.5041 -6.23209 0.660562 0
M  V30 439 H 40.8961 -3.58834 0.394862 0
M  V30 440 H 42.3001 -3.96059 1.43048 0
M  V30 441 H 48.3021 -5.69466 -2.79593 0
M  V30 442 P 50.1597 -8.4349 -2.47671 0
M  V30 443 O 51.5807 -8.92689 -2.65029 0
M  V30 444 O 49.7997 -7.7568 -1.19296 0
M  V30 445 O 49.8367 -7.36886 -3.63805 0
M  V30 446 C 49.6757 -7.95433 -4.98253 0
M  V30 447 C 50.2167 -6.94612 -5.98974 0
M  V30 448 O 49.1617 -6.10277 -6.11744 0
M  V30 449 C 51.4347 -6.11426 -5.62335 0
M  V30 450 O 52.1727 -5.6162 -6.70584 0
M  V30 451 C 50.7667 -5.04409 -4.73308 0
M  V30 452 O 51.5647 -3.86404 -4.74719 0
M  V30 453 C 49.4287 -4.8728 -5.41006 0
M  V30 454 N 48.3857 -4.65812 -4.42377 0
M  V30 455 C 48.5547 -5.09132 -3.15382 0
M  V30 456 N 47.5277 -4.84021 -2.3716 0
M  V30 457 C 46.6427 -4.18386 -3.20441 0
M  V30 458 C 45.3757 -3.6275 -2.94905 0
M  V30 459 N 44.8107 -3.05008 -4.05243 0
M  V30 460 C 45.4127 -2.98348 -5.28159 0
M  V30 461 N 46.5897 -3.48171 -5.56333 0
M  V30 462 C 47.1647 -4.06869 -4.47212 0
M  V30 463 H 50.6437 -5.39013 -3.70026 0
M  V30 464 H 52.1267 -6.71916 -5.01943 0
M  V30 465 H 50.4327 -7.45796 -6.94223 0
M  V30 466 H 50.2427 -8.89416 -5.05237 0
M  V30 467 H 48.6127 -8.14876 -5.18409 0
M  V30 468 H 49.4547 -5.59989 -2.81362 0
M  V30 469 H 51.2527 -3.27906 -5.43085 0
M  V30 470 P 53.1103 -5.75688 -6.64379 0
M  V30 471 O 54.5323 -6.07627 -7.05504 0
M  V30 472 O 52.7503 -5.88047 -5.19722 0
M  V30 473 O 52.7873 -4.2322 -7.04443 0
M  V30 474 C 52.6273 -3.99743 -8.4911 0
M  V30 475 C 53.1673 -2.60516 -8.79425 0
M  V30 476 O 52.1113 -1.82684 -8.4467 0
M  V30 477 C 54.3853 -2.10343 -8.03628 0
M  V30 478 O 55.1233 -1.09919 -8.67766 0
M  V30 479 C 53.7163 -1.68446 -6.70876 0
M  V30 480 O 54.5153 -0.678137 -6.08433 0
M  V30 481 C 52.3793 -1.17436 -7.18567 0
M  V30 482 H 52.4113 -0.0804732 -7.31656 0
M  V30 483 H 53.5943 -2.54037 -6.02537 0
M  V30 484 H 55.0783 -2.93881 -7.85526 0
M  V30 485 H 53.3843 -2.53065 -9.86973 0
M  V30 486 H 53.1943 -4.75072 -9.05887 0
M  V30 487 H 51.5643 -4.05244 -8.76668 0
M  V30 488 H 54.2033 0.177647 -6.34251 0
M  V30 489 P 56.0608 -1.25109 -8.70152 0
M  V30 490 O 57.4818 -1.29758 -9.22115 0
M  V30 491 O 55.7008 -2.13714 -7.55141 0
M  V30 492 O 55.7378 0.248149 -8.21425 0
M  V30 493 C 55.5768 1.22792 -9.30533 0
M  V30 494 C 56.1178 2.56293 -8.80664 0
M  V30 495 O 55.0628 3.02944 -8.09255 0
M  V30 496 C 57.3358 2.57523 -7.89775 0
M  V30 497 O 58.0738 3.7668 -7.89438 0
M  V30 498 C 56.6678 2.20997 -6.55446 0
M  V30 499 O 57.4658 2.71302 -5.48691 0
M  V30 500 C 55.3298 2.89693 -6.67988 0
M  V30 501 N 54.2868 2.08895 -6.07487 0
M  V30 502 C 54.4558 0.753809 -5.94137 0
M  V30 503 N 53.4288 0.146592 -5.38801 0
M  V30 504 C 52.5438 1.1768 -5.13693 0
M  V30 505 C 51.2768 1.17563 -4.52477 0
M  V30 506 N 50.7118 2.41918 -4.45789 0
M  V30 507 C 51.3138 3.56493 -4.90792 0
M  V30 508 N 52.4908 3.61423 -5.47817 0
M  V30 509 C 53.0658 2.37779 -5.5588 0
M  V30 510 H 56.5448 1.12673 -6.44018 0
M  V30 511 H 58.0278 1.7746 -8.19711 0
M  V30 512 H 56.3338 3.21673 -9.66791 0
M  V30 513 H 56.1438 0.901032 -10.1892 0
M  V30 514 H 54.5138 1.33049 -9.56592 0
M  V30 515 H 55.3558 0.233081 -6.26266 0
M  V30 516 H 57.1538 3.5779 -5.23879 0
M  V30 517 P 59.0114 3.65191 -7.99657 0
M  V30 518 O 60.4334 3.89332 -8.45794 0
M  V30 519 O 58.6514 2.28472 -7.50807 0
M  V30 520 O 58.6884 4.64972 -6.77611 0
M  V30 521 C 58.5284 6.06319 -7.16352 0
M  V30 522 C 59.0684 6.91731 -6.02299 0
M  V30 523 O 58.0124 6.92449 -5.17064 0
M  V30 524 C 60.2864 6.43627 -5.25174 0
M  V30 525 O 61.0244 7.43686 -4.60469 0
M  V30 526 C 59.6174 5.40275 -4.31916 0
M  V30 527 O 60.4164 5.25279 -3.14438 0
M  V30 528 C 58.2804 6.04847 -4.05327 0
M  V30 529 H 58.3124 6.62195 -3.11261 0
M  V30 530 H 59.4954 4.42556 -4.81383 0
M  V30 531 H 60.9794 5.92458 -5.93643 0
M  V30 532 H 59.2854 7.92655 -6.402 0
M  V30 533 H 59.0954 6.26671 -8.0846 0
M  V30 534 H 57.4654 6.29101 -7.32804 0
M  V30 535 H 60.1044 5.84315 -2.47318 0
M  V30 536 P 61.962 7.39546 -4.75277 0
M  V30 537 O 63.384 7.84798 -5.01039 0
M  V30 538 O 61.602 5.9812 -5.08098 0
M  V30 539 O 61.639 7.57503 -3.1866 0
M  V30 540 C 61.479 8.97357 -2.74833 0
M  V30 541 C 62.019 9.07548 -1.32709 0
M  V30 542 O 60.963 8.62072 -0.606159 0
M  V30 543 C 63.237 8.25383 -0.938334 0
M  V30 544 O 63.975 8.74577 0.146954 0
M  V30 545 C 62.568 6.8802 -0.712559 0
M  V30 546 O 63.367 6.1189 0.194655 0
M  V30 547 C 61.231 7.27966 -0.139777 0
M  V30 548 H 61.263 7.25354 0.961601 0
M  V30 549 H 62.446 6.32557 -1.65702 0
M  V30 550 H 63.93 8.19355 -1.79097 0
M  V30 551 H 62.236 10.1294 -1.10029 0
M  V30 552 H 62.046 9.64276 -3.41316 0
M  V30 553 H 60.416 9.25417 -2.76357 0
M  V30 554 H 63.055 6.25267 1.07847 0
M  V30 555 P 64.9125 8.791 -3.55383e-14 0
M  V30 556 O 66.3335 9.31196 0.027936 0
M  V30 557 O 64.5525 7.77869 -1.04071 0
M  V30 558 O 64.5895 8.09533 1.41463 0
M  V30 559 C 64.4285 9.03587 2.5397 0
M  V30 560 C 64.9695 8.35226 3.79016 0
M  V30 561 O 63.9145 7.57904 4.1503 0
M  V30 562 C 66.1875 7.45087 3.67298 0
M  V30 563 O 66.9255 7.27796 4.85194 0
M  V30 564 C 65.5195 6.17323 3.12027 0
M  V30 565 O 66.3175 5.04496 3.46627 0
M  V30 566 C 64.1815 6.19961 3.81809 0
M  V30 567 N 63.1385 5.71575 2.93223 0
M  V30 568 C 63.3075 5.77362 1.59168 0
M  V30 569 N 62.2805 5.3123 0.911893 0
M  V30 570 C 61.3955 4.91717 1.89588 0
M  V30 571 C 60.1285 4.3114 1.8076 0
M  V30 572 N 59.5295 3.99821 0.632928 0
M  V30 573 N 59.5635 4.06823 3.02898 0
M  V30 574 C 60.1655 4.35062 4.22711 0
M  V30 575 N 61.3425 4.90805 4.35707 0
M  V30 576 C 61.9175 5.16382 3.14469 0
M  V30 577 H 64.2135 5.58142 4.72986 0
M  V30 578 H 65.3965 6.21428 2.0318 0
M  V30 579 H 66.8795 7.86112 2.9231 0
M  V30 580 H 65.1855 9.11171 4.55987 0
M  V30 581 H 64.9955 9.9573 2.34194 0
M  V30 582 H 63.3655 9.2792 2.67832 0
M  V30 583 H 59.6295 4.09052 5.13359 0
M  V30 584 H 64.2075 6.16575 1.12198 0
M  V30 585 H 58.5995 3.55423 0.632085 0
M  V30 586 H 60.0035 4.20317 -0.256712 0
M  V30 587 H 66.0055 4.67628 4.28704 0
M  V30 588 P 67.8631 7.39546 4.75277 0
M  V30 589 O 69.2841 7.81861 5.05793 0
M  V30 590 O 67.5031 7.1065 3.32998 0
M  V30 591 O 67.5401 6.04542 5.56673 0
M  V30 592 C 67.3791 6.22839 7.02169 0
M  V30 593 C 67.9201 4.97725 7.70406 0
M  V30 594 O 66.8651 4.13208 7.58899 0
M  V30 595 C 69.1381 4.28231 7.11815 0
M  V30 596 O 69.8761 3.49945 8.01648 0
M  V30 597 C 68.4701 3.5063 5.96244 0
M  V30 598 O 69.2681 2.37008 5.64352 0
M  V30 599 C 67.1321 3.15122 6.56374 0
M  V30 600 N 66.0891 3.22311 5.55692 0
M  V30 601 C 66.2581 3.99655 4.46046 0
M  V30 602 N 65.2311 3.97599 3.63918 0
M  V30 603 C 64.3461 3.11159 4.25334 0
M  V30 604 C 63.0791 2.64972 3.85157 0
M  V30 605 N 62.4801 3.02132 2.69405 0
M  V30 606 N 62.5141 1.78482 4.74759 0
M  V30 607 C 63.1161 1.37463 5.90819 0
M  V30 608 N 64.2931 1.7733 6.31889 0
M  V30 609 C 64.8681 2.64393 5.43725 0
M  V30 610 H 67.1641 2.13823 6.99656 0
M  V30 611 H 68.3471 4.12931 5.06895 0
M  V30 612 H 69.8301 5.03285 6.70911 0
M  V30 613 H 68.1361 5.20001 8.76217 0
M  V30 614 H 67.9461 7.11046 7.35349 0
M  V30 615 H 66.3161 6.35815 7.26986 0
M  V30 616 H 62.5801 0.66574 6.53015 0
M  V30 617 H 67.1581 4.58037 4.27732 0
M  V30 618 H 61.5501 2.64828 2.45331 0
M  V30 619 H 62.9541 3.67472 2.05644 0
M  V30 620 H 68.9561 1.61619 6.13468 0
M  V30 621 P 70.8137 3.65191 7.99657 0
M  V30 622 O 72.2357 3.8425 8.48115 0
M  V30 623 O 70.4537 4.17805 6.64342 0
M  V30 624 O 70.4907 2.07613 7.95143 0
M  V30 625 C 70.3307 1.44328 9.27336 0
M  V30 626 C 70.8707 0.0220036 9.17197 0
M  V30 627 O 69.8147 -0.626867 8.61923 0
M  V30 628 C 72.0887 -0.24586 8.30336 0
M  V30 629 O 72.8267 -1.39011 8.63583 0
M  V30 630 C 71.4197 -0.273849 6.91158 0
M  V30 631 O 72.2187 -1.06348 6.02892 0
M  V30 632 C 70.0827 -0.897649 7.22545 0
M  V30 633 H 70.1147 -1.9841 7.04286 0
M  V30 634 H 71.2977 0.739928 6.497 0
M  V30 635 H 72.7817 0.60668 8.36503 0
M  V30 636 H 71.0877 -0.352479 10.1829 0
M  V30 637 H 70.8977 2.00611 10.0304 0
M  V30 638 H 69.2677 1.41843 9.55327 0
M  V30 639 H 71.9067 -1.95734 6.03555 0
M  V30 640 P 73.7642 -1.25109 8.70152 0
M  V30 641 O 75.1862 -1.35274 9.21221 0
M  V30 642 O 73.4042 -0.0769065 7.84762 0
M  V30 643 O 73.4412 -2.55232 7.81161 0
M  V30 644 C 73.2812 -3.79939 8.58154 0
M  V30 645 C 73.8212 -4.94023 7.72785 0
M  V30 646 O 72.7652 -5.18726 6.91205 0
M  V30 647 C 75.0392 -4.69597 6.85231 0
M  V30 648 O 75.7772 -5.83832 6.51337 0
M  V30 649 C 74.3702 -3.96706 5.66633 0
M  V30 650 O 75.1692 -4.15414 4.49689 0
M  V30 651 C 73.0332 -4.66153 5.59313 0
M  V30 652 H 73.0652 -5.47679 4.85214 0
M  V30 653 H 74.2482 -2.89008 5.86566 0
M  V30 654 H 75.7322 -4.0121 7.36511 0
M  V30 655 H 74.0382 -5.80182 8.37584 0
M  V30 656 H 73.8482 -3.73517 9.52265 0
M  V30 657 H 72.2182 -3.97163 8.80359 0
M  V30 658 H 74.8572 -4.90969 4.01921 0
M  V30 659 P 76.7148 -5.75688 6.64379 0
M  V30 660 O 78.1368 -6.11849 7.01846 0
M  V30 661 O 76.3548 -4.30744 6.56026 0
M  V30 662 O 76.3918 -6.37042 5.19165 0
M  V30 663 C 76.2318 -7.83578 5.16515 0
M  V30 664 C 76.7718 -8.33398 3.83019 0
M  V30 665 O 75.7158 -8.10074 3.01034 0
M  V30 666 C 77.9898 -7.65514 3.2257 0
M  V30 667 O 78.7278 -8.4329 2.32297 0
M  V30 668 C 77.3208 -6.40075 2.62207 0
M  V30 669 O 78.1198 -5.92589 1.53712 0
M  V30 670 C 75.9838 -6.9454 2.18503 0
M  V30 671 H 76.0158 -7.23063 1.12091 0
M  V30 672 H 77.1988 -5.6025 3.37201 0
M  V30 673 H 78.6828 -7.35707 4.02681 0
M  V30 674 H 76.9888 -9.40912 3.9095 0
M  V30 675 H 76.7988 -8.29056 5.99158 0
M  V30 676 H 75.1688 -8.10073 5.25882 0
M  V30 677 H 77.8078 -6.30324 0.726794 0
M  V30 678 P 79.6654 -8.4349 2.47671 0
M  V30 679 O 81.0874 -8.94359 2.59696 0
M  V30 680 O 79.3054 -7.1704 3.19006 0
M  V30 681 O 79.3424 -8.16596 0.923387 0
M  V30 682 C 79.1824 -9.38437 0.108857 0
M  V30 683 C 79.7224 -9.08076 -1.28339 0
M  V30 684 O 78.6674 -8.44229 -1.84713 0
M  V30 685 C 80.9404 -8.18386 -1.42505 0
M  V30 686 O 81.6784 -8.3501 -2.60497 0
M  V30 687 C 80.2724 -6.80225 -1.25468 0
M  V30 688 O 81.0704 -5.81526 -1.91035 0
M  V30 689 C 78.9344 -7.02416 -1.9168 0
M  V30 690 N 77.8914 -6.31033 -1.20314 0
M  V30 691 C 77.9534 -6.18781 0.121293 0
M  V30 692 N 76.9084 -5.49762 0.588272 0
M  V30 693 C 76.1744 -5.22015 -0.488988 0
M  V30 694 C 74.8684 -4.61966 -0.596448 0
M  V30 695 O 74.1354 -4.19162 0.309059 0
M  V30 696 N 74.4384 -4.53773 -1.878 0
M  V30 697 C 75.1874 -4.99623 -2.99082 0
M  V30 698 N 74.5904 -4.78912 -4.21227 0
M  V30 699 N 76.3404 -5.59957 -2.91093 0
M  V30 700 C 76.7974 -5.70225 -1.64218 0
M  V30 701 H 78.9664 -6.6888 -2.96621 0
M  V30 702 H 80.1494 -6.53517 -0.192194 0
M  V30 703 H 81.6344 -8.36563 -0.598329 0
M  V30 704 H 79.9394 -10.0291 -1.79807 0
M  V30 705 H 79.7494 -10.2138 0.558219 0
M  V30 706 H 78.1184 -9.6579 0.0444202 0
M  V30 707 H 73.5424 -4.12883 -2.05283 0
M  V30 708 H 78.7494 -6.59596 0.745856 0
M  V30 709 H 73.6794 -4.31425 -4.2628 0
M  V30 710 H 75.0554 -5.11219 -5.07148 0
M  V30 711 H 80.7594 -5.69466 -2.79593 0
M  V30 712 P 82.616 -8.4349 -2.47671 0
M  V30 713 O 84.037 -8.92689 -2.65029 0
M  V30 714 O 82.256 -7.7568 -1.19296 0
M  V30 715 O 82.293 -7.36886 -3.63805 0
M  V30 716 C 82.132 -7.95433 -4.98253 0
M  V30 717 C 82.673 -6.94612 -5.98974 0
M  V30 718 O 81.618 -6.10277 -6.11744 0
M  V30 719 C 83.891 -6.11426 -5.62335 0
M  V30 720 O 84.629 -5.6162 -6.70584 0
M  V30 721 C 83.223 -5.04409 -4.73308 0
M  V30 722 O 84.021 -3.86404 -4.74719 0
M  V30 723 C 81.885 -4.8728 -5.41006 0
M  V30 724 N 80.842 -4.65812 -4.42377 0
M  V30 725 C 81.011 -5.09132 -3.15382 0
M  V30 726 N 79.984 -4.84021 -2.3716 0
M  V30 727 C 79.099 -4.18386 -3.20441 0
M  V30 728 C 77.832 -3.6275 -2.94905 0
M  V30 729 N 77.233 -3.65794 -1.73372 0
M  V30 730 N 77.267 -3.05008 -4.05243 0
M  V30 731 C 77.869 -2.98348 -5.28159 0
M  V30 732 N 79.046 -3.48171 -5.56333 0
M  V30 733 C 79.621 -4.06869 -4.47212 0
M  V30 734 H 81.917 -4.02278 -6.11074 0
M  V30 735 H 83.1 -5.39013 -3.70026 0
M  V30 736 H 84.583 -6.71916 -5.01943 0
M  V30 737 H 82.889 -7.45796 -6.94223 0
M  V30 738 H 82.699 -8.89416 -5.05237 0
M  V30 739 H 81.069 -8.14876 -5.18409 0
M  V30 740 H 77.333 -2.47853 -6.07807 0
M  V30 741 H 81.911 -5.59989 -2.81362 0
M  V30 742 H 76.303 -3.23218 -1.60782 0
M  V30 743 H 77.707 -4.10523 -0.937856 0
M  V30 744 H 83.709 -3.27906 -5.43085 0
M  V30 745 P 85.5665 -5.75688 -6.64379 0
M  V30 746 O 86.9885 -6.07758 -7.05656 0
M  V30 747 O 85.2065 -5.88047 -5.19722 0
M  V30 748 O 85.2435 -4.2322 -7.04443 0
M  V30 749 C 85.0835 -3.99743 -8.4911 0
M  V30 750 C 85.6235 -2.60487 -8.79329 0
M  V30 751 O 84.5685 -1.82684 -8.4467 0
M  V30 752 C 86.8415 -2.10343 -8.03628 0
M  V30 753 O 87.5795 -1.09919 -8.67766 0
M  V30 754 C 86.1735 -1.68446 -6.70876 0
M  V30 755 O 86.9715 -0.678026 -6.08333 0
M  V30 756 C 84.8355 -1.17436 -7.18567 0
M  V30 757 N 83.7925 -1.52699 -6.23988 0
M  V30 758 C 83.8545 -2.68084 -5.57824 0
M  V30 759 N 82.8095 -2.8189 -4.75643 0
M  V30 760 C 82.0755 -1.72373 -4.95155 0
M  V30 761 C 80.7695 -1.37653 -4.44996 0
M  V30 762 O 80.0365 -2.02239 -3.68445 0
M  V30 763 N 80.3395 -0.17675 -4.90782 0
M  V30 764 C 81.0885 0.645036 -5.78716 0
M  V30 765 N 80.4915 1.84214 -6.10618 0
M  V30 766 N 82.2415 0.321732 -6.30279 0
M  V30 767 C 82.6985 -0.87502 -5.86913 0
M  V30 768 H 84.8675 -0.0804732 -7.31656 0
M  V30 769 H 86.0505 -2.53998 -6.02444 0
M  V30 770 H 87.5355 -2.93095 -7.8582 0
M  V30 771 H 85.8405 -2.53065 -9.86973 0
M  V30 772 H 85.6505 -4.75072 -9.05887 0
M  V30 773 H 84.0195 -4.05244 -8.76668 0
M  V30 774 H 79.4435 0.152143 -4.60849 0
M  V30 775 H 84.6505 -3.41852 -5.69006 0
M  V30 776 H 79.5805 2.08538 -5.69521 0
M  V30 777 H 80.9565 2.4895 -6.75698 0
M  V30 778 H 86.6605 0.177619 -6.34151 0
M  V30 779 P 88.5171 -1.25109 -8.70152 0
M  V30 780 O 89.9391 -1.29744 -9.22016 0
M  V30 781 O 88.1571 -2.13714 -7.55141 0
M  V30 782 O 88.1941 0.248149 -8.21425 0
M  V30 783 C 88.0341 1.22779 -9.30434 0
M  V30 784 C 88.5741 2.56293 -8.80664 0
M  V30 785 O 87.5181 3.02979 -8.09349 0
M  V30 786 C 89.7921 2.57523 -7.89775 0
M  V30 787 O 90.5301 3.7668 -7.89438 0
M  V30 788 C 89.1231 2.20997 -6.55446 0
M  V30 789 O 89.9221 2.71895 -5.48509 0
M  V30 790 C 87.7861 2.89693 -6.67988 0
M  V30 791 H 87.8181 3.88793 -6.19859 0
M  V30 792 H 89.0011 1.12046 -6.44229 0
M  V30 793 H 90.4851 1.7746 -8.19711 0
M  V30 794 H 88.7911 3.20706 -9.67112 0
M  V30 795 H 88.6011 0.901032 -10.1892 0
M  V30 796 H 86.9711 1.33049 -9.56592 0
M  V30 797 H 89.6101 3.57847 -5.23962 0
M  V30 798 P 91.4677 3.65191 -7.99657 0
M  V30 799 O 92.8897 3.89332 -8.45794 0
M  V30 800 O 91.1077 2.28472 -7.50807 0
M  V30 801 O 91.1447 4.64972 -6.77611 0
M  V30 802 C 90.9847 6.06319 -7.16352 0
M  V30 803 C 91.5247 6.91731 -6.02299 0
M  V30 804 O 90.4687 6.92449 -5.17064 0
M  V30 805 C 92.7427 6.43627 -5.25174 0
M  V30 806 O 93.4807 7.43686 -4.60469 0
M  V30 807 C 92.0737 5.40275 -4.31916 0
M  V30 808 O 92.8727 5.25279 -3.14438 0
M  V30 809 C 90.7367 6.04847 -4.05327 0
M  V30 810 H 90.7687 6.62195 -3.11261 0
M  V30 811 H 91.9517 4.42556 -4.81383 0
M  V30 812 H 93.4357 5.92458 -5.93643 0
M  V30 813 H 91.7417 7.92655 -6.402 0
M  V30 814 H 91.5517 6.26671 -8.0846 0
M  V30 815 H 89.9217 6.29101 -7.32804 0
M  V30 816 H 92.5607 5.84315 -2.47318 0
M  V30 817 P 94.4182 7.39546 -4.75277 0
M  V30 818 O 95.8392 7.84882 -5.01092 0
M  V30 819 O 94.0582 5.9812 -5.08098 0
M  V30 820 O 94.0952 7.57503 -3.1866 0
M  V30 821 C 93.9342 8.97452 -2.74862 0
M  V30 822 C 94.4752 9.07548 -1.32709 0
M  V30 823 O 93.4202 8.61972 -0.606089 0
M  V30 824 C 95.6932 8.25383 -0.938334 0
M  V30 825 O 96.4312 8.74577 0.146954 0
M  V30 826 C 95.0252 6.8802 -0.712559 0
M  V30 827 O 95.8232 6.1181 0.188505 0
M  V30 828 C 93.6872 7.27966 -0.139777 0
M  V30 829 N 92.6442 6.39368 -0.623421 0
M  V30 830 C 92.8132 5.71761 -1.78245 0
M  V30 831 N 91.7862 4.962 -2.10491 0
M  V30 832 C 90.9012 5.16158 -1.0635 0
M  V30 833 C 89.6342 4.60425 -0.810266 0
M  V30 834 N 89.0692 5.06 0.348685 0
M  V30 835 C 89.6712 5.94532 1.20395 0
M  V30 836 N 90.8482 6.48452 1.01191 0
M  V30 837 C 91.4232 6.04423 -0.146291 0
M  V30 838 H 94.9022 6.32625 -1.65044 0
M  V30 839 H 96.3852 8.19355 -1.79097 0
M  V30 840 H 94.6912 10.1305 -1.09016 0
M  V30 841 H 94.5012 9.64276 -3.41316 0
M  V30 842 H 92.8712 9.25417 -2.76357 0
M  V30 843 H 93.7132 5.79354 -2.38959 0
M  V30 844 H 95.5112 6.25169 1.0783 0
M  V30 845 P 97.3688 8.791 -6.89233e-14 0
M  V30 846 O 98.7908 9.31096 0.027933 0
M  V30 847 O 97.0088 7.77869 -1.04071 0
M  V30 848 O 97.0458 8.09533 1.41463 0
M  V30 849 C 96.8858 9.0349 2.53943 0
M  V30 850 C 97.4258 8.35226 3.79016 0
M  V30 851 O 96.3698 7.57992 4.15078 0
M  V30 852 C 98.6438 7.45087 3.67298 0
M  V30 853 O 99.3818 7.27796 4.85194 0
M  V30 854 C 97.9748 6.17323 3.12027 0
M  V30 855 O 98.7738 5.04231 3.47188 0
M  V30 856 C 96.6378 6.19961 3.81809 0
M  V30 857 H 96.6698 5.58218 4.73051 0
M  V30 858 H 97.8528 6.21726 2.02589 0
M  V30 859 H 99.3368 7.86112 2.9231 0
M  V30 860 H 97.6428 9.11627 4.55076 0
M  V30 861 H 97.4528 9.9573 2.34194 0
M  V30 862 H 95.8228 9.2792 2.67832 0
M  V30 863 H 98.4618 4.67702 4.28772 0
M  V30 864 P 100.319 7.39546 4.75277 0
M  V30 865 O 101.741 7.81777 5.05738 0
M  V30 866 O 99.9594 7.1065 3.32998 0
M  V30 867 O 99.9964 6.04542 5.56673 0
M  V30 868 C 99.8364 6.22772 7.02095 0
M  V30 869 C 100.376 4.97725 7.70406 0
M  V30 870 O 99.3204 4.13256 7.58987 0
M  V30 871 C 101.594 4.28231 7.11815 0
M  V30 872 O 102.332 3.49945 8.01648 0
M  V30 873 C 100.925 3.5063 5.96244 0
M  V30 874 O 101.724 2.36482 5.64681 0
M  V30 875 C 99.5884 3.15122 6.56374 0
M  V30 876 H 99.6204 2.13853 6.99751 0
M  V30 877 H 100.803 4.13501 5.06559 0
M  V30 878 H 102.287 5.03285 6.70911 0
M  V30 879 H 100.593 5.20877 8.75697 0
M  V30 880 H 100.403 7.11046 7.35349 0
M  V30 881 H 98.7734 6.35815 7.26986 0
M  V30 882 H 101.412 1.61644 6.13565 0
M  V30 883 P 103.27 3.65191 7.99657 0
M  V30 884 O 104.692 3.84333 8.48297 0
M  V30 885 O 102.91 4.17805 6.64342 0
M  V30 886 O 102.947 2.07613 7.95143 0
M  V30 887 C 102.787 1.44328 9.27336 0
M  V30 888 C 103.327 0.0220012 9.17097 0
M  V30 889 O 102.272 -0.626867 8.61923 0
M  V30 890 C 104.545 -0.24586 8.30336 0
M  V30 891 O 105.283 -1.39011 8.63583 0
M  V30 892 C 103.877 -0.273849 6.91158 0
M  V30 893 O 104.675 -1.06331 6.02794 0
M  V30 894 C 102.539 -0.897649 7.22545 0
M  V30 895 N 101.496 -0.292839 6.41732 0
M  V30 896 C 101.558 1.00068 6.10757 0
M  V30 897 N 100.513 1.36468 5.35794 0
M  V30 898 C 99.7789 0.258894 5.2366 0
M  V30 899 C 98.4729 0.0670682 4.65752 0
M  V30 900 O 97.7399 0.902443 4.10497 0
M  V30 901 N 98.0429 -1.2131 4.75881 0
M  V30 902 C 98.7919 -2.24934 5.37101 0
M  V30 903 N 98.1949 -3.48783 5.33984 0
M  V30 904 N 99.9449 -2.0844 5.95684 0
M  V30 905 C 100.402 -0.81395 5.87791 0
M  V30 906 H 102.571 -1.9841 7.04286 0
M  V30 907 H 103.754 0.739815 6.49601 0
M  V30 908 H 105.239 0.598315 8.36563 0
M  V30 909 H 103.544 -0.352479 10.1829 0
M  V30 910 H 103.354 2.00611 10.0304 0
M  V30 911 H 101.723 1.41843 9.55327 0
M  V30 912 H 97.1469 -1.44434 4.37895 0
M  V30 913 H 102.354 1.67697 6.42268 0
M  V30 914 H 97.2839 -3.60543 4.87699 0
M  V30 915 H 98.6599 -4.29232 5.7819 0
M  V30 916 H 104.364 -1.95704 6.0346 0
M  V30 917 P 106.221 -1.25109 8.70152 0
M  V30 918 O 107.643 -1.35274 9.21221 0
M  V30 919 O 105.861 -0.0769065 7.84762 0
M  V30 920 O 105.898 -2.55232 7.81161 0
M  V30 921 C 105.738 -3.79939 8.58154 0
M  V30 922 C 106.278 -4.94023 7.72785 0
M  V30 923 O 105.222 -5.18726 6.91205 0
M  V30 924 C 107.496 -4.69597 6.85231 0
M  V30 925 O 108.234 -5.83832 6.51337 0
M  V30 926 C 106.827 -3.96706 5.66633 0
M  V30 927 O 107.626 -4.15414 4.49689 0
M  V30 928 C 105.49 -4.66153 5.59313 0
M  V30 929 H 105.522 -5.47679 4.85214 0
M  V30 930 H 106.705 -2.89008 5.86566 0
M  V30 931 H 108.189 -4.0121 7.36511 0
M  V30 932 H 106.495 -5.80182 8.37584 0
M  V30 933 H 106.305 -3.73517 9.52265 0
M  V30 934 H 104.675 -3.97163 8.80359 0
M  V30 935 H 107.314 -4.90969 4.01921 0
M  V30 936 P 109.171 -5.75688 6.64379 0
M  V30 937 O 110.593 -6.11849 7.01846 0
M  V30 938 O 108.811 -4.30744 6.56026 0
M  V30 939 O 108.848 -6.37042 5.19165 0
M  V30 940 C 108.688 -7.83578 5.16515 0
M  V30 941 C 109.228 -8.33398 3.83019 0
M  V30 942 O 108.172 -8.10074 3.01034 0
M  V30 943 C 110.446 -7.65514 3.2257 0
M  V30 944 O 111.184 -8.4329 2.32297 0
M  V30 945 C 109.777 -6.40075 2.62207 0
M  V30 946 O 110.576 -5.92589 1.53712 0
M  V30 947 C 108.44 -6.9454 2.18503 0
M  V30 948 H 108.472 -7.23063 1.12091 0
M  V30 949 H 109.655 -5.6025 3.37201 0
M  V30 950 H 111.139 -7.35707 4.02681 0
M  V30 951 H 109.445 -9.40912 3.9095 0
M  V30 952 H 109.255 -8.29056 5.99158 0
M  V30 953 H 107.625 -8.10073 5.25882 0
M  V30 954 H 110.264 -6.30324 0.726794 0
M  V30 955 P 112.122 -8.4349 2.47671 0
M  V30 956 O 113.543 -8.94263 2.59668 0
M  V30 957 O 111.762 -7.1704 3.19006 0
M  V30 958 O 111.799 -8.16596 0.923387 0
M  V30 959 C 111.638 -9.38537 0.108869 0
M  V30 960 C 112.179 -9.08175 -1.28353 0
M  V30 961 O 111.124 -8.44131 -1.84692 0
M  V30 962 C 113.397 -8.18386 -1.42505 0
M  V30 963 O 114.135 -8.3501 -2.60497 0
M  V30 964 C 112.729 -6.80225 -1.25468 0
M  V30 965 O 113.527 -5.81716 -1.90454 0
M  V30 966 C 111.391 -7.02416 -1.9168 0
M  V30 967 N 110.348 -6.31033 -1.20314 0
M  V30 968 C 110.517 -5.98817 0.0994088 0
M  V30 969 N 109.49 -5.35403 0.621694 0
M  V30 970 C 108.605 -5.25212 -0.43376 0
M  V30 971 C 107.338 -4.64602 -0.519722 0
M  V30 972 N 106.739 -4.01457 0.519136 0
M  V30 973 N 106.773 -4.7568 -1.76013 0
M  V30 974 C 107.375 -5.3653 -2.83017 0
M  V30 975 N 108.552 -5.93676 -2.79782 0
M  V30 976 C 109.127 -5.84061 -1.56249 0
M  V30 977 H 111.423 -6.68789 -2.9658 0
M  V30 978 H 112.606 -6.53498 -0.198729 0
M  V30 979 H 114.089 -8.36622 -0.589963 0
M  V30 980 H 112.395 -10.0273 -1.8081 0
M  V30 981 H 112.205 -10.2138 0.558219 0
M  V30 982 H 110.575 -9.6579 0.0444202 0
M  V30 983 H 106.839 -5.37113 -3.77321 0
M  V30 984 H 111.417 -6.23209 0.660562 0
M  V30 985 H 105.809 -3.58834 0.394862 0
M  V30 986 H 107.213 -3.96059 1.43048 0
M  V30 987 H 113.215 -5.69466 -2.79593 0
M  V30 988 P 115.072 -8.4349 -2.47671 0
M  V30 989 O 116.494 -8.92593 -2.65 0
M  V30 990 O 114.712 -7.7568 -1.19296 0
M  V30 991 O 114.749 -7.36886 -3.63805 0
M  V30 992 C 114.589 -7.95349 -4.982 0
M  V30 993 C 115.129 -6.94612 -5.98974 0
M  V30 994 O 114.073 -6.10347 -6.11815 0
M  V30 995 C 116.347 -6.11426 -5.62335 0
M  V30 996 O 117.085 -5.6162 -6.70584 0
M  V30 997 C 115.678 -5.04409 -4.73308 0
M  V30 998 O 116.477 -3.85992 -4.75183 0
M  V30 999 C 114.341 -4.8728 -5.41006 0
M  V30 1000 H 114.373 -4.02333 -6.11157 0
M  V30 1001 H 115.556 -5.39466 -3.69543 0
M  V30 1002 H 117.04 -6.71916 -5.01943 0
M  V30 1003 H 115.346 -7.4649 -6.93477 0
M  V30 1004 H 115.156 -8.89416 -5.05237 0
M  V30 1005 H 113.526 -8.14876 -5.18409 0
M  V30 1006 H 116.165 -3.27957 -5.4317 0
M  V30 1007 P 118.023 -5.75688 -6.64379 0
M  V30 1008 O 119.445 -6.07627 -7.05504 0
M  V30 1009 O 117.663 -5.88047 -5.19722 0
M  V30 1010 O 117.7 -4.2322 -7.04443 0
M  V30 1011 C 117.54 -3.99743 -8.4911 0
M  V30 1012 C 118.08 -2.60516 -8.79425 0
M  V30 1013 O 117.024 -1.82684 -8.4467 0
M  V30 1014 C 119.298 -2.10343 -8.03628 0
M  V30 1015 O 120.036 -1.09919 -8.67766 0
M  V30 1016 C 118.629 -1.68446 -6.70876 0
M  V30 1017 O 119.428 -0.678137 -6.08433 0
M  V30 1018 C 117.292 -1.17436 -7.18567 0
M  V30 1019 H 117.324 -0.0804732 -7.31656 0
M  V30 1020 H 118.507 -2.54037 -6.02537 0
M  V30 1021 H 119.991 -2.93881 -7.85526 0
M  V30 1022 H 118.297 -2.53065 -9.86973 0
M  V30 1023 H 118.107 -4.75072 -9.05887 0
M  V30 1024 H 116.477 -4.05244 -8.76668 0
M  V30 1025 H 119.116 0.177647 -6.34251 0
M  V30 1026 P 120.973 -1.25109 -8.70152 0
M  V30 1027 O 122.395 -1.29744 -9.22016 0
M  V30 1028 O 120.613 -2.13714 -7.55141 0
M  V30 1029 O 120.65 0.248149 -8.21425 0
M  V30 1030 C 120.49 1.22779 -9.30434 0
M  V30 1031 C 121.03 2.56293 -8.80664 0
M  V30 1032 O 119.974 3.02979 -8.09349 0
M  V30 1033 C 122.248 2.57523 -7.89775 0
M  V30 1034 O 122.986 3.7668 -7.89438 0
M  V30 1035 C 121.579 2.20997 -6.55446 0
M  V30 1036 O 122.378 2.71895 -5.48509 0
M  V30 1037 C 120.242 2.89693 -6.67988 0
M  V30 1038 H 120.274 3.88793 -6.19859 0
M  V30 1039 H 121.457 1.12046 -6.44229 0
M  V30 1040 H 122.941 1.7746 -8.19711 0
M  V30 1041 H 121.247 3.20706 -9.67112 0
M  V30 1042 H 121.057 0.901032 -10.1892 0
M  V30 1043 H 119.427 1.33049 -9.56592 0
M  V30 1044 H 122.066 3.57847 -5.23962 0
M  V30 1045 P 123.924 3.65191 -7.99657 0
M  V30 1046 O 125.345 3.89374 -8.45885 0
M  V30 1047 O 123.564 2.28472 -7.50807 0
M  V30 1048 O 123.601 4.64972 -6.77611 0
M  V30 1049 C 123.44 6.06383 -7.16428 0
M  V30 1050 C 123.981 6.91731 -6.02299 0
M  V30 1051 O 122.926 6.92369 -5.17005 0
M  V30 1052 C 125.199 6.43627 -5.25174 0
M  V30 1053 O 125.937 7.43686 -4.60469 0
M  V30 1054 C 124.531 5.40275 -4.31916 0
M  V30 1055 O 125.329 5.24878 -3.14911 0
M  V30 1056 C 123.193 6.04847 -4.05327 0
M  V30 1057 N 122.15 5.04166 -3.98114 0
M  V30 1058 C 122.319 3.84629 -4.59066 0
M  V30 1059 N 121.292 3.0363 -4.45343 0
M  V30 1060 C 120.407 3.76722 -3.68523 0
M  V30 1061 C 119.14 3.43528 -3.17088 0
M  V30 1062 N 118.541 2.23665 -3.37397 0
M  V30 1063 N 118.575 4.44526 -2.44231 0
M  V30 1064 C 119.177 5.65243 -2.20146 0
M  V30 1065 N 120.354 6.00221 -2.65453 0
M  V30 1066 C 120.929 5.00564 -3.39083 0
M  V30 1067 H 123.225 6.62104 -3.11218 0
M  V30 1068 H 124.408 4.42969 -4.80867 0
M  V30 1069 H 125.891 5.92458 -5.93643 0
M  V30 1070 H 124.197 7.93295 -6.39407 0
M  V30 1071 H 124.007 6.26671 -8.0846 0
M  V30 1072 H 122.377 6.29101 -7.32804 0
M  V30 1073 H 118.641 6.36894 -1.5883 0
M  V30 1074 H 123.219 3.58193 -5.14248 0
M  V30 1075 H 117.611 2.05145 -2.97047 0
M  V30 1076 H 119.015 1.51255 -3.92998 0
M  V30 1077 H 125.017 5.84223 -2.47279 0
M  V30 1078 P 126.875 7.39546 -4.75277 0
M  V30 1079 O 128.297 7.84798 -5.01039 0
M  V30 1080 O 126.515 5.9812 -5.08098 0
M  V30 1081 O 126.552 7.57503 -3.1866 0
M  V30 1082 C 126.392 8.97357 -2.74833 0
M  V30 1083 C 126.932 9.07548 -1.32709 0
M  V30 1084 O 125.876 8.62072 -0.606159 0
M  V30 1085 C 128.15 8.25383 -0.938334 0
M  V30 1086 O 128.888 8.74577 0.146954 0
M  V30 1087 C 127.481 6.8802 -0.712559 0
M  V30 1088 O 128.28 6.1189 0.194655 0
M  V30 1089 C 126.144 7.27966 -0.139777 0
M  V30 1090 H 126.176 7.25354 0.961601 0
M  V30 1091 H 127.359 6.32557 -1.65702 0
M  V30 1092 H 128.843 8.19355 -1.79097 0
M  V30 1093 H 127.149 10.1294 -1.10029 0
M  V30 1094 H 126.959 9.64276 -3.41316 0
M  V30 1095 H 125.329 9.25417 -2.76357 0
M  V30 1096 H 127.968 6.25267 1.07847 0
M  V30 1097 P 129.825 8.791 -1.02308e-13 0
M  V30 1098 O 131.246 9.31196 0.027936 0
M  V30 1099 O 129.465 7.77869 -1.04071 0
M  V30 1100 O 129.502 8.09533 1.41463 0
M  V30 1101 C 129.341 9.03587 2.5397 0
M  V30 1102 C 129.882 8.35226 3.79016 0
M  V30 1103 O 128.827 7.57904 4.1503 0
M  V30 1104 C 131.1 7.45087 3.67298 0
M  V30 1105 O 131.838 7.27796 4.85194 0
M  V30 1106 C 130.432 6.17323 3.12027 0
M  V30 1107 O 131.23 5.04496 3.46627 0
M  V30 1108 C 129.094 6.19961 3.81809 0
M  V30 1109 N 128.051 5.71575 2.93223 0
M  V30 1110 C 128.22 5.77362 1.59168 0
M  V30 1111 N 127.193 5.3123 0.911893 0
M  V30 1112 C 126.308 4.91717 1.89588 0
M  V30 1113 C 125.041 4.3114 1.8076 0
M  V30 1114 N 124.442 3.99821 0.632928 0
M  V30 1115 N 124.476 4.06823 3.02898 0
M  V30 1116 C 125.078 4.35062 4.22711 0
M  V30 1117 N 126.255 4.90805 4.35707 0
M  V30 1118 C 126.83 5.16382 3.14469 0
M  V30 1119 H 129.126 5.58142 4.72986 0
M  V30 1120 H 130.309 6.21428 2.0318 0
M  V30 1121 H 131.792 7.86112 2.9231 0
M  V30 1122 H 130.098 9.11171 4.55987 0
M  V30 1123 H 129.908 9.9573 2.34194 0
M  V30 1124 H 128.278 9.2792 2.67832 0
M  V30 1125 H 124.542 4.09052 5.13359 0
M  V30 1126 H 129.12 6.16575 1.12198 0
M  V30 1127 H 123.512 3.55423 0.632085 0
M  V30 1128 H 124.916 4.20317 -0.256712 0
M  V30 1129 H 130.918 4.67628 4.28704 0
M  V30 1130 P 132.776 7.39546 4.75277 0
M  V30 1131 O 134.198 7.81777 5.05738 0
M  V30 1132 O 132.416 7.1065 3.32998 0
M  V30 1133 O 132.453 6.04542 5.56673 0
M  V30 1134 C 132.293 6.22772 7.02095 0
M  V30 1135 C 132.833 4.97725 7.70406 0
M  V30 1136 O 131.777 4.13256 7.58987 0
M  V30 1137 C 134.051 4.28231 7.11815 0
M  V30 1138 O 134.789 3.49945 8.01648 0
M  V30 1139 C 133.382 3.5063 5.96244 0
M  V30 1140 O 134.181 2.36482 5.64681 0
M  V30 1141 C 132.045 3.15122 6.56374 0
M  V30 1142 H 132.077 2.13853 6.99751 0
M  V30 1143 H 133.26 4.13501 5.06559 0
M  V30 1144 H 134.744 5.03285 6.70911 0
M  V30 1145 H 133.05 5.20877 8.75697 0
M  V30 1146 H 132.86 7.11046 7.35349 0
M  V30 1147 H 131.23 6.35815 7.26986 0
M  V30 1148 H 133.869 1.61644 6.13565 0
M  V30 1149 P 135.726 3.65191 7.99657 0
M  V30 1150 O 137.148 3.8425 8.48115 0
M  V30 1151 O 135.366 4.17805 6.64342 0
M  V30 1152 O 135.403 2.07613 7.95143 0
M  V30 1153 C 135.243 1.44328 9.27336 0
M  V30 1154 C 135.783 0.0220036 9.17197 0
M  V30 1155 O 134.727 -0.626867 8.61923 0
M  V30 1156 C 137.001 -0.24586 8.30336 0
M  V30 1157 O 137.739 -1.39011 8.63583 0
M  V30 1158 C 136.332 -0.273849 6.91158 0
M  V30 1159 O 137.131 -1.06348 6.02892 0
M  V30 1160 C 134.995 -0.897649 7.22545 0
M  V30 1161 H 135.027 -1.9841 7.04286 0
M  V30 1162 H 136.21 0.739928 6.497 0
M  V30 1163 H 137.694 0.60668 8.36503 0
M  V30 1164 H 136 -0.352479 10.1829 0
M  V30 1165 H 135.81 2.00611 10.0304 0
M  V30 1166 H 134.18 1.41843 9.55327 0
M  V30 1167 H 136.819 -1.95734 6.03555 0
M  V30 1168 P 138.677 -1.25109 8.70152 0
M  V30 1169 O 140.099 -1.35274 9.21221 0
M  V30 1170 O 138.317 -0.0769065 7.84762 0
M  V30 1171 O 138.354 -2.55232 7.81161 0
M  V30 1172 C 138.194 -3.79939 8.58154 0
M  V30 1173 C 138.734 -4.94023 7.72785 0
M  V30 1174 O 137.678 -5.18726 6.91205 0
M  V30 1175 C 139.952 -4.69597 6.85231 0
M  V30 1176 O 140.69 -5.83832 6.51337 0
M  V30 1177 C 139.283 -3.96706 5.66633 0
M  V30 1178 O 140.082 -4.15414 4.49689 0
M  V30 1179 C 137.946 -4.66153 5.59313 0
M  V30 1180 H 137.978 -5.47679 4.85214 0
M  V30 1181 H 139.161 -2.89008 5.86566 0
M  V30 1182 H 140.645 -4.0121 7.36511 0
M  V30 1183 H 138.951 -5.80182 8.37584 0
M  V30 1184 H 138.761 -3.73517 9.52265 0
M  V30 1185 H 137.131 -3.97163 8.80359 0
M  V30 1186 H 139.77 -4.90969 4.01921 0
M  V30 1187 P 141.627 -5.75688 6.64379 0
M  V30 1188 O 143.049 -6.11849 7.01846 0
M  V30 1189 O 141.267 -4.30744 6.56026 0
M  V30 1190 O 141.304 -6.37042 5.19165 0
M  V30 1191 C 141.144 -7.83578 5.16515 0
M  V30 1192 C 141.684 -8.33398 3.83019 0
M  V30 1193 O 140.628 -8.10074 3.01034 0
M  V30 1194 C 142.902 -7.65514 3.2257 0
M  V30 1195 O 143.64 -8.4329 2.32297 0
M  V30 1196 C 142.233 -6.40075 2.62207 0
M  V30 1197 O 143.032 -5.92589 1.53712 0
M  V30 1198 C 140.896 -6.9454 2.18503 0
M  V30 1199 H 140.928 -7.23063 1.12091 0
M  V30 1200 H 142.111 -5.6025 3.37201 0
M  V30 1201 H 143.595 -7.35707 4.02681 0
M  V30 1202 H 141.901 -9.40912 3.9095 0
M  V30 1203 H 141.711 -8.29056 5.99158 0
M  V30 1204 H 140.081 -8.10073 5.25882 0
M  V30 1205 H 142.72 -6.30324 0.726794 0
M  V30 1206 P 144.578 -8.4349 2.47671 0
M  V30 1207 O 146 -8.94167 2.5964 0
M  V30 1208 O 144.218 -7.1704 3.19006 0
M  V30 1209 O 144.255 -8.16596 0.923387 0
M  V30 1210 C 144.095 -9.38437 0.108857 0
M  V30 1211 C 144.635 -9.08175 -1.28353 0
M  V30 1212 O 143.579 -8.44229 -1.84713 0
M  V30 1213 C 145.853 -8.18386 -1.42505 0
M  V30 1214 O 146.591 -8.3501 -2.60497 0
M  V30 1215 C 145.184 -6.80225 -1.25468 0
M  V30 1216 O 145.983 -5.81621 -1.91066 0
M  V30 1217 C 143.847 -7.02416 -1.9168 0
M  V30 1218 H 143.879 -6.6888 -2.96621 0
M  V30 1219 H 145.062 -6.53617 -0.192223 0
M  V30 1220 H 146.546 -8.36622 -0.589963 0
M  V30 1221 H 144.852 -10.0291 -1.79807 0
M  V30 1222 H 144.662 -10.2138 0.558219 0
M  V30 1223 H 143.032 -9.6579 0.0444202 0
M  V30 1224 H 145.671 -5.69556 -2.79637 0
M  V30 1225 P 147.528 -8.4349 -2.47671 0
M  V30 1226 O 148.949 -8.92689 -2.65029 0
M  V30 1227 O 147.168 -7.7568 -1.19296 0
M  V30 1228 O 147.205 -7.36886 -3.63805 0
M  V30 1229 C 147.044 -7.95433 -4.98253 0
M  V30 1230 C 147.585 -6.94612 -5.98974 0
M  V30 1231 O 146.53 -6.10277 -6.11744 0
M  V30 1232 C 148.803 -6.11426 -5.62335 0
M  V30 1233 O 149.541 -5.6162 -6.70584 0
M  V30 1234 C 148.135 -5.04409 -4.73308 0
M  V30 1235 O 148.933 -3.86404 -4.74719 0
M  V30 1236 C 146.797 -4.8728 -5.41006 0
M  V30 1237 N 145.754 -4.65812 -4.42377 0
M  V30 1238 C 145.923 -5.09132 -3.15382 0
M  V30 1239 N 144.896 -4.84021 -2.3716 0
M  V30 1240 C 144.011 -4.18386 -3.20441 0
M  V30 1241 C 142.744 -3.6275 -2.94905 0
M  V30 1242 N 142.145 -3.65794 -1.73372 0
M  V30 1243 N 142.179 -3.05008 -4.05243 0
M  V30 1244 C 142.781 -2.98348 -5.28159 0
M  V30 1245 N 143.958 -3.48171 -5.56333 0
M  V30 1246 C 144.533 -4.06869 -4.47212 0
M  V30 1247 H 146.829 -4.02278 -6.11074 0
M  V30 1248 H 148.012 -5.39013 -3.70026 0
M  V30 1249 H 149.495 -6.71916 -5.01943 0
M  V30 1250 H 147.801 -7.45796 -6.94223 0
M  V30 1251 H 147.611 -8.89416 -5.05237 0
M  V30 1252 H 145.981 -8.14876 -5.18409 0
M  V30 1253 H 142.245 -2.47853 -6.07807 0
M  V30 1254 H 146.823 -5.59989 -2.81362 0
M  V30 1255 H 141.215 -3.23218 -1.60782 0
M  V30 1256 H 142.619 -4.10523 -0.937856 0
M  V30 1257 H 148.621 -3.27906 -5.43085 0
M  V30 1258 P 150.479 -5.75688 -6.64379 0
M  V30 1259 O 151.901 -6.07627 -7.05504 0
M  V30 1260 O 150.119 -5.88047 -5.19722 0
M  V30 1261 O 150.156 -4.2322 -7.04443 0
M  V30 1262 C 149.996 -3.99743 -8.4911 0
M  V30 1263 C 150.536 -2.60516 -8.79425 0
M  V30 1264 O 149.48 -1.82684 -8.4467 0
M  V30 1265 C 151.754 -2.10343 -8.03628 0
M  V30 1266 O 152.492 -1.09919 -8.67766 0
M  V30 1267 C 151.085 -1.68446 -6.70876 0
M  V30 1268 O 151.884 -0.678137 -6.08433 0
M  V30 1269 C 149.748 -1.17436 -7.18567 0
M  V30 1270 H 149.78 -0.0804732 -7.31656 0
M  V30 1271 H 150.963 -2.54037 -6.02537 0
M  V30 1272 H 152.447 -2.93881 -7.85526 0
M  V30 1273 H 150.753 -2.53065 -9.86973 0
M  V30 1274 H 150.563 -4.75072 -9.05887 0
M  V30 1275 H 148.933 -4.05244 -8.76668 0
M  V30 1276 H 151.572 0.177647 -6.34251 0
M  V30 1277 P 153.43 -1.25109 -8.70152 0
M  V30 1278 O 154.852 -1.29744 -9.22016 0
M  V30 1279 O 153.07 -2.13714 -7.55141 0
M  V30 1280 O 153.107 0.248149 -8.21425 0
M  V30 1281 C 152.947 1.22779 -9.30434 0
M  V30 1282 C 153.487 2.56293 -8.80664 0
M  V30 1283 O 152.431 3.02979 -8.09349 0
M  V30 1284 C 154.705 2.57523 -7.89775 0
M  V30 1285 O 155.443 3.7668 -7.89438 0
M  V30 1286 C 154.036 2.20997 -6.55446 0
M  V30 1287 O 154.835 2.71895 -5.48509 0
M  V30 1288 C 152.699 2.89693 -6.67988 0
M  V30 1289 H 152.731 3.88793 -6.19859 0
M  V30 1290 H 153.914 1.12046 -6.44229 0
M  V30 1291 H 155.398 1.7746 -8.19711 0
M  V30 1292 H 153.704 3.20706 -9.67112 0
M  V30 1293 H 153.514 0.901032 -10.1892 0
M  V30 1294 H 151.884 1.33049 -9.56592 0
M  V30 1295 H 154.523 3.57847 -5.23962 0
M  V30 1296 P 156.38 3.65191 -7.99657 0
M  V30 1297 O 157.802 3.89332 -8.45794 0
M  V30 1298 O 156.02 2.28472 -7.50807 0
M  V30 1299 O 156.057 4.64972 -6.77611 0
M  V30 1300 C 155.897 6.06319 -7.16352 0
M  V30 1301 C 156.437 6.91731 -6.02299 0
M  V30 1302 O 155.381 6.92449 -5.17064 0
M  V30 1303 C 157.655 6.43627 -5.25174 0
M  V30 1304 O 158.393 7.43686 -4.60469 0
M  V30 1305 C 156.986 5.40275 -4.31916 0
M  V30 1306 O 157.785 5.25279 -3.14438 0
M  V30 1307 C 155.649 6.04847 -4.05327 0
M  V30 1308 H 155.681 6.62195 -3.11261 0
M  V30 1309 H 156.864 4.42556 -4.81383 0
M  V30 1310 H 158.348 5.92458 -5.93643 0
M  V30 1311 H 156.654 7.92655 -6.402 0
M  V30 1312 H 156.464 6.26671 -8.0846 0
M  V30 1313 H 154.834 6.29101 -7.32804 0
M  V30 1314 H 157.473 5.84315 -2.47318 0
M  V30 1315 P 159.331 7.39546 -4.75277 0
M  V30 1316 O 160.753 7.84798 -5.01039 0
M  V30 1317 O 158.971 5.9812 -5.08098 0
M  V30 1318 O 159.008 7.57503 -3.1866 0
M  V30 1319 C 158.848 8.97357 -2.74833 0
M  V30 1320 C 159.388 9.07548 -1.32709 0
M  V30 1321 O 158.332 8.62072 -0.606159 0
M  V30 1322 C 160.606 8.25383 -0.938334 0
M  V30 1323 O 161.344 8.74577 0.146954 0
M  V30 1324 C 159.937 6.8802 -0.712559 0
M  V30 1325 O 160.736 6.1189 0.194655 0
M  V30 1326 C 158.6 7.27966 -0.139777 0
M  V30 1327 H 158.632 7.25354 0.961601 0
M  V30 1328 H 159.815 6.32557 -1.65702 0
M  V30 1329 H 161.299 8.19355 -1.79097 0
M  V30 1330 H 159.605 10.1294 -1.10029 0
M  V30 1331 H 159.415 9.64276 -3.41316 0
M  V30 1332 H 157.785 9.25417 -2.76357 0
M  V30 1333 H 160.424 6.25267 1.07847 0
M  V30 1334 P 162.281 8.791 -1.35693e-13 0
M  V30 1335 O 163.703 9.31096 0.027933 0
M  V30 1336 O 161.921 7.77869 -1.04071 0
M  V30 1337 O 161.958 8.09533 1.41463 0
M  V30 1338 C 161.798 9.0349 2.53943 0
M  V30 1339 C 162.338 8.35226 3.79016 0
M  V30 1340 O 161.282 7.57992 4.15078 0
M  V30 1341 C 163.556 7.45087 3.67298 0
M  V30 1342 O 164.294 7.27796 4.85194 0
M  V30 1343 C 162.887 6.17323 3.12027 0
M  V30 1344 O 163.686 5.04231 3.47188 0
M  V30 1345 C 161.55 6.19961 3.81809 0
M  V30 1346 H 161.582 5.58218 4.73051 0
M  V30 1347 H 162.765 6.21726 2.02589 0
M  V30 1348 H 164.249 7.86112 2.9231 0
M  V30 1349 H 162.555 9.11627 4.55076 0
M  V30 1350 H 162.365 9.9573 2.34194 0
M  V30 1351 H 160.735 9.2792 2.67832 0
M  V30 1352 H 163.374 4.67702 4.28772 0
M  V30 1353 P 165.232 7.39546 4.75277 0
M  V30 1354 O 166.654 7.81777 5.05738 0
M  V30 1355 O 164.872 7.1065 3.32998 0
M  V30 1356 O 164.909 6.04542 5.56673 0
M  V30 1357 C 164.749 6.22772 7.02095 0
M  V30 1358 C 165.289 4.97725 7.70406 0
M  V30 1359 O 164.233 4.13256 7.58987 0
M  V30 1360 C 166.507 4.28231 7.11815 0
M  V30 1361 O 167.245 3.49945 8.01648 0
M  V30 1362 C 165.838 3.5063 5.96244 0
M  V30 1363 O 166.637 2.36482 5.64681 0
M  V30 1364 C 164.501 3.15122 6.56374 0
M  V30 1365 H 164.533 2.13853 6.99751 0
M  V30 1366 H 165.716 4.13501 5.06559 0
M  V30 1367 H 167.2 5.03285 6.70911 0
M  V30 1368 H 165.506 5.20877 8.75697 0
M  V30 1369 H 165.316 7.11046 7.35349 0
M  V30 1370 H 163.686 6.35815 7.26986 0
M  V30 1371 H 166.325 1.61644 6.13565 0
M  V30 1372 P 168.182 3.65191 7.99657 0
M  V30 1373 O 169.604 3.8425 8.48115 0
M  V30 1374 O 167.822 4.17805 6.64342 0
M  V30 1375 O 167.859 2.07613 7.95143 0
M  V30 1376 C 167.699 1.44328 9.27336 0
M  V30 1377 C 168.239 0.0220036 9.17197 0
M  V30 1378 O 167.183 -0.626867 8.61923 0
M  V30 1379 C 169.457 -0.24586 8.30336 0
M  V30 1380 O 170.195 -1.39011 8.63583 0
M  V30 1381 C 168.788 -0.273849 6.91158 0
M  V30 1382 O 169.587 -1.06348 6.02892 0
M  V30 1383 C 167.451 -0.897649 7.22545 0
M  V30 1384 H 167.483 -1.9841 7.04286 0
M  V30 1385 H 168.666 0.739928 6.497 0
M  V30 1386 H 170.15 0.60668 8.36503 0
M  V30 1387 H 168.456 -0.352479 10.1829 0
M  V30 1388 H 168.266 2.00611 10.0304 0
M  V30 1389 H 166.636 1.41843 9.55327 0
M  V30 1390 H 169.275 -1.95734 6.03555 0
M  V30 1391 P 171.133 -1.25109 8.70152 0
M  V30 1392 O 172.555 -1.35274 9.21221 0
M  V30 1393 O 170.773 -0.0769065 7.84762 0
M  V30 1394 O 170.81 -2.55232 7.81161 0
M  V30 1395 C 170.65 -3.79939 8.58154 0
M  V30 1396 C 171.19 -4.94023 7.72785 0
M  V30 1397 O 170.134 -5.18726 6.91205 0
M  V30 1398 C 172.408 -4.69597 6.85231 0
M  V30 1399 O 173.146 -5.83832 6.51337 0
M  V30 1400 C 171.739 -3.96706 5.66633 0
M  V30 1401 O 172.538 -4.15414 4.49689 0
M  V30 1402 C 170.402 -4.66153 5.59313 0
M  V30 1403 H 170.434 -5.47679 4.85214 0
M  V30 1404 H 171.617 -2.89008 5.86566 0
M  V30 1405 H 173.101 -4.0121 7.36511 0
M  V30 1406 H 171.407 -5.80182 8.37584 0
M  V30 1407 H 171.217 -3.73517 9.52265 0
M  V30 1408 H 169.587 -3.97163 8.80359 0
M  V30 1409 H 172.226 -4.90969 4.01921 0
M  V30 1410 P 174.084 -5.75688 6.64379 0
M  V30 1411 O 175.505 -6.11915 7.01921 0
M  V30 1412 O 173.724 -4.30744 6.56026 0
M  V30 1413 O 173.761 -6.37042 5.19165 0
M  V30 1414 C 173.6 -7.83662 5.1657 0
M  V30 1415 C 174.141 -8.33398 3.83019 0
M  V30 1416 O 173.086 -8.0998 3.00999 0
M  V30 1417 C 175.359 -7.65514 3.2257 0
M  V30 1418 O 176.097 -8.4329 2.32297 0
M  V30 1419 C 174.691 -6.40075 2.62207 0
M  V30 1420 O 175.489 -5.92338 1.5428 0
M  V30 1421 C 173.353 -6.9454 2.18503 0
M  V30 1422 N 172.31 -5.95905 2.39948 0
M  V30 1423 C 172.479 -4.98383 3.32108 0
M  V30 1424 N 171.452 -4.16798 3.41761 0
M  V30 1425 C 170.567 -4.65287 2.47461 0
M  V30 1426 C 169.3 -4.18946 2.07461 0
M  V30 1427 N 168.735 -4.95327 1.09101 0
M  V30 1428 C 169.337 -6.04369 0.519812 0
M  V30 1429 N 170.514 -6.50694 0.855982 0
M  V30 1430 C 171.089 -5.75818 1.84322 0
M  V30 1431 H 174.568 -5.60502 3.36589 0
M  V30 1432 H 176.051 -7.35707 4.02681 0
M  V30 1433 H 174.357 -9.41302 3.90009 0
M  V30 1434 H 174.167 -8.29056 5.99158 0
M  V30 1435 H 172.537 -8.10073 5.25882 0
M  V30 1436 H 173.379 -4.88564 3.92502 0
M  V30 1437 H 175.177 -6.30224 0.72668 0
M  V30 1438 P 177.034 -8.4349 2.47671 0
M  V30 1439 O 178.455 -8.94263 2.59668 0
M  V30 1440 O 176.674 -7.1704 3.19006 0
M  V30 1441 O 176.711 -8.16596 0.923387 0
M  V30 1442 C 176.55 -9.38537 0.108869 0
M  V30 1443 C 177.091 -9.08175 -1.28353 0
M  V30 1444 O 176.036 -8.44131 -1.84692 0
M  V30 1445 C 178.309 -8.18386 -1.42505 0
M  V30 1446 O 179.047 -8.3501 -2.60497 0
M  V30 1447 C 177.641 -6.80225 -1.25468 0
M  V30 1448 O 178.439 -5.81716 -1.90454 0
M  V30 1449 C 176.303 -7.02416 -1.9168 0
M  V30 1450 N 175.26 -6.31033 -1.20314 0
M  V30 1451 C 175.429 -5.98817 0.0994088 0
M  V30 1452 N 174.402 -5.35403 0.621694 0
M  V30 1453 C 173.517 -5.25212 -0.43376 0
M  V30 1454 C 172.25 -4.64602 -0.519722 0
M  V30 1455 N 171.651 -4.01457 0.519136 0
M  V30 1456 N 171.685 -4.7568 -1.76013 0
M  V30 1457 C 172.287 -5.3653 -2.83017 0
M  V30 1458 N 173.464 -5.93676 -2.79782 0
M  V30 1459 C 174.039 -5.84061 -1.56249 0
M  V30 1460 H 176.335 -6.68789 -2.9658 0
M  V30 1461 H 177.518 -6.53498 -0.198729 0
M  V30 1462 H 179.001 -8.36622 -0.589963 0
M  V30 1463 H 177.307 -10.0273 -1.8081 0
M  V30 1464 H 177.117 -10.2138 0.558219 0
M  V30 1465 H 175.487 -9.6579 0.0444202 0
M  V30 1466 H 171.751 -5.37113 -3.77321 0
M  V30 1467 H 176.329 -6.23209 0.660562 0
M  V30 1468 H 170.721 -3.58834 0.394862 0
M  V30 1469 H 172.125 -3.96059 1.43048 0
M  V30 1470 H 178.127 -5.69466 -2.79593 0
M  V30 1471 P 179.985 -8.4349 -2.47671 0
M  V30 1472 O 181.407 -8.92593 -2.65 0
M  V30 1473 O 179.625 -7.7568 -1.19296 0
M  V30 1474 O 179.662 -7.36886 -3.63805 0
M  V30 1475 C 179.502 -7.95349 -4.982 0
M  V30 1476 C 180.042 -6.94612 -5.98974 0
M  V30 1477 O 178.986 -6.10347 -6.11815 0
M  V30 1478 C 181.26 -6.11426 -5.62335 0
M  V30 1479 O 181.998 -5.6162 -6.70584 0
M  V30 1480 C 180.591 -5.04409 -4.73308 0
M  V30 1481 O 181.39 -3.85992 -4.75183 0
M  V30 1482 C 179.254 -4.8728 -5.41006 0
M  V30 1483 H 179.286 -4.02333 -6.11157 0
M  V30 1484 H 180.469 -5.39466 -3.69543 0
M  V30 1485 H 181.953 -6.71916 -5.01943 0
M  V30 1486 H 180.259 -7.4649 -6.93477 0
M  V30 1487 H 180.069 -8.89416 -5.05237 0
M  V30 1488 H 178.439 -8.14876 -5.18409 0
M  V30 1489 H 181.078 -3.27957 -5.4317 0
M  V30 1490 P 182.935 -5.75688 -6.64379 0
M  V30 1491 O 184.357 -6.07627 -7.05504 0
M  V30 1492 O 182.575 -5.88047 -5.19722 0
M  V30 1493 O 182.612 -4.2322 -7.04443 0
M  V30 1494 C 182.452 -3.99743 -8.4911 0
M  V30 1495 C 182.992 -2.60516 -8.79425 0
M  V30 1496 O 181.936 -1.82684 -8.4467 0
M  V30 1497 C 184.21 -2.10343 -8.03628 0
M  V30 1498 O 184.948 -1.09919 -8.67766 0
M  V30 1499 C 183.541 -1.68446 -6.70876 0
M  V30 1500 O 184.34 -0.678137 -6.08433 0
M  V30 1501 C 182.204 -1.17436 -7.18567 0
M  V30 1502 H 182.236 -0.0804732 -7.31656 0
M  V30 1503 H 183.419 -2.54037 -6.02537 0
M  V30 1504 H 184.903 -2.93881 -7.85526 0
M  V30 1505 H 183.209 -2.53065 -9.86973 0
M  V30 1506 H 183.019 -4.75072 -9.05887 0
M  V30 1507 H 181.389 -4.05244 -8.76668 0
M  V30 1508 H 184.028 0.177647 -6.34251 0
M  V30 1509 P 185.886 -1.25109 -8.70152 0
M  V30 1510 O 187.308 -1.29744 -9.22016 0
M  V30 1511 O 185.526 -2.13714 -7.55141 0
M  V30 1512 O 185.563 0.248149 -8.21425 0
M  V30 1513 C 185.403 1.22779 -9.30434 0
M  V30 1514 C 185.943 2.56293 -8.80664 0
M  V30 1515 O 184.887 3.02979 -8.09349 0
M  V30 1516 C 187.161 2.57523 -7.89775 0
M  V30 1517 O 187.899 3.7668 -7.89438 0
M  V30 1518 C 186.492 2.20997 -6.55446 0
M  V30 1519 O 187.291 2.71895 -5.48509 0
M  V30 1520 C 185.155 2.89693 -6.67988 0
M  V30 1521 H 185.187 3.88793 -6.19859 0
M  V30 1522 H 186.37 1.12046 -6.44229 0
M  V30 1523 H 187.854 1.7746 -8.19711 0
M  V30 1524 H 186.16 3.20706 -9.67112 0
M  V30 1525 H 185.97 0.901032 -10.1892 0
M  V30 1526 H 184.34 1.33049 -9.56592 0
M  V30 1527 H 186.979 3.57847 -5.23962 0
M  V30 1528 P 188.836 3.65191 -7.99657 0
M  V30 1529 O 190.257 3.89374 -8.45885 0
M  V30 1530 O 188.476 2.28472 -7.50807 0
M  V30 1531 O 188.513 4.64972 -6.77611 0
M  V30 1532 C 188.352 6.06383 -7.16428 0
M  V30 1533 C 188.893 6.91731 -6.02299 0
M  V30 1534 O 187.838 6.92369 -5.17005 0
M  V30 1535 C 190.111 6.43627 -5.25174 0
M  V30 1536 O 190.849 7.43686 -4.60469 0
M  V30 1537 C 189.443 5.40275 -4.31916 0
M  V30 1538 O 190.241 5.24878 -3.14911 0
M  V30 1539 C 188.105 6.04847 -4.05327 0
M  V30 1540 N 187.062 5.04166 -3.98114 0
M  V30 1541 C 187.231 3.84629 -4.59066 0
M  V30 1542 N 186.204 3.0363 -4.45343 0
M  V30 1543 C 185.319 3.76722 -3.68523 0
M  V30 1544 C 184.052 3.43528 -3.17088 0
M  V30 1545 N 183.487 4.44526 -2.44231 0
M  V30 1546 C 184.089 5.65243 -2.20146 0
M  V30 1547 N 185.266 6.00221 -2.65453 0
M  V30 1548 C 185.841 5.00564 -3.39083 0
M  V30 1549 H 189.32 4.42969 -4.80867 0
M  V30 1550 H 190.803 5.92458 -5.93643 0
M  V30 1551 H 189.109 7.93295 -6.39407 0
M  V30 1552 H 188.919 6.26671 -8.0846 0
M  V30 1553 H 187.289 6.29101 -7.32804 0
M  V30 1554 H 188.131 3.58193 -5.14248 0
M  V30 1555 H 189.929 5.84223 -2.47279 0
M  V30 1556 P 191.787 7.39546 -4.75277 0
M  V30 1557 O 193.209 7.84966 -5.01146 0
M  V30 1558 O 191.427 5.9812 -5.08098 0
M  V30 1559 O 191.464 7.57503 -3.1866 0
M  V30 1560 C 191.304 8.97357 -2.74833 0
M  V30 1561 C 191.844 9.0745 -1.32694 0
M  V30 1562 O 190.789 8.62072 -0.606159 0
M  V30 1563 C 193.062 8.25383 -0.938334 0
M  V30 1564 O 193.8 8.74577 0.146954 0
M  V30 1565 C 192.394 6.8802 -0.712559 0
M  V30 1566 O 193.192 6.11791 0.194623 0
M  V30 1567 C 191.056 7.27966 -0.139777 0
M  V30 1568 N 190.013 6.39368 -0.623421 0
M  V30 1569 C 190.075 5.90299 -1.85969 0
M  V30 1570 N 189.03 5.10919 -2.1133 0
M  V30 1571 C 188.296 5.14646 -1.0015 0
M  V30 1572 C 186.99 4.60057 -0.729219 0
M  V30 1573 O 186.257 3.93476 -1.47746 0
M  V30 1574 N 186.56 4.88302 0.523505 0
M  V30 1575 C 187.309 5.63646 1.46207 0
M  V30 1576 N 186.712 5.78186 2.69239 0
M  V30 1577 N 188.462 6.19285 1.21544 0
M  V30 1578 C 188.919 5.93392 -0.0308487 0
M  V30 1579 H 191.088 7.25354 0.961601 0
M  V30 1580 H 192.271 6.3246 -1.65676 0
M  V30 1581 H 193.756 8.19533 -1.78278 0
M  V30 1582 H 192.061 10.1294 -1.10029 0
M  V30 1583 H 191.871 9.64276 -3.41316 0
M  V30 1584 H 190.24 9.25417 -2.76357 0
M  V30 1585 H 185.664 4.53993 0.806451 0
M  V30 1586 H 190.871 6.11865 -2.57394 0
M  V30 1587 H 185.801 5.34046 2.87467 0
M  V30 1588 H 187.177 6.33391 3.42578 0
M  V30 1589 H 192.881 6.25169 1.0783 0
M  V30 1590 P 194.738 8.791 1.12009e-13 0
M  V30 1591 O 196.159 9.31196 0.027936 0
M  V30 1592 O 194.378 7.77869 -1.04071 0
M  V30 1593 O 194.415 8.09533 1.41463 0
M  V30 1594 C 194.254 9.03587 2.5397 0
M  V30 1595 C 194.795 8.35226 3.79016 0
M  V30 1596 O 193.74 7.57904 4.1503 0
M  V30 1597 C 196.013 7.45087 3.67298 0
M  V30 1598 O 196.751 7.27796 4.85194 0
M  V30 1599 C 195.345 6.17323 3.12027 0
M  V30 1600 O 196.143 5.04496 3.46627 0
M  V30 1601 C 194.007 6.19961 3.81809 0
M  V30 1602 N 192.964 5.71575 2.93223 0
M  V30 1603 C 193.133 5.77362 1.59168 0
M  V30 1604 N 192.106 5.3123 0.911893 0
M  V30 1605 C 191.221 4.91717 1.89588 0
M  V30 1606 C 189.954 4.3114 1.8076 0
M  V30 1607 N 189.355 3.99821 0.632928 0
M  V30 1608 N 189.389 4.06823 3.02898 0
M  V30 1609 C 189.991 4.35062 4.22711 0
M  V30 1610 N 191.168 4.90805 4.35707 0
M  V30 1611 C 191.743 5.16382 3.14469 0
M  V30 1612 H 194.039 5.58142 4.72986 0
M  V30 1613 H 195.222 6.21428 2.0318 0
M  V30 1614 H 196.705 7.86112 2.9231 0
M  V30 1615 H 195.011 9.11171 4.55987 0
M  V30 1616 H 194.821 9.9573 2.34194 0
M  V30 1617 H 193.191 9.2792 2.67832 0
M  V30 1618 H 189.455 4.09052 5.13359 0
M  V30 1619 H 194.033 6.16575 1.12198 0
M  V30 1620 H 188.425 3.55423 0.632085 0
M  V30 1621 H 189.829 4.20317 -0.256712 0
M  V30 1622 H 195.831 4.67628 4.28704 0
M  V30 1623 P 197.688 7.39546 4.75277 0
M  V30 1624 O 199.11 7.81777 5.05738 0
M  V30 1625 O 197.328 7.1065 3.32998 0
M  V30 1626 O 197.365 6.04542 5.56673 0
M  V30 1627 C 197.205 6.22772 7.02095 0
M  V30 1628 C 197.745 4.97725 7.70406 0
M  V30 1629 O 196.689 4.13256 7.58987 0
M  V30 1630 C 198.963 4.28231 7.11815 0
M  V30 1631 O 199.701 3.49945 8.01648 0
M  V30 1632 C 198.294 3.5063 5.96244 0
M  V30 1633 O 199.093 2.36482 5.64681 0
M  V30 1634 C 196.957 3.15122 6.56374 0
M  V30 1635 H 196.989 2.13853 6.99751 0
M  V30 1636 H 198.172 4.13501 5.06559 0
M  V30 1637 H 199.656 5.03285 6.70911 0
M  V30 1638 H 197.962 5.20877 8.75697 0
M  V30 1639 H 197.772 7.11046 7.35349 0
M  V30 1640 H 196.142 6.35815 7.26986 0
M  V30 1641 H 198.781 1.61644 6.13565 0
M  V30 1642 P 200.639 3.65191 7.99657 0
M  V30 1643 O 202.061 3.8425 8.48115 0
M  V30 1644 O 200.279 4.17805 6.64342 0
M  V30 1645 O 200.316 2.07613 7.95143 0
M  V30 1646 C 200.156 1.44328 9.27336 0
M  V30 1647 C 200.696 0.0220036 9.17197 0
M  V30 1648 O 199.64 -0.626867 8.61923 0
M  V30 1649 C 201.914 -0.24586 8.30336 0
M  V30 1650 O 202.652 -1.39011 8.63583 0
M  V30 1651 C 201.245 -0.273849 6.91158 0
M  V30 1652 O 202.044 -1.06348 6.02892 0
M  V30 1653 C 199.908 -0.897649 7.22545 0
M  V30 1654 H 199.94 -1.9841 7.04286 0
M  V30 1655 H 201.123 0.739928 6.497 0
M  V30 1656 H 202.607 0.60668 8.36503 0
M  V30 1657 H 200.913 -0.352479 10.1829 0
M  V30 1658 H 200.723 2.00611 10.0304 0
M  V30 1659 H 199.093 1.41843 9.55327 0
M  V30 1660 H 201.732 -1.95734 6.03555 0
M  V30 1661 P 203.589 -1.25109 8.70152 0
M  V30 1662 O 205.011 -1.35274 9.21221 0
M  V30 1663 O 203.229 -0.0769065 7.84762 0
M  V30 1664 O 203.266 -2.55232 7.81161 0
M  V30 1665 C 203.106 -3.79939 8.58154 0
M  V30 1666 C 203.646 -4.94023 7.72785 0
M  V30 1667 O 202.59 -5.18726 6.91205 0
M  V30 1668 C 204.864 -4.69597 6.85231 0
M  V30 1669 O 205.602 -5.83832 6.51337 0
M  V30 1670 C 204.195 -3.96706 5.66633 0
M  V30 1671 O 204.994 -4.15414 4.49689 0
M  V30 1672 C 202.858 -4.66153 5.59313 0
M  V30 1673 H 202.89 -5.47679 4.85214 0
M  V30 1674 H 204.073 -2.89008 5.86566 0
M  V30 1675 H 205.557 -4.0121 7.36511 0
M  V30 1676 H 203.863 -5.80182 8.37584 0
M  V30 1677 H 203.673 -3.73517 9.52265 0
M  V30 1678 H 202.043 -3.97163 8.80359 0
M  V30 1679 H 204.682 -4.90969 4.01921 0
M  V30 1680 P 206.54 -5.75688 6.64379 0
M  V30 1681 O 207.962 -6.11849 7.01846 0
M  V30 1682 O 206.18 -4.30744 6.56026 0
M  V30 1683 O 206.217 -6.37042 5.19165 0
M  V30 1684 C 206.057 -7.83578 5.16515 0
M  V30 1685 C 206.597 -8.33398 3.83019 0
M  V30 1686 O 205.541 -8.10074 3.01034 0
M  V30 1687 C 207.815 -7.65514 3.2257 0
M  V30 1688 O 208.553 -8.4329 2.32297 0
M  V30 1689 C 207.146 -6.40075 2.62207 0
M  V30 1690 O 207.945 -5.92589 1.53712 0
M  V30 1691 C 205.809 -6.9454 2.18503 0
M  V30 1692 H 205.841 -7.23063 1.12091 0
M  V30 1693 H 207.024 -5.6025 3.37201 0
M  V30 1694 H 208.508 -7.35707 4.02681 0
M  V30 1695 H 206.814 -9.40912 3.9095 0
M  V30 1696 H 206.624 -8.29056 5.99158 0
M  V30 1697 H 204.994 -8.10073 5.25882 0
M  V30 1698 H 207.633 -6.30324 0.726794 0
M  V30 1699 P 209.49 -8.4349 2.47671 0
M  V30 1700 O 210.912 -8.94359 2.59696 0
M  V30 1701 O 209.13 -7.1704 3.19006 0
M  V30 1702 O 209.167 -8.16596 0.923387 0
M  V30 1703 C 209.007 -9.38437 0.108857 0
M  V30 1704 C 209.547 -9.08076 -1.28339 0
M  V30 1705 O 208.492 -8.44229 -1.84713 0
M  V30 1706 C 210.765 -8.18386 -1.42505 0
M  V30 1707 O 211.503 -8.3501 -2.60497 0
M  V30 1708 C 210.097 -6.80225 -1.25468 0
M  V30 1709 O 210.895 -5.81526 -1.91035 0
M  V30 1710 C 208.759 -7.02416 -1.9168 0
M  V30 1711 N 207.716 -6.31033 -1.20314 0
M  V30 1712 C 207.778 -6.18781 0.121293 0
M  V30 1713 N 206.733 -5.49762 0.588272 0
M  V30 1714 C 205.999 -5.22015 -0.488988 0
M  V30 1715 C 204.693 -4.61966 -0.596448 0
M  V30 1716 O 203.96 -4.19162 0.309059 0
M  V30 1717 N 204.263 -4.53773 -1.878 0
M  V30 1718 C 205.012 -4.99623 -2.99082 0
M  V30 1719 N 204.415 -4.78912 -4.21227 0
M  V30 1720 N 206.165 -5.59957 -2.91093 0
M  V30 1721 C 206.622 -5.70225 -1.64218 0
M  V30 1722 H 208.791 -6.6888 -2.96621 0
M  V30 1723 H 209.974 -6.53517 -0.192194 0
M  V30 1724 H 211.459 -8.36563 -0.598329 0
M  V30 1725 H 209.764 -10.0291 -1.79807 0
M  V30 1726 H 209.574 -10.2138 0.558219 0
M  V30 1727 H 207.943 -9.6579 0.0444202 0
M  V30 1728 H 203.367 -4.12883 -2.05283 0
M  V30 1729 H 208.574 -6.59596 0.745856 0
M  V30 1730 H 203.504 -4.31425 -4.2628 0
M  V30 1731 H 204.88 -5.11219 -5.07148 0
M  V30 1732 H 210.584 -5.69466 -2.79593 0
M  V30 1733 P 212.441 -8.4349 -2.47671 0
M  V30 1734 O 213.862 -8.92689 -2.65029 0
M  V30 1735 O 212.081 -7.7568 -1.19296 0
M  V30 1736 O 212.118 -7.36886 -3.63805 0
M  V30 1737 C 211.957 -7.95433 -4.98253 0
M  V30 1738 C 212.498 -6.94612 -5.98974 0
M  V30 1739 O 211.443 -6.10277 -6.11744 0
M  V30 1740 C 213.716 -6.11426 -5.62335 0
M  V30 1741 O 214.454 -5.6162 -6.70584 0
M  V30 1742 C 213.048 -5.04409 -4.73308 0
M  V30 1743 O 213.846 -3.86404 -4.74719 0
M  V30 1744 C 211.71 -4.8728 -5.41006 0
M  V30 1745 N 210.667 -4.65812 -4.42377 0
M  V30 1746 C 210.836 -5.09132 -3.15382 0
M  V30 1747 N 209.809 -4.84021 -2.3716 0
M  V30 1748 C 208.924 -4.18386 -3.20441 0
M  V30 1749 C 207.657 -3.6275 -2.94905 0
M  V30 1750 N 207.058 -3.65794 -1.73372 0
M  V30 1751 N 207.092 -3.05008 -4.05243 0
M  V30 1752 C 207.694 -2.98348 -5.28159 0
M  V30 1753 N 208.871 -3.48171 -5.56333 0
M  V30 1754 C 209.446 -4.06869 -4.47212 0
M  V30 1755 H 211.742 -4.02278 -6.11074 0
M  V30 1756 H 212.925 -5.39013 -3.70026 0
M  V30 1757 H 214.408 -6.71916 -5.01943 0
M  V30 1758 H 212.714 -7.45796 -6.94223 0
M  V30 1759 H 212.524 -8.89416 -5.05237 0
M  V30 1760 H 210.894 -8.14876 -5.18409 0
M  V30 1761 H 207.158 -2.47853 -6.07807 0
M  V30 1762 H 211.736 -5.59989 -2.81362 0
M  V30 1763 H 206.128 -3.23218 -1.60782 0
M  V30 1764 H 207.532 -4.10523 -0.937856 0
M  V30 1765 H 213.534 -3.27906 -5.43085 0
M  V30 1766 P 215.392 -5.75688 -6.64379 0
M  V30 1767 O 216.814 -6.07627 -7.05504 0
M  V30 1768 O 215.032 -5.88047 -5.19722 0
M  V30 1769 O 215.069 -4.2322 -7.04443 0
M  V30 1770 C 214.909 -3.99743 -8.4911 0
M  V30 1771 C 215.449 -2.60516 -8.79425 0
M  V30 1772 O 214.393 -1.82684 -8.4467 0
M  V30 1773 C 216.667 -2.10343 -8.03628 0
M  V30 1774 O 217.405 -1.09919 -8.67766 0
M  V30 1775 C 215.998 -1.68446 -6.70876 0
M  V30 1776 O 216.797 -0.678137 -6.08433 0
M  V30 1777 C 214.661 -1.17436 -7.18567 0
M  V30 1778 H 214.693 -0.0804732 -7.31656 0
M  V30 1779 H 215.876 -2.54037 -6.02537 0
M  V30 1780 H 217.36 -2.93881 -7.85526 0
M  V30 1781 H 215.666 -2.53065 -9.86973 0
M  V30 1782 H 215.476 -4.75072 -9.05887 0
M  V30 1783 H 213.846 -4.05244 -8.76668 0
M  V30 1784 H 216.485 0.177647 -6.34251 0
M  V30 1785 P 218.342 -1.25109 -8.70152 0
M  V30 1786 O 219.764 -1.29744 -9.22016 0
M  V30 1787 O 217.982 -2.13714 -7.55141 0
M  V30 1788 O 218.019 0.248149 -8.21425 0
M  V30 1789 C 217.859 1.22779 -9.30434 0
M  V30 1790 C 218.399 2.56293 -8.80664 0
M  V30 1791 O 217.343 3.02979 -8.09349 0
M  V30 1792 C 219.617 2.57523 -7.89775 0
M  V30 1793 O 220.355 3.7668 -7.89438 0
M  V30 1794 C 218.948 2.20997 -6.55446 0
M  V30 1795 O 219.747 2.71895 -5.48509 0
M  V30 1796 C 217.611 2.89693 -6.67988 0
M  V30 1797 H 217.643 3.88793 -6.19859 0
M  V30 1798 H 218.826 1.12046 -6.44229 0
M  V30 1799 H 220.31 1.7746 -8.19711 0
M  V30 1800 H 218.616 3.20706 -9.67112 0
M  V30 1801 H 218.426 0.901032 -10.1892 0
M  V30 1802 H 216.796 1.33049 -9.56592 0
M  V30 1803 H 219.435 3.57847 -5.23962 0
M  V30 1804 P 221.293 3.65191 -7.99657 0
M  V30 1805 O 222.714 3.89374 -8.45885 0
M  V30 1806 O 220.933 2.28472 -7.50807 0
M  V30 1807 O 220.97 4.64972 -6.77611 0
M  V30 1808 C 220.809 6.06383 -7.16428 0
M  V30 1809 C 221.35 6.91731 -6.02299 0
M  V30 1810 O 220.295 6.92369 -5.17005 0
M  V30 1811 C 222.568 6.43627 -5.25174 0
M  V30 1812 O 223.306 7.43686 -4.60469 0
M  V30 1813 C 221.9 5.40275 -4.31916 0
M  V30 1814 O 222.698 5.24878 -3.14911 0
M  V30 1815 C 220.562 6.04847 -4.05327 0
M  V30 1816 N 219.519 5.04166 -3.98114 0
M  V30 1817 C 219.688 3.84629 -4.59066 0
M  V30 1818 N 218.661 3.0363 -4.45343 0
M  V30 1819 C 217.776 3.76722 -3.68523 0
M  V30 1820 C 216.509 3.43528 -3.17088 0
M  V30 1821 N 215.91 2.23665 -3.37397 0
M  V30 1822 N 215.944 4.44526 -2.44231 0
M  V30 1823 C 216.546 5.65243 -2.20146 0
M  V30 1824 N 217.723 6.00221 -2.65453 0
M  V30 1825 C 218.298 5.00564 -3.39083 0
M  V30 1826 H 220.594 6.62104 -3.11218 0
M  V30 1827 H 221.777 4.42969 -4.80867 0
M  V30 1828 H 223.26 5.92458 -5.93643 0
M  V30 1829 H 221.566 7.93295 -6.39407 0
M  V30 1830 H 221.376 6.26671 -8.0846 0
M  V30 1831 H 219.746 6.29101 -7.32804 0
M  V30 1832 H 216.01 6.36894 -1.5883 0
M  V30 1833 H 220.588 3.58193 -5.14248 0
M  V30 1834 H 214.98 2.05145 -2.97047 0
M  V30 1835 H 216.384 1.51255 -3.92998 0
M  V30 1836 H 222.386 5.84223 -2.47279 0
M  V30 1837 P 224.243 7.39546 -4.75277 0
M  V30 1838 O 225.665 7.84798 -5.01039 0
M  V30 1839 O 223.883 5.9812 -5.08098 0
M  V30 1840 O 223.92 7.57503 -3.1866 0
M  V30 1841 C 223.76 8.97357 -2.74833 0
M  V30 1842 C 224.3 9.07548 -1.32709 0
M  V30 1843 O 223.244 8.62072 -0.606159 0
M  V30 1844 C 225.518 8.25383 -0.938334 0
M  V30 1845 O 226.256 8.74577 0.146954 0
M  V30 1846 C 224.849 6.8802 -0.712559 0
M  V30 1847 O 225.648 6.1189 0.194655 0
M  V30 1848 C 223.512 7.27966 -0.139777 0
M  V30 1849 H 223.544 7.25354 0.961601 0
M  V30 1850 H 224.727 6.32557 -1.65702 0
M  V30 1851 H 226.211 8.19355 -1.79097 0
M  V30 1852 H 224.517 10.1294 -1.10029 0
M  V30 1853 H 224.327 9.64276 -3.41316 0
M  V30 1854 H 222.697 9.25417 -2.76357 0
M  V30 1855 H 225.336 6.25267 1.07847 0
M  V30 1856 P 227.194 8.791 4.22174e-13 0
M  V30 1857 O 228.615 9.31196 0.027936 0
M  V30 1858 O 226.834 7.77869 -1.04071 0
M  V30 1859 O 226.871 8.09533 1.41463 0
M  V30 1860 C 226.71 9.03587 2.5397 0
M  V30 1861 C 227.251 8.35226 3.79016 0
M  V30 1862 O 226.196 7.57904 4.1503 0
M  V30 1863 C 228.469 7.45087 3.67298 0
M  V30 1864 O 229.207 7.27796 4.85194 0
M  V30 1865 C 227.801 6.17323 3.12027 0
M  V30 1866 O 228.599 5.04496 3.46627 0
M  V30 1867 C 226.463 6.19961 3.81809 0
M  V30 1868 N 225.42 5.71575 2.93223 0
M  V30 1869 C 225.589 5.77362 1.59168 0
M  V30 1870 N 224.562 5.3123 0.911893 0
M  V30 1871 C 223.677 4.91717 1.89588 0
M  V30 1872 C 222.41 4.3114 1.8076 0
M  V30 1873 N 221.811 3.99821 0.632928 0
M  V30 1874 N 221.845 4.06823 3.02898 0
M  V30 1875 C 222.447 4.35062 4.22711 0
M  V30 1876 N 223.624 4.90805 4.35707 0
M  V30 1877 C 224.199 5.16382 3.14469 0
M  V30 1878 H 226.495 5.58142 4.72986 0
M  V30 1879 H 227.678 6.21428 2.0318 0
M  V30 1880 H 229.161 7.86112 2.9231 0
M  V30 1881 H 227.467 9.11171 4.55987 0
M  V30 1882 H 227.277 9.9573 2.34194 0
M  V30 1883 H 225.647 9.2792 2.67832 0
M  V30 1884 H 221.911 4.09052 5.13359 0
M  V30 1885 H 226.489 6.16575 1.12198 0
M  V30 1886 H 220.881 3.55423 0.632085 0
M  V30 1887 H 222.285 4.20317 -0.256712 0
M  V30 1888 H 228.287 4.67628 4.28704 0
M  V30 1889 P 230.144 7.39546 4.75277 0
M  V30 1890 O 231.566 7.81777 5.05738 0
M  V30 1891 O 229.784 7.1065 3.32998 0
M  V30 1892 O 229.821 6.04542 5.56673 0
M  V30 1893 C 229.661 6.22772 7.02095 0
M  V30 1894 C 230.201 4.97725 7.70406 0
M  V30 1895 O 229.145 4.13256 7.58987 0
M  V30 1896 C 231.419 4.28231 7.11815 0
M  V30 1897 O 232.157 3.49945 8.01648 0
M  V30 1898 C 230.75 3.5063 5.96244 0
M  V30 1899 O 231.549 2.36482 5.64681 0
M  V30 1900 C 229.413 3.15122 6.56374 0
M  V30 1901 H 229.445 2.13853 6.99751 0
M  V30 1902 H 230.628 4.13501 5.06559 0
M  V30 1903 H 232.112 5.03285 6.70911 0
M  V30 1904 H 230.418 5.20877 8.75697 0
M  V30 1905 H 230.228 7.11046 7.35349 0
M  V30 1906 H 228.598 6.35815 7.26986 0
M  V30 1907 H 231.237 1.61644 6.13565 0
M  V30 1908 P 233.095 3.65191 7.99657 0
M  V30 1909 O 234.516 3.84292 8.48206 0
M  V30 1910 O 232.735 4.17805 6.64342 0
M  V30 1911 O 232.772 2.07613 7.95143 0
M  V30 1912 C 232.611 1.44344 9.27435 0
M  V30 1913 C 233.152 0.0220036 9.17197 0
M  V30 1914 O 232.097 -0.626794 8.61824 0
M  V30 1915 C 234.37 -0.24586 8.30336 0
M  V30 1916 O 235.108 -1.39011 8.63583 0
M  V30 1917 C 233.702 -0.273849 6.91158 0
M  V30 1918 O 234.5 -1.05728 6.029 0
M  V30 1919 C 232.364 -0.897649 7.22545 0
M  V30 1920 N 231.321 -0.292839 6.41732 0
M  V30 1921 C 231.49 0.950603 5.91308 0
M  V30 1922 N 230.463 1.37732 5.21105 0
M  V30 1923 C 229.578 0.318109 5.26039 0
M  V30 1924 C 228.311 0.146766 4.6727 0
M  V30 1925 N 227.712 1.08519 3.89983 0
M  V30 1926 N 227.746 -1.06525 4.95887 0
M  V30 1927 C 228.348 -2.0378 5.71347 0
M  V30 1928 N 229.525 -1.92445 6.27451 0
M  V30 1929 C 230.1 -0.715382 6.00353 0
M  V30 1930 H 232.396 -1.98383 7.04189 0
M  V30 1931 H 233.579 0.733318 6.49674 0
M  V30 1932 H 235.062 0.60668 8.36503 0
M  V30 1933 H 233.368 -0.362662 10.1825 0
M  V30 1934 H 233.178 2.00611 10.0304 0
M  V30 1935 H 231.548 1.41843 9.55327 0
M  V30 1936 H 227.812 -2.97041 5.85344 0
M  V30 1937 H 232.39 1.54076 6.07465 0
M  V30 1938 H 226.782 0.901517 3.49562 0
M  V30 1939 H 228.186 1.97957 3.71669 0
M  V30 1940 H 234.188 -1.95704 6.0346 0
M  V30 1941 P 236.046 -1.25109 8.70152 0
M  V30 1942 O 237.468 -1.35274 9.21221 0
M  V30 1943 O 235.686 -0.0769065 7.84762 0
M  V30 1944 O 235.723 -2.55232 7.81161 0
M  V30 1945 C 235.563 -3.79939 8.58154 0
M  V30 1946 C 236.103 -4.94023 7.72785 0
M  V30 1947 O 235.047 -5.18726 6.91205 0
M  V30 1948 C 237.321 -4.69597 6.85231 0
M  V30 1949 O 238.059 -5.83832 6.51337 0
M  V30 1950 C 236.652 -3.96706 5.66633 0
M  V30 1951 O 237.451 -4.15414 4.49689 0
M  V30 1952 C 235.315 -4.66153 5.59313 0
M  V30 1953 H 235.347 -5.47679 4.85214 0
M  V30 1954 H 236.53 -2.89008 5.86566 0
M  V30 1955 H 238.014 -4.0121 7.36511 0
M  V30 1956 H 236.32 -5.80182 8.37584 0
M  V30 1957 H 236.13 -3.73517 9.52265 0
M  V30 1958 H 234.5 -3.97163 8.80359 0
M  V30 1959 H 237.139 -4.90969 4.01921 0
M  V30 1960 P 238.996 -5.75688 6.64379 0
M  V30 1961 O 240.417 -6.11915 7.01921 0
M  V30 1962 O 238.636 -4.30744 6.56026 0
M  V30 1963 O 238.673 -6.37042 5.19165 0
M  V30 1964 C 238.512 -7.83662 5.1657 0
M  V30 1965 C 239.053 -8.33398 3.83019 0
M  V30 1966 O 237.998 -8.0998 3.00999 0
M  V30 1967 C 240.271 -7.65514 3.2257 0
M  V30 1968 O 241.009 -8.4329 2.32297 0
M  V30 1969 C 239.603 -6.40075 2.62207 0
M  V30 1970 O 240.401 -5.92338 1.5428 0
M  V30 1971 C 238.265 -6.9454 2.18503 0
M  V30 1972 N 237.222 -5.95905 2.39948 0
M  V30 1973 C 237.391 -4.98383 3.32108 0
M  V30 1974 N 236.364 -4.16798 3.41761 0
M  V30 1975 C 235.479 -4.65287 2.47461 0
M  V30 1976 C 234.212 -4.18946 2.07461 0
M  V30 1977 N 233.613 -3.09661 2.60717 0
M  V30 1978 N 233.647 -4.95327 1.09101 0
M  V30 1979 C 234.249 -6.04369 0.519812 0
M  V30 1980 N 235.426 -6.50694 0.855982 0
M  V30 1981 C 236.001 -5.75818 1.84322 0
M  V30 1982 H 238.297 -7.22964 1.12076 0
M  V30 1983 H 239.48 -5.60502 3.36589 0
M  V30 1984 H 240.963 -7.35707 4.02681 0
M  V30 1985 H 239.269 -9.41302 3.90009 0
M  V30 1986 H 239.079 -8.29056 5.99158 0
M  V30 1987 H 237.449 -8.10073 5.25882 0
M  V30 1988 H 233.713 -6.55843 -0.270373 0
M  V30 1989 H 238.291 -4.88564 3.92502 0
M  V30 1990 H 232.683 -2.80523 2.27218 0
M  V30 1991 H 234.087 -2.55848 3.34465 0
M  V30 1992 H 240.089 -6.30224 0.72668 0
M  V30 1993 P 241.947 -8.4349 2.47671 0
M  V30 1994 O 243.369 -8.94359 2.59696 0
M  V30 1995 O 241.587 -7.1704 3.19006 0
M  V30 1996 O 241.624 -8.16596 0.923387 0
M  V30 1997 C 241.464 -9.38437 0.108857 0
M  V30 1998 C 242.004 -9.08076 -1.28339 0
M  V30 1999 O 240.949 -8.44229 -1.84713 0
M  V30 2000 C 243.222 -8.18386 -1.42505 0
M  V30 2001 O 243.96 -8.3501 -2.60497 0
M  V30 2002 C 242.554 -6.80225 -1.25468 0
M  V30 2003 O 243.352 -5.81526 -1.91035 0
M  V30 2004 C 241.216 -7.02416 -1.9168 0
M  V30 2005 N 240.173 -6.31033 -1.20314 0
M  V30 2006 C 240.235 -6.18781 0.121293 0
M  V30 2007 N 239.19 -5.49762 0.588272 0
M  V30 2008 C 238.456 -5.22015 -0.488988 0
M  V30 2009 C 237.15 -4.61966 -0.596448 0
M  V30 2010 O 236.417 -4.19162 0.309059 0
M  V30 2011 N 236.72 -4.53773 -1.878 0
M  V30 2012 C 237.469 -4.99623 -2.99082 0
M  V30 2013 N 236.872 -4.78912 -4.21227 0
M  V30 2014 N 238.622 -5.59957 -2.91093 0
M  V30 2015 C 239.079 -5.70225 -1.64218 0
M  V30 2016 H 241.248 -6.6888 -2.96621 0
M  V30 2017 H 242.431 -6.53517 -0.192194 0
M  V30 2018 H 243.916 -8.36563 -0.598329 0
M  V30 2019 H 242.221 -10.0291 -1.79807 0
M  V30 2020 H 242.031 -10.2138 0.558219 0
M  V30 2021 H 240.4 -9.6579 0.0444202 0
M  V30 2022 H 235.824 -4.12883 -2.05283 0
M  V30 2023 H 241.031 -6.59596 0.745856 0
M  V30 2024 H 235.961 -4.31425 -4.2628 0
M  V30 2025 H 237.337 -5.11219 -5.07148 0
M  V30 2026 H 243.041 -5.69466 -2.79593 0
M  V30 2027 P 244.897 -8.4349 -2.47671 0
M  V30 2028 O 246.318 -8.92689 -2.65029 0
M  V30 2029 O 244.537 -7.7568 -1.19296 0
M  V30 2030 O 244.574 -7.36886 -3.63805 0
M  V30 2031 C 244.413 -7.95433 -4.98253 0
M  V30 2032 C 244.954 -6.94612 -5.98974 0
M  V30 2033 O 243.899 -6.10277 -6.11744 0
M  V30 2034 C 246.172 -6.11426 -5.62335 0
M  V30 2035 O 246.91 -5.6162 -6.70584 0
M  V30 2036 C 245.504 -5.04409 -4.73308 0
M  V30 2037 O 246.302 -3.86404 -4.74719 0
M  V30 2038 C 244.166 -4.8728 -5.41006 0
M  V30 2039 N 243.123 -4.65812 -4.42377 0
M  V30 2040 C 243.292 -5.09132 -3.15382 0
M  V30 2041 N 242.265 -4.84021 -2.3716 0
M  V30 2042 C 241.38 -4.18386 -3.20441 0
M  V30 2043 C 240.113 -3.6275 -2.94905 0
M  V30 2044 N 239.548 -3.05008 -4.05243 0
M  V30 2045 C 240.15 -2.98348 -5.28159 0
M  V30 2046 N 241.327 -3.48171 -5.56333 0
M  V30 2047 C 241.902 -4.06869 -4.47212 0
M  V30 2048 H 245.381 -5.39013 -3.70026 0
M  V30 2049 H 246.864 -6.71916 -5.01943 0
M  V30 2050 H 245.17 -7.45796 -6.94223 0
M  V30 2051 H 244.98 -8.89416 -5.05237 0
M  V30 2052 H 243.35 -8.14876 -5.18409 0
M  V30 2053 H 244.192 -5.59989 -2.81362 0
M  V30 2054 H 245.99 -3.27906 -5.43085 0
M  V30 2055 P 247.848 -5.75688 -6.64379 0
M  V30 2056 O 249.269 -6.07692 -7.0558 0
M  V30 2057 O 247.488 -5.88047 -5.19722 0
M  V30 2058 O 247.525 -4.2322 -7.04443 0
M  V30 2059 C 247.364 -3.99785 -8.49201 0
M  V30 2060 C 247.905 -2.60516 -8.79425 0
M  V30 2061 O 246.85 -1.82663 -8.44573 0
M  V30 2062 C 249.123 -2.10343 -8.03628 0
M  V30 2063 O 249.861 -1.09919 -8.67766 0
M  V30 2064 C 248.455 -1.68446 -6.70876 0
M  V30 2065 O 249.253 -0.684109 -6.08265 0
M  V30 2066 C 247.117 -1.17436 -7.18567 0
M  V30 2067 N 246.074 -1.52699 -6.23988 0
M  V30 2068 C 246.243 -2.578 -5.40574 0
M  V30 2069 N 245.216 -2.78966 -4.61193 0
M  V30 2070 C 244.331 -1.78725 -4.95769 0
M  V30 2071 C 243.064 -1.45727 -4.44207 0
M  V30 2072 N 242.499 -0.374977 -5.05812 0
M  V30 2073 C 243.101 0.345585 -6.05615 0
M  V30 2074 N 244.278 0.0787651 -6.56253 0
M  V30 2075 C 244.853 -1.00499 -5.96189 0
M  V30 2076 H 248.332 -2.53396 -6.02698 0
M  V30 2077 H 249.815 -2.93881 -7.85526 0
M  V30 2078 H 248.121 -2.52078 -9.87225 0
M  V30 2079 H 247.931 -4.75072 -9.05887 0
M  V30 2080 H 246.301 -4.05244 -8.76668 0
M  V30 2081 H 247.143 -3.18977 -5.3945 0
M  V30 2082 H 248.941 0.177619 -6.34151 0
M  V30 2083 P 250.798 -1.25109 -8.70152 0
M  V30 2084 O 252.199 -1.3516 -9.26897 0
M  V30 2085 O 250.42 -2.18141 -7.59181 0
M  V30 2086 O 250.475 0.248118 -8.21325 0
M  V30 2087 C 250.315 1.22779 -9.30434 0
M  V30 2088 C 250.855 2.56265 -8.80568 0
M  V30 2089 O 249.799 3.02944 -8.09255 0
M  V30 2090 C 252.072 2.57523 -7.89775 0
M  V30 2091 O 252.811 3.7668 -7.89438 0
M  V30 2092 C 251.405 2.20997 -6.55446 0
M  V30 2093 O 252.203 2.71851 -5.48419 0
M  V30 2094 C 250.067 2.89693 -6.67988 0
M  V30 2095 N 249.024 2.08895 -6.07487 0
M  V30 2096 C 247.989 2.72974 -5.43836 0
M  V30 2097 O 248.028 3.97779 -5.34036 0
M  V30 2098 N 246.977 2.0005 -4.91983 0
M  V30 2099 C 247.025 0.66501 -5.00098 0
M  V30 2100 N 246.015 -0.0305439 -4.4919 0
M  V30 2101 C 248.121 -0.0100979 -5.61099 0
M  V30 2102 C 249.087 0.74189 -6.14236 0
M  V30 2103 H 250.099 3.8874 -6.19774 0
M  V30 2104 H 251.282 1.12673 -6.44018 0
M  V30 2105 H 252.766 1.783 -8.19631 0
M  V30 2106 H 251.072 3.21673 -9.66791 0
M  V30 2107 H 250.881 0.901032 -10.1892 0
M  V30 2108 H 249.251 1.33036 -9.56493 0
M  V30 2109 H 248.169 -1.09591 -5.64358 0
M  V30 2110 H 249.933 0.260263 -6.6359 0
M  V30 2111 H 245.225 0.460194 -4.04793 0
M  V30 2112 H 246.02 -1.05716 -4.53953 0
M  V30 2113 H 251.987 3.62759 -5.33442 0
M  V30 2114 P 253.749 3.65191 -7.99657 0
M  V30 2115 O 255.171 3.89332 -8.45794 0
M  V30 2116 O 253.389 2.28472 -7.50807 0
M  V30 2117 O 253.426 4.64972 -6.77611 0
M  V30 2118 C 253.266 6.06319 -7.16352 0
M  V30 2119 C 253.806 6.91731 -6.02299 0
M  V30 2120 O 252.75 6.92449 -5.17064 0
M  V30 2121 C 255.024 6.43627 -5.25174 0
M  V30 2122 O 255.762 7.43686 -4.60469 0
M  V30 2123 C 254.355 5.40275 -4.31916 0
M  V30 2124 O 255.154 5.25279 -3.14438 0
M  V30 2125 C 253.018 6.04847 -4.05327 0
M  V30 2126 H 253.05 6.62195 -3.11261 0
M  V30 2127 H 254.233 4.42556 -4.81383 0
M  V30 2128 H 255.717 5.92458 -5.93643 0
M  V30 2129 H 254.023 7.92655 -6.402 0
M  V30 2130 H 253.833 6.26671 -8.0846 0
M  V30 2131 H 252.203 6.29101 -7.32804 0
M  V30 2132 H 254.842 5.84315 -2.47318 0
M  V30 2133 P 256.7 7.39546 -4.75277 0
M  V30 2134 O 258.122 7.84798 -5.01039 0
M  V30 2135 O 256.34 5.9812 -5.08098 0
M  V30 2136 O 256.377 7.57503 -3.1866 0
M  V30 2137 C 256.217 8.97357 -2.74833 0
M  V30 2138 C 256.757 9.07548 -1.32709 0
M  V30 2139 O 255.701 8.62072 -0.606159 0
M  V30 2140 C 257.975 8.25383 -0.938334 0
M  V30 2141 O 258.713 8.74577 0.146954 0
M  V30 2142 C 257.306 6.8802 -0.712559 0
M  V30 2143 O 258.105 6.1189 0.194655 0
M  V30 2144 C 255.969 7.27966 -0.139777 0
M  V30 2145 H 256.001 7.25354 0.961601 0
M  V30 2146 H 257.184 6.32557 -1.65702 0
M  V30 2147 H 258.668 8.19355 -1.79097 0
M  V30 2148 H 256.974 10.1294 -1.10029 0
M  V30 2149 H 256.784 9.64276 -3.41316 0
M  V30 2150 H 255.154 9.25417 -2.76357 0
M  V30 2151 H 257.793 6.25267 1.07847 0
M  V30 2152 P 259.65 8.791 7.3234e-13 0
M  V30 2153 O 261.071 9.31196 0.027936 0
M  V30 2154 O 259.29 7.77869 -1.04071 0
M  V30 2155 O 259.327 8.09533 1.41463 0
M  V30 2156 C 259.166 9.03587 2.5397 0
M  V30 2157 C 259.707 8.35226 3.79016 0
M  V30 2158 O 258.652 7.57904 4.1503 0
M  V30 2159 C 260.925 7.45087 3.67298 0
M  V30 2160 O 261.663 7.27796 4.85194 0
M  V30 2161 C 260.257 6.17323 3.12027 0
M  V30 2162 O 261.055 5.04496 3.46627 0
M  V30 2163 C 258.919 6.19961 3.81809 0
M  V30 2164 N 257.876 5.71575 2.93223 0
M  V30 2165 C 258.045 5.77362 1.59168 0
M  V30 2166 N 257.018 5.3123 0.911893 0
M  V30 2167 C 256.133 4.91717 1.89588 0
M  V30 2168 C 254.866 4.3114 1.8076 0
M  V30 2169 N 254.267 3.99821 0.632928 0
M  V30 2170 N 254.301 4.06823 3.02898 0
M  V30 2171 C 254.903 4.35062 4.22711 0
M  V30 2172 N 256.08 4.90805 4.35707 0
M  V30 2173 C 256.655 5.16382 3.14469 0
M  V30 2174 H 258.951 5.58142 4.72986 0
M  V30 2175 H 260.134 6.21428 2.0318 0
M  V30 2176 H 261.617 7.86112 2.9231 0
M  V30 2177 H 259.923 9.11171 4.55987 0
M  V30 2178 H 259.733 9.9573 2.34194 0
M  V30 2179 H 258.103 9.2792 2.67832 0
M  V30 2180 H 254.367 4.09052 5.13359 0
M  V30 2181 H 258.945 6.16575 1.12198 0
M  V30 2182 H 253.337 3.55423 0.632085 0
M  V30 2183 H 254.741 4.20317 -0.256712 0
M  V30 2184 H 260.743 4.67628 4.28704 0
M  V30 2185 P 262.601 7.39546 4.75277 0
M  V30 2186 O 264.023 7.81945 5.05847 0
M  V30 2187 O 262.241 7.1065 3.32998 0
M  V30 2188 O 262.278 6.04542 5.56673 0
M  V30 2189 C 262.118 6.22772 7.02095 0
M  V30 2190 C 262.658 4.97671 7.70322 0
M  V30 2191 O 261.603 4.13256 7.58987 0
M  V30 2192 C 263.876 4.28231 7.11815 0
M  V30 2193 O 264.614 3.49945 8.01648 0
M  V30 2194 C 263.208 3.5063 5.96244 0
M  V30 2195 O 264.006 2.36443 5.64589 0
M  V30 2196 C 261.87 3.15122 6.56374 0
M  V30 2197 N 260.827 3.22311 5.55692 0
M  V30 2198 C 260.889 4.14382 4.59701 0
M  V30 2199 N 259.844 4.04476 3.76958 0
M  V30 2200 C 259.11 3.04892 4.26534 0
M  V30 2201 C 257.804 2.57447 3.88189 0
M  V30 2202 O 257.071 2.9785 2.96543 0
M  V30 2203 N 257.374 1.55228 4.65922 0
M  V30 2204 C 258.123 1.01152 5.73447 0
M  V30 2205 N 257.526 -0.0472117 6.37783 0
M  V30 2206 N 259.276 1.467 6.13813 0
M  V30 2207 C 259.733 2.4931 5.38487 0
M  V30 2208 H 261.902 2.13853 6.99751 0
M  V30 2209 H 263.085 4.13438 5.06482 0
M  V30 2210 H 264.57 5.02614 6.71414 0
M  V30 2211 H 262.875 5.20877 8.75697 0
M  V30 2212 H 262.685 7.11046 7.35349 0
M  V30 2213 H 261.054 6.35815 7.26986 0
M  V30 2214 H 256.478 1.15238 4.46468 0
M  V30 2215 H 261.685 4.88312 4.49647 0
M  V30 2216 H 256.615 -0.396382 6.05203 0
M  V30 2217 H 257.991 -0.484997 7.18465 0
M  V30 2218 H 263.695 1.61619 6.13468 0
M  V30 2219 P 265.551 3.65191 7.99657 0
M  V30 2220 O 266.972 3.84292 8.48206 0
M  V30 2221 O 265.191 4.17805 6.64342 0
M  V30 2222 O 265.228 2.07613 7.95143 0
M  V30 2223 C 265.067 1.44344 9.27435 0
M  V30 2224 C 265.608 0.0220036 9.17197 0
M  V30 2225 O 264.553 -0.626794 8.61824 0
M  V30 2226 C 266.826 -0.24586 8.30336 0
M  V30 2227 O 267.564 -1.39011 8.63583 0
M  V30 2228 C 266.158 -0.273849 6.91158 0
M  V30 2229 O 266.956 -1.05728 6.029 0
M  V30 2230 C 264.82 -0.897649 7.22545 0
M  V30 2231 N 263.777 -0.292839 6.41732 0
M  V30 2232 C 263.946 0.950603 5.91308 0
M  V30 2233 N 262.919 1.37732 5.21105 0
M  V30 2234 C 262.034 0.318109 5.26039 0
M  V30 2235 C 260.767 0.146766 4.6727 0
M  V30 2236 N 260.168 1.08519 3.89983 0
M  V30 2237 N 260.202 -1.06525 4.95887 0
M  V30 2238 C 260.804 -2.0378 5.71347 0
M  V30 2239 N 261.981 -1.92445 6.27451 0
M  V30 2240 C 262.556 -0.715382 6.00353 0
M  V30 2241 H 264.852 -1.98383 7.04189 0
M  V30 2242 H 266.035 0.733318 6.49674 0
M  V30 2243 H 267.518 0.60668 8.36503 0
M  V30 2244 H 265.824 -0.362662 10.1825 0
M  V30 2245 H 265.634 2.00611 10.0304 0
M  V30 2246 H 264.004 1.41843 9.55327 0
M  V30 2247 H 260.268 -2.97041 5.85344 0
M  V30 2248 H 264.846 1.54076 6.07465 0
M  V30 2249 H 259.238 0.901517 3.49562 0
M  V30 2250 H 260.642 1.97957 3.71669 0
M  V30 2251 H 266.644 -1.95704 6.0346 0
M  V30 2252 P 268.502 -1.25109 8.70152 0
M  V30 2253 O 269.924 -1.35274 9.21221 0
M  V30 2254 O 268.142 -0.0769065 7.84762 0
M  V30 2255 O 268.179 -2.55232 7.81161 0
M  V30 2256 C 268.019 -3.79939 8.58154 0
M  V30 2257 C 268.559 -4.94023 7.72785 0
M  V30 2258 O 267.503 -5.18726 6.91205 0
M  V30 2259 C 269.777 -4.69597 6.85231 0
M  V30 2260 O 270.515 -5.83832 6.51337 0
M  V30 2261 C 269.108 -3.96706 5.66633 0
M  V30 2262 O 269.907 -4.15414 4.49689 0
M  V30 2263 C 267.771 -4.66153 5.59313 0
M  V30 2264 H 267.803 -5.47679 4.85214 0
M  V30 2265 H 268.986 -2.89008 5.86566 0
M  V30 2266 H 270.47 -4.0121 7.36511 0
M  V30 2267 H 268.776 -5.80182 8.37584 0
M  V30 2268 H 268.586 -3.73517 9.52265 0
M  V30 2269 H 266.956 -3.97163 8.80359 0
M  V30 2270 H 269.595 -4.90969 4.01921 0
M  V30 2271 P 271.452 -5.75688 6.64379 0
M  V30 2272 O 272.874 -6.11849 7.01846 0
M  V30 2273 O 271.092 -4.30744 6.56026 0
M  V30 2274 O 271.129 -6.37042 5.19165 0
M  V30 2275 C 270.969 -7.83578 5.16515 0
M  V30 2276 C 271.509 -8.33398 3.83019 0
M  V30 2277 O 270.453 -8.10074 3.01034 0
M  V30 2278 C 272.727 -7.65514 3.2257 0
M  V30 2279 O 273.465 -8.4329 2.32297 0
M  V30 2280 C 272.058 -6.40075 2.62207 0
M  V30 2281 O 272.857 -5.92589 1.53712 0
M  V30 2282 C 270.721 -6.9454 2.18503 0
M  V30 2283 H 270.753 -7.23063 1.12091 0
M  V30 2284 H 271.936 -5.6025 3.37201 0
M  V30 2285 H 273.42 -7.35707 4.02681 0
M  V30 2286 H 271.726 -9.40912 3.9095 0
M  V30 2287 H 271.536 -8.29056 5.99158 0
M  V30 2288 H 269.906 -8.10073 5.25882 0
M  V30 2289 H 272.545 -6.30324 0.726794 0
M  V30 2290 P 274.403 -8.4349 2.47671 0
M  V30 2291 O 275.825 -8.94359 2.59696 0
M  V30 2292 O 274.043 -7.1704 3.19006 0
M  V30 2293 O 274.08 -8.16596 0.923387 0
M  V30 2294 C 273.92 -9.38437 0.108857 0
M  V30 2295 C 274.46 -9.08076 -1.28339 0
M  V30 2296 O 273.405 -8.44229 -1.84713 0
M  V30 2297 C 275.678 -8.18386 -1.42505 0
M  V30 2298 O 276.416 -8.3501 -2.60497 0
M  V30 2299 C 275.01 -6.80225 -1.25468 0
M  V30 2300 O 275.808 -5.81526 -1.91035 0
M  V30 2301 C 273.672 -7.02416 -1.9168 0
M  V30 2302 N 272.629 -6.31033 -1.20314 0
M  V30 2303 C 272.691 -6.18781 0.121293 0
M  V30 2304 N 271.646 -5.49762 0.588272 0
M  V30 2305 C 270.912 -5.22015 -0.488988 0
M  V30 2306 C 269.606 -4.61966 -0.596448 0
M  V30 2307 O 268.873 -4.19162 0.309059 0
M  V30 2308 N 269.176 -4.53773 -1.878 0
M  V30 2309 C 269.925 -4.99623 -2.99082 0
M  V30 2310 N 269.328 -4.78912 -4.21227 0
M  V30 2311 N 271.078 -5.59957 -2.91093 0
M  V30 2312 C 271.535 -5.70225 -1.64218 0
M  V30 2313 H 273.704 -6.6888 -2.96621 0
M  V30 2314 H 274.887 -6.53517 -0.192194 0
M  V30 2315 H 276.372 -8.36563 -0.598329 0
M  V30 2316 H 274.677 -10.0291 -1.79807 0
M  V30 2317 H 274.487 -10.2138 0.558219 0
M  V30 2318 H 272.856 -9.6579 0.0444202 0
M  V30 2319 H 268.28 -4.12883 -2.05283 0
M  V30 2320 H 273.487 -6.59596 0.745856 0
M  V30 2321 H 268.417 -4.31425 -4.2628 0
M  V30 2322 H 269.793 -5.11219 -5.07148 0
M  V30 2323 H 275.497 -5.69466 -2.79593 0
M  V30 2324 P 277.354 -8.4349 -2.47671 0
M  V30 2325 O 278.776 -8.92785 -2.65057 0
M  V30 2326 O 276.994 -7.7568 -1.19296 0
M  V30 2327 O 277.031 -7.36886 -3.63805 0
M  V30 2328 C 276.871 -7.95349 -4.982 0
M  V30 2329 C 277.411 -6.94537 -5.98908 0
M  V30 2330 O 276.356 -6.10347 -6.11815 0
M  V30 2331 C 278.629 -6.11426 -5.62335 0
M  V30 2332 O 279.367 -5.6162 -6.70584 0
M  V30 2333 C 277.961 -5.04409 -4.73308 0
M  V30 2334 O 278.759 -3.85929 -4.75106 0
M  V30 2335 C 276.623 -4.8728 -5.41006 0
M  V30 2336 N 275.58 -4.65812 -4.42377 0
M  V30 2337 C 275.642 -5.27109 -3.24335 0
M  V30 2338 N 274.597 -4.94293 -2.47735 0
M  V30 2339 C 273.863 -4.1271 -3.23359 0
M  V30 2340 C 272.557 -3.56384 -2.99934 0
M  V30 2341 O 271.824 -3.69331 -2.00616 0
M  V30 2342 N 272.127 -2.80206 -4.03316 0
M  V30 2343 C 272.876 -2.58614 -5.2172 0
M  V30 2344 N 272.279 -1.75154 -6.13278 0
M  V30 2345 N 274.029 -3.13689 -5.47619 0
M  V30 2346 C 274.486 -3.90921 -4.46436 0
M  V30 2347 H 276.655 -4.02333 -6.11157 0
M  V30 2348 H 277.838 -5.39383 -3.69487 0
M  V30 2349 H 279.323 -6.71414 -5.02615 0
M  V30 2350 H 277.628 -7.4649 -6.93477 0
M  V30 2351 H 277.438 -8.89416 -5.05237 0
M  V30 2352 H 275.807 -8.14876 -5.18409 0
M  V30 2353 H 271.231 -2.36355 -3.95916 0
M  V30 2354 H 276.438 -5.95212 -2.93859 0
M  V30 2355 H 271.368 -1.32473 -5.91856 0
M  V30 2356 H 272.744 -1.5588 -7.03026 0
M  V30 2357 H 278.448 -3.27906 -5.43085 0
M  V30 2358 P 280.304 -5.75688 -6.64379 0
M  V30 2359 O 281.726 -6.07627 -7.05504 0
M  V30 2360 O 279.944 -5.88047 -5.19722 0
M  V30 2361 O 279.981 -4.2322 -7.04443 0
M  V30 2362 C 279.821 -3.99743 -8.4911 0
M  V30 2363 C 280.361 -2.60516 -8.79425 0
M  V30 2364 O 279.305 -1.82684 -8.4467 0
M  V30 2365 C 281.579 -2.10343 -8.03628 0
M  V30 2366 O 282.317 -1.09919 -8.67766 0
M  V30 2367 C 280.91 -1.68446 -6.70876 0
M  V30 2368 O 281.709 -0.678137 -6.08433 0
M  V30 2369 C 279.573 -1.17436 -7.18567 0
M  V30 2370 H 279.605 -0.0804732 -7.31656 0
M  V30 2371 H 280.788 -2.54037 -6.02537 0
M  V30 2372 H 282.272 -2.93881 -7.85526 0
M  V30 2373 H 280.578 -2.53065 -9.86973 0
M  V30 2374 H 280.388 -4.75072 -9.05887 0
M  V30 2375 H 278.758 -4.05244 -8.76668 0
M  V30 2376 H 281.397 0.177647 -6.34251 0
M  V30 2377 P 283.255 -1.25109 -8.70152 0
M  V30 2378 O 284.677 -1.29744 -9.22016 0
M  V30 2379 O 282.895 -2.13714 -7.55141 0
M  V30 2380 O 282.932 0.248149 -8.21425 0
M  V30 2381 C 282.772 1.22779 -9.30434 0
M  V30 2382 C 283.312 2.56293 -8.80664 0
M  V30 2383 O 282.256 3.02979 -8.09349 0
M  V30 2384 C 284.53 2.57523 -7.89775 0
M  V30 2385 O 285.268 3.7668 -7.89438 0
M  V30 2386 C 283.861 2.20997 -6.55446 0
M  V30 2387 O 284.66 2.71895 -5.48509 0
M  V30 2388 C 282.524 2.89693 -6.67988 0
M  V30 2389 H 282.556 3.88793 -6.19859 0
M  V30 2390 H 283.739 1.12046 -6.44229 0
M  V30 2391 H 285.223 1.7746 -8.19711 0
M  V30 2392 H 283.529 3.20706 -9.67112 0
M  V30 2393 H 283.339 0.901032 -10.1892 0
M  V30 2394 H 281.709 1.33049 -9.56592 0
M  V30 2395 H 284.348 3.57847 -5.23962 0
M  V30 2396 P 286.205 3.65191 -7.99657 0
M  V30 2397 O 287.627 3.89332 -8.45794 0
M  V30 2398 O 285.845 2.28472 -7.50807 0
M  V30 2399 O 285.882 4.64972 -6.77611 0
M  V30 2400 C 285.722 6.06319 -7.16352 0
M  V30 2401 C 286.262 6.91731 -6.02299 0
M  V30 2402 O 285.206 6.92449 -5.17064 0
M  V30 2403 C 287.48 6.43627 -5.25174 0
M  V30 2404 O 288.218 7.43686 -4.60469 0
M  V30 2405 C 286.811 5.40275 -4.31916 0
M  V30 2406 O 287.61 5.25279 -3.14438 0
M  V30 2407 C 285.474 6.04847 -4.05327 0
M  V30 2408 H 285.506 6.62195 -3.11261 0
M  V30 2409 H 286.689 4.42556 -4.81383 0
M  V30 2410 H 288.173 5.92458 -5.93643 0
M  V30 2411 H 286.479 7.92655 -6.402 0
M  V30 2412 H 286.289 6.26671 -8.0846 0
M  V30 2413 H 284.659 6.29101 -7.32804 0
M  V30 2414 H 287.298 5.84315 -2.47318 0
M  V30 2415 P 289.156 7.39546 -4.75277 0
M  V30 2416 O 290.578 7.84798 -5.01039 0
M  V30 2417 O 288.796 5.9812 -5.08098 0
M  V30 2418 O 288.833 7.57503 -3.1866 0
M  V30 2419 C 288.673 8.97357 -2.74833 0
M  V30 2420 C 289.213 9.07548 -1.32709 0
M  V30 2421 O 288.157 8.62072 -0.606159 0
M  V30 2422 C 290.431 8.25383 -0.938334 0
M  V30 2423 O 291.169 8.74577 0.146954 0
M  V30 2424 C 289.762 6.8802 -0.712559 0
M  V30 2425 O 290.561 6.1189 0.194655 0
M  V30 2426 C 288.425 7.27966 -0.139777 0
M  V30 2427 H 288.457 7.25354 0.961601 0
M  V30 2428 H 289.64 6.32557 -1.65702 0
M  V30 2429 H 291.124 8.19355 -1.79097 0
M  V30 2430 H 289.43 10.1294 -1.10029 0
M  V30 2431 H 289.24 9.64276 -3.41316 0
M  V30 2432 H 287.61 9.25417 -2.76357 0
M  V30 2433 H 290.249 6.25267 1.07847 0
M  V30 2434 P 292.106 8.791 1.04251e-12 0
M  V30 2435 O 293.528 9.31096 0.027933 0
M  V30 2436 O 291.746 7.77869 -1.04071 0
M  V30 2437 O 291.783 8.09533 1.41463 0
M  V30 2438 C 291.623 9.0349 2.53943 0
M  V30 2439 C 292.163 8.35226 3.79016 0
M  V30 2440 O 291.107 7.57992 4.15078 0
M  V30 2441 C 293.381 7.45087 3.67298 0
M  V30 2442 O 294.119 7.27796 4.85194 0
M  V30 2443 C 292.712 6.17323 3.12027 0
M  V30 2444 O 293.511 5.04231 3.47188 0
M  V30 2445 C 291.375 6.19961 3.81809 0
M  V30 2446 H 291.407 5.58218 4.73051 0
M  V30 2447 H 292.59 6.21726 2.02589 0
M  V30 2448 H 294.074 7.86112 2.9231 0
M  V30 2449 H 292.38 9.11627 4.55076 0
M  V30 2450 H 292.19 9.9573 2.34194 0
M  V30 2451 H 290.56 9.2792 2.67832 0
M  V30 2452 H 293.199 4.67702 4.28772 0
M  V30 2453 P 295.057 7.39546 4.75277 0
M  V30 2454 O 296.479 7.81777 5.05738 0
M  V30 2455 O 294.697 7.1065 3.32998 0
M  V30 2456 O 294.734 6.04542 5.56673 0
M  V30 2457 C 294.574 6.22772 7.02095 0
M  V30 2458 C 295.114 4.97725 7.70406 0
M  V30 2459 O 294.058 4.13256 7.58987 0
M  V30 2460 C 296.332 4.28231 7.11815 0
M  V30 2461 O 297.07 3.49945 8.01648 0
M  V30 2462 C 295.663 3.5063 5.96244 0
M  V30 2463 O 296.462 2.36482 5.64681 0
M  V30 2464 C 294.326 3.15122 6.56374 0
M  V30 2465 H 294.358 2.13853 6.99751 0
M  V30 2466 H 295.541 4.13501 5.06559 0
M  V30 2467 H 297.025 5.03285 6.70911 0
M  V30 2468 H 295.331 5.20877 8.75697 0
M  V30 2469 H 295.141 7.11046 7.35349 0
M  V30 2470 H 293.511 6.35815 7.26986 0
M  V30 2471 H 296.15 1.61644 6.13565 0
M  V30 2472 P 298.008 3.65191 7.99657 0
M  V30 2473 O 299.43 3.8425 8.48115 0
M  V30 2474 O 297.648 4.17805 6.64342 0
M  V30 2475 O 297.685 2.07613 7.95143 0
M  V30 2476 C 297.525 1.44328 9.27336 0
M  V30 2477 C 298.065 0.0220036 9.17197 0
M  V30 2478 O 297.009 -0.626867 8.61923 0
M  V30 2479 C 299.283 -0.24586 8.30336 0
M  V30 2480 O 300.021 -1.39011 8.63583 0
M  V30 2481 C 298.614 -0.273849 6.91158 0
M  V30 2482 O 299.413 -1.06348 6.02892 0
M  V30 2483 C 297.277 -0.897649 7.22545 0
M  V30 2484 H 297.309 -1.9841 7.04286 0
M  V30 2485 H 298.492 0.739928 6.497 0
M  V30 2486 H 299.976 0.60668 8.36503 0
M  V30 2487 H 298.282 -0.352479 10.1829 0
M  V30 2488 H 298.092 2.00611 10.0304 0
M  V30 2489 H 296.462 1.41843 9.55327 0
M  V30 2490 H 299.101 -1.95734 6.03555 0
M  V30 2491 P 300.958 -1.25109 8.70152 0
M  V30 2492 O 302.379 -1.35288 9.2132 0
M  V30 2493 O 300.598 -0.0769065 7.84762 0
M  V30 2494 O 300.635 -2.55232 7.81161 0
M  V30 2495 C 300.474 -3.79979 8.58246 0
M  V30 2496 C 301.015 -4.94023 7.72785 0
M  V30 2497 O 299.96 -5.18666 6.91125 0
M  V30 2498 C 302.233 -4.69597 6.85231 0
M  V30 2499 O 302.971 -5.83832 6.51337 0
M  V30 2500 C 301.565 -3.96706 5.66633 0
M  V30 2501 O 302.363 -4.14896 4.5003 0
M  V30 2502 C 300.227 -4.66153 5.59313 0
M  V30 2503 N 299.184 -3.71582 5.24027 0
M  V30 2504 C 299.353 -2.39715 5.48833 0
M  V30 2505 N 298.326 -1.65863 5.12845 0
M  V30 2506 C 297.441 -2.57637 4.5973 0
M  V30 2507 C 296.174 -2.40278 4.01027 0
M  V30 2508 N 295.609 -3.57711 3.59575 0
M  V30 2509 C 296.211 -4.80324 3.70476 0
M  V30 2510 N 297.388 -5.01121 4.23801 0
M  V30 2511 C 297.963 -3.84757 4.66372 0
M  V30 2512 H 301.442 -2.8955 5.86187 0
M  V30 2513 H 302.925 -4.0121 7.36511 0
M  V30 2514 H 301.231 -5.81019 8.37003 0
M  V30 2515 H 301.041 -3.73517 9.52265 0
M  V30 2516 H 299.411 -3.97163 8.80359 0
M  V30 2517 H 300.253 -1.98804 5.94332 0
M  V30 2518 H 302.051 -4.90891 4.01857 0
M  V30 2519 P 303.909 -5.75688 6.64379 0
M  V30 2520 O 305.331 -6.11981 7.01997 0
M  V30 2521 O 303.549 -4.30744 6.56026 0
M  V30 2522 O 303.586 -6.37042 5.19165 0
M  V30 2523 C 303.426 -7.83578 5.16515 0
M  V30 2524 C 303.966 -8.33307 3.82977 0
M  V30 2525 O 302.911 -8.10074 3.01034 0
M  V30 2526 C 305.184 -7.65514 3.2257 0
M  V30 2527 O 305.922 -8.4329 2.32297 0
M  V30 2528 C 304.516 -6.40075 2.62207 0
M  V30 2529 O 305.314 -5.92492 1.53687 0
M  V30 2530 C 303.178 -6.9454 2.18503 0
M  V30 2531 N 302.135 -5.95905 2.39948 0
M  V30 2532 C 302.197 -5.13994 3.44742 0
M  V30 2533 N 301.152 -4.30684 3.46712 0
M  V30 2534 C 300.418 -4.65583 2.41086 0
M  V30 2535 C 299.112 -4.20877 1.99581 0
M  V30 2536 O 298.379 -3.35913 2.52616 0
M  V30 2537 N 298.682 -4.83271 0.873406 0
M  V30 2538 C 299.431 -5.82006 0.185129 0
M  V30 2539 N 298.834 -6.30619 -0.95439 0
M  V30 2540 N 300.584 -6.28443 0.578524 0
M  V30 2541 C 301.041 -5.68486 1.70138 0
M  V30 2542 H 303.21 -7.23063 1.12091 0
M  V30 2543 H 304.393 -5.60165 3.3715 0
M  V30 2544 H 305.878 -7.3611 4.01946 0
M  V30 2545 H 304.183 -9.40912 3.9095 0
M  V30 2546 H 303.993 -8.29056 5.99158 0
M  V30 2547 H 302.362 -8.10073 5.25882 0
M  V30 2548 H 297.786 -4.58323 0.505262 0
M  V30 2549 H 302.993 -5.14564 4.1935 0
M  V30 2550 H 297.923 -5.93402 -1.25364 0
M  V30 2551 H 299.299 -7.0425 -1.50254 0
M  V30 2552 H 305.003 -6.30224 0.72668 0
M  V30 2553 P 306.859 -8.4349 2.47671 0
M  V30 2554 O 308.28 -8.94263 2.59668 0
M  V30 2555 O 306.499 -7.1704 3.19006 0
M  V30 2556 O 306.536 -8.16596 0.923387 0
M  V30 2557 C 306.375 -9.38537 0.108869 0
M  V30 2558 C 306.916 -9.08175 -1.28353 0
M  V30 2559 O 305.861 -8.44131 -1.84692 0
M  V30 2560 C 308.134 -8.18386 -1.42505 0
M  V30 2561 O 308.872 -8.3501 -2.60497 0
M  V30 2562 C 307.466 -6.80225 -1.25468 0
M  V30 2563 O 308.264 -5.81716 -1.90454 0
M  V30 2564 C 306.128 -7.02416 -1.9168 0
M  V30 2565 N 305.085 -6.31033 -1.20314 0
M  V30 2566 C 305.254 -5.98817 0.0994088 0
M  V30 2567 N 304.227 -5.35403 0.621694 0
M  V30 2568 C 303.342 -5.25212 -0.43376 0
M  V30 2569 C 302.075 -4.64602 -0.519722 0
M  V30 2570 N 301.476 -4.01457 0.519136 0
M  V30 2571 N 301.51 -4.7568 -1.76013 0
M  V30 2572 C 302.112 -5.3653 -2.83017 0
M  V30 2573 N 303.289 -5.93676 -2.79782 0
M  V30 2574 C 303.864 -5.84061 -1.56249 0
M  V30 2575 H 306.16 -6.68789 -2.9658 0
M  V30 2576 H 307.343 -6.53498 -0.198729 0
M  V30 2577 H 308.826 -8.36622 -0.589963 0
M  V30 2578 H 307.132 -10.0273 -1.8081 0
M  V30 2579 H 306.942 -10.2138 0.558219 0
M  V30 2580 H 305.312 -9.6579 0.0444202 0
M  V30 2581 H 301.576 -5.37113 -3.77321 0
M  V30 2582 H 306.154 -6.23209 0.660562 0
M  V30 2583 H 300.546 -3.58834 0.394862 0
M  V30 2584 H 301.95 -3.96059 1.43048 0
M  V30 2585 H 307.952 -5.69466 -2.79593 0
M  V30 2586 P 309.81 -8.4349 -2.47671 0
M  V30 2587 O 311.231 -8.92689 -2.65029 0
M  V30 2588 O 309.45 -7.7568 -1.19296 0
M  V30 2589 O 309.487 -7.36886 -3.63805 0
M  V30 2590 C 309.326 -7.95433 -4.98253 0
M  V30 2591 C 309.867 -6.94612 -5.98974 0
M  V30 2592 O 308.812 -6.10277 -6.11744 0
M  V30 2593 C 311.085 -6.11426 -5.62335 0
M  V30 2594 O 311.823 -5.6162 -6.70584 0
M  V30 2595 C 310.417 -5.04409 -4.73308 0
M  V30 2596 O 311.215 -3.86404 -4.74719 0
M  V30 2597 C 309.079 -4.8728 -5.41006 0
M  V30 2598 N 308.036 -4.65812 -4.42377 0
M  V30 2599 C 308.205 -5.09132 -3.15382 0
M  V30 2600 N 307.178 -4.84021 -2.3716 0
M  V30 2601 C 306.293 -4.18386 -3.20441 0
M  V30 2602 C 305.026 -3.6275 -2.94905 0
M  V30 2603 N 304.427 -3.65794 -1.73372 0
M  V30 2604 N 304.461 -3.05008 -4.05243 0
M  V30 2605 C 305.063 -2.98348 -5.28159 0
M  V30 2606 N 306.24 -3.48171 -5.56333 0
M  V30 2607 C 306.815 -4.06869 -4.47212 0
M  V30 2608 H 309.111 -4.02278 -6.11074 0
M  V30 2609 H 310.294 -5.39013 -3.70026 0
M  V30 2610 H 311.777 -6.71916 -5.01943 0
M  V30 2611 H 310.083 -7.45796 -6.94223 0
M  V30 2612 H 309.893 -8.89416 -5.05237 0
M  V30 2613 H 308.263 -8.14876 -5.18409 0
M  V30 2614 H 304.527 -2.47853 -6.07807 0
M  V30 2615 H 309.105 -5.59989 -2.81362 0
M  V30 2616 H 303.497 -3.23218 -1.60782 0
M  V30 2617 H 304.901 -4.10523 -0.937856 0
M  V30 2618 H 310.903 -3.27906 -5.43085 0
M  V30 2619 P 312.76 -5.75688 -6.64379 0
M  V30 2620 O 314.182 -6.07627 -7.05504 0
M  V30 2621 O 312.4 -5.88047 -5.19722 0
M  V30 2622 O 312.437 -4.2322 -7.04443 0
M  V30 2623 C 312.277 -3.99743 -8.4911 0
M  V30 2624 C 312.817 -2.60516 -8.79425 0
M  V30 2625 O 311.761 -1.82684 -8.4467 0
M  V30 2626 C 314.035 -2.10343 -8.03628 0
M  V30 2627 O 314.773 -1.09919 -8.67766 0
M  V30 2628 C 313.366 -1.68446 -6.70876 0
M  V30 2629 O 314.165 -0.678137 -6.08433 0
M  V30 2630 C 312.029 -1.17436 -7.18567 0
M  V30 2631 H 312.061 -0.0804732 -7.31656 0
M  V30 2632 H 313.244 -2.54037 -6.02537 0
M  V30 2633 H 314.728 -2.93881 -7.85526 0
M  V30 2634 H 313.034 -2.53065 -9.86973 0
M  V30 2635 H 312.844 -4.75072 -9.05887 0
M  V30 2636 H 311.214 -4.05244 -8.76668 0
M  V30 2637 H 313.853 0.177647 -6.34251 0
M  V30 2638 P 315.711 -1.25109 -8.70152 0
M  V30 2639 O 317.133 -1.29744 -9.22016 0
M  V30 2640 O 315.351 -2.13714 -7.55141 0
M  V30 2641 O 315.388 0.248149 -8.21425 0
M  V30 2642 C 315.228 1.22779 -9.30434 0
M  V30 2643 C 315.768 2.56293 -8.80664 0
M  V30 2644 O 314.712 3.02979 -8.09349 0
M  V30 2645 C 316.986 2.57523 -7.89775 0
M  V30 2646 O 317.724 3.7668 -7.89438 0
M  V30 2647 C 316.317 2.20997 -6.55446 0
M  V30 2648 O 317.116 2.71895 -5.48509 0
M  V30 2649 C 314.98 2.89693 -6.67988 0
M  V30 2650 H 315.012 3.88793 -6.19859 0
M  V30 2651 H 316.195 1.12046 -6.44229 0
M  V30 2652 H 317.679 1.7746 -8.19711 0
M  V30 2653 H 315.985 3.20706 -9.67112 0
M  V30 2654 H 315.795 0.901032 -10.1892 0
M  V30 2655 H 314.165 1.33049 -9.56592 0
M  V30 2656 H 316.804 3.57847 -5.23962 0
M  V30 2657 P 318.662 3.65191 -7.99657 0
M  V30 2658 O 320.084 3.89332 -8.45794 0
M  V30 2659 O 318.302 2.28472 -7.50807 0
M  V30 2660 O 318.339 4.64972 -6.77611 0
M  V30 2661 C 318.179 6.06319 -7.16352 0
M  V30 2662 C 318.719 6.91731 -6.02299 0
M  V30 2663 O 317.663 6.92449 -5.17064 0
M  V30 2664 C 319.937 6.43627 -5.25174 0
M  V30 2665 O 320.675 7.43686 -4.60469 0
M  V30 2666 C 319.268 5.40275 -4.31916 0
M  V30 2667 O 320.067 5.25279 -3.14438 0
M  V30 2668 C 317.931 6.04847 -4.05327 0
M  V30 2669 H 317.963 6.62195 -3.11261 0
M  V30 2670 H 319.146 4.42556 -4.81383 0
M  V30 2671 H 320.63 5.92458 -5.93643 0
M  V30 2672 H 318.936 7.92655 -6.402 0
M  V30 2673 H 318.746 6.26671 -8.0846 0
M  V30 2674 H 317.116 6.29101 -7.32804 0
M  V30 2675 H 319.755 5.84315 -2.47318 0
M  V30 2676 P 321.612 7.39546 -4.75277 0
M  V30 2677 O 323.033 7.84882 -5.01092 0
M  V30 2678 O 321.252 5.9812 -5.08098 0
M  V30 2679 O 321.289 7.57503 -3.1866 0
M  V30 2680 C 321.128 8.97452 -2.74862 0
M  V30 2681 C 321.669 9.07548 -1.32709 0
M  V30 2682 O 320.614 8.61972 -0.606089 0
M  V30 2683 C 322.887 8.25383 -0.938334 0
M  V30 2684 O 323.625 8.74577 0.146954 0
M  V30 2685 C 322.219 6.8802 -0.712559 0
M  V30 2686 O 323.017 6.1181 0.188505 0
M  V30 2687 C 320.881 7.27966 -0.139777 0
M  V30 2688 N 319.838 6.39368 -0.623421 0
M  V30 2689 C 320.007 5.71761 -1.78245 0
M  V30 2690 N 318.98 4.962 -2.10491 0
M  V30 2691 C 318.095 5.16158 -1.0635 0
M  V30 2692 C 316.828 4.60425 -0.810266 0
M  V30 2693 N 316.229 3.7057 -1.62914 0
M  V30 2694 N 316.263 5.06 0.348685 0
M  V30 2695 C 316.865 5.94532 1.20395 0
M  V30 2696 N 318.042 6.48452 1.01191 0
M  V30 2697 C 318.617 6.04423 -0.146291 0
M  V30 2698 H 320.913 7.25255 0.961469 0
M  V30 2699 H 322.096 6.32625 -1.65044 0
M  V30 2700 H 323.579 8.19355 -1.79097 0
M  V30 2701 H 321.885 10.1305 -1.09016 0
M  V30 2702 H 321.695 9.64276 -3.41316 0
M  V30 2703 H 320.065 9.25417 -2.76357 0
M  V30 2704 H 316.329 6.21659 2.10714 0
M  V30 2705 H 320.907 5.79354 -2.38959 0
M  V30 2706 H 315.299 3.33174 -1.38982 0
M  V30 2707 H 316.703 3.39714 -2.48836 0
M  V30 2708 H 322.705 6.25169 1.0783 0
M  V30 2709 P 324.563 8.791 1.35267e-12 0
M  V30 2710 O 325.984 9.31196 0.027936 0
M  V30 2711 O 324.203 7.77869 -1.04071 0
M  V30 2712 O 324.24 8.09533 1.41463 0
M  V30 2713 C 324.079 9.03587 2.5397 0
M  V30 2714 C 324.62 8.35226 3.79016 0
M  V30 2715 O 323.565 7.57904 4.1503 0
M  V30 2716 C 325.838 7.45087 3.67298 0
M  V30 2717 O 326.576 7.27796 4.85194 0
M  V30 2718 C 325.17 6.17323 3.12027 0
M  V30 2719 O 325.968 5.04496 3.46627 0
M  V30 2720 C 323.832 6.19961 3.81809 0
M  V30 2721 N 322.789 5.71575 2.93223 0
M  V30 2722 C 322.958 5.77362 1.59168 0
M  V30 2723 N 321.931 5.3123 0.911893 0
M  V30 2724 C 321.046 4.91717 1.89588 0
M  V30 2725 C 319.779 4.3114 1.8076 0
M  V30 2726 N 319.18 3.99821 0.632928 0
M  V30 2727 N 319.214 4.06823 3.02898 0
M  V30 2728 C 319.816 4.35062 4.22711 0
M  V30 2729 N 320.993 4.90805 4.35707 0
M  V30 2730 C 321.568 5.16382 3.14469 0
M  V30 2731 H 323.864 5.58142 4.72986 0
M  V30 2732 H 325.047 6.21428 2.0318 0
M  V30 2733 H 326.53 7.86112 2.9231 0
M  V30 2734 H 324.836 9.11171 4.55987 0
M  V30 2735 H 324.646 9.9573 2.34194 0
M  V30 2736 H 323.016 9.2792 2.67832 0
M  V30 2737 H 319.28 4.09052 5.13359 0
M  V30 2738 H 323.858 6.16575 1.12198 0
M  V30 2739 H 318.25 3.55423 0.632085 0
M  V30 2740 H 319.654 4.20317 -0.256712 0
M  V30 2741 H 325.656 4.67628 4.28704 0
M  V30 2742 P 327.513 7.39546 4.75277 0
M  V30 2743 O 328.935 7.81777 5.05738 0
M  V30 2744 O 327.153 7.1065 3.32998 0
M  V30 2745 O 327.19 6.04542 5.56673 0
M  V30 2746 C 327.03 6.22772 7.02095 0
M  V30 2747 C 327.57 4.97725 7.70406 0
M  V30 2748 O 326.514 4.13256 7.58987 0
M  V30 2749 C 328.788 4.28231 7.11815 0
M  V30 2750 O 329.526 3.49945 8.01648 0
M  V30 2751 C 328.119 3.5063 5.96244 0
M  V30 2752 O 328.918 2.36482 5.64681 0
M  V30 2753 C 326.782 3.15122 6.56374 0
M  V30 2754 H 326.814 2.13853 6.99751 0
M  V30 2755 H 327.997 4.13501 5.06559 0
M  V30 2756 H 329.481 5.03285 6.70911 0
M  V30 2757 H 327.787 5.20877 8.75697 0
M  V30 2758 H 327.597 7.11046 7.35349 0
M  V30 2759 H 325.967 6.35815 7.26986 0
M  V30 2760 H 328.606 1.61644 6.13565 0
M  V30 2761 P 330.464 3.65191 7.99657 0
M  V30 2762 O 331.886 3.8425 8.48115 0
M  V30 2763 O 330.104 4.17805 6.64342 0
M  V30 2764 O 330.141 2.07613 7.95143 0
M  V30 2765 C 329.981 1.44328 9.27336 0
M  V30 2766 C 330.521 0.0220036 9.17197 0
M  V30 2767 O 329.465 -0.626867 8.61923 0
M  V30 2768 C 331.739 -0.24586 8.30336 0
M  V30 2769 O 332.477 -1.39011 8.63583 0
M  V30 2770 C 331.07 -0.273849 6.91158 0
M  V30 2771 O 331.869 -1.06348 6.02892 0
M  V30 2772 C 329.733 -0.897649 7.22545 0
M  V30 2773 H 329.765 -1.9841 7.04286 0
M  V30 2774 H 330.948 0.739928 6.497 0
M  V30 2775 H 332.432 0.60668 8.36503 0
M  V30 2776 H 330.738 -0.352479 10.1829 0
M  V30 2777 H 330.548 2.00611 10.0304 0
M  V30 2778 H 328.918 1.41843 9.55327 0
M  V30 2779 H 331.557 -1.95734 6.03555 0
M  V30 2780 P 333.414 -1.25109 8.70152 0
M  V30 2781 O 334.836 -1.35303 9.21419 0
M  V30 2782 O 333.054 -0.0769065 7.84762 0
M  V30 2783 O 333.091 -2.55232 7.81161 0
M  V30 2784 C 332.931 -3.79939 8.58154 0
M  V30 2785 C 333.471 -4.93969 7.72701 0
M  V30 2786 O 332.416 -5.18726 6.91205 0
M  V30 2787 C 334.689 -4.69597 6.85231 0
M  V30 2788 O 335.427 -5.83832 6.51337 0
M  V30 2789 C 334.021 -3.96706 5.66633 0
M  V30 2790 O 334.819 -4.15346 4.49615 0
M  V30 2791 C 332.683 -4.66153 5.59313 0
M  V30 2792 N 331.64 -3.71582 5.24027 0
M  V30 2793 C 331.702 -2.46018 5.67902 0
M  V30 2794 N 330.657 -1.74868 5.24518 0
M  V30 2795 C 329.923 -2.61333 4.54528 0
M  V30 2796 C 328.617 -2.46162 3.95441 0
M  V30 2797 O 327.884 -1.46013 3.94122 0
M  V30 2798 N 328.187 -3.59334 3.34752 0
M  V30 2799 C 328.936 -4.79605 3.3023 0
M  V30 2800 N 328.339 -5.82109 2.6065 0
M  V30 2801 N 330.089 -4.97402 3.8843 0
M  V30 2802 C 330.546 -3.86258 4.50476 0
M  V30 2803 H 332.715 -5.47679 4.85214 0
M  V30 2804 H 333.898 -2.88964 5.86476 0
M  V30 2805 H 335.383 -4.01947 7.36109 0
M  V30 2806 H 333.688 -5.80182 8.37584 0
M  V30 2807 H 333.498 -3.73517 9.52265 0
M  V30 2808 H 331.867 -3.97163 8.80359 0
M  V30 2809 H 327.291 -3.5825 2.90294 0
M  V30 2810 H 332.498 -2.06161 6.30974 0
M  V30 2811 H 327.428 -5.66979 2.15354 0
M  V30 2812 H 328.804 -6.73686 2.54344 0
M  V30 2813 H 334.508 -4.90891 4.01857 0
M  V30 2814 P 336.365 -5.75688 6.64379 0
M  V30 2815 O 337.766 -6.11991 7.09136 0
M  V30 2816 O 335.987 -4.30899 6.62018 0
M  V30 2817 O 336.042 -6.36965 5.19102 0
M  V30 2818 C 335.882 -7.83578 5.16515 0
M  V30 2819 C 336.422 -8.33307 3.82977 0
M  V30 2820 O 335.366 -8.0998 3.00999 0
M  V30 2821 C 337.639 -7.65514 3.2257 0
M  V30 2822 O 338.378 -8.4329 2.32297 0
M  V30 2823 C 336.972 -6.40075 2.62207 0
M  V30 2824 O 337.77 -5.92492 1.53687 0
M  V30 2825 C 335.634 -6.9454 2.18503 0
M  V30 2826 N 334.591 -5.95905 2.39948 0
M  V30 2827 C 333.556 -5.89764 1.49837 0
M  V30 2828 O 333.595 -6.64088 0.490975 0
M  V30 2829 N 332.544 -5.02821 1.70992 0
M  V30 2830 C 332.592 -4.21498 2.77236 0
M  V30 2831 C 333.688 -4.23389 3.68205 0
M  V30 2832 C 334.654 -5.12792 3.46171 0
M  V30 2833 H 335.666 -7.22964 1.12076 0
M  V30 2834 H 336.849 -5.60502 3.36589 0
M  V30 2835 H 338.333 -7.36197 4.01993 0
M  V30 2836 H 336.639 -9.41302 3.90009 0
M  V30 2837 H 336.448 -8.29056 5.99158 0
M  V30 2838 H 334.818 -8.09989 5.25828 0
M  V30 2839 H 333.736 -3.54747 4.52399 0
M  V30 2840 H 335.5 -5.18551 4.1489 0
M  V30 2841 H 337.554 -6.40705 0.751752 0
M  V30 2842 P 339.316 -8.4349 2.47671 0
M  V30 2843 O 340.738 -8.94359 2.59696 0
M  V30 2844 O 338.956 -7.1704 3.19006 0
M  V30 2845 O 338.993 -8.16596 0.923387 0
M  V30 2846 C 338.833 -9.38437 0.108857 0
M  V30 2847 C 339.373 -9.08076 -1.28339 0
M  V30 2848 O 338.318 -8.44229 -1.84713 0
M  V30 2849 C 340.591 -8.18386 -1.42505 0
M  V30 2850 O 341.329 -8.3501 -2.60497 0
M  V30 2851 C 339.923 -6.80225 -1.25468 0
M  V30 2852 O 340.721 -5.81526 -1.91035 0
M  V30 2853 C 338.585 -7.02416 -1.9168 0
M  V30 2854 N 337.542 -6.31033 -1.20314 0
M  V30 2855 C 337.604 -6.18781 0.121293 0
M  V30 2856 N 336.559 -5.49762 0.588272 0
M  V30 2857 C 335.825 -5.22015 -0.488988 0
M  V30 2858 C 334.519 -4.61966 -0.596448 0
M  V30 2859 O 333.786 -4.19162 0.309059 0
M  V30 2860 N 334.089 -4.53773 -1.878 0
M  V30 2861 C 334.838 -4.99623 -2.99082 0
M  V30 2862 N 334.241 -4.78912 -4.21227 0
M  V30 2863 N 335.991 -5.59957 -2.91093 0
M  V30 2864 C 336.448 -5.70225 -1.64218 0
M  V30 2865 H 338.617 -6.6888 -2.96621 0
M  V30 2866 H 339.8 -6.53517 -0.192194 0
M  V30 2867 H 341.285 -8.36563 -0.598329 0
M  V30 2868 H 339.59 -10.0291 -1.79807 0
M  V30 2869 H 339.4 -10.2138 0.558219 0
M  V30 2870 H 337.769 -9.6579 0.0444202 0
M  V30 2871 H 333.193 -4.12883 -2.05283 0
M  V30 2872 H 338.4 -6.59596 0.745856 0
M  V30 2873 H 333.33 -4.31425 -4.2628 0
M  V30 2874 H 334.706 -5.11219 -5.07148 0
M  V30 2875 H 340.41 -5.69466 -2.79593 0
M  V30 2876 P 342.266 -8.4349 -2.47671 0
M  V30 2877 O 343.688 -8.92593 -2.65 0
M  V30 2878 O 341.906 -7.7568 -1.19296 0
M  V30 2879 O 341.943 -7.36886 -3.63805 0
M  V30 2880 C 341.783 -7.95349 -4.982 0
M  V30 2881 C 342.323 -6.94612 -5.98974 0
M  V30 2882 O 341.267 -6.10347 -6.11815 0
M  V30 2883 C 343.541 -6.11426 -5.62335 0
M  V30 2884 O 344.279 -5.6162 -6.70584 0
M  V30 2885 C 342.872 -5.04409 -4.73308 0
M  V30 2886 O 343.671 -3.85992 -4.75183 0
M  V30 2887 C 341.535 -4.8728 -5.41006 0
M  V30 2888 H 341.567 -4.02333 -6.11157 0
M  V30 2889 H 342.75 -5.39466 -3.69543 0
M  V30 2890 H 344.234 -6.71916 -5.01943 0
M  V30 2891 H 342.54 -7.4649 -6.93477 0
M  V30 2892 H 342.35 -8.89416 -5.05237 0
M  V30 2893 H 340.72 -8.14876 -5.18409 0
M  V30 2894 H 343.359 -3.27957 -5.4317 0
M  V30 2895 P 345.217 -5.75688 -6.64379 0
M  V30 2896 O 346.639 -6.07627 -7.05504 0
M  V30 2897 O 344.857 -5.88047 -5.19722 0
M  V30 2898 O 344.894 -4.2322 -7.04443 0
M  V30 2899 C 344.734 -3.99743 -8.4911 0
M  V30 2900 C 345.274 -2.60516 -8.79425 0
M  V30 2901 O 344.218 -1.82684 -8.4467 0
M  V30 2902 C 346.492 -2.10343 -8.03628 0
M  V30 2903 O 347.23 -1.09919 -8.67766 0
M  V30 2904 C 345.823 -1.68446 -6.70876 0
M  V30 2905 O 346.622 -0.678137 -6.08433 0
M  V30 2906 C 344.486 -1.17436 -7.18567 0
M  V30 2907 H 344.518 -0.0804732 -7.31656 0
M  V30 2908 H 345.701 -2.54037 -6.02537 0
M  V30 2909 H 347.185 -2.93881 -7.85526 0
M  V30 2910 H 345.491 -2.53065 -9.86973 0
M  V30 2911 H 345.301 -4.75072 -9.05887 0
M  V30 2912 H 343.671 -4.05244 -8.76668 0
M  V30 2913 H 346.31 0.177647 -6.34251 0
M  V30 2914 P 348.167 -1.25109 -8.70152 0
M  V30 2915 O 349.588 -1.29758 -9.22115 0
M  V30 2916 O 347.807 -2.13714 -7.55141 0
M  V30 2917 O 347.844 0.248149 -8.21425 0
M  V30 2918 C 347.683 1.22792 -9.30533 0
M  V30 2919 C 348.224 2.56293 -8.80664 0
M  V30 2920 O 347.169 3.02944 -8.09255 0
M  V30 2921 C 349.442 2.57523 -7.89775 0
M  V30 2922 O 350.18 3.7668 -7.89438 0
M  V30 2923 C 348.774 2.20997 -6.55446 0
M  V30 2924 O 349.572 2.71302 -5.48691 0
M  V30 2925 C 347.436 2.89693 -6.67988 0
M  V30 2926 N 346.393 2.08895 -6.07487 0
M  V30 2927 C 346.562 0.753809 -5.94137 0
M  V30 2928 N 345.535 0.146592 -5.38801 0
M  V30 2929 C 344.65 1.1768 -5.13693 0
M  V30 2930 C 343.383 1.17563 -4.52477 0
M  V30 2931 N 342.784 0.057481 -4.04759 0
M  V30 2932 N 342.818 2.41918 -4.45789 0
M  V30 2933 C 343.42 3.56493 -4.90792 0
M  V30 2934 N 344.597 3.61423 -5.47817 0
M  V30 2935 C 345.172 2.37779 -5.5588 0
M  V30 2936 H 347.468 3.8874 -6.19774 0
M  V30 2937 H 348.651 1.12673 -6.44018 0
M  V30 2938 H 350.134 1.7746 -8.19711 0
M  V30 2939 H 348.44 3.21673 -9.66791 0
M  V30 2940 H 348.25 0.901032 -10.1892 0
M  V30 2941 H 346.62 1.33049 -9.56592 0
M  V30 2942 H 342.884 4.49919 -4.77947 0
M  V30 2943 H 347.462 0.233081 -6.26266 0
M  V30 2944 H 341.854 0.119831 -3.60801 0
M  V30 2945 H 343.258 -0.852272 -4.12385 0
M  V30 2946 H 349.26 3.5779 -5.23879 0
M  V30 2947 P 351.118 3.65191 -7.99657 0
M  V30 2948 O 352.54 3.89332 -8.45794 0
M  V30 2949 O 350.758 2.28472 -7.50807 0
M  V30 2950 O 350.795 4.64972 -6.77611 0
M  V30 2951 C 350.635 6.06319 -7.16352 0
M  V30 2952 C 351.175 6.91731 -6.02299 0
M  V30 2953 O 350.119 6.92449 -5.17064 0
M  V30 2954 C 352.393 6.43627 -5.25174 0
M  V30 2955 O 353.131 7.43686 -4.60469 0
M  V30 2956 C 351.724 5.40275 -4.31916 0
M  V30 2957 O 352.523 5.25279 -3.14438 0
M  V30 2958 C 350.387 6.04847 -4.05327 0
M  V30 2959 H 350.419 6.62195 -3.11261 0
M  V30 2960 H 351.602 4.42556 -4.81383 0
M  V30 2961 H 353.086 5.92458 -5.93643 0
M  V30 2962 H 351.392 7.92655 -6.402 0
M  V30 2963 H 351.202 6.26671 -8.0846 0
M  V30 2964 H 349.572 6.29101 -7.32804 0
M  V30 2965 H 352.211 5.84315 -2.47318 0
M  V30 2966 P 354.068 7.39546 -4.75277 0
M  V30 2967 O 355.49 7.84798 -5.01039 0
M  V30 2968 O 353.708 5.9812 -5.08098 0
M  V30 2969 O 353.745 7.57503 -3.1866 0
M  V30 2970 C 353.585 8.97357 -2.74833 0
M  V30 2971 C 354.125 9.07548 -1.32709 0
M  V30 2972 O 353.069 8.62072 -0.606159 0
M  V30 2973 C 355.343 8.25383 -0.938334 0
M  V30 2974 O 356.081 8.74577 0.146954 0
M  V30 2975 C 354.674 6.8802 -0.712559 0
M  V30 2976 O 355.473 6.1189 0.194655 0
M  V30 2977 C 353.337 7.27966 -0.139777 0
M  V30 2978 H 353.369 7.25354 0.961601 0
M  V30 2979 H 354.552 6.32557 -1.65702 0
M  V30 2980 H 356.036 8.19355 -1.79097 0
M  V30 2981 H 354.342 10.1294 -1.10029 0
M  V30 2982 H 354.152 9.64276 -3.41316 0
M  V30 2983 H 352.522 9.25417 -2.76357 0
M  V30 2984 H 355.161 6.25267 1.07847 0
M  V30 2985 P 357.019 8.791 1.66284e-12 0
M  V30 2986 O 358.441 9.31096 0.027933 0
M  V30 2987 O 356.659 7.77869 -1.04071 0
M  V30 2988 O 356.696 8.09533 1.41463 0
M  V30 2989 C 356.536 9.0349 2.53943 0
M  V30 2990 C 357.076 8.35226 3.79016 0
M  V30 2991 O 356.02 7.57992 4.15078 0
M  V30 2992 C 358.294 7.45087 3.67298 0
M  V30 2993 O 359.032 7.27796 4.85194 0
M  V30 2994 C 357.625 6.17323 3.12027 0
M  V30 2995 O 358.424 5.04231 3.47188 0
M  V30 2996 C 356.288 6.19961 3.81809 0
M  V30 2997 H 356.32 5.58218 4.73051 0
M  V30 2998 H 357.503 6.21726 2.02589 0
M  V30 2999 H 358.987 7.86112 2.9231 0
M  V30 3000 H 357.293 9.11627 4.55076 0
M  V30 3001 H 357.103 9.9573 2.34194 0
M  V30 3002 H 355.473 9.2792 2.67832 0
M  V30 3003 H 358.112 4.67702 4.28772 0
M  V30 3004 P 359.97 7.39546 4.75277 0
M  V30 3005 O 361.391 7.81861 5.05793 0
M  V30 3006 O 359.61 7.1065 3.32998 0
M  V30 3007 O 359.647 6.04542 5.56673 0
M  V30 3008 C 359.486 6.22839 7.02169 0
M  V30 3009 C 360.027 4.97725 7.70406 0
M  V30 3010 O 358.972 4.13208 7.58899 0
M  V30 3011 C 361.245 4.28231 7.11815 0
M  V30 3012 O 361.983 3.49945 8.01648 0
M  V30 3013 C 360.577 3.5063 5.96244 0
M  V30 3014 O 361.375 2.37008 5.64352 0
M  V30 3015 C 359.239 3.15122 6.56374 0
M  V30 3016 N 358.196 3.22311 5.55692 0
M  V30 3017 C 358.365 3.99655 4.46046 0
M  V30 3018 N 357.338 3.97599 3.63918 0
M  V30 3019 C 356.453 3.11159 4.25334 0
M  V30 3020 C 355.186 2.64972 3.85157 0
M  V30 3021 N 354.621 1.78482 4.74759 0
M  V30 3022 C 355.223 1.37463 5.90819 0
M  V30 3023 N 356.4 1.7733 6.31889 0
M  V30 3024 C 356.975 2.64393 5.43725 0
M  V30 3025 H 360.454 4.12931 5.06895 0
M  V30 3026 H 361.937 5.03285 6.70911 0
M  V30 3027 H 360.243 5.20001 8.76217 0
M  V30 3028 H 360.053 7.11046 7.35349 0
M  V30 3029 H 358.423 6.35815 7.26986 0
M  V30 3030 H 359.265 4.58037 4.27732 0
M  V30 3031 H 361.063 1.61619 6.13468 0
M  V30 3032 P 362.92 3.65191 7.99657 0
M  V30 3033 O 364.342 3.8425 8.48115 0
M  V30 3034 O 362.56 4.17805 6.64342 0
M  V30 3035 O 362.597 2.07613 7.95143 0
M  V30 3036 C 362.437 1.44328 9.27336 0
M  V30 3037 C 362.977 0.0220036 9.17197 0
M  V30 3038 O 361.921 -0.626867 8.61923 0
M  V30 3039 C 364.195 -0.24586 8.30336 0
M  V30 3040 O 364.933 -1.39011 8.63583 0
M  V30 3041 C 363.526 -0.273849 6.91158 0
M  V30 3042 O 364.325 -1.06348 6.02892 0
M  V30 3043 C 362.189 -0.897649 7.22545 0
M  V30 3044 H 362.221 -1.9841 7.04286 0
M  V30 3045 H 363.404 0.739928 6.497 0
M  V30 3046 H 364.888 0.60668 8.36503 0
M  V30 3047 H 363.194 -0.352479 10.1829 0
M  V30 3048 H 363.004 2.00611 10.0304 0
M  V30 3049 H 361.374 1.41843 9.55327 0
M  V30 3050 H 364.013 -1.95734 6.03555 0
M  V30 3051 P 365.871 -1.25109 8.70152 0
M  V30 3052 O 367.293 -1.35274 9.21221 0
M  V30 3053 O 365.511 -0.0769065 7.84762 0
M  V30 3054 O 365.548 -2.55232 7.81161 0
M  V30 3055 C 365.388 -3.79939 8.58154 0
M  V30 3056 C 365.928 -4.94023 7.72785 0
M  V30 3057 O 364.872 -5.18726 6.91205 0
M  V30 3058 C 367.146 -4.69597 6.85231 0
M  V30 3059 O 367.884 -5.83832 6.51337 0
M  V30 3060 C 366.477 -3.96706 5.66633 0
M  V30 3061 O 367.276 -4.15414 4.49689 0
M  V30 3062 C 365.14 -4.66153 5.59313 0
M  V30 3063 H 365.172 -5.47679 4.85214 0
M  V30 3064 H 366.355 -2.89008 5.86566 0
M  V30 3065 H 367.839 -4.0121 7.36511 0
M  V30 3066 H 366.145 -5.80182 8.37584 0
M  V30 3067 H 365.955 -3.73517 9.52265 0
M  V30 3068 H 364.325 -3.97163 8.80359 0
M  V30 3069 H 366.964 -4.90969 4.01921 0
M  V30 3070 P 368.821 -5.75688 6.64379 0
M  V30 3071 O 370.243 -6.11849 7.01846 0
M  V30 3072 O 368.461 -4.30744 6.56026 0
M  V30 3073 O 368.498 -6.37042 5.19165 0
M  V30 3074 C 368.338 -7.83578 5.16515 0
M  V30 3075 C 368.878 -8.33398 3.83019 0
M  V30 3076 O 367.822 -8.10074 3.01034 0
M  V30 3077 C 370.096 -7.65514 3.2257 0
M  V30 3078 O 370.834 -8.4329 2.32297 0
M  V30 3079 C 369.427 -6.40075 2.62207 0
M  V30 3080 O 370.226 -5.92589 1.53712 0
M  V30 3081 C 368.09 -6.9454 2.18503 0
M  V30 3082 H 368.122 -7.23063 1.12091 0
M  V30 3083 H 369.305 -5.6025 3.37201 0
M  V30 3084 H 370.789 -7.35707 4.02681 0
M  V30 3085 H 369.095 -9.40912 3.9095 0
M  V30 3086 H 368.905 -8.29056 5.99158 0
M  V30 3087 H 367.275 -8.10073 5.25882 0
M  V30 3088 H 369.914 -6.30324 0.726794 0
M  V30 3089 P 371.772 -8.4349 2.47671 0
M  V30 3090 O 373.193 -8.94263 2.59668 0
M  V30 3091 O 371.412 -7.1704 3.19006 0
M  V30 3092 O 371.449 -8.16596 0.923387 0
M  V30 3093 C 371.288 -9.38537 0.108869 0
M  V30 3094 C 371.829 -9.08175 -1.28353 0
M  V30 3095 O 370.774 -8.44131 -1.84692 0
M  V30 3096 C 373.047 -8.18386 -1.42505 0
M  V30 3097 O 373.785 -8.3501 -2.60497 0
M  V30 3098 C 372.379 -6.80225 -1.25468 0
M  V30 3099 O 373.177 -5.81716 -1.90454 0
M  V30 3100 C 371.041 -7.02416 -1.9168 0
M  V30 3101 N 369.998 -6.31033 -1.20314 0
M  V30 3102 C 370.167 -5.98817 0.0994088 0
M  V30 3103 N 369.14 -5.35403 0.621694 0
M  V30 3104 C 368.255 -5.25212 -0.43376 0
M  V30 3105 C 366.988 -4.64602 -0.519722 0
M  V30 3106 N 366.423 -4.7568 -1.76013 0
M  V30 3107 C 367.025 -5.3653 -2.83017 0
M  V30 3108 N 368.202 -5.93676 -2.79782 0
M  V30 3109 C 368.777 -5.84061 -1.56249 0
M  V30 3110 H 372.256 -6.53498 -0.198729 0
M  V30 3111 H 373.739 -8.36622 -0.589963 0
M  V30 3112 H 372.045 -10.0273 -1.8081 0
M  V30 3113 H 371.855 -10.2138 0.558219 0
M  V30 3114 H 370.225 -9.6579 0.0444202 0
M  V30 3115 H 371.067 -6.23209 0.660562 0
M  V30 3116 H 372.865 -5.69466 -2.79593 0
M  V30 3117 P 374.722 -8.4349 -2.47671 0
M  V30 3118 O 376.144 -8.92593 -2.65 0
M  V30 3119 O 374.362 -7.7568 -1.19296 0
M  V30 3120 O 374.399 -7.36886 -3.63805 0
M  V30 3121 C 374.239 -7.95349 -4.982 0
M  V30 3122 C 374.779 -6.94612 -5.98974 0
M  V30 3123 O 373.723 -6.10347 -6.11815 0
M  V30 3124 C 375.997 -6.11426 -5.62335 0
M  V30 3125 O 376.735 -5.6162 -6.70584 0
M  V30 3126 C 375.328 -5.04409 -4.73308 0
M  V30 3127 O 376.127 -3.85992 -4.75183 0
M  V30 3128 C 373.991 -4.8728 -5.41006 0
M  V30 3129 H 374.023 -4.02333 -6.11157 0
M  V30 3130 H 375.206 -5.39466 -3.69543 0
M  V30 3131 H 376.69 -6.71916 -5.01943 0
M  V30 3132 H 374.996 -7.4649 -6.93477 0
M  V30 3133 H 374.806 -8.89416 -5.05237 0
M  V30 3134 H 373.176 -8.14876 -5.18409 0
M  V30 3135 H 375.815 -3.27957 -5.4317 0
M  V30 3136 P 377.673 -5.75688 -6.64379 0
M  V30 3137 O 379.095 -6.07627 -7.05504 0
M  V30 3138 O 377.313 -5.88047 -5.19722 0
M  V30 3139 O 377.35 -4.2322 -7.04443 0
M  V30 3140 C 377.19 -3.99743 -8.4911 0
M  V30 3141 C 377.73 -2.60516 -8.79425 0
M  V30 3142 O 376.674 -1.82684 -8.4467 0
M  V30 3143 C 378.948 -2.10343 -8.03628 0
M  V30 3144 O 379.686 -1.09919 -8.67766 0
M  V30 3145 C 378.279 -1.68446 -6.70876 0
M  V30 3146 O 379.078 -0.678137 -6.08433 0
M  V30 3147 C 376.942 -1.17436 -7.18567 0
M  V30 3148 H 376.974 -0.0804732 -7.31656 0
M  V30 3149 H 378.157 -2.54037 -6.02537 0
M  V30 3150 H 379.641 -2.93881 -7.85526 0
M  V30 3151 H 377.947 -2.53065 -9.86973 0
M  V30 3152 H 377.757 -4.75072 -9.05887 0
M  V30 3153 H 376.127 -4.05244 -8.76668 0
M  V30 3154 H 378.766 0.177647 -6.34251 0
M  V30 3155 P 380.624 -1.25109 -8.70152 0
M  V30 3156 O 382.046 -1.29744 -9.22016 0
M  V30 3157 O 380.264 -2.13714 -7.55141 0
M  V30 3158 O 380.301 0.248149 -8.21425 0
M  V30 3159 C 380.141 1.22779 -9.30434 0
M  V30 3160 C 380.681 2.56293 -8.80664 0
M  V30 3161 O 379.625 3.02979 -8.09349 0
M  V30 3162 C 381.899 2.57523 -7.89775 0
M  V30 3163 O 382.637 3.7668 -7.89438 0
M  V30 3164 C 381.23 2.20997 -6.55446 0
M  V30 3165 O 382.029 2.71895 -5.48509 0
M  V30 3166 C 379.893 2.89693 -6.67988 0
M  V30 3167 H 379.925 3.88793 -6.19859 0
M  V30 3168 H 381.108 1.12046 -6.44229 0
M  V30 3169 H 382.592 1.7746 -8.19711 0
M  V30 3170 H 380.898 3.20706 -9.67112 0
M  V30 3171 H 380.708 0.901032 -10.1892 0
M  V30 3172 H 379.078 1.33049 -9.56592 0
M  V30 3173 H 381.717 3.57847 -5.23962 0
M  V30 3174 P 383.574 3.65191 -7.99657 0
M  V30 3175 O 384.996 3.89332 -8.45794 0
M  V30 3176 O 383.214 2.28472 -7.50807 0
M  V30 3177 O 383.251 4.64972 -6.77611 0
M  V30 3178 C 383.091 6.06319 -7.16352 0
M  V30 3179 C 383.631 6.91731 -6.02299 0
M  V30 3180 O 382.575 6.92449 -5.17064 0
M  V30 3181 C 384.849 6.43627 -5.25174 0
M  V30 3182 O 385.587 7.43686 -4.60469 0
M  V30 3183 C 384.18 5.40275 -4.31916 0
M  V30 3184 O 384.979 5.25279 -3.14438 0
M  V30 3185 C 382.843 6.04847 -4.05327 0
M  V30 3186 H 382.875 6.62195 -3.11261 0
M  V30 3187 H 384.058 4.42556 -4.81383 0
M  V30 3188 H 385.542 5.92458 -5.93643 0
M  V30 3189 H 383.848 7.92655 -6.402 0
M  V30 3190 H 383.658 6.26671 -8.0846 0
M  V30 3191 H 382.028 6.29101 -7.32804 0
M  V30 3192 H 384.667 5.84315 -2.47318 0
M  V30 3193 P 386.525 7.39546 -4.75277 0
M  V30 3194 O 387.947 7.84798 -5.01039 0
M  V30 3195 O 386.165 5.9812 -5.08098 0
M  V30 3196 O 386.202 7.57503 -3.1866 0
M  V30 3197 C 386.042 8.97357 -2.74833 0
M  V30 3198 C 386.582 9.07548 -1.32709 0
M  V30 3199 O 385.526 8.62072 -0.606159 0
M  V30 3200 C 387.8 8.25383 -0.938334 0
M  V30 3201 O 388.538 8.74577 0.146954 0
M  V30 3202 C 387.131 6.8802 -0.712559 0
M  V30 3203 O 387.93 6.1189 0.194655 0
M  V30 3204 C 385.794 7.27966 -0.139777 0
M  V30 3205 H 385.826 7.25354 0.961601 0
M  V30 3206 H 387.009 6.32557 -1.65702 0
M  V30 3207 H 388.493 8.19355 -1.79097 0
M  V30 3208 H 386.799 10.1294 -1.10029 0
M  V30 3209 H 386.609 9.64276 -3.41316 0
M  V30 3210 H 384.979 9.25417 -2.76357 0
M  V30 3211 H 387.618 6.25267 1.07847 0
M  V30 3212 P 389.475 8.791 1.973e-12 0
M  V30 3213 O 390.896 9.31196 0.027936 0
M  V30 3214 O 389.115 7.77869 -1.04071 0
M  V30 3215 O 389.152 8.09533 1.41463 0
M  V30 3216 C 388.991 9.03587 2.5397 0
M  V30 3217 C 389.532 8.35226 3.79016 0
M  V30 3218 O 388.477 7.57904 4.1503 0
M  V30 3219 C 390.75 7.45087 3.67298 0
M  V30 3220 O 391.488 7.27796 4.85194 0
M  V30 3221 C 390.082 6.17323 3.12027 0
M  V30 3222 O 390.88 5.04496 3.46627 0
M  V30 3223 C 388.744 6.19961 3.81809 0
M  V30 3224 N 387.701 5.71575 2.93223 0
M  V30 3225 C 387.87 5.77362 1.59168 0
M  V30 3226 N 386.843 5.3123 0.911893 0
M  V30 3227 C 385.958 4.91717 1.89588 0
M  V30 3228 C 384.691 4.3114 1.8076 0
M  V30 3229 N 384.126 4.06823 3.02898 0
M  V30 3230 C 384.728 4.35062 4.22711 0
M  V30 3231 N 385.905 4.90805 4.35707 0
M  V30 3232 C 386.48 5.16382 3.14469 0
M  V30 3233 H 389.959 6.21428 2.0318 0
M  V30 3234 H 391.442 7.86112 2.9231 0
M  V30 3235 H 389.748 9.11171 4.55987 0
M  V30 3236 H 389.558 9.9573 2.34194 0
M  V30 3237 H 387.928 9.2792 2.67832 0
M  V30 3238 H 388.77 6.16575 1.12198 0
M  V30 3239 H 390.568 4.67628 4.28704 0
M  V30 3240 P 392.426 7.39546 4.75277 0
M  V30 3241 O 393.848 7.81777 5.05738 0
M  V30 3242 O 392.066 7.1065 3.32998 0
M  V30 3243 O 392.103 6.04542 5.56673 0
M  V30 3244 C 391.943 6.22772 7.02095 0
M  V30 3245 C 392.483 4.97725 7.70406 0
M  V30 3246 O 391.427 4.13256 7.58987 0
M  V30 3247 C 393.701 4.28231 7.11815 0
M  V30 3248 O 394.439 3.49945 8.01648 0
M  V30 3249 C 393.032 3.5063 5.96244 0
M  V30 3250 O 393.831 2.36482 5.64681 0
M  V30 3251 C 391.695 3.15122 6.56374 0
M  V30 3252 H 391.727 2.13853 6.99751 0
M  V30 3253 H 392.91 4.13501 5.06559 0
M  V30 3254 H 394.394 5.03285 6.70911 0
M  V30 3255 H 392.7 5.20877 8.75697 0
M  V30 3256 H 392.51 7.11046 7.35349 0
M  V30 3257 H 390.88 6.35815 7.26986 0
M  V30 3258 H 393.519 1.61644 6.13565 0
M  V30 3259 P 395.376 3.65191 7.99657 0
M  V30 3260 O 396.798 3.8425 8.48115 0
M  V30 3261 O 395.016 4.17805 6.64342 0
M  V30 3262 O 395.053 2.07613 7.95143 0
M  V30 3263 C 394.893 1.44328 9.27336 0
M  V30 3264 C 395.433 0.0220036 9.17197 0
M  V30 3265 O 394.377 -0.626867 8.61923 0
M  V30 3266 C 396.651 -0.24586 8.30336 0
M  V30 3267 O 397.389 -1.39011 8.63583 0
M  V30 3268 C 395.982 -0.273849 6.91158 0
M  V30 3269 O 396.781 -1.06348 6.02892 0
M  V30 3270 C 394.645 -0.897649 7.22545 0
M  V30 3271 H 394.677 -1.9841 7.04286 0
M  V30 3272 H 395.86 0.739928 6.497 0
M  V30 3273 H 397.344 0.60668 8.36503 0
M  V30 3274 H 395.65 -0.352479 10.1829 0
M  V30 3275 H 395.46 2.00611 10.0304 0
M  V30 3276 H 393.83 1.41843 9.55327 0
M  V30 3277 H 396.469 -1.95734 6.03555 0
M  V30 3278 P 398.327 -1.25109 8.70152 0
M  V30 3279 O 399.748 -1.35288 9.2132 0
M  V30 3280 O 397.967 -0.0769065 7.84762 0
M  V30 3281 O 398.004 -2.55232 7.81161 0
M  V30 3282 C 397.843 -3.79979 8.58246 0
M  V30 3283 C 398.384 -4.94023 7.72785 0
M  V30 3284 O 397.329 -5.18666 6.91125 0
M  V30 3285 C 399.602 -4.69597 6.85231 0
M  V30 3286 O 400.34 -5.83832 6.51337 0
M  V30 3287 C 398.934 -3.96706 5.66633 0
M  V30 3288 O 399.732 -4.14896 4.5003 0
M  V30 3289 C 397.596 -4.66153 5.59313 0
M  V30 3290 N 396.553 -3.71582 5.24027 0
M  V30 3291 C 396.722 -2.39715 5.48833 0
M  V30 3292 N 395.695 -1.65863 5.12845 0
M  V30 3293 C 394.81 -2.57637 4.5973 0
M  V30 3294 C 393.543 -2.40278 4.01027 0
M  V30 3295 N 392.944 -1.19549 3.86744 0
M  V30 3296 N 392.978 -3.57711 3.59575 0
M  V30 3297 C 393.58 -4.80324 3.70476 0
M  V30 3298 N 394.757 -5.01121 4.23801 0
M  V30 3299 C 395.332 -3.84757 4.66372 0
M  V30 3300 H 397.628 -5.47604 4.85148 0
M  V30 3301 H 398.811 -2.8955 5.86187 0
M  V30 3302 H 400.294 -4.0121 7.36511 0
M  V30 3303 H 398.6 -5.81019 8.37003 0
M  V30 3304 H 398.41 -3.73517 9.52265 0
M  V30 3305 H 396.78 -3.97163 8.80359 0
M  V30 3306 H 393.044 -5.66348 3.3183 0
M  V30 3307 H 397.622 -1.98804 5.94332 0
M  V30 3308 H 392.014 -1.13147 3.4281 0
M  V30 3309 H 393.418 -0.344074 4.19692 0
M  V30 3310 H 399.42 -4.90891 4.01857 0
M  V30 3311 P 401.278 -5.75688 6.64379 0
M  V30 3312 O 402.699 -6.11915 7.01921 0
M  V30 3313 O 400.918 -4.30744 6.56026 0
M  V30 3314 O 400.955 -6.37042 5.19165 0
M  V30 3315 C 400.794 -7.83662 5.1657 0
M  V30 3316 C 401.335 -8.33398 3.83019 0
M  V30 3317 O 400.28 -8.0998 3.00999 0
M  V30 3318 C 402.553 -7.65514 3.2257 0
M  V30 3319 O 403.291 -8.4329 2.32297 0
M  V30 3320 C 401.885 -6.40075 2.62207 0
M  V30 3321 O 402.683 -5.92338 1.5428 0
M  V30 3322 C 400.547 -6.9454 2.18503 0
M  V30 3323 N 399.504 -5.95905 2.39948 0
M  V30 3324 C 399.673 -4.98383 3.32108 0
M  V30 3325 N 398.646 -4.16798 3.41761 0
M  V30 3326 C 397.761 -4.65287 2.47461 0
M  V30 3327 C 396.494 -4.18946 2.07461 0
M  V30 3328 N 395.929 -4.95327 1.09101 0
M  V30 3329 C 396.531 -6.04369 0.519812 0
M  V30 3330 N 397.708 -6.50694 0.855982 0
M  V30 3331 C 398.283 -5.75818 1.84322 0
M  V30 3332 H 401.762 -5.60502 3.36589 0
M  V30 3333 H 403.245 -7.35707 4.02681 0
M  V30 3334 H 401.551 -9.41302 3.90009 0
M  V30 3335 H 401.361 -8.29056 5.99158 0
M  V30 3336 H 399.731 -8.10073 5.25882 0
M  V30 3337 H 400.573 -4.88564 3.92502 0
M  V30 3338 H 402.371 -6.30224 0.72668 0
M  V30 3339 P 404.228 -8.4349 2.47671 0
M  V30 3340 O 405.65 -8.94359 2.59696 0
M  V30 3341 O 403.868 -7.1704 3.19006 0
M  V30 3342 O 403.905 -8.16596 0.923387 0
M  V30 3343 C 403.745 -9.38437 0.108857 0
M  V30 3344 C 404.285 -9.08076 -1.28339 0
M  V30 3345 O 403.23 -8.44229 -1.84713 0
M  V30 3346 C 405.503 -8.18386 -1.42505 0
M  V30 3347 O 406.241 -8.3501 -2.60497 0
M  V30 3348 C 404.835 -6.80225 -1.25468 0
M  V30 3349 O 405.633 -5.81526 -1.91035 0
M  V30 3350 C 403.497 -7.02416 -1.9168 0
M  V30 3351 N 402.454 -6.31033 -1.20314 0
M  V30 3352 C 402.516 -6.18781 0.121293 0
M  V30 3353 N 401.471 -5.49762 0.588272 0
M  V30 3354 C 400.737 -5.22015 -0.488988 0
M  V30 3355 C 399.431 -4.61966 -0.596448 0
M  V30 3356 O 398.698 -4.19162 0.309059 0
M  V30 3357 N 399.001 -4.53773 -1.878 0
M  V30 3358 C 399.75 -4.99623 -2.99082 0
M  V30 3359 N 399.153 -4.78912 -4.21227 0
M  V30 3360 N 400.903 -5.59957 -2.91093 0
M  V30 3361 C 401.36 -5.70225 -1.64218 0
M  V30 3362 H 403.529 -6.6888 -2.96621 0
M  V30 3363 H 404.712 -6.53517 -0.192194 0
M  V30 3364 H 406.197 -8.36563 -0.598329 0
M  V30 3365 H 404.502 -10.0291 -1.79807 0
M  V30 3366 H 404.312 -10.2138 0.558219 0
M  V30 3367 H 402.681 -9.6579 0.0444202 0
M  V30 3368 H 398.105 -4.12883 -2.05283 0
M  V30 3369 H 403.312 -6.59596 0.745856 0
M  V30 3370 H 398.242 -4.31425 -4.2628 0
M  V30 3371 H 399.618 -5.11219 -5.07148 0
M  V30 3372 H 405.322 -5.69466 -2.79593 0
M  V30 3373 P 407.179 -8.4349 -2.47671 0
M  V30 3374 O 408.601 -8.92593 -2.65 0
M  V30 3375 O 406.819 -7.7568 -1.19296 0
M  V30 3376 O 406.856 -7.36886 -3.63805 0
M  V30 3377 C 406.696 -7.95349 -4.982 0
M  V30 3378 C 407.236 -6.94612 -5.98974 0
M  V30 3379 O 406.18 -6.10347 -6.11815 0
M  V30 3380 C 408.454 -6.11426 -5.62335 0
M  V30 3381 O 409.192 -5.6162 -6.70584 0
M  V30 3382 C 407.785 -5.04409 -4.73308 0
M  V30 3383 O 408.584 -3.85992 -4.75183 0
M  V30 3384 C 406.448 -4.8728 -5.41006 0
M  V30 3385 H 406.48 -4.02333 -6.11157 0
M  V30 3386 H 407.663 -5.39466 -3.69543 0
M  V30 3387 H 409.147 -6.71916 -5.01943 0
M  V30 3388 H 407.453 -7.4649 -6.93477 0
M  V30 3389 H 407.263 -8.89416 -5.05237 0
M  V30 3390 H 405.633 -8.14876 -5.18409 0
M  V30 3391 H 408.272 -3.27957 -5.4317 0
M  V30 3392 P 410.129 -5.75688 -6.64379 0
M  V30 3393 O 411.551 -6.07627 -7.05504 0
M  V30 3394 O 409.769 -5.88047 -5.19722 0
M  V30 3395 O 409.806 -4.2322 -7.04443 0
M  V30 3396 C 409.646 -3.99743 -8.4911 0
M  V30 3397 C 410.186 -2.60516 -8.79425 0
M  V30 3398 O 409.13 -1.82684 -8.4467 0
M  V30 3399 C 411.404 -2.10343 -8.03628 0
M  V30 3400 O 412.142 -1.09919 -8.67766 0
M  V30 3401 C 410.735 -1.68446 -6.70876 0
M  V30 3402 O 411.534 -0.678137 -6.08433 0
M  V30 3403 C 409.398 -1.17436 -7.18567 0
M  V30 3404 H 409.43 -0.0804732 -7.31656 0
M  V30 3405 H 410.613 -2.54037 -6.02537 0
M  V30 3406 H 412.097 -2.93881 -7.85526 0
M  V30 3407 H 410.403 -2.53065 -9.86973 0
M  V30 3408 H 410.213 -4.75072 -9.05887 0
M  V30 3409 H 408.583 -4.05244 -8.76668 0
M  V30 3410 H 411.222 0.177647 -6.34251 0
M  V30 3411 P 413.08 -1.25109 -8.70152 0
M  V30 3412 O 414.502 -1.29744 -9.22016 0
M  V30 3413 O 412.72 -2.13714 -7.55141 0
M  V30 3414 O 412.757 0.248149 -8.21425 0
M  V30 3415 C 412.597 1.22779 -9.30434 0
M  V30 3416 C 413.137 2.56293 -8.80664 0
M  V30 3417 O 412.081 3.02979 -8.09349 0
M  V30 3418 C 414.355 2.57523 -7.89775 0
M  V30 3419 O 415.093 3.7668 -7.89438 0
M  V30 3420 C 413.686 2.20997 -6.55446 0
M  V30 3421 O 414.485 2.71895 -5.48509 0
M  V30 3422 C 412.349 2.89693 -6.67988 0
M  V30 3423 H 412.381 3.88793 -6.19859 0
M  V30 3424 H 413.564 1.12046 -6.44229 0
M  V30 3425 H 415.048 1.7746 -8.19711 0
M  V30 3426 H 413.354 3.20706 -9.67112 0
M  V30 3427 H 413.164 0.901032 -10.1892 0
M  V30 3428 H 411.534 1.33049 -9.56592 0
M  V30 3429 H 414.173 3.57847 -5.23962 0
M  V30 3430 P 416.03 3.65191 -7.99657 0
M  V30 3431 O 417.452 3.89332 -8.45794 0
M  V30 3432 O 415.67 2.28472 -7.50807 0
M  V30 3433 O 415.707 4.64972 -6.77611 0
M  V30 3434 C 415.547 6.06319 -7.16352 0
M  V30 3435 C 416.087 6.91731 -6.02299 0
M  V30 3436 O 415.031 6.92449 -5.17064 0
M  V30 3437 C 417.305 6.43627 -5.25174 0
M  V30 3438 O 418.043 7.43686 -4.60469 0
M  V30 3439 C 416.636 5.40275 -4.31916 0
M  V30 3440 O 417.435 5.25279 -3.14438 0
M  V30 3441 C 415.299 6.04847 -4.05327 0
M  V30 3442 H 415.331 6.62195 -3.11261 0
M  V30 3443 H 416.514 4.42556 -4.81383 0
M  V30 3444 H 417.998 5.92458 -5.93643 0
M  V30 3445 H 416.304 7.92655 -6.402 0
M  V30 3446 H 416.114 6.26671 -8.0846 0
M  V30 3447 H 414.484 6.29101 -7.32804 0
M  V30 3448 H 417.123 5.84315 -2.47318 0
M  V30 3449 P 418.981 7.39546 -4.75277 0
M  V30 3450 O 420.402 7.84882 -5.01092 0
M  V30 3451 O 418.621 5.9812 -5.08098 0
M  V30 3452 O 418.658 7.57503 -3.1866 0
M  V30 3453 C 418.497 8.97452 -2.74862 0
M  V30 3454 C 419.038 9.07548 -1.32709 0
M  V30 3455 O 417.983 8.61972 -0.606089 0
M  V30 3456 C 420.256 8.25383 -0.938334 0
M  V30 3457 O 420.994 8.74577 0.146954 0
M  V30 3458 C 419.588 6.8802 -0.712559 0
M  V30 3459 O 420.386 6.1181 0.188505 0
M  V30 3460 C 418.25 7.27966 -0.139777 0
M  V30 3461 N 417.207 6.39368 -0.623421 0
M  V30 3462 C 417.376 5.71761 -1.78245 0
M  V30 3463 N 416.349 4.962 -2.10491 0
M  V30 3464 C 415.464 5.16158 -1.0635 0
M  V30 3465 C 414.197 4.60425 -0.810266 0
M  V30 3466 N 413.598 3.7057 -1.62914 0
M  V30 3467 N 413.632 5.06 0.348685 0
M  V30 3468 C 414.234 5.94532 1.20395 0
M  V30 3469 N 415.411 6.48452 1.01191 0
M  V30 3470 C 415.986 6.04423 -0.146291 0
M  V30 3471 H 418.282 7.25255 0.961469 0
M  V30 3472 H 419.465 6.32625 -1.65044 0
M  V30 3473 H 420.948 8.19355 -1.79097 0
M  V30 3474 H 419.254 10.1305 -1.09016 0
M  V30 3475 H 419.064 9.64276 -3.41316 0
M  V30 3476 H 417.434 9.25417 -2.76357 0
M  V30 3477 H 413.698 6.21659 2.10714 0
M  V30 3478 H 418.276 5.79354 -2.38959 0
M  V30 3479 H 412.668 3.33174 -1.38982 0
M  V30 3480 H 414.072 3.39714 -2.48836 0
M  V30 3481 H 420.074 6.25169 1.0783 0
M  V30 3482 P 421.932 8.791 2.28317e-12 0
M  V30 3483 O 423.354 9.31096 0.027933 0
M  V30 3484 O 421.572 7.77869 -1.04071 0
M  V30 3485 O 421.609 8.09533 1.41463 0
M  V30 3486 C 421.449 9.0349 2.53943 0
M  V30 3487 C 421.989 8.35226 3.79016 0
M  V30 3488 O 420.933 7.57992 4.15078 0
M  V30 3489 C 423.207 7.45087 3.67298 0
M  V30 3490 O 423.945 7.27796 4.85194 0
M  V30 3491 C 422.538 6.17323 3.12027 0
M  V30 3492 O 423.337 5.04231 3.47188 0
M  V30 3493 C 421.201 6.19961 3.81809 0
M  V30 3494 H 421.233 5.58218 4.73051 0
M  V30 3495 H 422.416 6.21726 2.02589 0
M  V30 3496 H 423.9 7.86112 2.9231 0
M  V30 3497 H 422.206 9.11627 4.55076 0
M  V30 3498 H 422.016 9.9573 2.34194 0
M  V30 3499 H 420.386 9.2792 2.67832 0
M  V30 3500 H 423.025 4.67702 4.28772 0
M  V30 3501 P 424.882 7.39546 4.75277 0
M  V30 3502 O 426.304 7.81945 5.05847 0
M  V30 3503 O 424.522 7.1065 3.32998 0
M  V30 3504 O 424.559 6.04542 5.56673 0
M  V30 3505 C 424.399 6.22772 7.02095 0
M  V30 3506 C 424.939 4.97671 7.70322 0
M  V30 3507 O 423.884 4.13256 7.58987 0
M  V30 3508 C 426.157 4.28231 7.11815 0
M  V30 3509 O 426.895 3.49945 8.01648 0
M  V30 3510 C 425.489 3.5063 5.96244 0
M  V30 3511 O 426.287 2.36443 5.64589 0
M  V30 3512 C 424.151 3.15122 6.56374 0
M  V30 3513 N 423.108 3.22311 5.55692 0
M  V30 3514 C 423.17 4.14382 4.59701 0
M  V30 3515 N 422.125 4.04476 3.76958 0
M  V30 3516 C 421.391 3.04892 4.26534 0
M  V30 3517 C 420.085 2.57447 3.88189 0
M  V30 3518 O 419.352 2.9785 2.96543 0
M  V30 3519 N 419.655 1.55228 4.65922 0
M  V30 3520 C 420.404 1.01152 5.73447 0
M  V30 3521 N 419.807 -0.0472117 6.37783 0
M  V30 3522 N 421.557 1.467 6.13813 0
M  V30 3523 C 422.014 2.4931 5.38487 0
M  V30 3524 H 424.183 2.13853 6.99751 0
M  V30 3525 H 425.366 4.13438 5.06482 0
M  V30 3526 H 426.851 5.02614 6.71414 0
M  V30 3527 H 425.156 5.20877 8.75697 0
M  V30 3528 H 424.966 7.11046 7.35349 0
M  V30 3529 H 423.335 6.35815 7.26986 0
M  V30 3530 H 418.759 1.15238 4.46468 0
M  V30 3531 H 423.966 4.88312 4.49647 0
M  V30 3532 H 418.896 -0.396382 6.05203 0
M  V30 3533 H 420.272 -0.484997 7.18465 0
M  V30 3534 H 425.976 1.61619 6.13468 0
M  V30 3535 P 427.833 3.65191 7.99657 0
M  V30 3536 O 429.255 3.84333 8.48297 0
M  V30 3537 O 427.473 4.17805 6.64342 0
M  V30 3538 O 427.51 2.07613 7.95143 0
M  V30 3539 C 427.35 1.44328 9.27336 0
M  V30 3540 C 427.89 0.0220012 9.17097 0
M  V30 3541 O 426.835 -0.626867 8.61923 0
M  V30 3542 C 429.108 -0.24586 8.30336 0
M  V30 3543 O 429.846 -1.39011 8.63583 0
M  V30 3544 C 428.44 -0.273849 6.91158 0
M  V30 3545 O 429.238 -1.06331 6.02794 0
M  V30 3546 C 427.102 -0.897649 7.22545 0
M  V30 3547 N 426.059 -0.292839 6.41732 0
M  V30 3548 C 426.121 1.00068 6.10757 0
M  V30 3549 N 425.076 1.36468 5.35794 0
M  V30 3550 C 424.342 0.258894 5.2366 0
M  V30 3551 C 423.036 0.0670682 4.65752 0
M  V30 3552 O 422.303 0.902443 4.10497 0
M  V30 3553 N 422.606 -1.2131 4.75881 0
M  V30 3554 C 423.355 -2.24934 5.37101 0
M  V30 3555 N 422.758 -3.48783 5.33984 0
M  V30 3556 N 424.508 -2.0844 5.95684 0
M  V30 3557 C 424.965 -0.81395 5.87791 0
M  V30 3558 H 427.134 -1.9841 7.04286 0
M  V30 3559 H 428.317 0.739815 6.49601 0
M  V30 3560 H 429.802 0.598315 8.36563 0
M  V30 3561 H 428.107 -0.352479 10.1829 0
M  V30 3562 H 427.917 2.00611 10.0304 0
M  V30 3563 H 426.286 1.41843 9.55327 0
M  V30 3564 H 421.71 -1.44434 4.37895 0
M  V30 3565 H 426.917 1.67697 6.42268 0
M  V30 3566 H 421.847 -3.60543 4.87699 0
M  V30 3567 H 423.223 -4.29232 5.7819 0
M  V30 3568 H 428.927 -1.95704 6.0346 0
M  V30 3569 P 430.783 -1.25109 8.70152 0
M  V30 3570 O 432.204 -1.35288 9.2132 0
M  V30 3571 O 430.423 -0.0769065 7.84762 0
M  V30 3572 O 430.46 -2.55232 7.81161 0
M  V30 3573 C 430.299 -3.79979 8.58246 0
M  V30 3574 C 430.84 -4.94023 7.72785 0
M  V30 3575 O 429.785 -5.18666 6.91125 0
M  V30 3576 C 432.058 -4.69597 6.85231 0
M  V30 3577 O 432.796 -5.83832 6.51337 0
M  V30 3578 C 431.39 -3.96706 5.66633 0
M  V30 3579 O 432.188 -4.14896 4.5003 0
M  V30 3580 C 430.052 -4.66153 5.59313 0
M  V30 3581 N 429.009 -3.71582 5.24027 0
M  V30 3582 C 429.178 -2.39715 5.48833 0
M  V30 3583 N 428.151 -1.65863 5.12845 0
M  V30 3584 C 427.266 -2.57637 4.5973 0
M  V30 3585 C 425.999 -2.40278 4.01027 0
M  V30 3586 N 425.434 -3.57711 3.59575 0
M  V30 3587 C 426.036 -4.80324 3.70476 0
M  V30 3588 N 427.213 -5.01121 4.23801 0
M  V30 3589 C 427.788 -3.84757 4.66372 0
M  V30 3590 H 431.267 -2.8955 5.86187 0
M  V30 3591 H 432.75 -4.0121 7.36511 0
M  V30 3592 H 431.056 -5.81019 8.37003 0
M  V30 3593 H 430.866 -3.73517 9.52265 0
M  V30 3594 H 429.236 -3.97163 8.80359 0
M  V30 3595 H 430.078 -1.98804 5.94332 0
M  V30 3596 H 431.876 -4.90891 4.01857 0
M  V30 3597 P 433.734 -5.75688 6.64379 0
M  V30 3598 O 435.156 -6.11849 7.01846 0
M  V30 3599 O 433.374 -4.30744 6.56026 0
M  V30 3600 O 433.411 -6.37042 5.19165 0
M  V30 3601 C 433.251 -7.83578 5.16515 0
M  V30 3602 C 433.791 -8.33398 3.83019 0
M  V30 3603 O 432.735 -8.10074 3.01034 0
M  V30 3604 C 435.009 -7.65514 3.2257 0
M  V30 3605 O 435.747 -8.4329 2.32297 0
M  V30 3606 C 434.34 -6.40075 2.62207 0
M  V30 3607 O 435.139 -5.92589 1.53712 0
M  V30 3608 C 433.003 -6.9454 2.18503 0
M  V30 3609 H 433.035 -7.23063 1.12091 0
M  V30 3610 H 434.218 -5.6025 3.37201 0
M  V30 3611 H 435.702 -7.35707 4.02681 0
M  V30 3612 H 434.008 -9.40912 3.9095 0
M  V30 3613 H 433.818 -8.29056 5.99158 0
M  V30 3614 H 432.188 -8.10073 5.25882 0
M  V30 3615 H 434.827 -6.30324 0.726794 0
M  V30 3616 P 436.684 -8.4349 2.47671 0
M  V30 3617 O 438.106 -8.94167 2.5964 0
M  V30 3618 O 436.324 -7.1704 3.19006 0
M  V30 3619 O 436.361 -8.16596 0.923387 0
M  V30 3620 C 436.201 -9.38437 0.108857 0
M  V30 3621 C 436.741 -9.08175 -1.28353 0
M  V30 3622 O 435.685 -8.44229 -1.84713 0
M  V30 3623 C 437.959 -8.18386 -1.42505 0
M  V30 3624 O 438.697 -8.3501 -2.60497 0
M  V30 3625 C 437.29 -6.80225 -1.25468 0
M  V30 3626 O 438.089 -5.81621 -1.91066 0
M  V30 3627 C 435.953 -7.02416 -1.9168 0
M  V30 3628 H 435.985 -6.6888 -2.96621 0
M  V30 3629 H 437.168 -6.53617 -0.192223 0
M  V30 3630 H 438.652 -8.36622 -0.589963 0
M  V30 3631 H 436.958 -10.0291 -1.79807 0
M  V30 3632 H 436.768 -10.2138 0.558219 0
M  V30 3633 H 435.138 -9.6579 0.0444202 0
M  V30 3634 H 437.777 -5.69556 -2.79637 0
M  V30 3635 P 439.635 -8.4349 -2.47671 0
M  V30 3636 O 441.057 -8.92593 -2.65 0
M  V30 3637 O 439.275 -7.7568 -1.19296 0
M  V30 3638 O 439.312 -7.36886 -3.63805 0
M  V30 3639 C 439.152 -7.95349 -4.982 0
M  V30 3640 C 439.692 -6.94612 -5.98974 0
M  V30 3641 O 438.636 -6.10347 -6.11815 0
M  V30 3642 C 440.91 -6.11426 -5.62335 0
M  V30 3643 O 441.648 -5.6162 -6.70584 0
M  V30 3644 C 440.241 -5.04409 -4.73308 0
M  V30 3645 O 441.04 -3.85992 -4.75183 0
M  V30 3646 C 438.904 -4.8728 -5.41006 0
M  V30 3647 H 438.936 -4.02333 -6.11157 0
M  V30 3648 H 440.119 -5.39466 -3.69543 0
M  V30 3649 H 441.603 -6.71916 -5.01943 0
M  V30 3650 H 439.909 -7.4649 -6.93477 0
M  V30 3651 H 439.719 -8.89416 -5.05237 0
M  V30 3652 H 438.089 -8.14876 -5.18409 0
M  V30 3653 H 440.728 -3.27957 -5.4317 0
M  V30 3654 P 442.586 -5.75688 -6.64379 0
M  V30 3655 O 444.008 -6.07627 -7.05504 0
M  V30 3656 O 442.226 -5.88047 -5.19722 0
M  V30 3657 O 442.263 -4.2322 -7.04443 0
M  V30 3658 C 442.103 -3.99743 -8.4911 0
M  V30 3659 C 442.643 -2.60516 -8.79425 0
M  V30 3660 O 441.587 -1.82684 -8.4467 0
M  V30 3661 C 443.861 -2.10343 -8.03628 0
M  V30 3662 O 444.599 -1.09919 -8.67766 0
M  V30 3663 C 443.192 -1.68446 -6.70876 0
M  V30 3664 O 443.991 -0.678137 -6.08433 0
M  V30 3665 C 441.855 -1.17436 -7.18567 0
M  V30 3666 H 441.887 -0.0804732 -7.31656 0
M  V30 3667 H 443.07 -2.54037 -6.02537 0
M  V30 3668 H 444.554 -2.93881 -7.85526 0
M  V30 3669 H 442.86 -2.53065 -9.86973 0
M  V30 3670 H 442.67 -4.75072 -9.05887 0
M  V30 3671 H 441.04 -4.05244 -8.76668 0
M  V30 3672 H 443.679 0.177647 -6.34251 0
M  V30 3673 P 445.536 -1.25109 -8.70152 0
M  V30 3674 O 446.958 -1.29744 -9.22016 0
M  V30 3675 O 445.176 -2.13714 -7.55141 0
M  V30 3676 O 445.213 0.248149 -8.21425 0
M  V30 3677 C 445.053 1.22779 -9.30434 0
M  V30 3678 C 445.593 2.56293 -8.80664 0
M  V30 3679 O 444.537 3.02979 -8.09349 0
M  V30 3680 C 446.811 2.57523 -7.89775 0
M  V30 3681 O 447.549 3.7668 -7.89438 0
M  V30 3682 C 446.142 2.20997 -6.55446 0
M  V30 3683 O 446.941 2.71895 -5.48509 0
M  V30 3684 C 444.805 2.89693 -6.67988 0
M  V30 3685 H 444.837 3.88793 -6.19859 0
M  V30 3686 H 446.02 1.12046 -6.44229 0
M  V30 3687 H 447.504 1.7746 -8.19711 0
M  V30 3688 H 445.81 3.20706 -9.67112 0
M  V30 3689 H 445.62 0.901032 -10.1892 0
M  V30 3690 H 443.99 1.33049 -9.56592 0
M  V30 3691 H 446.629 3.57847 -5.23962 0
M  V30 3692 P 448.487 3.65191 -7.99657 0
M  V30 3693 O 449.908 3.89374 -8.45885 0
M  V30 3694 O 448.127 2.28472 -7.50807 0
M  V30 3695 O 448.164 4.64972 -6.77611 0
M  V30 3696 C 448.003 6.06383 -7.16428 0
M  V30 3697 C 448.544 6.91731 -6.02299 0
M  V30 3698 O 447.489 6.92369 -5.17005 0
M  V30 3699 C 449.762 6.43627 -5.25174 0
M  V30 3700 O 450.5 7.43686 -4.60469 0
M  V30 3701 C 449.094 5.40275 -4.31916 0
M  V30 3702 O 449.892 5.24878 -3.14911 0
M  V30 3703 C 447.756 6.04847 -4.05327 0
M  V30 3704 N 446.713 5.04166 -3.98114 0
M  V30 3705 C 446.882 3.84629 -4.59066 0
M  V30 3706 N 445.855 3.0363 -4.45343 0
M  V30 3707 C 444.97 3.76722 -3.68523 0
M  V30 3708 C 443.703 3.43528 -3.17088 0
M  V30 3709 N 443.104 2.23665 -3.37397 0
M  V30 3710 N 443.138 4.44526 -2.44231 0
M  V30 3711 C 443.74 5.65243 -2.20146 0
M  V30 3712 N 444.917 6.00221 -2.65453 0
M  V30 3713 C 445.492 5.00564 -3.39083 0
M  V30 3714 H 447.788 6.62104 -3.11218 0
M  V30 3715 H 448.971 4.42969 -4.80867 0
M  V30 3716 H 450.454 5.92458 -5.93643 0
M  V30 3717 H 448.76 7.93295 -6.39407 0
M  V30 3718 H 448.57 6.26671 -8.0846 0
M  V30 3719 H 446.94 6.29101 -7.32804 0
M  V30 3720 H 443.204 6.36894 -1.5883 0
M  V30 3721 H 447.782 3.58193 -5.14248 0
M  V30 3722 H 442.174 2.05145 -2.97047 0
M  V30 3723 H 443.578 1.51255 -3.92998 0
M  V30 3724 H 449.58 5.84223 -2.47279 0
M  V30 3725 P 451.437 7.39546 -4.75277 0
M  V30 3726 O 452.859 7.84798 -5.01039 0
M  V30 3727 O 451.077 5.9812 -5.08098 0
M  V30 3728 O 451.114 7.57503 -3.1866 0
M  V30 3729 C 450.954 8.97357 -2.74833 0
M  V30 3730 C 451.494 9.07548 -1.32709 0
M  V30 3731 O 450.438 8.62072 -0.606159 0
M  V30 3732 C 452.712 8.25383 -0.938334 0
M  V30 3733 O 453.45 8.74577 0.146954 0
M  V30 3734 C 452.043 6.8802 -0.712559 0
M  V30 3735 O 452.842 6.1189 0.194655 0
M  V30 3736 C 450.706 7.27966 -0.139777 0
M  V30 3737 H 450.738 7.25354 0.961601 0
M  V30 3738 H 451.921 6.32557 -1.65702 0
M  V30 3739 H 453.405 8.19355 -1.79097 0
M  V30 3740 H 451.711 10.1294 -1.10029 0
M  V30 3741 H 451.521 9.64276 -3.41316 0
M  V30 3742 H 449.891 9.25417 -2.76357 0
M  V30 3743 H 452.53 6.25267 1.07847 0
M  V30 3744 P 454.388 8.791 2.59334e-12 0
M  V30 3745 O 455.81 9.31096 0.027933 0
M  V30 3746 O 454.028 7.77869 -1.04071 0
M  V30 3747 O 454.065 8.09533 1.41463 0
M  V30 3748 C 453.905 9.0349 2.53943 0
M  V30 3749 C 454.445 8.35226 3.79016 0
M  V30 3750 O 453.389 7.57992 4.15078 0
M  V30 3751 C 455.663 7.45087 3.67298 0
M  V30 3752 O 456.401 7.27796 4.85194 0
M  V30 3753 C 454.994 6.17323 3.12027 0
M  V30 3754 O 455.793 5.04231 3.47188 0
M  V30 3755 C 453.657 6.19961 3.81809 0
M  V30 3756 H 453.689 5.58218 4.73051 0
M  V30 3757 H 454.872 6.21726 2.02589 0
M  V30 3758 H 456.356 7.86112 2.9231 0
M  V30 3759 H 454.662 9.11627 4.55076 0
M  V30 3760 H 454.472 9.9573 2.34194 0
M  V30 3761 H 452.842 9.2792 2.67832 0
M  V30 3762 H 455.481 4.67702 4.28772 0
M  V30 3763 P 457.338 7.39546 4.75277 0
M  V30 3764 O 458.76 7.81777 5.05738 0
M  V30 3765 O 456.978 7.1065 3.32998 0
M  V30 3766 O 457.015 6.04542 5.56673 0
M  V30 3767 C 456.855 6.22772 7.02095 0
M  V30 3768 C 457.395 4.97725 7.70406 0
M  V30 3769 O 456.339 4.13256 7.58987 0
M  V30 3770 C 458.613 4.28231 7.11815 0
M  V30 3771 O 459.351 3.49945 8.01648 0
M  V30 3772 C 457.944 3.5063 5.96244 0
M  V30 3773 O 458.743 2.36482 5.64681 0
M  V30 3774 C 456.607 3.15122 6.56374 0
M  V30 3775 H 456.639 2.13853 6.99751 0
M  V30 3776 H 457.822 4.13501 5.06559 0
M  V30 3777 H 459.306 5.03285 6.70911 0
M  V30 3778 H 457.612 5.20877 8.75697 0
M  V30 3779 H 457.422 7.11046 7.35349 0
M  V30 3780 H 455.792 6.35815 7.26986 0
M  V30 3781 H 458.431 1.61644 6.13565 0
M  V30 3782 P 460.289 3.65191 7.99657 0
M  V30 3783 O 461.711 3.8425 8.48115 0
M  V30 3784 O 459.929 4.17805 6.64342 0
M  V30 3785 O 459.966 2.07613 7.95143 0
M  V30 3786 C 459.806 1.44328 9.27336 0
M  V30 3787 C 460.346 0.0220036 9.17197 0
M  V30 3788 O 459.29 -0.626867 8.61923 0
M  V30 3789 C 461.564 -0.24586 8.30336 0
M  V30 3790 O 462.302 -1.39011 8.63583 0
M  V30 3791 C 460.895 -0.273849 6.91158 0
M  V30 3792 O 461.694 -1.06348 6.02892 0
M  V30 3793 C 459.558 -0.897649 7.22545 0
M  V30 3794 H 459.59 -1.9841 7.04286 0
M  V30 3795 H 460.773 0.739928 6.497 0
M  V30 3796 H 462.257 0.60668 8.36503 0
M  V30 3797 H 460.563 -0.352479 10.1829 0
M  V30 3798 H 460.373 2.00611 10.0304 0
M  V30 3799 H 458.743 1.41843 9.55327 0
M  V30 3800 H 461.382 -1.95734 6.03555 0
M  V30 3801 P 463.239 -1.25109 8.70152 0
M  V30 3802 O 464.661 -1.35274 9.21221 0
M  V30 3803 O 462.879 -0.0769065 7.84762 0
M  V30 3804 O 462.916 -2.55232 7.81161 0
M  V30 3805 C 462.756 -3.79939 8.58154 0
M  V30 3806 C 463.296 -4.94023 7.72785 0
M  V30 3807 O 462.24 -5.18726 6.91205 0
M  V30 3808 C 464.514 -4.69597 6.85231 0
M  V30 3809 O 465.252 -5.83832 6.51337 0
M  V30 3810 C 463.845 -3.96706 5.66633 0
M  V30 3811 O 464.644 -4.15414 4.49689 0
M  V30 3812 C 462.508 -4.66153 5.59313 0
M  V30 3813 H 462.54 -5.47679 4.85214 0
M  V30 3814 H 463.723 -2.89008 5.86566 0
M  V30 3815 H 465.207 -4.0121 7.36511 0
M  V30 3816 H 463.513 -5.80182 8.37584 0
M  V30 3817 H 463.323 -3.73517 9.52265 0
M  V30 3818 H 461.693 -3.97163 8.80359 0
M  V30 3819 H 464.332 -4.90969 4.01921 0
M  V30 3820 P 466.19 -5.75688 6.64379 0
M  V30 3821 O 467.612 -6.11849 7.01846 0
M  V30 3822 O 465.83 -4.30744 6.56026 0
M  V30 3823 O 465.867 -6.37042 5.19165 0
M  V30 3824 C 465.707 -7.83578 5.16515 0
M  V30 3825 C 466.247 -8.33398 3.83019 0
M  V30 3826 O 465.191 -8.10074 3.01034 0
M  V30 3827 C 467.465 -7.65514 3.2257 0
M  V30 3828 O 468.203 -8.4329 2.32297 0
M  V30 3829 C 466.796 -6.40075 2.62207 0
M  V30 3830 O 467.595 -5.92589 1.53712 0
M  V30 3831 C 465.459 -6.9454 2.18503 0
M  V30 3832 H 465.491 -7.23063 1.12091 0
M  V30 3833 H 466.674 -5.6025 3.37201 0
M  V30 3834 H 468.158 -7.35707 4.02681 0
M  V30 3835 H 466.464 -9.40912 3.9095 0
M  V30 3836 H 466.274 -8.29056 5.99158 0
M  V30 3837 H 464.644 -8.10073 5.25882 0
M  V30 3838 H 467.283 -6.30324 0.726794 0
M  V30 3839 P 469.141 -8.4349 2.47671 0
M  V30 3840 O 470.563 -8.94167 2.5964 0
M  V30 3841 O 468.781 -7.1704 3.19006 0
M  V30 3842 O 468.818 -8.16596 0.923387 0
M  V30 3843 C 468.658 -9.38437 0.108857 0
M  V30 3844 C 469.198 -9.08175 -1.28353 0
M  V30 3845 O 468.142 -8.44229 -1.84713 0
M  V30 3846 C 470.416 -8.18386 -1.42505 0
M  V30 3847 O 471.154 -8.3501 -2.60497 0
M  V30 3848 C 469.747 -6.80225 -1.25468 0
M  V30 3849 O 470.546 -5.81621 -1.91066 0
M  V30 3850 C 468.41 -7.02416 -1.9168 0
M  V30 3851 H 468.442 -6.6888 -2.96621 0
M  V30 3852 H 469.625 -6.53617 -0.192223 0
M  V30 3853 H 471.109 -8.36622 -0.589963 0
M  V30 3854 H 469.415 -10.0291 -1.79807 0
M  V30 3855 H 469.225 -10.2138 0.558219 0
M  V30 3856 H 467.595 -9.6579 0.0444202 0
M  V30 3857 H 470.234 -5.69556 -2.79637 0
M  V30 3858 P 472.091 -8.4349 -2.47671 0
M  V30 3859 O 473.512 -8.92689 -2.65029 0
M  V30 3860 O 471.731 -7.7568 -1.19296 0
M  V30 3861 O 471.768 -7.36886 -3.63805 0
M  V30 3862 C 471.607 -7.95433 -4.98253 0
M  V30 3863 C 472.148 -6.94612 -5.98974 0
M  V30 3864 O 471.093 -6.10277 -6.11744 0
M  V30 3865 C 473.366 -6.11426 -5.62335 0
M  V30 3866 O 474.104 -5.6162 -6.70584 0
M  V30 3867 C 472.698 -5.04409 -4.73308 0
M  V30 3868 O 473.496 -3.86404 -4.74719 0
M  V30 3869 C 471.36 -4.8728 -5.41006 0
M  V30 3870 N 470.317 -4.65812 -4.42377 0
M  V30 3871 C 470.486 -5.09132 -3.15382 0
M  V30 3872 N 469.459 -4.84021 -2.3716 0
M  V30 3873 C 468.574 -4.18386 -3.20441 0
M  V30 3874 C 467.307 -3.6275 -2.94905 0
M  V30 3875 N 466.708 -3.65794 -1.73372 0
M  V30 3876 N 466.742 -3.05008 -4.05243 0
M  V30 3877 C 467.344 -2.98348 -5.28159 0
M  V30 3878 N 468.521 -3.48171 -5.56333 0
M  V30 3879 C 469.096 -4.06869 -4.47212 0
M  V30 3880 H 471.392 -4.02278 -6.11074 0
M  V30 3881 H 472.575 -5.39013 -3.70026 0
M  V30 3882 H 474.058 -6.71916 -5.01943 0
M  V30 3883 H 472.364 -7.45796 -6.94223 0
M  V30 3884 H 472.174 -8.89416 -5.05237 0
M  V30 3885 H 470.544 -8.14876 -5.18409 0
M  V30 3886 H 466.808 -2.47853 -6.07807 0
M  V30 3887 H 471.386 -5.59989 -2.81362 0
M  V30 3888 H 465.778 -3.23218 -1.60782 0
M  V30 3889 H 467.182 -4.10523 -0.937856 0
M  V30 3890 H 473.184 -3.27906 -5.43085 0
M  V30 3891 P 475.042 -5.75688 -6.64379 0
M  V30 3892 O 476.464 -6.07627 -7.05504 0
M  V30 3893 O 474.682 -5.88047 -5.19722 0
M  V30 3894 O 474.719 -4.2322 -7.04443 0
M  V30 3895 C 474.559 -3.99743 -8.4911 0
M  V30 3896 C 475.099 -2.60516 -8.79425 0
M  V30 3897 O 474.043 -1.82684 -8.4467 0
M  V30 3898 C 476.317 -2.10343 -8.03628 0
M  V30 3899 O 477.055 -1.09919 -8.67766 0
M  V30 3900 C 475.648 -1.68446 -6.70876 0
M  V30 3901 O 476.447 -0.678137 -6.08433 0
M  V30 3902 C 474.311 -1.17436 -7.18567 0
M  V30 3903 H 474.343 -0.0804732 -7.31656 0
M  V30 3904 H 475.526 -2.54037 -6.02537 0
M  V30 3905 H 477.01 -2.93881 -7.85526 0
M  V30 3906 H 475.316 -2.53065 -9.86973 0
M  V30 3907 H 475.126 -4.75072 -9.05887 0
M  V30 3908 H 473.496 -4.05244 -8.76668 0
M  V30 3909 H 476.135 0.177647 -6.34251 0
M  V30 3910 P 477.992 -1.25109 -8.70152 0
M  V30 3911 O 479.414 -1.29744 -9.22016 0
M  V30 3912 O 477.632 -2.13714 -7.55141 0
M  V30 3913 O 477.669 0.248149 -8.21425 0
M  V30 3914 C 477.509 1.22779 -9.30434 0
M  V30 3915 C 478.049 2.56293 -8.80664 0
M  V30 3916 O 476.993 3.02979 -8.09349 0
M  V30 3917 C 479.267 2.57523 -7.89775 0
M  V30 3918 O 480.005 3.7668 -7.89438 0
M  V30 3919 C 478.598 2.20997 -6.55446 0
M  V30 3920 O 479.397 2.71895 -5.48509 0
M  V30 3921 C 477.261 2.89693 -6.67988 0
M  V30 3922 H 477.293 3.88793 -6.19859 0
M  V30 3923 H 478.476 1.12046 -6.44229 0
M  V30 3924 H 479.96 1.7746 -8.19711 0
M  V30 3925 H 478.266 3.20706 -9.67112 0
M  V30 3926 H 478.076 0.901032 -10.1892 0
M  V30 3927 H 476.446 1.33049 -9.56592 0
M  V30 3928 H 479.085 3.57847 -5.23962 0
M  V30 3929 P 480.943 3.65191 -7.99657 0
M  V30 3930 O 482.365 3.89332 -8.45794 0
M  V30 3931 O 480.583 2.28472 -7.50807 0
M  V30 3932 O 480.62 4.64972 -6.77611 0
M  V30 3933 C 480.46 6.06319 -7.16352 0
M  V30 3934 C 481 6.91731 -6.02299 0
M  V30 3935 O 479.944 6.92449 -5.17064 0
M  V30 3936 C 482.218 6.43627 -5.25174 0
M  V30 3937 O 482.956 7.43686 -4.60469 0
M  V30 3938 C 481.549 5.40275 -4.31916 0
M  V30 3939 O 482.348 5.25279 -3.14438 0
M  V30 3940 C 480.212 6.04847 -4.05327 0
M  V30 3941 H 480.244 6.62195 -3.11261 0
M  V30 3942 H 481.427 4.42556 -4.81383 0
M  V30 3943 H 482.911 5.92458 -5.93643 0
M  V30 3944 H 481.217 7.92655 -6.402 0
M  V30 3945 H 481.027 6.26671 -8.0846 0
M  V30 3946 H 479.397 6.29101 -7.32804 0
M  V30 3947 H 482.036 5.84315 -2.47318 0
M  V30 3948 P 483.893 7.39546 -4.75277 0
M  V30 3949 O 485.315 7.84798 -5.01039 0
M  V30 3950 O 483.533 5.9812 -5.08098 0
M  V30 3951 O 483.57 7.57503 -3.1866 0
M  V30 3952 C 483.41 8.97357 -2.74833 0
M  V30 3953 C 483.95 9.07548 -1.32709 0
M  V30 3954 O 482.894 8.62072 -0.606159 0
M  V30 3955 C 485.168 8.25383 -0.938334 0
M  V30 3956 O 485.906 8.74577 0.146954 0
M  V30 3957 C 484.499 6.8802 -0.712559 0
M  V30 3958 O 485.298 6.1189 0.194655 0
M  V30 3959 C 483.162 7.27966 -0.139777 0
M  V30 3960 H 483.194 7.25354 0.961601 0
M  V30 3961 H 484.377 6.32557 -1.65702 0
M  V30 3962 H 485.861 8.19355 -1.79097 0
M  V30 3963 H 484.167 10.1294 -1.10029 0
M  V30 3964 H 483.977 9.64276 -3.41316 0
M  V30 3965 H 482.347 9.25417 -2.76357 0
M  V30 3966 H 484.986 6.25267 1.07847 0
M  V30 3967 P 486.844 8.791 2.9035e-12 0
M  V30 3968 O 488.265 9.31196 0.027936 0
M  V30 3969 O 486.484 7.77869 -1.04071 0
M  V30 3970 O 486.521 8.09533 1.41463 0
M  V30 3971 C 486.36 9.03587 2.5397 0
M  V30 3972 C 486.901 8.35226 3.79016 0
M  V30 3973 O 485.846 7.57904 4.1503 0
M  V30 3974 C 488.119 7.45087 3.67298 0
M  V30 3975 O 488.857 7.27796 4.85194 0
M  V30 3976 C 487.451 6.17323 3.12027 0
M  V30 3977 O 488.249 5.04496 3.46627 0
M  V30 3978 C 486.113 6.19961 3.81809 0
M  V30 3979 N 485.07 5.71575 2.93223 0
M  V30 3980 C 485.239 5.77362 1.59168 0
M  V30 3981 N 484.212 5.3123 0.911893 0
M  V30 3982 C 483.327 4.91717 1.89588 0
M  V30 3983 C 482.06 4.3114 1.8076 0
M  V30 3984 N 481.461 3.99821 0.632928 0
M  V30 3985 N 481.495 4.06823 3.02898 0
M  V30 3986 C 482.097 4.35062 4.22711 0
M  V30 3987 N 483.274 4.90805 4.35707 0
M  V30 3988 C 483.849 5.16382 3.14469 0
M  V30 3989 H 486.145 5.58142 4.72986 0
M  V30 3990 H 487.328 6.21428 2.0318 0
M  V30 3991 H 488.811 7.86112 2.9231 0
M  V30 3992 H 487.117 9.11171 4.55987 0
M  V30 3993 H 486.927 9.9573 2.34194 0
M  V30 3994 H 485.297 9.2792 2.67832 0
M  V30 3995 H 481.561 4.09052 5.13359 0
M  V30 3996 H 486.139 6.16575 1.12198 0
M  V30 3997 H 480.531 3.55423 0.632085 0
M  V30 3998 H 481.935 4.20317 -0.256712 0
M  V30 3999 H 487.937 4.67628 4.28704 0
M  V30 4000 P 489.795 7.39546 4.75277 0
M  V30 4001 O 491.217 7.81777 5.05738 0
M  V30 4002 O 489.435 7.1065 3.32998 0
M  V30 4003 O 489.472 6.04542 5.56673 0
M  V30 4004 C 489.312 6.22772 7.02095 0
M  V30 4005 C 489.852 4.97725 7.70406 0
M  V30 4006 O 488.796 4.13256 7.58987 0
M  V30 4007 C 491.07 4.28231 7.11815 0
M  V30 4008 O 491.808 3.49945 8.01648 0
M  V30 4009 C 490.401 3.5063 5.96244 0
M  V30 4010 O 491.2 2.36482 5.64681 0
M  V30 4011 C 489.064 3.15122 6.56374 0
M  V30 4012 H 489.096 2.13853 6.99751 0
M  V30 4013 H 490.279 4.13501 5.06559 0
M  V30 4014 H 491.763 5.03285 6.70911 0
M  V30 4015 H 490.069 5.20877 8.75697 0
M  V30 4016 H 489.879 7.11046 7.35349 0
M  V30 4017 H 488.249 6.35815 7.26986 0
M  V30 4018 H 490.888 1.61644 6.13565 0
M  V30 4019 P 492.745 3.65191 7.99657 0
M  V30 4020 O 494.167 3.8425 8.48115 0
M  V30 4021 O 492.385 4.17805 6.64342 0
M  V30 4022 O 492.422 2.07613 7.95143 0
M  V30 4023 C 492.262 1.44328 9.27336 0
M  V30 4024 C 492.802 0.0220036 9.17197 0
M  V30 4025 O 491.746 -0.626867 8.61923 0
M  V30 4026 C 494.02 -0.24586 8.30336 0
M  V30 4027 O 494.758 -1.39011 8.63583 0
M  V30 4028 C 493.351 -0.273849 6.91158 0
M  V30 4029 O 494.15 -1.06348 6.02892 0
M  V30 4030 C 492.014 -0.897649 7.22545 0
M  V30 4031 H 492.046 -1.9841 7.04286 0
M  V30 4032 H 493.229 0.739928 6.497 0
M  V30 4033 H 494.713 0.60668 8.36503 0
M  V30 4034 H 493.019 -0.352479 10.1829 0
M  V30 4035 H 492.829 2.00611 10.0304 0
M  V30 4036 H 491.199 1.41843 9.55327 0
M  V30 4037 H 493.838 -1.95734 6.03555 0
M  V30 4038 P 495.696 -1.25109 8.70152 0
M  V30 4039 O 497.118 -1.35303 9.21419 0
M  V30 4040 O 495.336 -0.0769065 7.84762 0
M  V30 4041 O 495.373 -2.55232 7.81161 0
M  V30 4042 C 495.213 -3.79939 8.58154 0
M  V30 4043 C 495.753 -4.93969 7.72701 0
M  V30 4044 O 494.698 -5.18726 6.91205 0
M  V30 4045 C 496.971 -4.69597 6.85231 0
M  V30 4046 O 497.709 -5.83832 6.51337 0
M  V30 4047 C 496.303 -3.96706 5.66633 0
M  V30 4048 O 497.101 -4.15346 4.49615 0
M  V30 4049 C 494.965 -4.66153 5.59313 0
M  V30 4050 N 493.922 -3.71582 5.24027 0
M  V30 4051 C 493.984 -2.46018 5.67902 0
M  V30 4052 N 492.939 -1.74868 5.24518 0
M  V30 4053 C 492.205 -2.61333 4.54528 0
M  V30 4054 C 490.899 -2.46162 3.95441 0
M  V30 4055 O 490.166 -1.46013 3.94122 0
M  V30 4056 N 490.469 -3.59334 3.34752 0
M  V30 4057 C 491.218 -4.79605 3.3023 0
M  V30 4058 N 490.621 -5.82109 2.6065 0
M  V30 4059 N 492.371 -4.97402 3.8843 0
M  V30 4060 C 492.828 -3.86258 4.50476 0
M  V30 4061 H 494.997 -5.47679 4.85214 0
M  V30 4062 H 496.18 -2.88964 5.86476 0
M  V30 4063 H 497.665 -4.01947 7.36109 0
M  V30 4064 H 495.97 -5.80182 8.37584 0
M  V30 4065 H 495.78 -3.73517 9.52265 0
M  V30 4066 H 494.149 -3.97163 8.80359 0
M  V30 4067 H 489.573 -3.5825 2.90294 0
M  V30 4068 H 494.78 -2.06161 6.30974 0
M  V30 4069 H 489.71 -5.66979 2.15354 0
M  V30 4070 H 491.086 -6.73686 2.54344 0
M  V30 4071 H 496.79 -4.90891 4.01857 0
M  V30 4072 P 498.646 -5.75688 6.64379 0
M  V30 4073 O 500.047 -6.11991 7.09136 0
M  V30 4074 O 498.268 -4.30899 6.62018 0
M  V30 4075 O 498.323 -6.36965 5.19102 0
M  V30 4076 C 498.163 -7.83578 5.16515 0
M  V30 4077 C 498.703 -8.33307 3.82977 0
M  V30 4078 O 497.647 -8.0998 3.00999 0
M  V30 4079 C 499.92 -7.65514 3.2257 0
M  V30 4080 O 500.659 -8.4329 2.32297 0
M  V30 4081 C 499.253 -6.40075 2.62207 0
M  V30 4082 O 500.051 -5.92492 1.53687 0
M  V30 4083 C 497.915 -6.9454 2.18503 0
M  V30 4084 N 496.872 -5.95905 2.39948 0
M  V30 4085 C 495.837 -5.89764 1.49837 0
M  V30 4086 O 495.876 -6.64088 0.490975 0
M  V30 4087 N 494.825 -5.02821 1.70992 0
M  V30 4088 C 494.873 -4.21498 2.77236 0
M  V30 4089 N 493.863 -3.37475 2.96465 0
M  V30 4090 C 495.969 -4.23389 3.68205 0
M  V30 4091 C 496.935 -5.12792 3.46171 0
M  V30 4092 H 497.947 -7.22964 1.12076 0
M  V30 4093 H 499.13 -5.60502 3.36589 0
M  V30 4094 H 500.614 -7.36197 4.01993 0
M  V30 4095 H 498.92 -9.41302 3.90009 0
M  V30 4096 H 498.729 -8.29056 5.99158 0
M  V30 4097 H 497.099 -8.09989 5.25828 0
M  V30 4098 H 496.017 -3.54747 4.52399 0
M  V30 4099 H 497.781 -5.18551 4.1489 0
M  V30 4100 H 493.073 -3.36058 2.30304 0
M  V30 4101 H 493.868 -2.73846 3.77171 0
M  V30 4102 H 499.835 -6.40705 0.751752 0
M  V30 4103 P 501.597 -8.4349 2.47671 0
M  V30 4104 O 503.018 -8.94263 2.59668 0
M  V30 4105 O 501.237 -7.1704 3.19006 0
M  V30 4106 O 501.274 -8.16596 0.923387 0
M  V30 4107 C 501.113 -9.38537 0.108869 0
M  V30 4108 C 501.654 -9.08175 -1.28353 0
M  V30 4109 O 500.599 -8.44131 -1.84692 0
M  V30 4110 C 502.872 -8.18386 -1.42505 0
M  V30 4111 O 503.61 -8.3501 -2.60497 0
M  V30 4112 C 502.204 -6.80225 -1.25468 0
M  V30 4113 O 503.002 -5.81716 -1.90454 0
M  V30 4114 C 500.866 -7.02416 -1.9168 0
M  V30 4115 N 499.823 -6.31033 -1.20314 0
M  V30 4116 C 499.992 -5.98817 0.0994088 0
M  V30 4117 N 498.965 -5.35403 0.621694 0
M  V30 4118 C 498.08 -5.25212 -0.43376 0
M  V30 4119 C 496.813 -4.64602 -0.519722 0
M  V30 4120 N 496.214 -4.01457 0.519136 0
M  V30 4121 N 496.248 -4.7568 -1.76013 0
M  V30 4122 C 496.85 -5.3653 -2.83017 0
M  V30 4123 N 498.027 -5.93676 -2.79782 0
M  V30 4124 C 498.602 -5.84061 -1.56249 0
M  V30 4125 H 500.898 -6.68789 -2.9658 0
M  V30 4126 H 502.081 -6.53498 -0.198729 0
M  V30 4127 H 503.564 -8.36622 -0.589963 0
M  V30 4128 H 501.87 -10.0273 -1.8081 0
M  V30 4129 H 501.68 -10.2138 0.558219 0
M  V30 4130 H 500.05 -9.6579 0.0444202 0
M  V30 4131 H 496.314 -5.37113 -3.77321 0
M  V30 4132 H 500.892 -6.23209 0.660562 0
M  V30 4133 H 495.284 -3.58834 0.394862 0
M  V30 4134 H 496.688 -3.96059 1.43048 0
M  V30 4135 H 502.69 -5.69466 -2.79593 0
M  V30 4136 P 504.547 -8.4349 -2.47671 0
M  V30 4137 O 505.969 -8.92593 -2.65 0
M  V30 4138 O 504.187 -7.7568 -1.19296 0
M  V30 4139 O 504.224 -7.36886 -3.63805 0
M  V30 4140 C 504.064 -7.95349 -4.982 0
M  V30 4141 C 504.604 -6.94612 -5.98974 0
M  V30 4142 O 503.548 -6.10347 -6.11815 0
M  V30 4143 C 505.822 -6.11426 -5.62335 0
M  V30 4144 O 506.56 -5.6162 -6.70584 0
M  V30 4145 C 505.153 -5.04409 -4.73308 0
M  V30 4146 O 505.952 -3.85992 -4.75183 0
M  V30 4147 C 503.816 -4.8728 -5.41006 0
M  V30 4148 H 503.848 -4.02333 -6.11157 0
M  V30 4149 H 505.031 -5.39466 -3.69543 0
M  V30 4150 H 506.515 -6.71916 -5.01943 0
M  V30 4151 H 504.821 -7.4649 -6.93477 0
M  V30 4152 H 504.631 -8.89416 -5.05237 0
M  V30 4153 H 503.001 -8.14876 -5.18409 0
M  V30 4154 H 505.64 -3.27957 -5.4317 0
M  V30 4155 P 507.498 -5.75688 -6.64379 0
M  V30 4156 O 508.919 -6.07692 -7.0558 0
M  V30 4157 O 507.138 -5.88047 -5.19722 0
M  V30 4158 O 507.175 -4.2322 -7.04443 0
M  V30 4159 C 507.014 -3.99785 -8.49201 0
M  V30 4160 C 507.555 -2.60516 -8.79425 0
M  V30 4161 O 506.5 -1.82663 -8.44573 0
M  V30 4162 C 508.773 -2.10343 -8.03628 0
M  V30 4163 O 509.511 -1.09919 -8.67766 0
M  V30 4164 C 508.105 -1.68446 -6.70876 0
M  V30 4165 O 508.903 -0.684109 -6.08265 0
M  V30 4166 C 506.767 -1.17436 -7.18567 0
M  V30 4167 N 505.724 -1.52699 -6.23988 0
M  V30 4168 C 505.893 -2.578 -5.40574 0
M  V30 4169 N 504.866 -2.78966 -4.61193 0
M  V30 4170 C 503.981 -1.78725 -4.95769 0
M  V30 4171 C 502.714 -1.45727 -4.44207 0
M  V30 4172 N 502.149 -0.374977 -5.05812 0
M  V30 4173 C 502.751 0.345585 -6.05615 0
M  V30 4174 N 503.928 0.0787651 -6.56253 0
M  V30 4175 C 504.503 -1.00499 -5.96189 0
M  V30 4176 H 507.982 -2.53396 -6.02698 0
M  V30 4177 H 509.465 -2.93881 -7.85526 0
M  V30 4178 H 507.771 -2.52078 -9.87225 0
M  V30 4179 H 507.581 -4.75072 -9.05887 0
M  V30 4180 H 505.951 -4.05244 -8.76668 0
M  V30 4181 H 506.793 -3.18977 -5.3945 0
M  V30 4182 H 508.591 0.177619 -6.34151 0
M  V30 4183 P 510.449 -1.25109 -8.70152 0
M  V30 4184 O 511.871 -1.29744 -9.22016 0
M  V30 4185 O 510.089 -2.13714 -7.55141 0
M  V30 4186 O 510.126 0.248149 -8.21425 0
M  V30 4187 C 509.966 1.22779 -9.30434 0
M  V30 4188 C 510.506 2.56293 -8.80664 0
M  V30 4189 O 509.45 3.02979 -8.09349 0
M  V30 4190 C 511.724 2.57523 -7.89775 0
M  V30 4191 O 512.462 3.7668 -7.89438 0
M  V30 4192 C 511.055 2.20997 -6.55446 0
M  V30 4193 O 511.854 2.71895 -5.48509 0
M  V30 4194 C 509.718 2.89693 -6.67988 0
M  V30 4195 H 509.75 3.88793 -6.19859 0
M  V30 4196 H 510.933 1.12046 -6.44229 0
M  V30 4197 H 512.417 1.7746 -8.19711 0
M  V30 4198 H 510.723 3.20706 -9.67112 0
M  V30 4199 H 510.533 0.901032 -10.1892 0
M  V30 4200 H 508.903 1.33049 -9.56592 0
M  V30 4201 H 511.542 3.57847 -5.23962 0
M  V30 4202 P 513.399 3.65191 -7.99657 0
M  V30 4203 O 514.82 3.89374 -8.45885 0
M  V30 4204 O 513.039 2.28472 -7.50807 0
M  V30 4205 O 513.076 4.64972 -6.77611 0
M  V30 4206 C 512.915 6.06383 -7.16428 0
M  V30 4207 C 513.456 6.91731 -6.02299 0
M  V30 4208 O 512.401 6.92369 -5.17005 0
M  V30 4209 C 514.674 6.43627 -5.25174 0
M  V30 4210 O 515.412 7.43686 -4.60469 0
M  V30 4211 C 514.006 5.40275 -4.31916 0
M  V30 4212 O 514.804 5.24878 -3.14911 0
M  V30 4213 C 512.668 6.04847 -4.05327 0
M  V30 4214 N 511.625 5.04166 -3.98114 0
M  V30 4215 C 511.794 3.84629 -4.59066 0
M  V30 4216 N 510.767 3.0363 -4.45343 0
M  V30 4217 C 509.882 3.76722 -3.68523 0
M  V30 4218 C 508.615 3.43528 -3.17088 0
M  V30 4219 N 508.016 2.23665 -3.37397 0
M  V30 4220 N 508.05 4.44526 -2.44231 0
M  V30 4221 C 508.652 5.65243 -2.20146 0
M  V30 4222 N 509.829 6.00221 -2.65453 0
M  V30 4223 C 510.404 5.00564 -3.39083 0
M  V30 4224 H 512.7 6.62104 -3.11218 0
M  V30 4225 H 513.883 4.42969 -4.80867 0
M  V30 4226 H 515.366 5.92458 -5.93643 0
M  V30 4227 H 513.672 7.93295 -6.39407 0
M  V30 4228 H 513.482 6.26671 -8.0846 0
M  V30 4229 H 511.852 6.29101 -7.32804 0
M  V30 4230 H 508.116 6.36894 -1.5883 0
M  V30 4231 H 512.694 3.58193 -5.14248 0
M  V30 4232 H 507.086 2.05145 -2.97047 0
M  V30 4233 H 508.49 1.51255 -3.92998 0
M  V30 4234 H 514.492 5.84223 -2.47279 0
M  V30 4235 P 516.35 7.39546 -4.75277 0
M  V30 4236 O 517.772 7.84798 -5.01039 0
M  V30 4237 O 515.99 5.9812 -5.08098 0
M  V30 4238 O 516.027 7.57503 -3.1866 0
M  V30 4239 C 515.867 8.97357 -2.74833 0
M  V30 4240 C 516.407 9.07548 -1.32709 0
M  V30 4241 O 515.351 8.62072 -0.606159 0
M  V30 4242 C 517.625 8.25383 -0.938334 0
M  V30 4243 O 518.363 8.74577 0.146954 0
M  V30 4244 C 516.956 6.8802 -0.712559 0
M  V30 4245 O 517.755 6.1189 0.194655 0
M  V30 4246 C 515.619 7.27966 -0.139777 0
M  V30 4247 H 515.651 7.25354 0.961601 0
M  V30 4248 H 516.834 6.32557 -1.65702 0
M  V30 4249 H 518.318 8.19355 -1.79097 0
M  V30 4250 H 516.624 10.1294 -1.10029 0
M  V30 4251 H 516.434 9.64276 -3.41316 0
M  V30 4252 H 514.804 9.25417 -2.76357 0
M  V30 4253 H 517.443 6.25267 1.07847 0
M  V30 4254 P 519.3 8.791 3.21367e-12 0
M  V30 4255 O 520.722 9.31096 0.027933 0
M  V30 4256 O 518.94 7.77869 -1.04071 0
M  V30 4257 O 518.977 8.09533 1.41463 0
M  V30 4258 C 518.817 9.0349 2.53943 0
M  V30 4259 C 519.357 8.35226 3.79016 0
M  V30 4260 O 518.301 7.57992 4.15078 0
M  V30 4261 C 520.575 7.45087 3.67298 0
M  V30 4262 O 521.313 7.27796 4.85194 0
M  V30 4263 C 519.906 6.17323 3.12027 0
M  V30 4264 O 520.705 5.04231 3.47188 0
M  V30 4265 C 518.569 6.19961 3.81809 0
M  V30 4266 H 518.601 5.58218 4.73051 0
M  V30 4267 H 519.784 6.21726 2.02589 0
M  V30 4268 H 521.268 7.86112 2.9231 0
M  V30 4269 H 519.574 9.11627 4.55076 0
M  V30 4270 H 519.384 9.9573 2.34194 0
M  V30 4271 H 517.754 9.2792 2.67832 0
M  V30 4272 H 520.393 4.67702 4.28772 0
M  V30 4273 P 522.251 7.39546 4.75277 0
M  V30 4274 O 523.673 7.81777 5.05738 0
M  V30 4275 O 521.891 7.1065 3.32998 0
M  V30 4276 O 521.928 6.04542 5.56673 0
M  V30 4277 C 521.768 6.22772 7.02095 0
M  V30 4278 C 522.308 4.97725 7.70406 0
M  V30 4279 O 521.252 4.13256 7.58987 0
M  V30 4280 C 523.526 4.28231 7.11815 0
M  V30 4281 O 524.264 3.49945 8.01648 0
M  V30 4282 C 522.857 3.5063 5.96244 0
M  V30 4283 O 523.656 2.36482 5.64681 0
M  V30 4284 C 521.52 3.15122 6.56374 0
M  V30 4285 H 521.552 2.13853 6.99751 0
M  V30 4286 H 522.735 4.13501 5.06559 0
M  V30 4287 H 524.219 5.03285 6.70911 0
M  V30 4288 H 522.525 5.20877 8.75697 0
M  V30 4289 H 522.335 7.11046 7.35349 0
M  V30 4290 H 520.705 6.35815 7.26986 0
M  V30 4291 H 523.344 1.61644 6.13565 0
M  V30 4292 P 525.201 3.65191 7.99657 0
M  V30 4293 O 526.623 3.8425 8.48115 0
M  V30 4294 O 524.841 4.17805 6.64342 0
M  V30 4295 O 524.878 2.07613 7.95143 0
M  V30 4296 C 524.718 1.44328 9.27336 0
M  V30 4297 C 525.258 0.0220036 9.17197 0
M  V30 4298 O 524.202 -0.626867 8.61923 0
M  V30 4299 C 526.476 -0.24586 8.30336 0
M  V30 4300 O 527.214 -1.39011 8.63583 0
M  V30 4301 C 525.807 -0.273849 6.91158 0
M  V30 4302 O 526.606 -1.06348 6.02892 0
M  V30 4303 C 524.47 -0.897649 7.22545 0
M  V30 4304 H 524.502 -1.9841 7.04286 0
M  V30 4305 H 525.685 0.739928 6.497 0
M  V30 4306 H 527.169 0.60668 8.36503 0
M  V30 4307 H 525.475 -0.352479 10.1829 0
M  V30 4308 H 525.285 2.00611 10.0304 0
M  V30 4309 H 523.655 1.41843 9.55327 0
M  V30 4310 H 526.294 -1.95734 6.03555 0
M  V30 4311 P 528.152 -1.25109 8.70152 0
M  V30 4312 O 529.574 -1.35274 9.21221 0
M  V30 4313 O 527.792 -0.0769065 7.84762 0
M  V30 4314 O 527.829 -2.55232 7.81161 0
M  V30 4315 C 527.669 -3.79939 8.58154 0
M  V30 4316 C 528.209 -4.94023 7.72785 0
M  V30 4317 O 527.153 -5.18726 6.91205 0
M  V30 4318 C 529.427 -4.69597 6.85231 0
M  V30 4319 O 530.165 -5.83832 6.51337 0
M  V30 4320 C 528.758 -3.96706 5.66633 0
M  V30 4321 O 529.557 -4.15414 4.49689 0
M  V30 4322 C 527.421 -4.66153 5.59313 0
M  V30 4323 H 527.453 -5.47679 4.85214 0
M  V30 4324 H 528.636 -2.89008 5.86566 0
M  V30 4325 H 530.12 -4.0121 7.36511 0
M  V30 4326 H 528.426 -5.80182 8.37584 0
M  V30 4327 H 528.236 -3.73517 9.52265 0
M  V30 4328 H 526.606 -3.97163 8.80359 0
M  V30 4329 H 529.245 -4.90969 4.01921 0
M  V30 4330 P 531.103 -5.75688 6.64379 0
M  V30 4331 O 532.525 -6.11849 7.01846 0
M  V30 4332 O 530.743 -4.30744 6.56026 0
M  V30 4333 O 530.78 -6.37042 5.19165 0
M  V30 4334 C 530.62 -7.83578 5.16515 0
M  V30 4335 C 531.16 -8.33398 3.83019 0
M  V30 4336 O 530.104 -8.10074 3.01034 0
M  V30 4337 C 532.378 -7.65514 3.2257 0
M  V30 4338 O 533.116 -8.4329 2.32297 0
M  V30 4339 C 531.709 -6.40075 2.62207 0
M  V30 4340 O 532.508 -5.92589 1.53712 0
M  V30 4341 C 530.372 -6.9454 2.18503 0
M  V30 4342 H 530.404 -7.23063 1.12091 0
M  V30 4343 H 531.587 -5.6025 3.37201 0
M  V30 4344 H 533.071 -7.35707 4.02681 0
M  V30 4345 H 531.377 -9.40912 3.9095 0
M  V30 4346 H 531.187 -8.29056 5.99158 0
M  V30 4347 H 529.557 -8.10073 5.25882 0
M  V30 4348 H 532.196 -6.30324 0.726794 0
M  V30 4349 P 534.053 -8.4349 2.47671 0
M  V30 4350 O 535.475 -8.94167 2.5964 0
M  V30 4351 O 533.693 -7.1704 3.19006 0
M  V30 4352 O 533.73 -8.16596 0.923387 0
M  V30 4353 C 533.57 -9.38437 0.108857 0
M  V30 4354 C 534.11 -9.08175 -1.28353 0
M  V30 4355 O 533.054 -8.44229 -1.84713 0
M  V30 4356 C 535.328 -8.18386 -1.42505 0
M  V30 4357 O 536.066 -8.3501 -2.60497 0
M  V30 4358 C 534.659 -6.80225 -1.25468 0
M  V30 4359 O 535.458 -5.81621 -1.91066 0
M  V30 4360 C 533.322 -7.02416 -1.9168 0
M  V30 4361 H 533.354 -6.6888 -2.96621 0
M  V30 4362 H 534.537 -6.53617 -0.192223 0
M  V30 4363 H 536.021 -8.36622 -0.589963 0
M  V30 4364 H 534.327 -10.0291 -1.79807 0
M  V30 4365 H 534.137 -10.2138 0.558219 0
M  V30 4366 H 532.507 -9.6579 0.0444202 0
M  V30 4367 H 535.146 -5.69556 -2.79637 0
M  V30 4368 P 537.004 -8.4349 -2.47671 0
M  V30 4369 O 538.426 -8.92593 -2.65 0
M  V30 4370 O 536.644 -7.7568 -1.19296 0
M  V30 4371 O 536.681 -7.36886 -3.63805 0
M  V30 4372 C 536.521 -7.95349 -4.982 0
M  V30 4373 C 537.061 -6.94612 -5.98974 0
M  V30 4374 O 536.005 -6.10347 -6.11815 0
M  V30 4375 C 538.279 -6.11426 -5.62335 0
M  V30 4376 O 539.017 -5.6162 -6.70584 0
M  V30 4377 C 537.61 -5.04409 -4.73308 0
M  V30 4378 O 538.409 -3.85992 -4.75183 0
M  V30 4379 C 536.273 -4.8728 -5.41006 0
M  V30 4380 H 536.305 -4.02333 -6.11157 0
M  V30 4381 H 537.488 -5.39466 -3.69543 0
M  V30 4382 H 538.972 -6.71916 -5.01943 0
M  V30 4383 H 537.278 -7.4649 -6.93477 0
M  V30 4384 H 537.088 -8.89416 -5.05237 0
M  V30 4385 H 535.458 -8.14876 -5.18409 0
M  V30 4386 H 538.097 -3.27957 -5.4317 0
M  V30 4387 P 539.954 -5.75688 -6.64379 0
M  V30 4388 O 541.376 -6.07627 -7.05504 0
M  V30 4389 O 539.594 -5.88047 -5.19722 0
M  V30 4390 O 539.631 -4.2322 -7.04443 0
M  V30 4391 C 539.471 -3.99743 -8.4911 0
M  V30 4392 C 540.011 -2.60516 -8.79425 0
M  V30 4393 O 538.955 -1.82684 -8.4467 0
M  V30 4394 C 541.229 -2.10343 -8.03628 0
M  V30 4395 O 541.967 -1.09919 -8.67766 0
M  V30 4396 C 540.56 -1.68446 -6.70876 0
M  V30 4397 O 541.359 -0.678137 -6.08433 0
M  V30 4398 C 539.223 -1.17436 -7.18567 0
M  V30 4399 H 539.255 -0.0804732 -7.31656 0
M  V30 4400 H 540.438 -2.54037 -6.02537 0
M  V30 4401 H 541.922 -2.93881 -7.85526 0
M  V30 4402 H 540.228 -2.53065 -9.86973 0
M  V30 4403 H 540.038 -4.75072 -9.05887 0
M  V30 4404 H 538.408 -4.05244 -8.76668 0
M  V30 4405 H 541.047 0.177647 -6.34251 0
M  V30 4406 P 542.905 -1.25109 -8.70152 0
M  V30 4407 O 544.327 -1.29744 -9.22016 0
M  V30 4408 O 542.545 -2.13714 -7.55141 0
M  V30 4409 O 542.582 0.248149 -8.21425 0
M  V30 4410 C 542.422 1.22779 -9.30434 0
M  V30 4411 C 542.962 2.56293 -8.80664 0
M  V30 4412 O 541.906 3.02979 -8.09349 0
M  V30 4413 C 544.18 2.57523 -7.89775 0
M  V30 4414 O 544.918 3.7668 -7.89438 0
M  V30 4415 C 543.511 2.20997 -6.55446 0
M  V30 4416 O 544.31 2.71895 -5.48509 0
M  V30 4417 C 542.174 2.89693 -6.67988 0
M  V30 4418 H 542.206 3.88793 -6.19859 0
M  V30 4419 H 543.389 1.12046 -6.44229 0
M  V30 4420 H 544.873 1.7746 -8.19711 0
M  V30 4421 H 543.179 3.20706 -9.67112 0
M  V30 4422 H 542.989 0.901032 -10.1892 0
M  V30 4423 H 541.359 1.33049 -9.56592 0
M  V30 4424 H 543.998 3.57847 -5.23962 0
M  V30 4425 P 545.855 3.65191 -7.99657 0
M  V30 4426 O 547.277 3.89332 -8.45794 0
M  V30 4427 O 545.495 2.28472 -7.50807 0
M  V30 4428 O 545.532 4.64972 -6.77611 0
M  V30 4429 C 545.372 6.06319 -7.16352 0
M  V30 4430 C 545.912 6.91731 -6.02299 0
M  V30 4431 O 544.856 6.92449 -5.17064 0
M  V30 4432 C 547.13 6.43627 -5.25174 0
M  V30 4433 O 547.868 7.43686 -4.60469 0
M  V30 4434 C 546.461 5.40275 -4.31916 0
M  V30 4435 O 547.26 5.25279 -3.14438 0
M  V30 4436 C 545.124 6.04847 -4.05327 0
M  V30 4437 H 545.156 6.62195 -3.11261 0
M  V30 4438 H 546.339 4.42556 -4.81383 0
M  V30 4439 H 547.823 5.92458 -5.93643 0
M  V30 4440 H 546.129 7.92655 -6.402 0
M  V30 4441 H 545.939 6.26671 -8.0846 0
M  V30 4442 H 544.309 6.29101 -7.32804 0
M  V30 4443 H 546.948 5.84315 -2.47318 0
M  V30 4444 P 548.806 7.39546 -4.75277 0
M  V30 4445 O 550.228 7.84798 -5.01039 0
M  V30 4446 O 548.446 5.9812 -5.08098 0
M  V30 4447 O 548.483 7.57503 -3.1866 0
M  V30 4448 C 548.323 8.97357 -2.74833 0
M  V30 4449 C 548.863 9.07548 -1.32709 0
M  V30 4450 O 547.807 8.62072 -0.606159 0
M  V30 4451 C 550.081 8.25383 -0.938334 0
M  V30 4452 O 550.819 8.74577 0.146954 0
M  V30 4453 C 549.412 6.8802 -0.712559 0
M  V30 4454 O 550.211 6.1189 0.194655 0
M  V30 4455 C 548.075 7.27966 -0.139777 0
M  V30 4456 H 548.107 7.25354 0.961601 0
M  V30 4457 H 549.29 6.32557 -1.65702 0
M  V30 4458 H 550.774 8.19355 -1.79097 0
M  V30 4459 H 549.08 10.1294 -1.10029 0
M  V30 4460 H 548.89 9.64276 -3.41316 0
M  V30 4461 H 547.26 9.25417 -2.76357 0
M  V30 4462 H 549.899 6.25267 1.07847 0
M  V30 4463 P 551.757 8.791 3.52383e-12 0
M  V30 4464 O 553.179 9.31296 0.027939 0
M  V30 4465 O 551.397 7.77869 -1.04071 0
M  V30 4466 O 551.434 8.09533 1.41463 0
M  V30 4467 C 551.274 9.0349 2.53943 0
M  V30 4468 C 551.814 8.35135 3.78975 0
M  V30 4469 O 550.759 7.57992 4.15078 0
M  V30 4470 C 553.032 7.45087 3.67298 0
M  V30 4471 O 553.77 7.27796 4.85194 0
M  V30 4472 C 552.364 6.17323 3.12027 0
M  V30 4473 O 553.162 5.04149 3.47132 0
M  V30 4474 C 551.026 6.19961 3.81809 0
M  V30 4475 N 549.983 5.71575 2.93223 0
M  V30 4476 C 550.045 5.97133 1.62693 0
M  V30 4477 N 549 5.44066 0.984414 0
M  V30 4478 C 548.266 4.87093 1.93987 0
M  V30 4479 C 546.96 4.26449 1.8738 0
M  V30 4480 O 546.227 4.1089 0.884377 0
M  V30 4481 N 546.53 3.82483 3.08036 0
M  V30 4482 C 547.279 3.95124 4.27727 0
M  V30 4483 N 546.682 3.4084 5.39089 0
M  V30 4484 N 548.432 4.55264 4.3706 0
M  V30 4485 C 548.889 5.00861 3.18217 0
M  V30 4486 H 551.058 5.58218 4.73051 0
M  V30 4487 H 552.241 6.21631 2.02558 0
M  V30 4488 H 553.726 7.85819 2.93096 0
M  V30 4489 H 552.031 9.11627 4.55076 0
M  V30 4490 H 551.841 9.9573 2.34194 0
M  V30 4491 H 550.21 9.2792 2.67832 0
M  V30 4492 H 545.634 3.38323 3.1329 0
M  V30 4493 H 550.841 6.53891 1.14265 0
M  V30 4494 H 545.771 2.93852 5.30559 0
M  V30 4495 H 547.147 3.47631 6.30632 0
M  V30 4496 H 552.851 4.67628 4.28704 0
M  V30 4497 P 554.707 7.39546 4.75277 0
M  V30 4498 O 556.129 7.81777 5.05738 0
M  V30 4499 O 554.347 7.1065 3.32998 0
M  V30 4500 O 554.384 6.04542 5.56673 0
M  V30 4501 C 554.224 6.22772 7.02095 0
M  V30 4502 C 554.764 4.97725 7.70406 0
M  V30 4503 O 553.708 4.13256 7.58987 0
M  V30 4504 C 555.982 4.28231 7.11815 0
M  V30 4505 O 556.72 3.49945 8.01648 0
M  V30 4506 C 555.313 3.5063 5.96244 0
M  V30 4507 O 556.112 2.36482 5.64681 0
M  V30 4508 C 553.976 3.15122 6.56374 0
M  V30 4509 H 554.008 2.13853 6.99751 0
M  V30 4510 H 555.191 4.13501 5.06559 0
M  V30 4511 H 556.675 5.03285 6.70911 0
M  V30 4512 H 554.981 5.20877 8.75697 0
M  V30 4513 H 554.791 7.11046 7.35349 0
M  V30 4514 H 553.161 6.35815 7.26986 0
M  V30 4515 H 555.8 1.61644 6.13565 0
M  V30 4516 P 557.658 3.65191 7.99657 0
M  V30 4517 O 559.08 3.84333 8.48297 0
M  V30 4518 O 557.298 4.17805 6.64342 0
M  V30 4519 O 557.335 2.07613 7.95143 0
M  V30 4520 C 557.175 1.44328 9.27336 0
M  V30 4521 C 557.715 0.0220012 9.17097 0
M  V30 4522 O 556.66 -0.626867 8.61923 0
M  V30 4523 C 558.933 -0.24586 8.30336 0
M  V30 4524 O 559.671 -1.39011 8.63583 0
M  V30 4525 C 558.265 -0.273849 6.91158 0
M  V30 4526 O 559.063 -1.06331 6.02794 0
M  V30 4527 C 556.927 -0.897649 7.22545 0
M  V30 4528 N 555.884 -0.292839 6.41732 0
M  V30 4529 C 555.946 1.00068 6.10757 0
M  V30 4530 N 554.901 1.36468 5.35794 0
M  V30 4531 C 554.167 0.258894 5.2366 0
M  V30 4532 C 552.861 0.0670682 4.65752 0
M  V30 4533 O 552.128 0.902443 4.10497 0
M  V30 4534 N 552.431 -1.2131 4.75881 0
M  V30 4535 C 553.18 -2.24934 5.37101 0
M  V30 4536 N 552.583 -3.48783 5.33984 0
M  V30 4537 N 554.333 -2.0844 5.95684 0
M  V30 4538 C 554.79 -0.81395 5.87791 0
M  V30 4539 H 556.959 -1.9841 7.04286 0
M  V30 4540 H 558.142 0.739815 6.49601 0
M  V30 4541 H 559.627 0.598315 8.36563 0
M  V30 4542 H 557.932 -0.352479 10.1829 0
M  V30 4543 H 557.742 2.00611 10.0304 0
M  V30 4544 H 556.111 1.41843 9.55327 0
M  V30 4545 H 551.535 -1.44434 4.37895 0
M  V30 4546 H 556.742 1.67697 6.42268 0
M  V30 4547 H 551.672 -3.60543 4.87699 0
M  V30 4548 H 553.048 -4.29232 5.7819 0
M  V30 4549 H 558.752 -1.95704 6.0346 0
M  V30 4550 P 560.608 -1.25109 8.70152 0
M  V30 4551 O 562.03 -1.35274 9.21221 0
M  V30 4552 O 560.248 -0.0769065 7.84762 0
M  V30 4553 O 560.285 -2.55232 7.81161 0
M  V30 4554 C 560.125 -3.79939 8.58154 0
M  V30 4555 C 560.665 -4.94023 7.72785 0
M  V30 4556 O 559.609 -5.18726 6.91205 0
M  V30 4557 C 561.883 -4.69597 6.85231 0
M  V30 4558 O 562.621 -5.83832 6.51337 0
M  V30 4559 C 561.214 -3.96706 5.66633 0
M  V30 4560 O 562.013 -4.15414 4.49689 0
M  V30 4561 C 559.877 -4.66153 5.59313 0
M  V30 4562 H 559.909 -5.47679 4.85214 0
M  V30 4563 H 561.092 -2.89008 5.86566 0
M  V30 4564 H 562.576 -4.0121 7.36511 0
M  V30 4565 H 560.882 -5.80182 8.37584 0
M  V30 4566 H 560.692 -3.73517 9.52265 0
M  V30 4567 H 559.062 -3.97163 8.80359 0
M  V30 4568 H 561.701 -4.90969 4.01921 0
M  V30 4569 P 563.559 -5.75688 6.64379 0
M  V30 4570 O 564.981 -6.11849 7.01846 0
M  V30 4571 O 563.199 -4.30744 6.56026 0
M  V30 4572 O 563.236 -6.37042 5.19165 0
M  V30 4573 C 563.076 -7.83578 5.16515 0
M  V30 4574 C 563.616 -8.33398 3.83019 0
M  V30 4575 O 562.56 -8.10074 3.01034 0
M  V30 4576 C 564.834 -7.65514 3.2257 0
M  V30 4577 O 565.572 -8.4329 2.32297 0
M  V30 4578 C 564.165 -6.40075 2.62207 0
M  V30 4579 O 564.964 -5.92589 1.53712 0
M  V30 4580 C 562.828 -6.9454 2.18503 0
M  V30 4581 H 562.86 -7.23063 1.12091 0
M  V30 4582 H 564.043 -5.6025 3.37201 0
M  V30 4583 H 565.527 -7.35707 4.02681 0
M  V30 4584 H 563.833 -9.40912 3.9095 0
M  V30 4585 H 563.643 -8.29056 5.99158 0
M  V30 4586 H 562.013 -8.10073 5.25882 0
M  V30 4587 H 564.652 -6.30324 0.726794 0
M  V30 4588 P 566.509 -8.4349 2.47671 0
M  V30 4589 O 567.931 -8.94359 2.59696 0
M  V30 4590 O 566.149 -7.1704 3.19006 0
M  V30 4591 O 566.186 -8.16596 0.923387 0
M  V30 4592 C 566.026 -9.38437 0.108857 0
M  V30 4593 C 566.566 -9.08076 -1.28339 0
M  V30 4594 O 565.511 -8.44229 -1.84713 0
M  V30 4595 C 567.784 -8.18386 -1.42505 0
M  V30 4596 O 568.522 -8.3501 -2.60497 0
M  V30 4597 C 567.116 -6.80225 -1.25468 0
M  V30 4598 O 567.914 -5.81526 -1.91035 0
M  V30 4599 C 565.778 -7.02416 -1.9168 0
M  V30 4600 N 564.735 -6.31033 -1.20314 0
M  V30 4601 C 564.797 -6.18781 0.121293 0
M  V30 4602 N 563.752 -5.49762 0.588272 0
M  V30 4603 C 563.018 -5.22015 -0.488988 0
M  V30 4604 C 561.712 -4.61966 -0.596448 0
M  V30 4605 O 560.979 -4.19162 0.309059 0
M  V30 4606 N 561.282 -4.53773 -1.878 0
M  V30 4607 C 562.031 -4.99623 -2.99082 0
M  V30 4608 N 561.434 -4.78912 -4.21227 0
M  V30 4609 N 563.184 -5.59957 -2.91093 0
M  V30 4610 C 563.641 -5.70225 -1.64218 0
M  V30 4611 H 565.81 -6.6888 -2.96621 0
M  V30 4612 H 566.993 -6.53517 -0.192194 0
M  V30 4613 H 568.478 -8.36563 -0.598329 0
M  V30 4614 H 566.783 -10.0291 -1.79807 0
M  V30 4615 H 566.593 -10.2138 0.558219 0
M  V30 4616 H 564.962 -9.6579 0.0444202 0
M  V30 4617 H 560.386 -4.12883 -2.05283 0
M  V30 4618 H 565.593 -6.59596 0.745856 0
M  V30 4619 H 560.523 -4.31425 -4.2628 0
M  V30 4620 H 561.899 -5.11219 -5.07148 0
M  V30 4621 H 567.603 -5.69466 -2.79593 0
M  V30 4622 P 569.46 -8.4349 -2.47671 0
M  V30 4623 O 570.882 -8.92593 -2.65 0
M  V30 4624 O 569.1 -7.7568 -1.19296 0
M  V30 4625 O 569.137 -7.36886 -3.63805 0
M  V30 4626 C 568.977 -7.95349 -4.982 0
M  V30 4627 C 569.517 -6.94612 -5.98974 0
M  V30 4628 O 568.461 -6.10347 -6.11815 0
M  V30 4629 C 570.735 -6.11426 -5.62335 0
M  V30 4630 O 571.473 -5.6162 -6.70584 0
M  V30 4631 C 570.066 -5.04409 -4.73308 0
M  V30 4632 O 570.865 -3.85992 -4.75183 0
M  V30 4633 C 568.729 -4.8728 -5.41006 0
M  V30 4634 H 568.761 -4.02333 -6.11157 0
M  V30 4635 H 569.944 -5.39466 -3.69543 0
M  V30 4636 H 571.428 -6.71916 -5.01943 0
M  V30 4637 H 569.734 -7.4649 -6.93477 0
M  V30 4638 H 569.544 -8.89416 -5.05237 0
M  V30 4639 H 567.914 -8.14876 -5.18409 0
M  V30 4640 H 570.553 -3.27957 -5.4317 0
M  V30 4641 P 572.411 -5.75688 -6.64379 0
M  V30 4642 O 573.833 -6.07758 -7.05656 0
M  V30 4643 O 572.051 -5.88047 -5.19722 0
M  V30 4644 O 572.088 -4.2322 -7.04443 0
M  V30 4645 C 571.928 -3.99743 -8.4911 0
M  V30 4646 C 572.468 -2.60487 -8.79329 0
M  V30 4647 O 571.413 -1.82684 -8.4467 0
M  V30 4648 C 573.686 -2.10343 -8.03628 0
M  V30 4649 O 574.424 -1.09919 -8.67766 0
M  V30 4650 C 573.018 -1.68446 -6.70876 0
M  V30 4651 O 573.816 -0.678026 -6.08333 0
M  V30 4652 C 571.68 -1.17436 -7.18567 0
M  V30 4653 N 570.637 -1.52699 -6.23988 0
M  V30 4654 C 570.699 -2.68084 -5.57824 0
M  V30 4655 N 569.654 -2.8189 -4.75643 0
M  V30 4656 C 568.92 -1.72373 -4.95155 0
M  V30 4657 C 567.614 -1.37653 -4.44996 0
M  V30 4658 O 566.881 -2.02239 -3.68445 0
M  V30 4659 N 567.184 -0.17675 -4.90782 0
M  V30 4660 C 567.933 0.645036 -5.78716 0
M  V30 4661 N 567.336 1.84214 -6.10618 0
M  V30 4662 N 569.086 0.321732 -6.30279 0
M  V30 4663 C 569.543 -0.87502 -5.86913 0
M  V30 4664 H 571.712 -0.0804732 -7.31656 0
M  V30 4665 H 572.895 -2.53998 -6.02444 0
M  V30 4666 H 574.38 -2.93095 -7.8582 0
M  V30 4667 H 572.685 -2.53065 -9.86973 0
M  V30 4668 H 572.495 -4.75072 -9.05887 0
M  V30 4669 H 570.864 -4.05244 -8.76668 0
M  V30 4670 H 566.288 0.152143 -4.60849 0
M  V30 4671 H 571.495 -3.41852 -5.69006 0
M  V30 4672 H 566.425 2.08538 -5.69521 0
M  V30 4673 H 567.801 2.4895 -6.75698 0
M  V30 4674 H 573.505 0.177619 -6.34151 0
M  V30 4675 P 575.361 -1.25109 -8.70152 0
M  V30 4676 O 576.783 -1.29772 -9.22214 0
M  V30 4677 O 575.001 -2.13714 -7.55141 0
M  V30 4678 O 575.038 0.248149 -8.21425 0
M  V30 4679 C 574.878 1.22779 -9.30434 0
M  V30 4680 C 575.418 2.56265 -8.80568 0
M  V30 4681 O 574.363 3.02979 -8.09349 0
M  V30 4682 C 576.636 2.57523 -7.89775 0
M  V30 4683 O 577.374 3.7668 -7.89438 0
M  V30 4684 C 575.968 2.20997 -6.55446 0
M  V30 4685 O 576.766 2.71851 -5.48419 0
M  V30 4686 C 574.63 2.89693 -6.67988 0
M  V30 4687 N 573.587 2.08895 -6.07487 0
M  V30 4688 C 573.649 0.760559 -6.14209 0
M  V30 4689 N 572.604 0.200108 -5.52538 0
M  V30 4690 C 571.87 1.22692 -5.09742 0
M  V30 4691 C 570.564 1.24782 -4.48775 0
M  V30 4692 O 569.831 0.290617 -4.19294 0
M  V30 4693 N 570.134 2.50468 -4.22428 0
M  V30 4694 C 570.883 3.67142 -4.51974 0
M  V30 4695 N 570.286 4.85096 -4.14091 0
M  V30 4696 N 572.036 3.67821 -5.12831 0
M  V30 4697 C 572.493 2.43698 -5.4105 0
M  V30 4698 H 574.662 3.88793 -6.19859 0
M  V30 4699 H 575.845 1.12029 -6.4413 0
M  V30 4700 H 577.33 1.78279 -8.19533 0
M  V30 4701 H 575.635 3.20706 -9.67112 0
M  V30 4702 H 575.445 0.901032 -10.1892 0
M  V30 4703 H 573.814 1.33049 -9.56592 0
M  V30 4704 H 569.238 2.61953 -3.79465 0
M  V30 4705 H 574.445 0.200439 -6.63497 0
M  V30 4706 H 569.375 4.8334 -3.66367 0
M  V30 4707 H 570.751 5.7474 -4.33841 0
M  V30 4708 H 576.455 3.5779 -5.23879 0
M  V30 4709 P 578.312 3.65191 -7.99657 0
M  V30 4710 O 579.734 3.89332 -8.45794 0
M  V30 4711 O 577.952 2.28472 -7.50807 0
M  V30 4712 O 577.989 4.64972 -6.77611 0
M  V30 4713 C 577.829 6.06319 -7.16352 0
M  V30 4714 C 578.369 6.91731 -6.02299 0
M  V30 4715 O 577.313 6.92449 -5.17064 0
M  V30 4716 C 579.587 6.43627 -5.25174 0
M  V30 4717 O 580.325 7.43686 -4.60469 0
M  V30 4718 C 578.918 5.40275 -4.31916 0
M  V30 4719 O 579.717 5.25279 -3.14438 0
M  V30 4720 C 577.581 6.04847 -4.05327 0
M  V30 4721 H 577.613 6.62195 -3.11261 0
M  V30 4722 H 578.796 4.42556 -4.81383 0
M  V30 4723 H 580.28 5.92458 -5.93643 0
M  V30 4724 H 578.586 7.92655 -6.402 0
M  V30 4725 H 578.396 6.26671 -8.0846 0
M  V30 4726 H 576.766 6.29101 -7.32804 0
M  V30 4727 H 579.405 5.84315 -2.47318 0
M  V30 4728 P 581.262 7.39546 -4.75277 0
M  V30 4729 O 582.684 7.84798 -5.01039 0
M  V30 4730 O 580.902 5.9812 -5.08098 0
M  V30 4731 O 580.939 7.57503 -3.1866 0
M  V30 4732 C 580.779 8.97357 -2.74833 0
M  V30 4733 C 581.319 9.07548 -1.32709 0
M  V30 4734 O 580.263 8.62072 -0.606159 0
M  V30 4735 C 582.537 8.25383 -0.938334 0
M  V30 4736 O 583.275 8.74577 0.146954 0
M  V30 4737 C 581.868 6.8802 -0.712559 0
M  V30 4738 O 582.667 6.1189 0.194655 0
M  V30 4739 C 580.531 7.27966 -0.139777 0
M  V30 4740 H 580.563 7.25354 0.961601 0
M  V30 4741 H 581.746 6.32557 -1.65702 0
M  V30 4742 H 583.23 8.19355 -1.79097 0
M  V30 4743 H 581.536 10.1294 -1.10029 0
M  V30 4744 H 581.346 9.64276 -3.41316 0
M  V30 4745 H 579.716 9.25417 -2.76357 0
M  V30 4746 H 582.355 6.25267 1.07847 0
M  V30 4747 P 584.213 8.791 3.834e-12 0
M  V30 4748 O 585.635 9.31096 0.027933 0
M  V30 4749 O 583.853 7.77869 -1.04071 0
M  V30 4750 O 583.89 8.09533 1.41463 0
M  V30 4751 C 583.73 9.0349 2.53943 0
M  V30 4752 C 584.27 8.35226 3.79016 0
M  V30 4753 O 583.214 7.57992 4.15078 0
M  V30 4754 C 585.488 7.45087 3.67298 0
M  V30 4755 O 586.226 7.27796 4.85194 0
M  V30 4756 C 584.819 6.17323 3.12027 0
M  V30 4757 O 585.618 5.04231 3.47188 0
M  V30 4758 C 583.482 6.19961 3.81809 0
M  V30 4759 H 583.514 5.58218 4.73051 0
M  V30 4760 H 584.697 6.21726 2.02589 0
M  V30 4761 H 586.181 7.86112 2.9231 0
M  V30 4762 H 584.487 9.11627 4.55076 0
M  V30 4763 H 584.297 9.9573 2.34194 0
M  V30 4764 H 582.667 9.2792 2.67832 0
M  V30 4765 H 585.306 4.67702 4.28772 0
M  V30 4766 P 587.163 7.39546 4.75277 0
M  V30 4767 O 588.585 7.81777 5.05738 0
M  V30 4768 O 586.803 7.1065 3.32998 0
M  V30 4769 O 586.84 6.04542 5.56673 0
M  V30 4770 C 586.68 6.22772 7.02095 0
M  V30 4771 C 587.22 4.97725 7.70406 0
M  V30 4772 O 586.164 4.13256 7.58987 0
M  V30 4773 C 588.438 4.28231 7.11815 0
M  V30 4774 O 589.176 3.49945 8.01648 0
M  V30 4775 C 587.769 3.5063 5.96244 0
M  V30 4776 O 588.568 2.36482 5.64681 0
M  V30 4777 C 586.432 3.15122 6.56374 0
M  V30 4778 H 586.464 2.13853 6.99751 0
M  V30 4779 H 587.647 4.13501 5.06559 0
M  V30 4780 H 589.131 5.03285 6.70911 0
M  V30 4781 H 587.437 5.20877 8.75697 0
M  V30 4782 H 587.247 7.11046 7.35349 0
M  V30 4783 H 585.617 6.35815 7.26986 0
M  V30 4784 H 588.256 1.61644 6.13565 0
M  V30 4785 P 590.114 3.65191 7.99657 0
M  V30 4786 O 591.536 3.8425 8.48115 0
M  V30 4787 O 589.754 4.17805 6.64342 0
M  V30 4788 O 589.791 2.07613 7.95143 0
M  V30 4789 C 589.631 1.44328 9.27336 0
M  V30 4790 C 590.171 0.0220036 9.17197 0
M  V30 4791 O 589.115 -0.626867 8.61923 0
M  V30 4792 C 591.389 -0.24586 8.30336 0
M  V30 4793 O 592.127 -1.39011 8.63583 0
M  V30 4794 C 590.72 -0.273849 6.91158 0
M  V30 4795 O 591.519 -1.06348 6.02892 0
M  V30 4796 C 589.383 -0.897649 7.22545 0
M  V30 4797 H 589.415 -1.9841 7.04286 0
M  V30 4798 H 590.598 0.739928 6.497 0
M  V30 4799 H 592.082 0.60668 8.36503 0
M  V30 4800 H 590.388 -0.352479 10.1829 0
M  V30 4801 H 590.198 2.00611 10.0304 0
M  V30 4802 H 588.568 1.41843 9.55327 0
M  V30 4803 H 591.207 -1.95734 6.03555 0
M  V30 4804 P 593.065 -1.25109 8.70152 0
M  V30 4805 O 594.487 -1.35274 9.21221 0
M  V30 4806 O 592.705 -0.0769065 7.84762 0
M  V30 4807 O 592.742 -2.55232 7.81161 0
M  V30 4808 C 592.582 -3.79939 8.58154 0
M  V30 4809 C 593.122 -4.94023 7.72785 0
M  V30 4810 O 592.066 -5.18726 6.91205 0
M  V30 4811 C 594.34 -4.69597 6.85231 0
M  V30 4812 O 595.078 -5.83832 6.51337 0
M  V30 4813 C 593.671 -3.96706 5.66633 0
M  V30 4814 O 594.47 -4.15414 4.49689 0
M  V30 4815 C 592.334 -4.66153 5.59313 0
M  V30 4816 H 592.366 -5.47679 4.85214 0
M  V30 4817 H 593.549 -2.89008 5.86566 0
M  V30 4818 H 595.033 -4.0121 7.36511 0
M  V30 4819 H 593.339 -5.80182 8.37584 0
M  V30 4820 H 593.149 -3.73517 9.52265 0
M  V30 4821 H 591.519 -3.97163 8.80359 0
M  V30 4822 H 594.158 -4.90969 4.01921 0
M  V30 4823 P 596.015 -5.75688 6.64379 0
M  V30 4824 O 597.437 -6.11849 7.01846 0
M  V30 4825 O 595.655 -4.30744 6.56026 0
M  V30 4826 O 595.692 -6.37042 5.19165 0
M  V30 4827 C 595.532 -7.83578 5.16515 0
M  V30 4828 C 596.072 -8.33398 3.83019 0
M  V30 4829 O 595.016 -8.10074 3.01034 0
M  V30 4830 C 597.29 -7.65514 3.2257 0
M  V30 4831 O 598.028 -8.4329 2.32297 0
M  V30 4832 C 596.621 -6.40075 2.62207 0
M  V30 4833 O 597.42 -5.92589 1.53712 0
M  V30 4834 C 595.284 -6.9454 2.18503 0
M  V30 4835 H 595.316 -7.23063 1.12091 0
M  V30 4836 H 596.499 -5.6025 3.37201 0
M  V30 4837 H 597.983 -7.35707 4.02681 0
M  V30 4838 H 596.289 -9.40912 3.9095 0
M  V30 4839 H 596.099 -8.29056 5.99158 0
M  V30 4840 H 594.469 -8.10073 5.25882 0
M  V30 4841 H 597.108 -6.30324 0.726794 0
M  V30 4842 P 598.966 -8.4349 2.47671 0
M  V30 4843 O 600.387 -8.94263 2.59668 0
M  V30 4844 O 598.606 -7.1704 3.19006 0
M  V30 4845 O 598.643 -8.16596 0.923387 0
M  V30 4846 C 598.482 -9.38537 0.108869 0
M  V30 4847 C 599.023 -9.08175 -1.28353 0
M  V30 4848 O 597.968 -8.44131 -1.84692 0
M  V30 4849 C 600.241 -8.18386 -1.42505 0
M  V30 4850 O 600.979 -8.3501 -2.60497 0
M  V30 4851 C 599.573 -6.80225 -1.25468 0
M  V30 4852 O 600.371 -5.81716 -1.90454 0
M  V30 4853 C 598.235 -7.02416 -1.9168 0
M  V30 4854 N 597.192 -6.31033 -1.20314 0
M  V30 4855 C 597.361 -5.98817 0.0994088 0
M  V30 4856 N 596.334 -5.35403 0.621694 0
M  V30 4857 C 595.449 -5.25212 -0.43376 0
M  V30 4858 C 594.182 -4.64602 -0.519722 0
M  V30 4859 N 593.617 -4.7568 -1.76013 0
M  V30 4860 C 594.219 -5.3653 -2.83017 0
M  V30 4861 N 595.396 -5.93676 -2.79782 0
M  V30 4862 C 595.971 -5.84061 -1.56249 0
M  V30 4863 H 599.45 -6.53498 -0.198729 0
M  V30 4864 H 600.933 -8.36622 -0.589963 0
M  V30 4865 H 599.239 -10.0273 -1.8081 0
M  V30 4866 H 599.049 -10.2138 0.558219 0
M  V30 4867 H 597.419 -9.6579 0.0444202 0
M  V30 4868 H 598.261 -6.23209 0.660562 0
M  V30 4869 H 600.059 -5.69466 -2.79593 0
M  V30 4870 P 601.916 -8.4349 -2.47671 0
M  V30 4871 O 603.337 -8.92689 -2.65029 0
M  V30 4872 O 601.556 -7.7568 -1.19296 0
M  V30 4873 O 601.593 -7.36886 -3.63805 0
M  V30 4874 C 601.432 -7.95433 -4.98253 0
M  V30 4875 C 601.973 -6.94612 -5.98974 0
M  V30 4876 O 600.918 -6.10277 -6.11744 0
M  V30 4877 C 603.191 -6.11426 -5.62335 0
M  V30 4878 O 603.929 -5.6162 -6.70584 0
M  V30 4879 C 602.523 -5.04409 -4.73308 0
M  V30 4880 O 603.321 -3.86404 -4.74719 0
M  V30 4881 C 601.185 -4.8728 -5.41006 0
M  V30 4882 N 600.142 -4.65812 -4.42377 0
M  V30 4883 C 600.311 -5.09132 -3.15382 0
M  V30 4884 N 599.284 -4.84021 -2.3716 0
M  V30 4885 C 598.399 -4.18386 -3.20441 0
M  V30 4886 C 597.132 -3.6275 -2.94905 0
M  V30 4887 N 596.533 -3.65794 -1.73372 0
M  V30 4888 N 596.567 -3.05008 -4.05243 0
M  V30 4889 C 597.169 -2.98348 -5.28159 0
M  V30 4890 N 598.346 -3.48171 -5.56333 0
M  V30 4891 C 598.921 -4.06869 -4.47212 0
M  V30 4892 H 601.217 -4.02278 -6.11074 0
M  V30 4893 H 602.4 -5.39013 -3.70026 0
M  V30 4894 H 603.883 -6.71916 -5.01943 0
M  V30 4895 H 602.189 -7.45796 -6.94223 0
M  V30 4896 H 601.999 -8.89416 -5.05237 0
M  V30 4897 H 600.369 -8.14876 -5.18409 0
M  V30 4898 H 596.633 -2.47853 -6.07807 0
M  V30 4899 H 601.211 -5.59989 -2.81362 0
M  V30 4900 H 595.603 -3.23218 -1.60782 0
M  V30 4901 H 597.007 -4.10523 -0.937856 0
M  V30 4902 H 603.009 -3.27906 -5.43085 0
M  V30 4903 P 604.867 -5.75688 -6.64379 0
M  V30 4904 O 606.288 -6.07692 -7.0558 0
M  V30 4905 O 604.507 -5.88047 -5.19722 0
M  V30 4906 O 604.544 -4.2322 -7.04443 0
M  V30 4907 C 604.383 -3.99785 -8.49201 0
M  V30 4908 C 604.924 -2.60516 -8.79425 0
M  V30 4909 O 603.869 -1.82663 -8.44573 0
M  V30 4910 C 606.142 -2.10343 -8.03628 0
M  V30 4911 O 606.88 -1.09919 -8.67766 0
M  V30 4912 C 605.474 -1.68446 -6.70876 0
M  V30 4913 O 606.272 -0.684109 -6.08265 0
M  V30 4914 C 604.136 -1.17436 -7.18567 0
M  V30 4915 N 603.093 -1.52699 -6.23988 0
M  V30 4916 C 603.262 -2.578 -5.40574 0
M  V30 4917 N 602.235 -2.78966 -4.61193 0
M  V30 4918 C 601.35 -1.78725 -4.95769 0
M  V30 4919 C 600.083 -1.45727 -4.44207 0
M  V30 4920 N 599.518 -0.374977 -5.05812 0
M  V30 4921 C 600.12 0.345585 -6.05615 0
M  V30 4922 N 601.297 0.0787651 -6.56253 0
M  V30 4923 C 601.872 -1.00499 -5.96189 0
M  V30 4924 H 605.351 -2.53396 -6.02698 0
M  V30 4925 H 606.834 -2.93881 -7.85526 0
M  V30 4926 H 605.14 -2.52078 -9.87225 0
M  V30 4927 H 604.95 -4.75072 -9.05887 0
M  V30 4928 H 603.32 -4.05244 -8.76668 0
M  V30 4929 H 604.162 -3.18977 -5.3945 0
M  V30 4930 H 605.96 0.177619 -6.34151 0
M  V30 4931 P 607.817 -1.25109 -8.70152 0
M  V30 4932 O 609.239 -1.29744 -9.22016 0
M  V30 4933 O 607.457 -2.13714 -7.55141 0
M  V30 4934 O 607.494 0.248149 -8.21425 0
M  V30 4935 C 607.334 1.22779 -9.30434 0
M  V30 4936 C 607.874 2.56293 -8.80664 0
M  V30 4937 O 606.818 3.02979 -8.09349 0
M  V30 4938 C 609.092 2.57523 -7.89775 0
M  V30 4939 O 609.83 3.7668 -7.89438 0
M  V30 4940 C 608.423 2.20997 -6.55446 0
M  V30 4941 O 609.222 2.71895 -5.48509 0
M  V30 4942 C 607.086 2.89693 -6.67988 0
M  V30 4943 H 607.118 3.88793 -6.19859 0
M  V30 4944 H 608.301 1.12046 -6.44229 0
M  V30 4945 H 609.785 1.7746 -8.19711 0
M  V30 4946 H 608.091 3.20706 -9.67112 0
M  V30 4947 H 607.901 0.901032 -10.1892 0
M  V30 4948 H 606.271 1.33049 -9.56592 0
M  V30 4949 H 608.91 3.57847 -5.23962 0
M  V30 4950 P 610.768 3.65191 -7.99657 0
M  V30 4951 O 612.19 3.89332 -8.45794 0
M  V30 4952 O 610.408 2.28472 -7.50807 0
M  V30 4953 O 610.445 4.64972 -6.77611 0
M  V30 4954 C 610.285 6.06319 -7.16352 0
M  V30 4955 C 610.825 6.91731 -6.02299 0
M  V30 4956 O 609.769 6.92449 -5.17064 0
M  V30 4957 C 612.043 6.43627 -5.25174 0
M  V30 4958 O 612.781 7.43686 -4.60469 0
M  V30 4959 C 611.374 5.40275 -4.31916 0
M  V30 4960 O 612.173 5.25279 -3.14438 0
M  V30 4961 C 610.037 6.04847 -4.05327 0
M  V30 4962 H 610.069 6.62195 -3.11261 0
M  V30 4963 H 611.252 4.42556 -4.81383 0
M  V30 4964 H 612.736 5.92458 -5.93643 0
M  V30 4965 H 611.042 7.92655 -6.402 0
M  V30 4966 H 610.852 6.26671 -8.0846 0
M  V30 4967 H 609.222 6.29101 -7.32804 0
M  V30 4968 H 611.861 5.84315 -2.47318 0
M  V30 4969 P 613.719 7.39546 -4.75277 0
M  V30 4970 O 615.141 7.84798 -5.01039 0
M  V30 4971 O 613.359 5.9812 -5.08098 0
M  V30 4972 O 613.396 7.57503 -3.1866 0
M  V30 4973 C 613.236 8.97357 -2.74833 0
M  V30 4974 C 613.776 9.07548 -1.32709 0
M  V30 4975 O 612.72 8.62072 -0.606159 0
M  V30 4976 C 614.994 8.25383 -0.938334 0
M  V30 4977 O 615.732 8.74577 0.146954 0
M  V30 4978 C 614.325 6.8802 -0.712559 0
M  V30 4979 O 615.124 6.1189 0.194655 0
M  V30 4980 C 612.988 7.27966 -0.139777 0
M  V30 4981 H 613.02 7.25354 0.961601 0
M  V30 4982 H 614.203 6.32557 -1.65702 0
M  V30 4983 H 615.687 8.19355 -1.79097 0
M  V30 4984 H 613.993 10.1294 -1.10029 0
M  V30 4985 H 613.803 9.64276 -3.41316 0
M  V30 4986 H 612.173 9.25417 -2.76357 0
M  V30 4987 H 614.812 6.25267 1.07847 0
M  V30 4988 P 616.669 8.791 4.14417e-12 0
M  V30 4989 O 618.09 9.31196 0.027936 0
M  V30 4990 O 616.309 7.77869 -1.04071 0
M  V30 4991 O 616.346 8.09533 1.41463 0
M  V30 4992 C 616.185 9.03587 2.5397 0
M  V30 4993 C 616.726 8.35226 3.79016 0
M  V30 4994 O 615.671 7.57904 4.1503 0
M  V30 4995 C 617.944 7.45087 3.67298 0
M  V30 4996 O 618.682 7.27796 4.85194 0
M  V30 4997 C 617.276 6.17323 3.12027 0
M  V30 4998 O 618.074 5.04496 3.46627 0
M  V30 4999 C 615.938 6.19961 3.81809 0
M  V30 5000 N 614.895 5.71575 2.93223 0
M  V30 5001 C 615.064 5.77362 1.59168 0
M  V30 5002 N 614.037 5.3123 0.911893 0
M  V30 5003 C 613.152 4.91717 1.89588 0
M  V30 5004 C 611.885 4.3114 1.8076 0
M  V30 5005 N 611.286 3.99821 0.632928 0
M  V30 5006 N 611.32 4.06823 3.02898 0
M  V30 5007 C 611.922 4.35062 4.22711 0
M  V30 5008 N 613.099 4.90805 4.35707 0
M  V30 5009 C 613.674 5.16382 3.14469 0
M  V30 5010 H 615.97 5.58142 4.72986 0
M  V30 5011 H 617.153 6.21428 2.0318 0
M  V30 5012 H 618.636 7.86112 2.9231 0
M  V30 5013 H 616.942 9.11171 4.55987 0
M  V30 5014 H 616.752 9.9573 2.34194 0
M  V30 5015 H 615.122 9.2792 2.67832 0
M  V30 5016 H 611.386 4.09052 5.13359 0
M  V30 5017 H 615.964 6.16575 1.12198 0
M  V30 5018 H 610.356 3.55423 0.632085 0
M  V30 5019 H 611.76 4.20317 -0.256712 0
M  V30 5020 H 617.762 4.67628 4.28704 0
M  V30 5021 P 619.62 7.39546 4.75277 0
M  V30 5022 O 621.042 7.81777 5.05738 0
M  V30 5023 O 619.26 7.1065 3.32998 0
M  V30 5024 O 619.297 6.04542 5.56673 0
M  V30 5025 C 619.137 6.22772 7.02095 0
M  V30 5026 C 619.677 4.97725 7.70406 0
M  V30 5027 O 618.621 4.13256 7.58987 0
M  V30 5028 C 620.895 4.28231 7.11815 0
M  V30 5029 O 621.633 3.49945 8.01648 0
M  V30 5030 C 620.226 3.5063 5.96244 0
M  V30 5031 O 621.025 2.36482 5.64681 0
M  V30 5032 C 618.889 3.15122 6.56374 0
M  V30 5033 H 618.921 2.13853 6.99751 0
M  V30 5034 H 620.104 4.13501 5.06559 0
M  V30 5035 H 621.588 5.03285 6.70911 0
M  V30 5036 H 619.894 5.20877 8.75697 0
M  V30 5037 H 619.704 7.11046 7.35349 0
M  V30 5038 H 618.074 6.35815 7.26986 0
M  V30 5039 H 620.713 1.61644 6.13565 0
M  V30 5040 P 622.57 3.65191 7.99657 0
M  V30 5041 O 623.991 3.84292 8.48206 0
M  V30 5042 O 622.21 4.17805 6.64342 0
M  V30 5043 O 622.247 2.07613 7.95143 0
M  V30 5044 C 622.086 1.44344 9.27435 0
M  V30 5045 C 622.627 0.0220036 9.17197 0
M  V30 5046 O 621.572 -0.626794 8.61824 0
M  V30 5047 C 623.845 -0.24586 8.30336 0
M  V30 5048 O 624.583 -1.39011 8.63583 0
M  V30 5049 C 623.177 -0.273849 6.91158 0
M  V30 5050 O 623.975 -1.05728 6.029 0
M  V30 5051 C 621.839 -0.897649 7.22545 0
M  V30 5052 N 620.796 -0.292839 6.41732 0
M  V30 5053 C 620.965 0.950603 5.91308 0
M  V30 5054 N 619.938 1.37732 5.21105 0
M  V30 5055 C 619.053 0.318109 5.26039 0
M  V30 5056 C 617.786 0.146766 4.6727 0
M  V30 5057 N 617.187 1.08519 3.89983 0
M  V30 5058 N 617.221 -1.06525 4.95887 0
M  V30 5059 C 617.823 -2.0378 5.71347 0
M  V30 5060 N 619 -1.92445 6.27451 0
M  V30 5061 C 619.575 -0.715382 6.00353 0
M  V30 5062 H 621.871 -1.98383 7.04189 0
M  V30 5063 H 623.054 0.733318 6.49674 0
M  V30 5064 H 624.537 0.60668 8.36503 0
M  V30 5065 H 622.843 -0.362662 10.1825 0
M  V30 5066 H 622.653 2.00611 10.0304 0
M  V30 5067 H 621.023 1.41843 9.55327 0
M  V30 5068 H 617.287 -2.97041 5.85344 0
M  V30 5069 H 621.865 1.54076 6.07465 0
M  V30 5070 H 616.257 0.901517 3.49562 0
M  V30 5071 H 617.661 1.97957 3.71669 0
M  V30 5072 H 623.663 -1.95704 6.0346 0
M  V30 5073 P 625.521 -1.25109 8.70152 0
M  V30 5074 O 626.942 -1.35288 9.2132 0
M  V30 5075 O 625.161 -0.0769065 7.84762 0
M  V30 5076 O 625.198 -2.55232 7.81161 0
M  V30 5077 C 625.037 -3.79979 8.58246 0
M  V30 5078 C 625.578 -4.94023 7.72785 0
M  V30 5079 O 624.523 -5.18666 6.91125 0
M  V30 5080 C 626.796 -4.69597 6.85231 0
M  V30 5081 O 627.534 -5.83832 6.51337 0
M  V30 5082 C 626.128 -3.96706 5.66633 0
M  V30 5083 O 626.926 -4.14896 4.5003 0
M  V30 5084 C 624.79 -4.66153 5.59313 0
M  V30 5085 N 623.747 -3.71582 5.24027 0
M  V30 5086 C 623.916 -2.39715 5.48833 0
M  V30 5087 N 622.889 -1.65863 5.12845 0
M  V30 5088 C 622.004 -2.57637 4.5973 0
M  V30 5089 C 620.737 -2.40278 4.01027 0
M  V30 5090 N 620.172 -3.57711 3.59575 0
M  V30 5091 C 620.774 -4.80324 3.70476 0
M  V30 5092 N 621.951 -5.01121 4.23801 0
M  V30 5093 C 622.526 -3.84757 4.66372 0
M  V30 5094 H 626.005 -2.8955 5.86187 0
M  V30 5095 H 627.488 -4.0121 7.36511 0
M  V30 5096 H 625.794 -5.81019 8.37003 0
M  V30 5097 H 625.604 -3.73517 9.52265 0
M  V30 5098 H 623.974 -3.97163 8.80359 0
M  V30 5099 H 624.816 -1.98804 5.94332 0
M  V30 5100 H 626.614 -4.90891 4.01857 0
M  V30 5101 P 628.471 -5.75688 6.64379 0
M  V30 5102 O 629.892 -6.11915 7.01921 0
M  V30 5103 O 628.111 -4.30744 6.56026 0
M  V30 5104 O 628.148 -6.37042 5.19165 0
M  V30 5105 C 627.987 -7.83662 5.1657 0
M  V30 5106 C 628.528 -8.33398 3.83019 0
M  V30 5107 O 627.473 -8.0998 3.00999 0
M  V30 5108 C 629.746 -7.65514 3.2257 0
M  V30 5109 O 630.484 -8.4329 2.32297 0
M  V30 5110 C 629.078 -6.40075 2.62207 0
M  V30 5111 O 629.876 -5.92338 1.5428 0
M  V30 5112 C 627.74 -6.9454 2.18503 0
M  V30 5113 N 626.697 -5.95905 2.39948 0
M  V30 5114 C 626.866 -4.98383 3.32108 0
M  V30 5115 N 625.839 -4.16798 3.41761 0
M  V30 5116 C 624.954 -4.65287 2.47461 0
M  V30 5117 C 623.687 -4.18946 2.07461 0
M  V30 5118 N 623.122 -4.95327 1.09101 0
M  V30 5119 C 623.724 -6.04369 0.519812 0
M  V30 5120 N 624.901 -6.50694 0.855982 0
M  V30 5121 C 625.476 -5.75818 1.84322 0
M  V30 5122 H 628.955 -5.60502 3.36589 0
M  V30 5123 H 630.438 -7.35707 4.02681 0
M  V30 5124 H 628.744 -9.41302 3.90009 0
M  V30 5125 H 628.554 -8.29056 5.99158 0
M  V30 5126 H 626.924 -8.10073 5.25882 0
M  V30 5127 H 627.766 -4.88564 3.92502 0
M  V30 5128 H 629.564 -6.30224 0.72668 0
M  V30 5129 P 631.422 -8.4349 2.47671 0
M  V30 5130 O 632.843 -8.94263 2.59668 0
M  V30 5131 O 631.062 -7.1704 3.19006 0
M  V30 5132 O 631.099 -8.16596 0.923387 0
M  V30 5133 C 630.938 -9.38537 0.108869 0
M  V30 5134 C 631.479 -9.08175 -1.28353 0
M  V30 5135 O 630.424 -8.44131 -1.84692 0
M  V30 5136 C 632.697 -8.18386 -1.42505 0
M  V30 5137 O 633.435 -8.3501 -2.60497 0
M  V30 5138 C 632.029 -6.80225 -1.25468 0
M  V30 5139 O 632.827 -5.81716 -1.90454 0
M  V30 5140 C 630.691 -7.02416 -1.9168 0
M  V30 5141 N 629.648 -6.31033 -1.20314 0
M  V30 5142 C 629.817 -5.98817 0.0994088 0
M  V30 5143 N 628.79 -5.35403 0.621694 0
M  V30 5144 C 627.905 -5.25212 -0.43376 0
M  V30 5145 C 626.638 -4.64602 -0.519722 0
M  V30 5146 N 626.039 -4.01457 0.519136 0
M  V30 5147 N 626.073 -4.7568 -1.76013 0
M  V30 5148 C 626.675 -5.3653 -2.83017 0
M  V30 5149 N 627.852 -5.93676 -2.79782 0
M  V30 5150 C 628.427 -5.84061 -1.56249 0
M  V30 5151 H 630.723 -6.68789 -2.9658 0
M  V30 5152 H 631.906 -6.53498 -0.198729 0
M  V30 5153 H 633.389 -8.36622 -0.589963 0
M  V30 5154 H 631.695 -10.0273 -1.8081 0
M  V30 5155 H 631.505 -10.2138 0.558219 0
M  V30 5156 H 629.875 -9.6579 0.0444202 0
M  V30 5157 H 626.139 -5.37113 -3.77321 0
M  V30 5158 H 630.717 -6.23209 0.660562 0
M  V30 5159 H 625.109 -3.58834 0.394862 0
M  V30 5160 H 626.513 -3.96059 1.43048 0
M  V30 5161 H 632.515 -5.69466 -2.79593 0
M  V30 5162 P 634.373 -8.4349 -2.47671 0
M  V30 5163 O 635.795 -8.92593 -2.65 0
M  V30 5164 O 634.013 -7.7568 -1.19296 0
M  V30 5165 O 634.05 -7.36886 -3.63805 0
M  V30 5166 C 633.89 -7.95349 -4.982 0
M  V30 5167 C 634.43 -6.94612 -5.98974 0
M  V30 5168 O 633.374 -6.10347 -6.11815 0
M  V30 5169 C 635.648 -6.11426 -5.62335 0
M  V30 5170 O 636.386 -5.6162 -6.70584 0
M  V30 5171 C 634.979 -5.04409 -4.73308 0
M  V30 5172 O 635.778 -3.85992 -4.75183 0
M  V30 5173 C 633.642 -4.8728 -5.41006 0
M  V30 5174 H 633.674 -4.02333 -6.11157 0
M  V30 5175 H 634.857 -5.39466 -3.69543 0
M  V30 5176 H 636.341 -6.71916 -5.01943 0
M  V30 5177 H 634.647 -7.4649 -6.93477 0
M  V30 5178 H 634.457 -8.89416 -5.05237 0
M  V30 5179 H 632.827 -8.14876 -5.18409 0
M  V30 5180 H 635.466 -3.27957 -5.4317 0
M  V30 5181 P 637.323 -5.75688 -6.64379 0
M  V30 5182 O 638.745 -6.07627 -7.05504 0
M  V30 5183 O 636.963 -5.88047 -5.19722 0
M  V30 5184 O 637 -4.2322 -7.04443 0
M  V30 5185 C 636.84 -3.99743 -8.4911 0
M  V30 5186 C 637.38 -2.60516 -8.79425 0
M  V30 5187 O 636.324 -1.82684 -8.4467 0
M  V30 5188 C 638.598 -2.10343 -8.03628 0
M  V30 5189 O 639.336 -1.09919 -8.67766 0
M  V30 5190 C 637.929 -1.68446 -6.70876 0
M  V30 5191 O 638.728 -0.678137 -6.08433 0
M  V30 5192 C 636.592 -1.17436 -7.18567 0
M  V30 5193 H 636.624 -0.0804732 -7.31656 0
M  V30 5194 H 637.807 -2.54037 -6.02537 0
M  V30 5195 H 639.291 -2.93881 -7.85526 0
M  V30 5196 H 637.597 -2.53065 -9.86973 0
M  V30 5197 H 637.407 -4.75072 -9.05887 0
M  V30 5198 H 635.777 -4.05244 -8.76668 0
M  V30 5199 H 638.416 0.177647 -6.34251 0
M  V30 5200 P 640.274 -1.25109 -8.70152 0
M  V30 5201 O 641.696 -1.29744 -9.22016 0
M  V30 5202 O 639.914 -2.13714 -7.55141 0
M  V30 5203 O 639.951 0.248149 -8.21425 0
M  V30 5204 C 639.791 1.22779 -9.30434 0
M  V30 5205 C 640.331 2.56293 -8.80664 0
M  V30 5206 O 639.275 3.02979 -8.09349 0
M  V30 5207 C 641.549 2.57523 -7.89775 0
M  V30 5208 O 642.287 3.7668 -7.89438 0
M  V30 5209 C 640.88 2.20997 -6.55446 0
M  V30 5210 O 641.679 2.71895 -5.48509 0
M  V30 5211 C 639.543 2.89693 -6.67988 0
M  V30 5212 H 639.575 3.88793 -6.19859 0
M  V30 5213 H 640.758 1.12046 -6.44229 0
M  V30 5214 H 642.242 1.7746 -8.19711 0
M  V30 5215 H 640.548 3.20706 -9.67112 0
M  V30 5216 H 640.358 0.901032 -10.1892 0
M  V30 5217 H 638.728 1.33049 -9.56592 0
M  V30 5218 H 641.367 3.57847 -5.23962 0
M  V30 5219 P 643.224 3.65191 -7.99657 0
M  V30 5220 O 644.646 3.89416 -8.45976 0
M  V30 5221 O 642.864 2.28472 -7.50807 0
M  V30 5222 O 642.901 4.64972 -6.77611 0
M  V30 5223 C 642.741 6.06319 -7.16352 0
M  V30 5224 C 643.281 6.91655 -6.02234 0
M  V30 5225 O 642.226 6.92449 -5.17064 0
M  V30 5226 C 644.499 6.43627 -5.25174 0
M  V30 5227 O 645.237 7.43686 -4.60469 0
M  V30 5228 C 643.831 5.40275 -4.31916 0
M  V30 5229 O 644.629 5.25193 -3.14386 0
M  V30 5230 C 642.493 6.04847 -4.05327 0
M  V30 5231 N 641.45 5.04166 -3.98114 0
M  V30 5232 C 641.512 3.96049 -4.75587 0
M  V30 5233 N 640.467 3.15559 -4.54006 0
M  V30 5234 C 639.733 3.78802 -3.62491 0
M  V30 5235 C 638.427 3.476 -3.10071 0
M  V30 5236 O 637.694 2.51136 -3.37021 0
M  V30 5237 N 637.997 4.39088 -2.19956 0
M  V30 5238 C 638.746 5.53215 -1.81733 0
M  V30 5239 N 638.149 6.31963 -0.860928 0
M  V30 5240 N 639.899 5.86688 -2.32562 0
M  V30 5241 C 640.356 4.97525 -3.23407 0
M  V30 5242 H 642.525 6.62195 -3.11261 0
M  V30 5243 H 643.708 4.42488 -4.8131 0
M  V30 5244 H 645.193 5.93051 -5.9305 0
M  V30 5245 H 643.498 7.92655 -6.402 0
M  V30 5246 H 643.308 6.26671 -8.0846 0
M  V30 5247 H 641.677 6.29101 -7.32804 0
M  V30 5248 H 637.101 4.25523 -1.77604 0
M  V30 5249 H 642.308 3.75576 -5.47333 0
M  V30 5250 H 637.238 6.04684 -0.468946 0
M  V30 5251 H 638.614 7.18054 -0.542422 0
M  V30 5252 H 644.318 5.84223 -2.47279 0
M  V30 5253 P 646.175 7.39546 -4.75277 0
M  V30 5254 O 647.597 7.84798 -5.01039 0
M  V30 5255 O 645.815 5.9812 -5.08098 0
M  V30 5256 O 645.852 7.57503 -3.1866 0
M  V30 5257 C 645.692 8.97357 -2.74833 0
M  V30 5258 C 646.232 9.07548 -1.32709 0
M  V30 5259 O 645.176 8.62072 -0.606159 0
M  V30 5260 C 647.45 8.25383 -0.938334 0
M  V30 5261 O 648.188 8.74577 0.146954 0
M  V30 5262 C 646.781 6.8802 -0.712559 0
M  V30 5263 O 647.58 6.1189 0.194655 0
M  V30 5264 C 645.444 7.27966 -0.139777 0
M  V30 5265 H 645.476 7.25354 0.961601 0
M  V30 5266 H 646.659 6.32557 -1.65702 0
M  V30 5267 H 648.143 8.19355 -1.79097 0
M  V30 5268 H 646.449 10.1294 -1.10029 0
M  V30 5269 H 646.259 9.64276 -3.41316 0
M  V30 5270 H 644.629 9.25417 -2.76357 0
M  V30 5271 H 647.268 6.25267 1.07847 0
M  V30 5272 P 649.125 8.791 4.45433e-12 0
M  V30 5273 O 650.547 9.31096 0.027933 0
M  V30 5274 O 648.765 7.77869 -1.04071 0
M  V30 5275 O 648.802 8.09533 1.41463 0
M  V30 5276 C 648.642 9.0349 2.53943 0
M  V30 5277 C 649.182 8.35226 3.79016 0
M  V30 5278 O 648.126 7.57992 4.15078 0
M  V30 5279 C 650.4 7.45087 3.67298 0
M  V30 5280 O 651.138 7.27796 4.85194 0
M  V30 5281 C 649.731 6.17323 3.12027 0
M  V30 5282 O 650.53 5.04231 3.47188 0
M  V30 5283 C 648.394 6.19961 3.81809 0
M  V30 5284 H 648.426 5.58218 4.73051 0
M  V30 5285 H 649.609 6.21726 2.02589 0
M  V30 5286 H 651.093 7.86112 2.9231 0
M  V30 5287 H 649.399 9.11627 4.55076 0
M  V30 5288 H 649.209 9.9573 2.34194 0
M  V30 5289 H 647.579 9.2792 2.67832 0
M  V30 5290 H 650.218 4.67702 4.28772 0
M  V30 5291 P 652.076 7.39546 4.75277 0
M  V30 5292 O 653.498 7.81777 5.05738 0
M  V30 5293 O 651.716 7.1065 3.32998 0
M  V30 5294 O 651.753 6.04542 5.56673 0
M  V30 5295 C 651.593 6.22772 7.02095 0
M  V30 5296 C 652.133 4.97725 7.70406 0
M  V30 5297 O 651.077 4.13256 7.58987 0
M  V30 5298 C 653.351 4.28231 7.11815 0
M  V30 5299 O 654.089 3.49945 8.01648 0
M  V30 5300 C 652.682 3.5063 5.96244 0
M  V30 5301 O 653.481 2.36482 5.64681 0
M  V30 5302 C 651.345 3.15122 6.56374 0
M  V30 5303 H 651.377 2.13853 6.99751 0
M  V30 5304 H 652.56 4.13501 5.06559 0
M  V30 5305 H 654.044 5.03285 6.70911 0
M  V30 5306 H 652.35 5.20877 8.75697 0
M  V30 5307 H 652.16 7.11046 7.35349 0
M  V30 5308 H 650.53 6.35815 7.26986 0
M  V30 5309 H 653.169 1.61644 6.13565 0
M  V30 5310 P 655.027 3.65191 7.99657 0
M  V30 5311 O 656.449 3.8425 8.48115 0
M  V30 5312 O 654.667 4.17805 6.64342 0
M  V30 5313 O 654.704 2.07613 7.95143 0
M  V30 5314 C 654.544 1.44328 9.27336 0
M  V30 5315 C 655.084 0.0220036 9.17197 0
M  V30 5316 O 654.028 -0.626867 8.61923 0
M  V30 5317 C 656.302 -0.24586 8.30336 0
M  V30 5318 O 657.04 -1.39011 8.63583 0
M  V30 5319 C 655.633 -0.273849 6.91158 0
M  V30 5320 O 656.432 -1.06348 6.02892 0
M  V30 5321 C 654.296 -0.897649 7.22545 0
M  V30 5322 H 654.328 -1.9841 7.04286 0
M  V30 5323 H 655.511 0.739928 6.497 0
M  V30 5324 H 656.995 0.60668 8.36503 0
M  V30 5325 H 655.301 -0.352479 10.1829 0
M  V30 5326 H 655.111 2.00611 10.0304 0
M  V30 5327 H 653.481 1.41843 9.55327 0
M  V30 5328 H 656.12 -1.95734 6.03555 0
M  V30 5329 P 657.977 -1.25109 8.70152 0
M  V30 5330 O 659.399 -1.35303 9.21419 0
M  V30 5331 O 657.617 -0.0769065 7.84762 0
M  V30 5332 O 657.654 -2.55232 7.81161 0
M  V30 5333 C 657.494 -3.79939 8.58154 0
M  V30 5334 C 658.034 -4.93969 7.72701 0
M  V30 5335 O 656.979 -5.18726 6.91205 0
M  V30 5336 C 659.252 -4.69597 6.85231 0
M  V30 5337 O 659.99 -5.83832 6.51337 0
M  V30 5338 C 658.584 -3.96706 5.66633 0
M  V30 5339 O 659.382 -4.15346 4.49615 0
M  V30 5340 C 657.246 -4.66153 5.59313 0
M  V30 5341 N 656.203 -3.71582 5.24027 0
M  V30 5342 C 656.265 -2.46018 5.67902 0
M  V30 5343 N 655.22 -1.74868 5.24518 0
M  V30 5344 C 654.486 -2.61333 4.54528 0
M  V30 5345 C 653.18 -2.46162 3.95441 0
M  V30 5346 O 652.447 -1.46013 3.94122 0
M  V30 5347 N 652.75 -3.59334 3.34752 0
M  V30 5348 C 653.499 -4.79605 3.3023 0
M  V30 5349 N 652.902 -5.82109 2.6065 0
M  V30 5350 N 654.652 -4.97402 3.8843 0
M  V30 5351 C 655.109 -3.86258 4.50476 0
M  V30 5352 H 657.278 -5.47679 4.85214 0
M  V30 5353 H 658.461 -2.88964 5.86476 0
M  V30 5354 H 659.946 -4.01947 7.36109 0
M  V30 5355 H 658.251 -5.80182 8.37584 0
M  V30 5356 H 658.061 -3.73517 9.52265 0
M  V30 5357 H 656.43 -3.97163 8.80359 0
M  V30 5358 H 651.854 -3.5825 2.90294 0
M  V30 5359 H 657.061 -2.06161 6.30974 0
M  V30 5360 H 651.991 -5.66979 2.15354 0
M  V30 5361 H 653.367 -6.73686 2.54344 0
M  V30 5362 H 659.071 -4.90891 4.01857 0
M  V30 5363 P 660.928 -5.75688 6.64379 0
M  V30 5364 O 662.35 -6.11849 7.01846 0
M  V30 5365 O 660.568 -4.30744 6.56026 0
M  V30 5366 O 660.605 -6.37042 5.19165 0
M  V30 5367 C 660.445 -7.83578 5.16515 0
M  V30 5368 C 660.985 -8.33398 3.83019 0
M  V30 5369 O 659.929 -8.10074 3.01034 0
M  V30 5370 C 662.203 -7.65514 3.2257 0
M  V30 5371 O 662.941 -8.4329 2.32297 0
M  V30 5372 C 661.534 -6.40075 2.62207 0
M  V30 5373 O 662.333 -5.92589 1.53712 0
M  V30 5374 C 660.197 -6.9454 2.18503 0
M  V30 5375 H 660.229 -7.23063 1.12091 0
M  V30 5376 H 661.412 -5.6025 3.37201 0
M  V30 5377 H 662.896 -7.35707 4.02681 0
M  V30 5378 H 661.202 -9.40912 3.9095 0
M  V30 5379 H 661.012 -8.29056 5.99158 0
M  V30 5380 H 659.382 -8.10073 5.25882 0
M  V30 5381 H 662.021 -6.30324 0.726794 0
M  V30 5382 P 663.878 -8.4349 2.47671 0
M  V30 5383 O 665.3 -8.94167 2.5964 0
M  V30 5384 O 663.518 -7.1704 3.19006 0
M  V30 5385 O 663.555 -8.16596 0.923387 0
M  V30 5386 C 663.395 -9.38437 0.108857 0
M  V30 5387 C 663.935 -9.08175 -1.28353 0
M  V30 5388 O 662.879 -8.44229 -1.84713 0
M  V30 5389 C 665.153 -8.18386 -1.42505 0
M  V30 5390 O 665.891 -8.3501 -2.60497 0
M  V30 5391 C 664.484 -6.80225 -1.25468 0
M  V30 5392 O 665.283 -5.81621 -1.91066 0
M  V30 5393 C 663.147 -7.02416 -1.9168 0
M  V30 5394 H 663.179 -6.6888 -2.96621 0
M  V30 5395 H 664.362 -6.53617 -0.192223 0
M  V30 5396 H 665.846 -8.36622 -0.589963 0
M  V30 5397 H 664.152 -10.0291 -1.79807 0
M  V30 5398 H 663.962 -10.2138 0.558219 0
M  V30 5399 H 662.332 -9.6579 0.0444202 0
M  V30 5400 H 664.971 -5.69556 -2.79637 0
M  V30 5401 P 666.829 -8.4349 -2.47671 0
M  V30 5402 O 668.25 -8.92689 -2.65029 0
M  V30 5403 O 666.469 -7.7568 -1.19296 0
M  V30 5404 O 666.506 -7.36886 -3.63805 0
M  V30 5405 C 666.345 -7.95433 -4.98253 0
M  V30 5406 C 666.886 -6.94612 -5.98974 0
M  V30 5407 O 665.831 -6.10277 -6.11744 0
M  V30 5408 C 668.104 -6.11426 -5.62335 0
M  V30 5409 O 668.842 -5.6162 -6.70584 0
M  V30 5410 C 667.436 -5.04409 -4.73308 0
M  V30 5411 O 668.234 -3.86404 -4.74719 0
M  V30 5412 C 666.098 -4.8728 -5.41006 0
M  V30 5413 N 665.055 -4.65812 -4.42377 0
M  V30 5414 C 665.224 -5.09132 -3.15382 0
M  V30 5415 N 664.197 -4.84021 -2.3716 0
M  V30 5416 C 663.312 -4.18386 -3.20441 0
M  V30 5417 C 662.045 -3.6275 -2.94905 0
M  V30 5418 N 661.446 -3.65794 -1.73372 0
M  V30 5419 N 661.48 -3.05008 -4.05243 0
M  V30 5420 C 662.082 -2.98348 -5.28159 0
M  V30 5421 N 663.259 -3.48171 -5.56333 0
M  V30 5422 C 663.834 -4.06869 -4.47212 0
M  V30 5423 H 666.13 -4.02278 -6.11074 0
M  V30 5424 H 667.313 -5.39013 -3.70026 0
M  V30 5425 H 668.796 -6.71916 -5.01943 0
M  V30 5426 H 667.102 -7.45796 -6.94223 0
M  V30 5427 H 666.912 -8.89416 -5.05237 0
M  V30 5428 H 665.282 -8.14876 -5.18409 0
M  V30 5429 H 661.546 -2.47853 -6.07807 0
M  V30 5430 H 666.124 -5.59989 -2.81362 0
M  V30 5431 H 660.516 -3.23218 -1.60782 0
M  V30 5432 H 661.92 -4.10523 -0.937856 0
M  V30 5433 H 667.922 -3.27906 -5.43085 0
M  V30 5434 P 669.779 -5.75688 -6.64379 0
M  V30 5435 O 671.201 -6.07627 -7.05504 0
M  V30 5436 O 669.419 -5.88047 -5.19722 0
M  V30 5437 O 669.456 -4.2322 -7.04443 0
M  V30 5438 C 669.296 -3.99743 -8.4911 0
M  V30 5439 C 669.836 -2.60516 -8.79425 0
M  V30 5440 O 668.78 -1.82684 -8.4467 0
M  V30 5441 C 671.054 -2.10343 -8.03628 0
M  V30 5442 O 671.792 -1.09919 -8.67766 0
M  V30 5443 C 670.385 -1.68446 -6.70876 0
M  V30 5444 O 671.184 -0.678137 -6.08433 0
M  V30 5445 C 669.048 -1.17436 -7.18567 0
M  V30 5446 H 669.08 -0.0804732 -7.31656 0
M  V30 5447 H 670.263 -2.54037 -6.02537 0
M  V30 5448 H 671.747 -2.93881 -7.85526 0
M  V30 5449 H 670.053 -2.53065 -9.86973 0
M  V30 5450 H 669.863 -4.75072 -9.05887 0
M  V30 5451 H 668.233 -4.05244 -8.76668 0
M  V30 5452 H 670.872 0.177647 -6.34251 0
M  V30 5453 P 672.73 -1.25109 -8.70152 0
M  V30 5454 O 674.152 -1.29744 -9.22016 0
M  V30 5455 O 672.37 -2.13714 -7.55141 0
M  V30 5456 O 672.407 0.248149 -8.21425 0
M  V30 5457 C 672.247 1.22779 -9.30434 0
M  V30 5458 C 672.787 2.56293 -8.80664 0
M  V30 5459 O 671.731 3.02979 -8.09349 0
M  V30 5460 C 674.005 2.57523 -7.89775 0
M  V30 5461 O 674.743 3.7668 -7.89438 0
M  V30 5462 C 673.336 2.20997 -6.55446 0
M  V30 5463 O 674.135 2.71895 -5.48509 0
M  V30 5464 C 671.999 2.89693 -6.67988 0
M  V30 5465 H 672.031 3.88793 -6.19859 0
M  V30 5466 H 673.214 1.12046 -6.44229 0
M  V30 5467 H 674.698 1.7746 -8.19711 0
M  V30 5468 H 673.004 3.20706 -9.67112 0
M  V30 5469 H 672.814 0.901032 -10.1892 0
M  V30 5470 H 671.184 1.33049 -9.56592 0
M  V30 5471 H 673.823 3.57847 -5.23962 0
M  V30 5472 P 675.681 3.65191 -7.99657 0
M  V30 5473 O 677.103 3.89332 -8.45794 0
M  V30 5474 O 675.321 2.28472 -7.50807 0
M  V30 5475 O 675.358 4.64972 -6.77611 0
M  V30 5476 C 675.198 6.06319 -7.16352 0
M  V30 5477 C 675.738 6.91731 -6.02299 0
M  V30 5478 O 674.682 6.92449 -5.17064 0
M  V30 5479 C 676.956 6.43627 -5.25174 0
M  V30 5480 O 677.694 7.43686 -4.60469 0
M  V30 5481 C 676.287 5.40275 -4.31916 0
M  V30 5482 O 677.086 5.25279 -3.14438 0
M  V30 5483 C 674.95 6.04847 -4.05327 0
M  V30 5484 H 674.982 6.62195 -3.11261 0
M  V30 5485 H 676.165 4.42556 -4.81383 0
M  V30 5486 H 677.649 5.92458 -5.93643 0
M  V30 5487 H 675.955 7.92655 -6.402 0
M  V30 5488 H 675.765 6.26671 -8.0846 0
M  V30 5489 H 674.135 6.29101 -7.32804 0
M  V30 5490 H 676.774 5.84315 -2.47318 0
M  V30 5491 P 678.631 7.39546 -4.75277 0
M  V30 5492 O 680.053 7.84798 -5.01039 0
M  V30 5493 O 678.271 5.9812 -5.08098 0
M  V30 5494 O 678.308 7.57503 -3.1866 0
M  V30 5495 C 678.148 8.97357 -2.74833 0
M  V30 5496 C 678.688 9.07548 -1.32709 0
M  V30 5497 O 677.632 8.62072 -0.606159 0
M  V30 5498 C 679.906 8.25383 -0.938334 0
M  V30 5499 O 680.644 8.74577 0.146954 0
M  V30 5500 C 679.237 6.8802 -0.712559 0
M  V30 5501 O 680.036 6.1189 0.194655 0
M  V30 5502 C 677.9 7.27966 -0.139777 0
M  V30 5503 H 677.932 7.25354 0.961601 0
M  V30 5504 H 679.115 6.32557 -1.65702 0
M  V30 5505 H 680.599 8.19355 -1.79097 0
M  V30 5506 H 678.905 10.1294 -1.10029 0
M  V30 5507 H 678.715 9.64276 -3.41316 0
M  V30 5508 H 677.085 9.25417 -2.76357 0
M  V30 5509 H 679.724 6.25267 1.07847 0
M  V30 5510 P 681.582 8.791 4.7645e-12 0
M  V30 5511 O 683.004 9.31296 0.027939 0
M  V30 5512 O 681.222 7.77869 -1.04071 0
M  V30 5513 O 681.259 8.09533 1.41463 0
M  V30 5514 C 681.099 9.0349 2.53943 0
M  V30 5515 C 681.639 8.35135 3.78975 0
M  V30 5516 O 680.584 7.57992 4.15078 0
M  V30 5517 C 682.857 7.45087 3.67298 0
M  V30 5518 O 683.595 7.27796 4.85194 0
M  V30 5519 C 682.189 6.17323 3.12027 0
M  V30 5520 O 682.987 5.04149 3.47132 0
M  V30 5521 C 680.851 6.19961 3.81809 0
M  V30 5522 N 679.808 5.71575 2.93223 0
M  V30 5523 C 679.87 5.97133 1.62693 0
M  V30 5524 N 678.825 5.44066 0.984414 0
M  V30 5525 C 678.091 4.87093 1.93987 0
M  V30 5526 C 676.785 4.26449 1.8738 0
M  V30 5527 O 676.052 4.1089 0.884377 0
M  V30 5528 N 676.355 3.82483 3.08036 0
M  V30 5529 C 677.104 3.95124 4.27727 0
M  V30 5530 N 676.507 3.4084 5.39089 0
M  V30 5531 N 678.257 4.55264 4.3706 0
M  V30 5532 C 678.714 5.00861 3.18217 0
M  V30 5533 H 680.883 5.58218 4.73051 0
M  V30 5534 H 682.066 6.21631 2.02558 0
M  V30 5535 H 683.551 7.85819 2.93096 0
M  V30 5536 H 681.856 9.11627 4.55076 0
M  V30 5537 H 681.666 9.9573 2.34194 0
M  V30 5538 H 680.035 9.2792 2.67832 0
M  V30 5539 H 675.459 3.38323 3.1329 0
M  V30 5540 H 680.666 6.53891 1.14265 0
M  V30 5541 H 675.596 2.93852 5.30559 0
M  V30 5542 H 676.972 3.47631 6.30632 0
M  V30 5543 H 682.676 4.67628 4.28704 0
M  V30 5544 P 684.532 7.39546 4.75277 0
M  V30 5545 O 685.954 7.81777 5.05738 0
M  V30 5546 O 684.172 7.1065 3.32998 0
M  V30 5547 O 684.209 6.04542 5.56673 0
M  V30 5548 C 684.049 6.22772 7.02095 0
M  V30 5549 C 684.589 4.97725 7.70406 0
M  V30 5550 O 683.533 4.13256 7.58987 0
M  V30 5551 C 685.807 4.28231 7.11815 0
M  V30 5552 O 686.545 3.49945 8.01648 0
M  V30 5553 C 685.138 3.5063 5.96244 0
M  V30 5554 O 685.937 2.36482 5.64681 0
M  V30 5555 C 683.801 3.15122 6.56374 0
M  V30 5556 H 683.833 2.13853 6.99751 0
M  V30 5557 H 685.016 4.13501 5.06559 0
M  V30 5558 H 686.5 5.03285 6.70911 0
M  V30 5559 H 684.806 5.20877 8.75697 0
M  V30 5560 H 684.616 7.11046 7.35349 0
M  V30 5561 H 682.986 6.35815 7.26986 0
M  V30 5562 H 685.625 1.61644 6.13565 0
M  V30 5563 P 687.483 3.65191 7.99657 0
M  V30 5564 O 688.905 3.8425 8.48115 0
M  V30 5565 O 687.123 4.17805 6.64342 0
M  V30 5566 O 687.16 2.07613 7.95143 0
M  V30 5567 C 687 1.44328 9.27336 0
M  V30 5568 C 687.54 0.0220036 9.17197 0
M  V30 5569 O 686.484 -0.626867 8.61923 0
M  V30 5570 C 688.758 -0.24586 8.30336 0
M  V30 5571 O 689.496 -1.39011 8.63583 0
M  V30 5572 C 688.089 -0.273849 6.91158 0
M  V30 5573 O 688.888 -1.06348 6.02892 0
M  V30 5574 C 686.752 -0.897649 7.22545 0
M  V30 5575 H 686.784 -1.9841 7.04286 0
M  V30 5576 H 687.967 0.739928 6.497 0
M  V30 5577 H 689.451 0.60668 8.36503 0
M  V30 5578 H 687.757 -0.352479 10.1829 0
M  V30 5579 H 687.567 2.00611 10.0304 0
M  V30 5580 H 685.937 1.41843 9.55327 0
M  V30 5581 H 688.576 -1.95734 6.03555 0
M  V30 5582 P 690.433 -1.25109 8.70152 0
M  V30 5583 O 691.855 -1.35303 9.21419 0
M  V30 5584 O 690.073 -0.0769065 7.84762 0
M  V30 5585 O 690.11 -2.55232 7.81161 0
M  V30 5586 C 689.95 -3.79939 8.58154 0
M  V30 5587 C 690.49 -4.93969 7.72701 0
M  V30 5588 O 689.435 -5.18726 6.91205 0
M  V30 5589 C 691.708 -4.69597 6.85231 0
M  V30 5590 O 692.446 -5.83832 6.51337 0
M  V30 5591 C 691.04 -3.96706 5.66633 0
M  V30 5592 O 691.838 -4.15346 4.49615 0
M  V30 5593 C 689.702 -4.66153 5.59313 0
M  V30 5594 N 688.659 -3.71582 5.24027 0
M  V30 5595 C 688.721 -2.46018 5.67902 0
M  V30 5596 N 687.676 -1.74868 5.24518 0
M  V30 5597 C 686.942 -2.61333 4.54528 0
M  V30 5598 C 685.636 -2.46162 3.95441 0
M  V30 5599 O 684.903 -1.46013 3.94122 0
M  V30 5600 N 685.206 -3.59334 3.34752 0
M  V30 5601 C 685.955 -4.79605 3.3023 0
M  V30 5602 N 685.358 -5.82109 2.6065 0
M  V30 5603 N 687.108 -4.97402 3.8843 0
M  V30 5604 C 687.565 -3.86258 4.50476 0
M  V30 5605 H 689.734 -5.47679 4.85214 0
M  V30 5606 H 690.917 -2.88964 5.86476 0
M  V30 5607 H 692.402 -4.01947 7.36109 0
M  V30 5608 H 690.707 -5.80182 8.37584 0
M  V30 5609 H 690.517 -3.73517 9.52265 0
M  V30 5610 H 688.886 -3.97163 8.80359 0
M  V30 5611 H 684.31 -3.5825 2.90294 0
M  V30 5612 H 689.517 -2.06161 6.30974 0
M  V30 5613 H 684.447 -5.66979 2.15354 0
M  V30 5614 H 685.823 -6.73686 2.54344 0
M  V30 5615 H 691.527 -4.90891 4.01857 0
M  V30 5616 P 693.384 -5.75688 6.64379 0
M  V30 5617 O 694.806 -6.11849 7.01846 0
M  V30 5618 O 693.024 -4.30744 6.56026 0
M  V30 5619 O 693.061 -6.37042 5.19165 0
M  V30 5620 C 692.901 -7.83578 5.16515 0
M  V30 5621 C 693.441 -8.33398 3.83019 0
M  V30 5622 O 692.385 -8.10074 3.01034 0
M  V30 5623 C 694.659 -7.65514 3.2257 0
M  V30 5624 O 695.397 -8.4329 2.32297 0
M  V30 5625 C 693.99 -6.40075 2.62207 0
M  V30 5626 O 694.789 -5.92589 1.53712 0
M  V30 5627 C 692.653 -6.9454 2.18503 0
M  V30 5628 H 692.685 -7.23063 1.12091 0
M  V30 5629 H 693.868 -5.6025 3.37201 0
M  V30 5630 H 695.352 -7.35707 4.02681 0
M  V30 5631 H 693.658 -9.40912 3.9095 0
M  V30 5632 H 693.468 -8.29056 5.99158 0
M  V30 5633 H 691.838 -8.10073 5.25882 0
M  V30 5634 H 694.477 -6.30324 0.726794 0
M  V30 5635 P 696.335 -8.4349 2.47671 0
M  V30 5636 O 697.757 -8.94167 2.5964 0
M  V30 5637 O 695.975 -7.1704 3.19006 0
M  V30 5638 O 696.012 -8.16596 0.923387 0
M  V30 5639 C 695.852 -9.38437 0.108857 0
M  V30 5640 C 696.392 -9.08175 -1.28353 0
M  V30 5641 O 695.336 -8.44229 -1.84713 0
M  V30 5642 C 697.61 -8.18386 -1.42505 0
M  V30 5643 O 698.348 -8.3501 -2.60497 0
M  V30 5644 C 696.941 -6.80225 -1.25468 0
M  V30 5645 O 697.74 -5.81621 -1.91066 0
M  V30 5646 C 695.604 -7.02416 -1.9168 0
M  V30 5647 H 695.636 -6.6888 -2.96621 0
M  V30 5648 H 696.819 -6.53617 -0.192223 0
M  V30 5649 H 698.303 -8.36622 -0.589963 0
M  V30 5650 H 696.609 -10.0291 -1.79807 0
M  V30 5651 H 696.419 -10.2138 0.558219 0
M  V30 5652 H 694.789 -9.6579 0.0444202 0
M  V30 5653 H 697.428 -5.69556 -2.79637 0
M  V30 5654 P 699.285 -8.4349 -2.47671 0
M  V30 5655 O 700.707 -8.92593 -2.65 0
M  V30 5656 O 698.925 -7.7568 -1.19296 0
M  V30 5657 O 698.962 -7.36886 -3.63805 0
M  V30 5658 C 698.802 -7.95349 -4.982 0
M  V30 5659 C 699.342 -6.94612 -5.98974 0
M  V30 5660 O 698.286 -6.10347 -6.11815 0
M  V30 5661 C 700.56 -6.11426 -5.62335 0
M  V30 5662 O 701.298 -5.6162 -6.70584 0
M  V30 5663 C 699.891 -5.04409 -4.73308 0
M  V30 5664 O 700.69 -3.85992 -4.75183 0
M  V30 5665 C 698.554 -4.8728 -5.41006 0
M  V30 5666 H 698.586 -4.02333 -6.11157 0
M  V30 5667 H 699.769 -5.39466 -3.69543 0
M  V30 5668 H 701.253 -6.71916 -5.01943 0
M  V30 5669 H 699.559 -7.4649 -6.93477 0
M  V30 5670 H 699.369 -8.89416 -5.05237 0
M  V30 5671 H 697.739 -8.14876 -5.18409 0
M  V30 5672 H 700.378 -3.27957 -5.4317 0
M  V30 5673 P 702.236 -5.75688 -6.64379 0
M  V30 5674 O 703.637 -6.14823 -7.06682 0
M  V30 5675 O 701.858 -5.93957 -5.20728 0
M  V30 5676 O 701.913 -4.23169 -7.04357 0
M  V30 5677 C 701.753 -3.99743 -8.4911 0
M  V30 5678 C 702.293 -2.60487 -8.79329 0
M  V30 5679 O 701.237 -1.82663 -8.44573 0
M  V30 5680 C 703.51 -2.10343 -8.03628 0
M  V30 5681 O 704.249 -1.09919 -8.67766 0
M  V30 5682 C 702.843 -1.68446 -6.70876 0
M  V30 5683 O 703.641 -0.678026 -6.08333 0
M  V30 5684 C 701.505 -1.17436 -7.18567 0
M  V30 5685 N 700.462 -1.52699 -6.23988 0
M  V30 5686 C 699.427 -0.643793 -6.05085 0
M  V30 5687 O 699.466 0.459118 -6.64315 0
M  V30 5688 N 698.415 -0.976931 -5.22038 0
M  V30 5689 C 698.463 -2.14429 -4.56662 0
M  V30 5690 C 699.559 -3.04203 -4.71481 0
M  V30 5691 C 700.525 -2.69669 -5.56838 0
M  V30 5692 H 701.537 -0.0804622 -7.31556 0
M  V30 5693 H 702.72 -2.53396 -6.02698 0
M  V30 5694 H 704.204 -2.9313 -7.85914 0
M  V30 5695 H 702.51 -2.52078 -9.87225 0
M  V30 5696 H 702.319 -4.75072 -9.05887 0
M  V30 5697 H 700.689 -4.05202 -8.76577 0
M  V30 5698 H 699.607 -3.97309 -4.15519 0
M  V30 5699 H 701.371 -3.36869 -5.72318 0
M  V30 5700 H 703.425 0.167718 -6.44882 0
M  V30 5701 P 705.186 -1.25109 -8.70152 0
M  V30 5702 O 706.608 -1.29744 -9.22016 0
M  V30 5703 O 704.826 -2.13714 -7.55141 0
M  V30 5704 O 704.863 0.248149 -8.21425 0
M  V30 5705 C 704.703 1.22779 -9.30434 0
M  V30 5706 C 705.243 2.56293 -8.80664 0
M  V30 5707 O 704.187 3.02979 -8.09349 0
M  V30 5708 C 706.461 2.57523 -7.89775 0
M  V30 5709 O 707.199 3.7668 -7.89438 0
M  V30 5710 C 705.792 2.20997 -6.55446 0
M  V30 5711 O 706.591 2.71895 -5.48509 0
M  V30 5712 C 704.455 2.89693 -6.67988 0
M  V30 5713 H 704.487 3.88793 -6.19859 0
M  V30 5714 H 705.67 1.12046 -6.44229 0
M  V30 5715 H 707.154 1.7746 -8.19711 0
M  V30 5716 H 705.46 3.20706 -9.67112 0
M  V30 5717 H 705.27 0.901032 -10.1892 0
M  V30 5718 H 703.64 1.33049 -9.56592 0
M  V30 5719 H 706.279 3.57847 -5.23962 0
M  V30 5720 P 708.137 3.65191 -7.99657 0
M  V30 5721 O 709.559 3.89332 -8.45794 0
M  V30 5722 O 707.777 2.28472 -7.50807 0
M  V30 5723 O 707.814 4.64972 -6.77611 0
M  V30 5724 C 707.654 6.06319 -7.16352 0
M  V30 5725 C 708.194 6.91731 -6.02299 0
M  V30 5726 O 707.138 6.92449 -5.17064 0
M  V30 5727 C 709.412 6.43627 -5.25174 0
M  V30 5728 O 710.15 7.43686 -4.60469 0
M  V30 5729 C 708.743 5.40275 -4.31916 0
M  V30 5730 O 709.542 5.25279 -3.14438 0
M  V30 5731 C 707.406 6.04847 -4.05327 0
M  V30 5732 H 707.438 6.62195 -3.11261 0
M  V30 5733 H 708.621 4.42556 -4.81383 0
M  V30 5734 H 710.105 5.92458 -5.93643 0
M  V30 5735 H 708.411 7.92655 -6.402 0
M  V30 5736 H 708.221 6.26671 -8.0846 0
M  V30 5737 H 706.591 6.29101 -7.32804 0
M  V30 5738 H 709.23 5.84315 -2.47318 0
M  V30 5739 P 711.087 7.39546 -4.75277 0
M  V30 5740 O 712.509 7.84798 -5.01039 0
M  V30 5741 O 710.727 5.9812 -5.08098 0
M  V30 5742 O 710.764 7.57503 -3.1866 0
M  V30 5743 C 710.604 8.97357 -2.74833 0
M  V30 5744 C 711.144 9.07548 -1.32709 0
M  V30 5745 O 710.088 8.62072 -0.606159 0
M  V30 5746 C 712.362 8.25383 -0.938334 0
M  V30 5747 O 713.1 8.74577 0.146954 0
M  V30 5748 C 711.693 6.8802 -0.712559 0
M  V30 5749 O 712.492 6.1189 0.194655 0
M  V30 5750 C 710.356 7.27966 -0.139777 0
M  V30 5751 H 710.388 7.25354 0.961601 0
M  V30 5752 H 711.571 6.32557 -1.65702 0
M  V30 5753 H 713.055 8.19355 -1.79097 0
M  V30 5754 H 711.361 10.1294 -1.10029 0
M  V30 5755 H 711.171 9.64276 -3.41316 0
M  V30 5756 H 709.541 9.25417 -2.76357 0
M  V30 5757 H 712.18 6.25267 1.07847 0
M  V30 5758 P 714.038 8.791 5.07466e-12 0
M  V30 5759 O 715.46 9.31096 0.027933 0
M  V30 5760 O 713.678 7.77869 -1.04071 0
M  V30 5761 O 713.715 8.09533 1.41463 0
M  V30 5762 C 713.555 9.0349 2.53943 0
M  V30 5763 C 714.095 8.35226 3.79016 0
M  V30 5764 O 713.039 7.57992 4.15078 0
M  V30 5765 C 715.313 7.45087 3.67298 0
M  V30 5766 O 716.051 7.27796 4.85194 0
M  V30 5767 C 714.644 6.17323 3.12027 0
M  V30 5768 O 715.443 5.04231 3.47188 0
M  V30 5769 C 713.307 6.19961 3.81809 0
M  V30 5770 H 713.339 5.58218 4.73051 0
M  V30 5771 H 714.522 6.21726 2.02589 0
M  V30 5772 H 716.006 7.86112 2.9231 0
M  V30 5773 H 714.312 9.11627 4.55076 0
M  V30 5774 H 714.122 9.9573 2.34194 0
M  V30 5775 H 712.492 9.2792 2.67832 0
M  V30 5776 H 715.131 4.67702 4.28772 0
M  V30 5777 P 716.989 7.39546 4.75277 0
M  V30 5778 O 718.41 7.81861 5.05793 0
M  V30 5779 O 716.629 7.1065 3.32998 0
M  V30 5780 O 716.666 6.04542 5.56673 0
M  V30 5781 C 716.505 6.22839 7.02169 0
M  V30 5782 C 717.046 4.97725 7.70406 0
M  V30 5783 O 715.991 4.13208 7.58899 0
M  V30 5784 C 718.264 4.28231 7.11815 0
M  V30 5785 O 719.002 3.49945 8.01648 0
M  V30 5786 C 717.596 3.5063 5.96244 0
M  V30 5787 O 718.394 2.37008 5.64352 0
M  V30 5788 C 716.258 3.15122 6.56374 0
M  V30 5789 N 715.215 3.22311 5.55692 0
M  V30 5790 C 715.384 3.99655 4.46046 0
M  V30 5791 N 714.357 3.97599 3.63918 0
M  V30 5792 C 713.472 3.11159 4.25334 0
M  V30 5793 C 712.205 2.64972 3.85157 0
M  V30 5794 N 711.64 1.78482 4.74759 0
M  V30 5795 C 712.242 1.37463 5.90819 0
M  V30 5796 N 713.419 1.7733 6.31889 0
M  V30 5797 C 713.994 2.64393 5.43725 0
M  V30 5798 H 717.473 4.12931 5.06895 0
M  V30 5799 H 718.956 5.03285 6.70911 0
M  V30 5800 H 717.262 5.20001 8.76217 0
M  V30 5801 H 717.072 7.11046 7.35349 0
M  V30 5802 H 715.442 6.35815 7.26986 0
M  V30 5803 H 716.284 4.58037 4.27732 0
M  V30 5804 H 718.082 1.61619 6.13468 0
M  V30 5805 P 719.939 3.65191 7.99657 0
M  V30 5806 O 721.361 3.8425 8.48115 0
M  V30 5807 O 719.579 4.17805 6.64342 0
M  V30 5808 O 719.616 2.07613 7.95143 0
M  V30 5809 C 719.456 1.44328 9.27336 0
M  V30 5810 C 719.996 0.0220036 9.17197 0
M  V30 5811 O 718.94 -0.626867 8.61923 0
M  V30 5812 C 721.214 -0.24586 8.30336 0
M  V30 5813 O 721.952 -1.39011 8.63583 0
M  V30 5814 C 720.545 -0.273849 6.91158 0
M  V30 5815 O 721.344 -1.06348 6.02892 0
M  V30 5816 C 719.208 -0.897649 7.22545 0
M  V30 5817 H 719.24 -1.9841 7.04286 0
M  V30 5818 H 720.423 0.739928 6.497 0
M  V30 5819 H 721.907 0.60668 8.36503 0
M  V30 5820 H 720.213 -0.352479 10.1829 0
M  V30 5821 H 720.023 2.00611 10.0304 0
M  V30 5822 H 718.393 1.41843 9.55327 0
M  V30 5823 H 721.032 -1.95734 6.03555 0
M  V30 5824 P 722.89 -1.25109 8.70152 0
M  V30 5825 O 724.312 -1.35274 9.21221 0
M  V30 5826 O 722.53 -0.0769065 7.84762 0
M  V30 5827 O 722.567 -2.55232 7.81161 0
M  V30 5828 C 722.407 -3.79939 8.58154 0
M  V30 5829 C 722.947 -4.94023 7.72785 0
M  V30 5830 O 721.891 -5.18726 6.91205 0
M  V30 5831 C 724.165 -4.69597 6.85231 0
M  V30 5832 O 724.903 -5.83832 6.51337 0
M  V30 5833 C 723.496 -3.96706 5.66633 0
M  V30 5834 O 724.295 -4.15414 4.49689 0
M  V30 5835 C 722.159 -4.66153 5.59313 0
M  V30 5836 H 722.191 -5.47679 4.85214 0
M  V30 5837 H 723.374 -2.89008 5.86566 0
M  V30 5838 H 724.858 -4.0121 7.36511 0
M  V30 5839 H 723.164 -5.80182 8.37584 0
M  V30 5840 H 722.974 -3.73517 9.52265 0
M  V30 5841 H 721.344 -3.97163 8.80359 0
M  V30 5842 H 723.983 -4.90969 4.01921 0
M  V30 5843 P 725.84 -5.75688 6.64379 0
M  V30 5844 O 727.262 -6.11849 7.01846 0
M  V30 5845 O 725.48 -4.30744 6.56026 0
M  V30 5846 O 725.517 -6.37042 5.19165 0
M  V30 5847 C 725.357 -7.83578 5.16515 0
M  V30 5848 C 725.897 -8.33398 3.83019 0
M  V30 5849 O 724.841 -8.10074 3.01034 0
M  V30 5850 C 727.115 -7.65514 3.2257 0
M  V30 5851 O 727.853 -8.4329 2.32297 0
M  V30 5852 C 726.446 -6.40075 2.62207 0
M  V30 5853 O 727.245 -5.92589 1.53712 0
M  V30 5854 C 725.109 -6.9454 2.18503 0
M  V30 5855 H 725.141 -7.23063 1.12091 0
M  V30 5856 H 726.324 -5.6025 3.37201 0
M  V30 5857 H 727.808 -7.35707 4.02681 0
M  V30 5858 H 726.114 -9.40912 3.9095 0
M  V30 5859 H 725.924 -8.29056 5.99158 0
M  V30 5860 H 724.294 -8.10073 5.25882 0
M  V30 5861 H 726.933 -6.30324 0.726794 0
M  V30 5862 P 728.791 -8.4349 2.47671 0
M  V30 5863 O 730.213 -8.94167 2.5964 0
M  V30 5864 O 728.431 -7.1704 3.19006 0
M  V30 5865 O 728.468 -8.16596 0.923387 0
M  V30 5866 C 728.308 -9.38437 0.108857 0
M  V30 5867 C 728.848 -9.08175 -1.28353 0
M  V30 5868 O 727.792 -8.44229 -1.84713 0
M  V30 5869 C 730.066 -8.18386 -1.42505 0
M  V30 5870 O 730.804 -8.3501 -2.60497 0
M  V30 5871 C 729.397 -6.80225 -1.25468 0
M  V30 5872 O 730.196 -5.81621 -1.91066 0
M  V30 5873 C 728.06 -7.02416 -1.9168 0
M  V30 5874 H 728.092 -6.6888 -2.96621 0
M  V30 5875 H 729.275 -6.53617 -0.192223 0
M  V30 5876 H 730.759 -8.36622 -0.589963 0
M  V30 5877 H 729.065 -10.0291 -1.79807 0
M  V30 5878 H 728.875 -10.2138 0.558219 0
M  V30 5879 H 727.245 -9.6579 0.0444202 0
M  V30 5880 H 729.884 -5.69556 -2.79637 0
M  V30 5881 P 731.741 -8.4349 -2.47671 0
M  V30 5882 O 733.162 -8.92689 -2.65029 0
M  V30 5883 O 731.381 -7.7568 -1.19296 0
M  V30 5884 O 731.418 -7.36886 -3.63805 0
M  V30 5885 C 731.257 -7.95433 -4.98253 0
M  V30 5886 C 731.798 -6.94612 -5.98974 0
M  V30 5887 O 730.743 -6.10277 -6.11744 0
M  V30 5888 C 733.016 -6.11426 -5.62335 0
M  V30 5889 O 733.754 -5.6162 -6.70584 0
M  V30 5890 C 732.348 -5.04409 -4.73308 0
M  V30 5891 O 733.146 -3.86404 -4.74719 0
M  V30 5892 C 731.01 -4.8728 -5.41006 0
M  V30 5893 N 729.967 -4.65812 -4.42377 0
M  V30 5894 C 730.136 -5.09132 -3.15382 0
M  V30 5895 N 729.109 -4.84021 -2.3716 0
M  V30 5896 C 728.224 -4.18386 -3.20441 0
M  V30 5897 C 726.957 -3.6275 -2.94905 0
M  V30 5898 N 726.392 -3.05008 -4.05243 0
M  V30 5899 C 726.994 -2.98348 -5.28159 0
M  V30 5900 N 728.171 -3.48171 -5.56333 0
M  V30 5901 C 728.746 -4.06869 -4.47212 0
M  V30 5902 H 732.225 -5.39013 -3.70026 0
M  V30 5903 H 733.708 -6.71916 -5.01943 0
M  V30 5904 H 732.014 -7.45796 -6.94223 0
M  V30 5905 H 731.824 -8.89416 -5.05237 0
M  V30 5906 H 730.194 -8.14876 -5.18409 0
M  V30 5907 H 731.036 -5.59989 -2.81362 0
M  V30 5908 H 732.834 -3.27906 -5.43085 0
M  V30 5909 P 734.692 -5.75688 -6.64379 0
M  V30 5910 O 736.113 -6.07692 -7.0558 0
M  V30 5911 O 734.332 -5.88047 -5.19722 0
M  V30 5912 O 734.369 -4.2322 -7.04443 0
M  V30 5913 C 734.208 -3.99785 -8.49201 0
M  V30 5914 C 734.749 -2.60516 -8.79425 0
M  V30 5915 O 733.694 -1.82663 -8.44573 0
M  V30 5916 C 735.967 -2.10343 -8.03628 0
M  V30 5917 O 736.705 -1.09919 -8.67766 0
M  V30 5918 C 735.299 -1.68446 -6.70876 0
M  V30 5919 O 736.097 -0.684109 -6.08265 0
M  V30 5920 C 733.961 -1.17436 -7.18567 0
M  V30 5921 N 732.918 -1.52699 -6.23988 0
M  V30 5922 C 733.087 -2.578 -5.40574 0
M  V30 5923 N 732.06 -2.78966 -4.61193 0
M  V30 5924 C 731.175 -1.78725 -4.95769 0
M  V30 5925 C 729.908 -1.45727 -4.44207 0
M  V30 5926 N 729.309 -2.13994 -3.43613 0
M  V30 5927 N 729.343 -0.374977 -5.05812 0
M  V30 5928 C 729.945 0.345585 -6.05615 0
M  V30 5929 N 731.122 0.0787651 -6.56253 0
M  V30 5930 C 731.697 -1.00499 -5.96189 0
M  V30 5931 H 733.993 -0.0804622 -7.31556 0
M  V30 5932 H 735.176 -2.53396 -6.02698 0
M  V30 5933 H 736.659 -2.93881 -7.85526 0
M  V30 5934 H 734.965 -2.52078 -9.87225 0
M  V30 5935 H 734.775 -4.75072 -9.05887 0
M  V30 5936 H 733.145 -4.05244 -8.76668 0
M  V30 5937 H 729.409 1.20098 -6.4532 0
M  V30 5938 H 733.987 -3.18977 -5.3945 0
M  V30 5939 H 728.379 -1.84983 -3.10004 0
M  V30 5940 H 729.783 -2.9465 -3.00843 0
M  V30 5941 H 735.785 0.177619 -6.34151 0
M  V30 5942 P 737.643 -1.25109 -8.70152 0
M  V30 5943 O 739.065 -1.29744 -9.22016 0
M  V30 5944 O 737.283 -2.13714 -7.55141 0
M  V30 5945 O 737.32 0.248149 -8.21425 0
M  V30 5946 C 737.16 1.22779 -9.30434 0
M  V30 5947 C 737.7 2.56293 -8.80664 0
M  V30 5948 O 736.644 3.02979 -8.09349 0
M  V30 5949 C 738.918 2.57523 -7.89775 0
M  V30 5950 O 739.656 3.7668 -7.89438 0
M  V30 5951 C 738.249 2.20997 -6.55446 0
M  V30 5952 O 739.048 2.71895 -5.48509 0
M  V30 5953 C 736.912 2.89693 -6.67988 0
M  V30 5954 H 736.944 3.88793 -6.19859 0
M  V30 5955 H 738.127 1.12046 -6.44229 0
M  V30 5956 H 739.611 1.7746 -8.19711 0
M  V30 5957 H 737.917 3.20706 -9.67112 0
M  V30 5958 H 737.726 0.901032 -10.1892 0
M  V30 5959 H 736.096 1.33049 -9.56592 0
M  V30 5960 H 738.736 3.57847 -5.23962 0
M  V30 5961 P 740.593 3.65191 -7.99657 0
M  V30 5962 O 742.015 3.89332 -8.45794 0
M  V30 5963 O 740.233 2.28472 -7.50807 0
M  V30 5964 O 740.27 4.64972 -6.77611 0
M  V30 5965 C 740.11 6.06319 -7.16352 0
M  V30 5966 C 740.65 6.91731 -6.02299 0
M  V30 5967 O 739.594 6.92449 -5.17064 0
M  V30 5968 C 741.868 6.43627 -5.25174 0
M  V30 5969 O 742.606 7.43686 -4.60469 0
M  V30 5970 C 741.199 5.40275 -4.31916 0
M  V30 5971 O 741.998 5.25279 -3.14438 0
M  V30 5972 C 739.862 6.04847 -4.05327 0
M  V30 5973 H 739.894 6.62195 -3.11261 0
M  V30 5974 H 741.077 4.42556 -4.81383 0
M  V30 5975 H 742.561 5.92458 -5.93643 0
M  V30 5976 H 740.867 7.92655 -6.402 0
M  V30 5977 H 740.677 6.26671 -8.0846 0
M  V30 5978 H 739.047 6.29101 -7.32804 0
M  V30 5979 H 741.686 5.84315 -2.47318 0
M  V30 5980 P 743.544 7.39546 -4.75277 0
M  V30 5981 O 744.965 7.84882 -5.01092 0
M  V30 5982 O 743.184 5.9812 -5.08098 0
M  V30 5983 O 743.221 7.57503 -3.1866 0
M  V30 5984 C 743.06 8.97452 -2.74862 0
M  V30 5985 C 743.601 9.07548 -1.32709 0
M  V30 5986 O 742.546 8.61972 -0.606089 0
M  V30 5987 C 744.819 8.25383 -0.938334 0
M  V30 5988 O 745.557 8.74577 0.146954 0
M  V30 5989 C 744.151 6.8802 -0.712559 0
M  V30 5990 O 744.949 6.1181 0.188505 0
M  V30 5991 C 742.813 7.27966 -0.139777 0
M  V30 5992 N 741.77 6.39368 -0.623421 0
M  V30 5993 C 741.939 5.71761 -1.78245 0
M  V30 5994 N 740.912 4.962 -2.10491 0
M  V30 5995 C 740.027 5.16158 -1.0635 0
M  V30 5996 C 738.76 4.60425 -0.810266 0
M  V30 5997 N 738.161 3.7057 -1.62914 0
M  V30 5998 N 738.195 5.06 0.348685 0
M  V30 5999 C 738.797 5.94532 1.20395 0
M  V30 6000 N 739.974 6.48452 1.01191 0
M  V30 6001 C 740.549 6.04423 -0.146291 0
M  V30 6002 H 742.845 7.25255 0.961469 0
M  V30 6003 H 744.028 6.32625 -1.65044 0
M  V30 6004 H 745.511 8.19355 -1.79097 0
M  V30 6005 H 743.817 10.1305 -1.09016 0
M  V30 6006 H 743.627 9.64276 -3.41316 0
M  V30 6007 H 741.997 9.25417 -2.76357 0
M  V30 6008 H 738.261 6.21659 2.10714 0
M  V30 6009 H 742.839 5.79354 -2.38959 0
M  V30 6010 H 737.231 3.33174 -1.38982 0
M  V30 6011 H 738.635 3.39714 -2.48836 0
M  V30 6012 H 744.637 6.25169 1.0783 0
M  V30 6013 P 746.494 8.791 5.38483e-12 0
M  V30 6014 O 747.916 9.31096 0.027933 0
M  V30 6015 O 746.134 7.77869 -1.04071 0
M  V30 6016 O 746.171 8.09533 1.41463 0
M  V30 6017 C 746.011 9.0349 2.53943 0
M  V30 6018 C 746.551 8.35226 3.79016 0
M  V30 6019 O 745.495 7.57992 4.15078 0
M  V30 6020 C 747.769 7.45087 3.67298 0
M  V30 6021 O 748.507 7.27796 4.85194 0
M  V30 6022 C 747.1 6.17323 3.12027 0
M  V30 6023 O 747.899 5.04231 3.47188 0
M  V30 6024 C 745.763 6.19961 3.81809 0
M  V30 6025 H 745.795 5.58218 4.73051 0
M  V30 6026 H 746.978 6.21726 2.02589 0
M  V30 6027 H 748.462 7.86112 2.9231 0
M  V30 6028 H 746.768 9.11627 4.55076 0
M  V30 6029 H 746.578 9.9573 2.34194 0
M  V30 6030 H 744.948 9.2792 2.67832 0
M  V30 6031 H 747.587 4.67702 4.28772 0
M  V30 6032 P 749.445 7.39546 4.75277 0
M  V30 6033 O 750.867 7.81945 5.05847 0
M  V30 6034 O 749.085 7.1065 3.32998 0
M  V30 6035 O 749.122 6.04542 5.56673 0
M  V30 6036 C 748.962 6.22772 7.02095 0
M  V30 6037 C 749.502 4.97671 7.70322 0
M  V30 6038 O 748.447 4.13256 7.58987 0
M  V30 6039 C 750.72 4.28231 7.11815 0
M  V30 6040 O 751.458 3.49945 8.01648 0
M  V30 6041 C 750.052 3.5063 5.96244 0
M  V30 6042 O 750.85 2.36443 5.64589 0
M  V30 6043 C 748.714 3.15122 6.56374 0
M  V30 6044 N 747.671 3.22311 5.55692 0
M  V30 6045 C 747.733 4.14382 4.59701 0
M  V30 6046 N 746.688 4.04476 3.76958 0
M  V30 6047 C 745.954 3.04892 4.26534 0
M  V30 6048 C 744.648 2.57447 3.88189 0
M  V30 6049 O 743.915 2.9785 2.96543 0
M  V30 6050 N 744.218 1.55228 4.65922 0
M  V30 6051 C 744.967 1.01152 5.73447 0
M  V30 6052 N 744.37 -0.0472117 6.37783 0
M  V30 6053 N 746.12 1.467 6.13813 0
M  V30 6054 C 746.577 2.4931 5.38487 0
M  V30 6055 H 748.746 2.13853 6.99751 0
M  V30 6056 H 749.929 4.13438 5.06482 0
M  V30 6057 H 751.414 5.02614 6.71414 0
M  V30 6058 H 749.719 5.20877 8.75697 0
M  V30 6059 H 749.529 7.11046 7.35349 0
M  V30 6060 H 747.898 6.35815 7.26986 0
M  V30 6061 H 743.322 1.15238 4.46468 0
M  V30 6062 H 748.529 4.88312 4.49647 0
M  V30 6063 H 743.459 -0.396382 6.05203 0
M  V30 6064 H 744.835 -0.484997 7.18465 0
M  V30 6065 H 750.539 1.61619 6.13468 0
M  V30 6066 P 752.395 3.65191 7.99657 0
M  V30 6067 O 753.817 3.8425 8.48115 0
M  V30 6068 O 752.035 4.17805 6.64342 0
M  V30 6069 O 752.072 2.07613 7.95143 0
M  V30 6070 C 751.912 1.44328 9.27336 0
M  V30 6071 C 752.452 0.0220036 9.17197 0
M  V30 6072 O 751.396 -0.626867 8.61923 0
M  V30 6073 C 753.67 -0.24586 8.30336 0
M  V30 6074 O 754.408 -1.39011 8.63583 0
M  V30 6075 C 753.001 -0.273849 6.91158 0
M  V30 6076 O 753.8 -1.06348 6.02892 0
M  V30 6077 C 751.664 -0.897649 7.22545 0
M  V30 6078 H 751.696 -1.9841 7.04286 0
M  V30 6079 H 752.879 0.739928 6.497 0
M  V30 6080 H 754.363 0.60668 8.36503 0
M  V30 6081 H 752.669 -0.352479 10.1829 0
M  V30 6082 H 752.479 2.00611 10.0304 0
M  V30 6083 H 750.849 1.41843 9.55327 0
M  V30 6084 H 753.488 -1.95734 6.03555 0
M  V30 6085 P 755.346 -1.25109 8.70152 0
M  V30 6086 O 756.768 -1.35274 9.21221 0
M  V30 6087 O 754.986 -0.0769065 7.84762 0
M  V30 6088 O 755.023 -2.55232 7.81161 0
M  V30 6089 C 754.863 -3.79939 8.58154 0
M  V30 6090 C 755.403 -4.94023 7.72785 0
M  V30 6091 O 754.347 -5.18726 6.91205 0
M  V30 6092 C 756.621 -4.69597 6.85231 0
M  V30 6093 O 757.359 -5.83832 6.51337 0
M  V30 6094 C 755.952 -3.96706 5.66633 0
M  V30 6095 O 756.751 -4.15414 4.49689 0
M  V30 6096 C 754.615 -4.66153 5.59313 0
M  V30 6097 H 754.647 -5.47679 4.85214 0
M  V30 6098 H 755.83 -2.89008 5.86566 0
M  V30 6099 H 757.314 -4.0121 7.36511 0
M  V30 6100 H 755.62 -5.80182 8.37584 0
M  V30 6101 H 755.43 -3.73517 9.52265 0
M  V30 6102 H 753.8 -3.97163 8.80359 0
M  V30 6103 H 756.439 -4.90969 4.01921 0
M  V30 6104 P 758.296 -5.75688 6.64379 0
M  V30 6105 O 759.718 -6.11849 7.01846 0
M  V30 6106 O 757.936 -4.30744 6.56026 0
M  V30 6107 O 757.973 -6.37042 5.19165 0
M  V30 6108 C 757.813 -7.83578 5.16515 0
M  V30 6109 C 758.353 -8.33398 3.83019 0
M  V30 6110 O 757.297 -8.10074 3.01034 0
M  V30 6111 C 759.571 -7.65514 3.2257 0
M  V30 6112 O 760.309 -8.4329 2.32297 0
M  V30 6113 C 758.902 -6.40075 2.62207 0
M  V30 6114 O 759.701 -5.92589 1.53712 0
M  V30 6115 C 757.565 -6.9454 2.18503 0
M  V30 6116 H 757.597 -7.23063 1.12091 0
M  V30 6117 H 758.78 -5.6025 3.37201 0
M  V30 6118 H 760.264 -7.35707 4.02681 0
M  V30 6119 H 758.57 -9.40912 3.9095 0
M  V30 6120 H 758.38 -8.29056 5.99158 0
M  V30 6121 H 756.75 -8.10073 5.25882 0
M  V30 6122 H 759.389 -6.30324 0.726794 0
M  V30 6123 P 761.247 -8.4349 2.47671 0
M  V30 6124 O 762.668 -8.94263 2.59668 0
M  V30 6125 O 760.887 -7.1704 3.19006 0
M  V30 6126 O 760.924 -8.16596 0.923387 0
M  V30 6127 C 760.763 -9.38537 0.108869 0
M  V30 6128 C 761.304 -9.08175 -1.28353 0
M  V30 6129 O 760.249 -8.44131 -1.84692 0
M  V30 6130 C 762.522 -8.18386 -1.42505 0
M  V30 6131 O 763.26 -8.3501 -2.60497 0
M  V30 6132 C 761.854 -6.80225 -1.25468 0
M  V30 6133 O 762.652 -5.81716 -1.90454 0
M  V30 6134 C 760.516 -7.02416 -1.9168 0
M  V30 6135 N 759.473 -6.31033 -1.20314 0
M  V30 6136 C 759.642 -5.98817 0.0994088 0
M  V30 6137 N 758.615 -5.35403 0.621694 0
M  V30 6138 C 757.73 -5.25212 -0.43376 0
M  V30 6139 C 756.463 -4.64602 -0.519722 0
M  V30 6140 N 755.864 -4.01457 0.519136 0
M  V30 6141 N 755.898 -4.7568 -1.76013 0
M  V30 6142 C 756.5 -5.3653 -2.83017 0
M  V30 6143 N 757.677 -5.93676 -2.79782 0
M  V30 6144 C 758.252 -5.84061 -1.56249 0
M  V30 6145 H 760.548 -6.68789 -2.9658 0
M  V30 6146 H 761.731 -6.53498 -0.198729 0
M  V30 6147 H 763.214 -8.36622 -0.589963 0
M  V30 6148 H 761.52 -10.0273 -1.8081 0
M  V30 6149 H 761.33 -10.2138 0.558219 0
M  V30 6150 H 759.7 -9.6579 0.0444202 0
M  V30 6151 H 755.964 -5.37113 -3.77321 0
M  V30 6152 H 760.542 -6.23209 0.660562 0
M  V30 6153 H 754.934 -3.58834 0.394862 0
M  V30 6154 H 756.338 -3.96059 1.43048 0
M  V30 6155 H 762.34 -5.69466 -2.79593 0
M  V30 6156 P 764.198 -8.4349 -2.47671 0
M  V30 6157 O 765.62 -8.92593 -2.65 0
M  V30 6158 O 763.838 -7.7568 -1.19296 0
M  V30 6159 O 763.875 -7.36886 -3.63805 0
M  V30 6160 C 763.715 -7.95349 -4.982 0
M  V30 6161 C 764.255 -6.94612 -5.98974 0
M  V30 6162 O 763.199 -6.10347 -6.11815 0
M  V30 6163 C 765.473 -6.11426 -5.62335 0
M  V30 6164 O 766.211 -5.6162 -6.70584 0
M  V30 6165 C 764.804 -5.04409 -4.73308 0
M  V30 6166 O 765.603 -3.85992 -4.75183 0
M  V30 6167 C 763.467 -4.8728 -5.41006 0
M  V30 6168 H 763.499 -4.02333 -6.11157 0
M  V30 6169 H 764.682 -5.39466 -3.69543 0
M  V30 6170 H 766.166 -6.71916 -5.01943 0
M  V30 6171 H 764.472 -7.4649 -6.93477 0
M  V30 6172 H 764.282 -8.89416 -5.05237 0
M  V30 6173 H 762.652 -8.14876 -5.18409 0
M  V30 6174 H 765.291 -3.27957 -5.4317 0
M  V30 6175 P 767.148 -5.75688 -6.64379 0
M  V30 6176 O 768.57 -6.07627 -7.05504 0
M  V30 6177 O 766.788 -5.88047 -5.19722 0
M  V30 6178 O 766.825 -4.2322 -7.04443 0
M  V30 6179 C 766.665 -3.99743 -8.4911 0
M  V30 6180 C 767.205 -2.60516 -8.79425 0
M  V30 6181 O 766.149 -1.82684 -8.4467 0
M  V30 6182 C 768.423 -2.10343 -8.03628 0
M  V30 6183 O 769.161 -1.09919 -8.67766 0
M  V30 6184 C 767.754 -1.68446 -6.70876 0
M  V30 6185 O 768.553 -0.678137 -6.08433 0
M  V30 6186 C 766.417 -1.17436 -7.18567 0
M  V30 6187 H 766.449 -0.0804732 -7.31656 0
M  V30 6188 H 767.632 -2.54037 -6.02537 0
M  V30 6189 H 769.116 -2.93881 -7.85526 0
M  V30 6190 H 767.422 -2.53065 -9.86973 0
M  V30 6191 H 767.232 -4.75072 -9.05887 0
M  V30 6192 H 765.602 -4.05244 -8.76668 0
M  V30 6193 H 768.241 0.177647 -6.34251 0
M  V30 6194 P 770.099 -1.25109 -8.70152 0
M  V30 6195 O 771.52 -1.29758 -9.22115 0
M  V30 6196 O 769.739 -2.13714 -7.55141 0
M  V30 6197 O 769.776 0.248149 -8.21425 0
M  V30 6198 C 769.615 1.22792 -9.30533 0
M  V30 6199 C 770.156 2.56293 -8.80664 0
M  V30 6200 O 769.101 3.02944 -8.09255 0
M  V30 6201 C 771.374 2.57523 -7.89775 0
M  V30 6202 O 772.112 3.7668 -7.89438 0
M  V30 6203 C 770.706 2.20997 -6.55446 0
M  V30 6204 O 771.504 2.71302 -5.48691 0
M  V30 6205 C 769.368 2.89693 -6.67988 0
M  V30 6206 N 768.325 2.08895 -6.07487 0
M  V30 6207 C 768.494 0.753809 -5.94137 0
M  V30 6208 N 767.467 0.146592 -5.38801 0
M  V30 6209 C 766.582 1.1768 -5.13693 0
M  V30 6210 C 765.315 1.17563 -4.52477 0
M  V30 6211 N 764.75 2.41918 -4.45789 0
M  V30 6212 C 765.352 3.56493 -4.90792 0
M  V30 6213 N 766.529 3.61423 -5.47817 0
M  V30 6214 C 767.104 2.37779 -5.5588 0
M  V30 6215 H 770.583 1.12673 -6.44018 0
M  V30 6216 H 772.066 1.7746 -8.19711 0
M  V30 6217 H 770.372 3.21673 -9.66791 0
M  V30 6218 H 770.182 0.901032 -10.1892 0
M  V30 6219 H 768.552 1.33049 -9.56592 0
M  V30 6220 H 769.394 0.233081 -6.26266 0
M  V30 6221 H 771.192 3.5779 -5.23879 0
M  V30 6222 P 773.049 3.65191 -7.99657 0
M  V30 6223 O 774.47 3.89374 -8.45885 0
M  V30 6224 O 772.689 2.28472 -7.50807 0
M  V30 6225 O 772.726 4.64972 -6.77611 0
M  V30 6226 C 772.565 6.06383 -7.16428 0
M  V30 6227 C 773.106 6.91731 -6.02299 0
M  V30 6228 O 772.051 6.92369 -5.17005 0
M  V30 6229 C 774.324 6.43627 -5.25174 0
M  V30 6230 O 775.062 7.43686 -4.60469 0
M  V30 6231 C 773.656 5.40275 -4.31916 0
M  V30 6232 O 774.454 5.24878 -3.14911 0
M  V30 6233 C 772.318 6.04847 -4.05327 0
M  V30 6234 N 771.275 5.04166 -3.98114 0
M  V30 6235 C 771.444 3.84629 -4.59066 0
M  V30 6236 N 770.417 3.0363 -4.45343 0
M  V30 6237 C 769.532 3.76722 -3.68523 0
M  V30 6238 C 768.265 3.43528 -3.17088 0
M  V30 6239 N 767.666 2.23665 -3.37397 0
M  V30 6240 N 767.7 4.44526 -2.44231 0
M  V30 6241 C 768.302 5.65243 -2.20146 0
M  V30 6242 N 769.479 6.00221 -2.65453 0
M  V30 6243 C 770.054 5.00564 -3.39083 0
M  V30 6244 H 772.35 6.62104 -3.11218 0
M  V30 6245 H 773.533 4.42969 -4.80867 0
M  V30 6246 H 775.016 5.92458 -5.93643 0
M  V30 6247 H 773.322 7.93295 -6.39407 0
M  V30 6248 H 773.132 6.26671 -8.0846 0
M  V30 6249 H 771.502 6.29101 -7.32804 0
M  V30 6250 H 767.766 6.36894 -1.5883 0
M  V30 6251 H 772.344 3.58193 -5.14248 0
M  V30 6252 H 766.736 2.05145 -2.97047 0
M  V30 6253 H 768.14 1.51255 -3.92998 0
M  V30 6254 H 774.142 5.84223 -2.47279 0
M  V30 6255 P 776 7.39546 -4.75277 0
M  V30 6256 O 777.422 7.84798 -5.01039 0
M  V30 6257 O 775.64 5.9812 -5.08098 0
M  V30 6258 O 775.677 7.57503 -3.1866 0
M  V30 6259 C 775.517 8.97357 -2.74833 0
M  V30 6260 C 776.057 9.07548 -1.32709 0
M  V30 6261 O 775.001 8.62072 -0.606159 0
M  V30 6262 C 777.275 8.25383 -0.938334 0
M  V30 6263 O 778.013 8.74577 0.146954 0
M  V30 6264 C 776.606 6.8802 -0.712559 0
M  V30 6265 O 777.405 6.1189 0.194655 0
M  V30 6266 C 775.269 7.27966 -0.139777 0
M  V30 6267 H 775.301 7.25354 0.961601 0
M  V30 6268 H 776.484 6.32557 -1.65702 0
M  V30 6269 H 777.968 8.19355 -1.79097 0
M  V30 6270 H 776.274 10.1294 -1.10029 0
M  V30 6271 H 776.084 9.64276 -3.41316 0
M  V30 6272 H 774.454 9.25417 -2.76357 0
M  V30 6273 H 777.093 6.25267 1.07847 0
M  V30 6274 P 778.95 8.791 5.69499e-12 0
M  V30 6275 O 780.372 9.31096 0.027933 0
M  V30 6276 O 778.59 7.77869 -1.04071 0
M  V30 6277 O 778.627 8.09533 1.41463 0
M  V30 6278 C 778.467 9.0349 2.53943 0
M  V30 6279 C 779.007 8.35226 3.79016 0
M  V30 6280 O 777.951 7.57992 4.15078 0
M  V30 6281 C 780.225 7.45087 3.67298 0
M  V30 6282 O 780.963 7.27796 4.85194 0
M  V30 6283 C 779.556 6.17323 3.12027 0
M  V30 6284 O 780.355 5.04231 3.47188 0
M  V30 6285 C 778.219 6.19961 3.81809 0
M  V30 6286 H 778.251 5.58218 4.73051 0
M  V30 6287 H 779.434 6.21726 2.02589 0
M  V30 6288 H 780.918 7.86112 2.9231 0
M  V30 6289 H 779.224 9.11627 4.55076 0
M  V30 6290 H 779.034 9.9573 2.34194 0
M  V30 6291 H 777.404 9.2792 2.67832 0
M  V30 6292 H 780.043 4.67702 4.28772 0
M  V30 6293 P 781.901 7.39546 4.75277 0
M  V30 6294 O 783.323 7.81777 5.05738 0
M  V30 6295 O 781.541 7.1065 3.32998 0
M  V30 6296 O 781.578 6.04542 5.56673 0
M  V30 6297 C 781.418 6.22772 7.02095 0
M  V30 6298 C 781.958 4.97725 7.70406 0
M  V30 6299 O 780.902 4.13256 7.58987 0
M  V30 6300 C 783.176 4.28231 7.11815 0
M  V30 6301 O 783.914 3.49945 8.01648 0
M  V30 6302 C 782.507 3.5063 5.96244 0
M  V30 6303 O 783.306 2.36482 5.64681 0
M  V30 6304 C 781.17 3.15122 6.56374 0
M  V30 6305 H 781.202 2.13853 6.99751 0
M  V30 6306 H 782.385 4.13501 5.06559 0
M  V30 6307 H 783.869 5.03285 6.70911 0
M  V30 6308 H 782.175 5.20877 8.75697 0
M  V30 6309 H 781.985 7.11046 7.35349 0
M  V30 6310 H 780.355 6.35815 7.26986 0
M  V30 6311 H 782.994 1.61644 6.13565 0
M  V30 6312 P 784.852 3.65191 7.99657 0
M  V30 6313 O 786.274 3.84333 8.48297 0
M  V30 6314 O 784.492 4.17805 6.64342 0
M  V30 6315 O 784.529 2.07613 7.95143 0
M  V30 6316 C 784.369 1.44328 9.27336 0
M  V30 6317 C 784.909 0.0220012 9.17097 0
M  V30 6318 O 783.854 -0.626867 8.61923 0
M  V30 6319 C 786.127 -0.24586 8.30336 0
M  V30 6320 O 786.865 -1.39011 8.63583 0
M  V30 6321 C 785.459 -0.273849 6.91158 0
M  V30 6322 O 786.257 -1.06331 6.02794 0
M  V30 6323 C 784.121 -0.897649 7.22545 0
M  V30 6324 N 783.078 -0.292839 6.41732 0
M  V30 6325 C 783.14 1.00068 6.10757 0
M  V30 6326 N 782.095 1.36468 5.35794 0
M  V30 6327 C 781.361 0.258894 5.2366 0
M  V30 6328 C 780.055 0.0670682 4.65752 0
M  V30 6329 O 779.322 0.902443 4.10497 0
M  V30 6330 N 779.625 -1.2131 4.75881 0
M  V30 6331 C 780.374 -2.24934 5.37101 0
M  V30 6332 N 779.777 -3.48783 5.33984 0
M  V30 6333 N 781.527 -2.0844 5.95684 0
M  V30 6334 C 781.984 -0.81395 5.87791 0
M  V30 6335 H 784.153 -1.9841 7.04286 0
M  V30 6336 H 785.336 0.739815 6.49601 0
M  V30 6337 H 786.821 0.598315 8.36563 0
M  V30 6338 H 785.126 -0.352479 10.1829 0
M  V30 6339 H 784.936 2.00611 10.0304 0
M  V30 6340 H 783.305 1.41843 9.55327 0
M  V30 6341 H 778.729 -1.44434 4.37895 0
M  V30 6342 H 783.936 1.67697 6.42268 0
M  V30 6343 H 778.866 -3.60543 4.87699 0
M  V30 6344 H 780.242 -4.29232 5.7819 0
M  V30 6345 H 785.946 -1.95704 6.0346 0
M  V30 6346 P 787.802 -1.25109 8.70152 0
M  V30 6347 O 789.224 -1.35274 9.21221 0
M  V30 6348 O 787.442 -0.0769065 7.84762 0
M  V30 6349 O 787.479 -2.55232 7.81161 0
M  V30 6350 C 787.319 -3.79939 8.58154 0
M  V30 6351 C 787.859 -4.94023 7.72785 0
M  V30 6352 O 786.803 -5.18726 6.91205 0
M  V30 6353 C 789.077 -4.69597 6.85231 0
M  V30 6354 O 789.815 -5.83832 6.51337 0
M  V30 6355 C 788.408 -3.96706 5.66633 0
M  V30 6356 O 789.207 -4.15414 4.49689 0
M  V30 6357 C 787.071 -4.66153 5.59313 0
M  V30 6358 H 787.103 -5.47679 4.85214 0
M  V30 6359 H 788.286 -2.89008 5.86566 0
M  V30 6360 H 789.77 -4.0121 7.36511 0
M  V30 6361 H 788.076 -5.80182 8.37584 0
M  V30 6362 H 787.886 -3.73517 9.52265 0
M  V30 6363 H 786.256 -3.97163 8.80359 0
M  V30 6364 H 788.895 -4.90969 4.01921 0
M  V30 6365 H 791.448 -5.37116 6.25149 0
M  V30 END ATOM
M  V30 BEGIN BOND
M  V30 END BOND
M  V30 END CTAB
M  END
$$$$
