drugbank_target|P9WJM7 Mycothiol acetyltransferase (DB01992)
 OpenBabel12092120243D

  0  0  0     0  0            999 V3000
M  V30 BEGIN CTAB
M  V30 COUNTS 4742 4791 0 0 0
M  V30 BEGIN ATOM
M  V30 1 H -0.908 1.98254 -0.117106 0
M  V30 2 N 0 1.576 0 0
M  V30 3 C 0.933 2.03868 1.02534 0
M  V30 4 C 1.911 0.928543 1.3348 0
M  V30 5 O 3.095 1.19667 1.45644 0
M  V30 6 C 0.222 2.43627 2.35294 0
M  V30 7 C -0.732 3.65373 2.2001 0
M  V30 8 S 0.101 5.13292 1.52614 0
M  V30 9 C 1.257 5.56322 2.86805 0
M  V30 10 H 1.49 2.90518 0.631377 0
M  V30 11 H -0.977 1.52953 0.210867 0
M  V30 12 H 0.981 2.67203 3.11629 0
M  V30 13 H -0.358 1.57376 2.7183 0
M  V30 14 H -1.165 3.90944 3.18086 0
M  V30 15 H -1.563 3.418 1.51819 0
M  V30 16 H 0.729 5.58782 3.83104 0
M  V30 17 H 1.672 6.56266 2.65933 0
M  V30 18 H 2.08 4.83886 2.90714 0
M  V30 19 N 1.4781 -0.272755 1.55222 0
M  V30 20 C 2.7061 -1.02255 1.79865 0
M  V30 21 C 3.1211 -1.79924 0.572088 0
M  V30 22 O 2.4781 -1.76638 -0.458842 0
M  V30 23 C 2.5291 -1.98094 3.02392 0
M  V30 24 O 2.2501 -1.23572 4.20311 0
M  V30 25 C 3.7511 -2.84884 3.39641 0
M  V30 26 H 0.9711 -0.302057 0.599168 0
M  V30 27 H 3.5151 -0.303465 2.02236 0
M  V30 28 H 1.6701 -2.65465 2.82147 0
M  V30 29 H 2.0841 -1.88172 4.89583 0
M  V30 30 H 3.5581 -3.47927 4.28545 0
M  V30 31 H 4.0351 -3.54665 2.59055 0
M  V30 32 H 4.6411 -2.23003 3.62146 0
M  V30 33 N 2.9562 -1.48159 -0.537278 0
M  V30 34 C 3.9192 -1.61665 -1.62472 0
M  V30 35 C 4.9192 -0.490395 -1.5314 0
M  V30 36 O 6.1092 -0.755998 -1.5694 0
M  V30 37 C 3.2412 -1.57997 -3.02076 0
M  V30 38 H 4.4342 -2.58621 -1.51839 0
M  V30 39 H 1.9872 -1.36647 -0.758771 0
M  V30 40 H 2.7222 -0.624913 -3.18222 0
M  V30 41 H 2.5072 -2.39755 -3.10258 0
M  V30 42 H 3.9972 -1.70627 -3.81151 0
M  V30 43 N 4.4343 0.785586 -1.36625 0
M  V30 44 C 5.3643 1.91259 -1.33949 0
M  V30 45 C 6.3453 1.68795 -0.210325 0
M  V30 46 O 7.5303 1.89854 -0.408561 0
M  V30 47 C 4.6603 3.28339 -1.13186 0
M  V30 48 C 3.6143 3.65335 -2.22967 0
M  V30 49 C 2.9403 5.00806 -1.87342 0
M  V30 50 C 4.2403 3.7352 -3.65075 0
M  V30 51 H 5.9343 1.93755 -2.28253 0
M  V30 52 H 3.4803 0.930788 -1.09874 0
M  V30 53 H 5.4333 4.06804 -1.09948 0
M  V30 54 H 4.1573 3.2624 -0.153332 0
M  V30 55 H 2.8163 2.89169 -2.25337 0
M  V30 56 H 2.4643 4.95233 -0.880545 0
M  V30 57 H 2.1643 5.26529 -2.60846 0
M  V30 58 H 3.6883 5.81687 -1.85667 0
M  V30 59 H 5.1023 4.42168 -3.64911 0
M  V30 60 H 3.4993 4.10731 -4.37516 0
M  V30 61 H 4.5693 2.74527 -3.99703 0
M  V30 62 N 5.9124 1.20967 1.01018 0
M  V30 63 C 7.1894 0.93264 1.71934 0
M  V30 64 C 7.5694 -0.55692 2.03621 0
M  V30 65 O 6.9174 -1.52035 1.7058 0
M  V30 66 C 7.1274 1.81233 2.98254 0
M  V30 67 C 8.4754 2.05804 3.71389 0
M  V30 68 O 9.4994 1.78539 3.08225 0
M  V30 69 O 8.3584 2.51888 4.84989 0
M  V30 70 H 5.4524 0.349272 0.749625 0
M  V30 71 H 7.9984 1.31871 1.06808 0
M  V30 72 H 6.7704 2.82067 2.71208 0
M  V30 73 H 6.3934 1.42674 3.7112 0
M  V30 74 N 7.3905 -1.2043 1.01659 0
M  V30 75 C 8.6365 -1.90356 0.716674 0
M  V30 76 C 8.9915 -1.77367 -0.745557 0
M  V30 77 O 8.2845 -1.1471 -1.53467 0
M  V30 78 C 8.4785 -3.40464 1.08714 0
M  V30 79 C 8.3075 -3.6806 2.58384 0
M  V30 80 C 7.0775 -3.86775 3.25167 0
M  V30 81 C 9.2755 -3.70623 3.56572 0
M  V30 82 N 7.2575 -4.01889 4.64067 0
M  V30 83 C 8.6285 -3.91161 4.81034 0
M  V30 84 C 10.6835 -3.53586 3.50544 0
M  V30 85 C 9.3865 -3.96428 6.00198 0
M  V30 86 C 11.4125 -3.60125 4.6911 0
M  V30 87 C 10.7745 -3.81135 5.92381 0
M  V30 88 H 6.8735 -0.716226 0.313918 0
M  V30 89 H 9.4575 -1.44815 1.30141 0
M  V30 90 H 7.6285 -3.84757 0.530745 0
M  V30 91 H 9.3605 -3.97863 0.740763 0
M  V30 92 H 6.1155 -3.85156 2.75594 0
M  V30 93 H 6.5395 -4.13323 5.36184 0
M  V30 94 H 11.1815 -3.36308 2.56235 0
M  V30 95 H 8.8995 -4.12502 6.94887 0
M  V30 96 H 12.4855 -3.4825 4.66062 0
M  V30 97 H 11.3655 -3.86054 6.82592 0
M  V30 98 N 8.8686 -0.792821 -1.36206 0
M  V30 99 C 10.2846 -0.474903 -1.52371 0
M  V30 100 C 10.4846 1.00622 -1.74578 0
M  V30 101 O 9.5406 1.79162 -1.77924 0
M  V30 102 C 10.8536 -1.3083 -2.70747 0
M  V30 103 C 12.4016 -1.30234 -2.84619 0
M  V30 104 C 12.8766 -2.11956 -4.06004 0
M  V30 105 N 14.3676 -2.09419 -4.13156 0
M  V30 106 C 15.1026 -2.69419 -5.06163 0
M  V30 107 N 14.5986 -3.3829 -6.04592 0
M  V30 108 N 16.3916 -2.59134 -4.98804 0
M  V30 109 H 8.5426 -1.75222 -1.20046 0
M  V30 110 H 10.8056 -0.745024 -0.586211 0
M  V30 111 H 10.5116 -2.35881 -2.6087 0
M  V30 112 H 10.3856 -0.95196 -3.6499 0
M  V30 113 H 12.7726 -0.259748 -2.93955 0
M  V30 114 H 12.8536 -1.69847 -1.91274 0
M  V30 115 H 12.4976 -3.16248 -3.97429 0
M  V30 116 H 12.4276 -1.69711 -4.98503 0
M  V30 117 H 14.9186 -1.59297 -3.42685 0
M  V30 118 H 15.2316 -3.81394 -6.7213 0
M  V30 119 H 13.5766 -3.42393 -6.04807 0
M  V30 120 H 16.7676 -2.04927 -4.20859 0
M  V30 121 H 16.9406 -3.06185 -5.711 0
M  V30 122 N 10.3467 1.47872 -0.545128 0
M  V30 123 C 11.5717 2.07391 -0.0190611 0
M  V30 124 C 11.9967 1.39688 1.25971 0
M  V30 125 O 11.3547 0.467816 1.7516 0
M  V30 126 C 11.4027 3.60188 0.172335 0
M  V30 127 O 10.5067 3.9339 1.23766 0
M  V30 128 H 9.8477 0.662411 -0.0459059 0
M  V30 129 H 12.3777 1.90066 -0.757365 0
M  V30 130 H 12.3877 4.06129 0.390305 0
M  V30 131 H 11.0627 4.08865 -0.761725 0
M  V30 132 H 9.6397 3.5921 1.00114 0
M  V30 133 N 11.8248 0.280983 1.55075 0
M  V30 134 C 12.7878 -0.590896 2.21452 0
M  V30 135 C 13.7878 -1.07682 1.19421 0
M  V30 136 O 14.9778 -0.97605 1.44288 0
M  V30 137 C 12.1098 -1.81587 2.88511 0
M  V30 138 H 13.3028 -0.0112554 2.99898 0
M  V30 139 H 10.8558 0.0316438 1.56268 0
M  V30 140 H 11.5908 -2.43587 2.14093 0
M  V30 141 H 11.3758 -1.4753 3.63287 0
M  V30 142 H 12.8658 -2.43575 3.39206 0
M  V30 143 N 13.3029 -1.57598 0.00835791 0
M  V30 144 C 14.2329 -2.1198 -0.979113 0
M  V30 145 C 15.2139 -1.03091 -1.35301 0
M  V30 146 O 16.3989 -1.30818 -1.43528 0
M  V30 147 C 13.5289 -2.62995 -2.26828 0
M  V30 148 C 12.4829 -3.76485 -2.03576 0
M  V30 149 C 11.8089 -4.13846 -3.38579 0
M  V30 150 C 13.1089 -5.0342 -1.39161 0
M  V30 151 H 14.8029 -2.94738 -0.526281 0
M  V30 152 H 12.3489 -1.41783 -0.251704 0
M  V30 153 H 14.3019 -2.99669 -2.96271 0
M  V30 154 H 13.0259 -1.7737 -2.7424 0
M  V30 155 H 11.6849 -3.40217 -1.36557 0
M  V30 156 H 11.3329 -3.25232 -3.83709 0
M  V30 157 H 11.0329 -4.90312 -3.23834 0
M  V30 158 H 12.5569 -4.53086 -4.09323 0
M  V30 159 H 13.9709 -5.37812 -1.98573 0
M  V30 160 H 12.3679 -5.84746 -1.34878 0
M  V30 161 H 13.4379 -4.83548 -0.361868 0
M  V30 162 N 14.781 0.264519 -1.55364 0
M  V30 163 C 16.009 1.013 -1.80405 0
M  V30 164 C 16.424 1.79618 -0.581622 0
M  V30 165 O 15.781 1.76879 0.449468 0
M  V30 166 C 15.832 1.96487 -3.03439 0
M  V30 167 O 15.553 1.21341 -4.20961 0
M  V30 168 C 17.054 2.83079 -3.41147 0
M  V30 169 H 14.274 0.298875 -0.600762 0
M  V30 170 H 16.818 0.292736 -2.02394 0
M  V30 171 H 14.973 2.63965 -2.83551 0
M  V30 172 H 15.387 1.85573 -4.90574 0
M  V30 173 H 16.861 3.4565 -4.30384 0
M  V30 174 H 17.338 3.53286 -2.60932 0
M  V30 175 H 17.944 2.2108 -3.63323 0
M  V30 176 N 16.2591 1.48442 0.529413 0
M  V30 177 C 17.2221 1.62524 1.61612 0
M  V30 178 C 18.2221 0.498509 1.52877 0
M  V30 179 O 19.4121 0.76431 1.56537 0
M  V30 180 C 16.5441 1.59597 3.01233 0
M  V30 181 H 17.7371 2.59423 1.50465 0
M  V30 182 H 15.2901 1.37047 0.751514 0
M  V30 183 H 16.0251 0.641781 3.17886 0
M  V30 184 H 15.8101 2.41397 3.08982 0
M  V30 185 H 17.3001 1.72646 3.80241 0
M  V30 186 N 17.7372 -0.778329 1.37039 0
M  V30 187 C 19.0142 -1.52551 1.22424 0
M  V30 188 C 19.3942 -2.10288 -0.184964 0
M  V30 189 O 18.7422 -1.94953 -1.19187 0
M  V30 190 C 18.9522 -2.61164 2.31504 0
M  V30 191 C 20.3002 -3.28746 2.68721 0
M  V30 192 O 21.3242 -2.71455 2.30631 0
M  V30 193 O 20.1832 -4.3231 3.3432 0
M  V30 194 H 17.2772 -0.675343 0.477326 0
M  V30 195 H 19.8232 -0.815859 1.48801 0
M  V30 196 H 18.5952 -2.16574 3.25901 0
M  V30 197 H 18.2182 -3.39737 2.06554 0
M  V30 198 N 19.2153 -1.21501 -1.00376 0
M  V30 199 C 20.1253 -0.991447 -2.12621 0
M  V30 200 C 21.1413 0.0568446 -1.73907 0
M  V30 201 O 22.3173 -0.13348 -2.00957 0
M  V30 202 C 19.3823 -0.560312 -3.42142 0
M  V30 203 C 18.4433 -1.68096 -3.95022 0
M  V30 204 C 17.6763 -1.2703 -5.18362 0
M  V30 205 O 17.8993 -0.144438 -5.70217 0
M  V30 206 O 16.8333 -2.08269 -5.64719 0
M  V30 207 H 20.6593 -1.93158 -2.34358 0
M  V30 208 H 18.2443 -0.999999 -1.10997 0
M  V30 209 H 20.1263 -0.329724 -4.20108 0
M  V30 210 H 18.8013 0.351089 -3.2179 0
M  V30 211 H 17.7083 -1.96597 -3.18278 0
M  V30 212 H 19.0413 -2.56983 -4.19786 0
M  V30 213 N 20.6934 1.19889 -1.02296 0
M  V30 214 C 21.6254 2.22334 -0.556787 0
M  V30 215 C 22.6384 1.58674 0.364199 0
M  V30 216 O 23.8274 1.77768 0.161533 0
M  V30 217 C 20.9274 3.38257 0.208694 0
M  V30 218 C 20.1004 4.31504 -0.71577 0
M  V30 219 C 19.1594 5.262 0.00325597 0
M  V30 220 O 18.1854 5.65798 -0.621357 0
M  V30 221 N 19.3874 5.66303 1.27599 0
M  V30 222 H 22.1524 2.62957 -1.43784 0
M  V30 223 H 19.7134 1.34495 -0.901261 0
M  V30 224 H 21.7054 3.98616 0.699111 0
M  V30 225 H 20.2754 2.96472 0.991102 0
M  V30 226 H 19.4954 3.69016 -1.38638 0
M  V30 227 H 20.7834 4.9072 -1.34428 0
M  V30 228 H 20.1814 5.36155 1.80429 0
M  V30 229 H 18.7384 6.28942 1.71102 0
M  V30 230 N 22.1715 0.800033 1.35784 0
M  V30 231 C 23.5875 0.482977 1.52117 0
M  V30 232 C 23.7875 -0.996948 1.75109 0
M  V30 233 O 22.8435 -1.78216 1.78872 0
M  V30 234 C 24.1565 1.32264 2.70049 0
M  V30 235 C 25.7045 1.31742 2.83924 0
M  V30 236 C 26.1795 2.14106 4.04874 0
M  V30 237 N 27.6705 2.11607 4.12039 0
M  V30 238 C 28.4055 2.72099 5.04727 0
M  V30 239 N 27.9015 3.41492 6.02789 0
M  V30 240 N 29.6945 2.61776 4.97423 0
M  V30 241 H 21.8455 1.75856 1.19115 0
M  V30 242 H 24.1085 0.748122 0.582252 0
M  V30 243 H 23.8145 2.37261 2.59616 0
M  V30 244 H 23.6885 0.971303 3.6448 0
M  V30 245 H 26.0755 0.275333 2.93813 0
M  V30 246 H 26.1565 1.70859 1.9037 0
M  V30 247 H 25.8005 3.18351 3.95746 0
M  V30 248 H 25.7305 1.72353 4.97596 0
M  V30 249 H 28.2215 1.61112 3.41835 0
M  V30 250 H 28.5345 3.84953 6.70098 0
M  V30 251 H 26.8795 3.45596 6.02983 0
M  V30 252 H 30.0705 2.07157 4.19766 0
M  V30 253 H 30.2435 3.0921 5.69468 0
M  V30 254 N 23.6496 -1.47581 0.552962 0
M  V30 255 C 24.8746 -2.07378 0.0300593 0
M  V30 256 C 25.2996 -1.40355 -1.25229 0
M  V30 257 O 24.6576 -0.477099 -1.7491 0
M  V30 258 C 24.7056 -3.60274 -0.153231 0
M  V30 259 O 23.8096 -3.94041 -1.21678 0
M  V30 260 H 23.1506 -0.662158 0.0494182 0
M  V30 261 H 25.6806 -1.89662 0.767434 0
M  V30 262 H 25.6906 -4.0633 -0.368761 0
M  V30 263 H 24.3656 -4.08455 0.783397 0
M  V30 264 H 22.9426 -3.59735 -0.982079 0
M  V30 265 N 25.1277 -0.289203 -1.54924 0
M  V30 266 C 26.3737 0.323998 -2.00195 0
M  V30 267 C 26.7067 1.54441 -1.17735 0
M  V30 268 O 25.9817 1.92875 -0.250878 0
M  V30 269 C 26.2647 0.692276 -3.53383 0
M  V30 270 C 26.1177 -0.536457 -4.46589 0
M  V30 271 C 27.4367 1.52335 -4.12895 0
M  V30 272 H 24.5557 0.116289 -0.727768 0
M  V30 273 H 27.1977 -0.398954 -1.85764 0
M  V30 274 H 25.3477 1.30822 -3.65811 0
M  V30 275 H 27.0197 -1.17499 -4.46085 0
M  V30 276 H 25.2627 -1.17192 -4.1767 0
M  V30 277 H 25.9337 -0.234806 -5.515 0
M  V30 278 H 28.4097 1.00302 -4.0383 0
M  V30 279 H 27.2857 1.74982 -5.20262 0
M  V30 280 H 27.5467 2.50886 -3.64018 0
M  V30 281 N 26.6058 1.57591 -0.0167156 0
M  V30 282 C 28.0218 1.55946 0.339557 0
M  V30 283 C 28.2218 1.02109 1.73713 0
M  V30 284 O 27.2778 0.662303 2.43659 0
M  V30 285 C 28.5908 3.00037 0.199499 0
M  V30 286 C 30.1388 3.11805 0.273193 0
M  V30 287 C 30.6138 4.57713 0.162068 0
M  V30 288 N 32.1048 4.6268 0.219444 0
M  V30 289 C 32.8398 5.73185 0.157054 0
M  V30 290 N 32.3358 6.92786 0.0442936 0
M  V30 291 N 34.1288 5.61707 0.21014 0
M  V30 292 H 26.2798 1.90921 -0.930758 0
M  V30 293 H 28.5428 0.877674 -0.358319 0
M  V30 294 H 28.2488 3.4333 -0.76273 0
M  V30 295 H 28.1228 3.64387 0.974786 0
M  V30 296 H 30.5098 2.68433 1.22587 0
M  V30 297 H 30.5908 2.50201 -0.532256 0
M  V30 298 H 30.2348 5.01763 -0.78714 0
M  V30 299 H 30.1648 5.17283 0.986222 0
M  V30 300 H 32.6558 3.76649 0.307246 0
M  V30 301 H 32.9688 7.728 0.00304069 0
M  V30 302 H 31.3138 6.94999 0.00968457 0
M  V30 303 H 34.5048 4.6716 0.296546 0
M  V30 304 H 34.6778 6.47807 0.158054 0
M  V30 305 N 28.0839 -0.256276 1.55502 0
M  V30 306 C 29.0469 -1.30047 1.88734 0
M  V30 307 C 30.0469 -1.4154 0.763086 0
M  V30 308 O 31.2369 -1.40403 1.03115 0
M  V30 309 C 28.3689 -2.67953 2.10747 0
M  V30 310 H 29.5619 -1.01802 2.82093 0
M  V30 311 H 27.1149 -0.495134 1.4825 0
M  V30 312 H 27.8499 -3.01351 1.19825 0
M  V30 313 H 27.6349 -2.60993 2.92617 0
M  V30 314 H 29.1249 -3.43368 2.37673 0
M  V30 315 N 29.562 -1.4872 -0.521534 0
M  V30 316 C 30.492 -1.66771 -1.63431 0
M  V30 317 C 31.473 -0.516499 -1.62069 0
M  V30 318 O 32.658 -0.750013 -1.79132 0
M  V30 319 C 29.788 -1.71515 -3.01993 0
M  V30 320 C 28.742 -2.86222 -3.18216 0
M  V30 321 C 28.068 -2.76061 -4.57924 0
M  V30 322 C 29.368 -4.27419 -3.00184 0
M  V30 323 H 31.062 -2.59932 -1.48579 0
M  V30 324 H 28.608 -1.25089 -0.713358 0
M  V30 325 H 30.561 -1.82731 -3.7972 0
M  V30 326 H 29.285 -0.749393 -3.17886 0
M  V30 327 H 27.944 -2.74575 -2.42908 0
M  V30 328 H 27.592 -1.77437 -4.70665 0
M  V30 329 H 27.292 -3.53037 -4.69722 0
M  V30 330 H 28.816 -2.89256 -5.37739 0
M  V30 331 H 30.23 -4.39855 -3.67697 0
M  V30 332 H 28.627 -5.05458 -3.2347 0
M  V30 333 H 29.697 -4.43293 -1.96518 0
M  V30 334 N 31.0401 0.771051 -1.3745 0
M  V30 335 C 32.2861 1.5319 -1.32894 0
M  V30 336 C 32.6191 1.94008 0.0862511 0
M  V30 337 O 31.8941 1.64124 1.04373 0
M  V30 338 C 32.1771 2.79648 -2.26868 0
M  V30 339 C 32.0301 2.45079 -3.77169 0
M  V30 340 C 33.3491 3.81583 -2.19277 0
M  V30 341 H 30.4681 0.555744 -0.484064 0
M  V30 342 H 33.1101 0.884492 -1.68157 0
M  V30 343 H 31.2601 3.34891 -1.96926 0
M  V30 344 H 32.9321 1.95745 -4.1771 0
M  V30 345 H 31.1751 1.77767 -3.95704 0
M  V30 346 H 31.8461 3.35478 -4.38359 0
M  V30 347 H 34.3221 3.35835 -2.45671 0
M  V30 348 H 33.1981 4.67787 -2.87171 0
M  V30 349 H 33.4591 4.25897 -1.18592 0
M  V30 350 N 32.5182 1.22032 0.997298 0
M  V30 351 C 33.7462 1.06841 1.7718 0
M  V30 352 C 34.1612 -0.381325 1.84909 0
M  V30 353 O 33.5182 -1.26437 1.31605 0
M  V30 354 C 33.5692 1.66814 3.20711 0
M  V30 355 O 33.2902 3.06116 3.13408 0
M  V30 356 C 34.7912 1.56838 4.14628 0
M  V30 357 H 32.0112 0.374782 0.556578 0
M  V30 358 H 34.5552 1.61532 1.2541 0
M  V30 359 H 32.7102 1.16196 3.69564 0
M  V30 360 H 33.1242 3.34926 4.0364 0
M  V30 361 H 34.5982 2.03532 5.13107 0
M  V30 362 H 35.0752 0.524155 4.36061 0
M  V30 363 H 35.6812 2.06741 3.7167 0
M  V30 364 N 33.9963 -1.19345 1.0293 0
M  V30 365 C 34.9593 -2.20793 0.615069 0
M  V30 366 C 35.9593 -1.57553 -0.321533 0
M  V30 367 O 37.1493 -1.73862 -0.108483 0
M  V30 368 C 34.2813 -3.40754 -0.0999222 0
M  V30 369 H 35.4743 -2.58955 1.51269 0
M  V30 370 H 33.0273 -1.3303 0.820534 0
M  V30 371 H 33.7623 -3.0811 -1.01187 0
M  V30 372 H 33.5473 -3.87889 0.57309 0
M  V30 373 H 35.0373 -4.15898 -0.376645 0
M  V30 374 N 35.4744 -0.807222 -1.35358 0
M  V30 375 C 36.7024 -0.400377 -2.02989 0
M  V30 376 C 37.1174 0.988859 -1.60832 0
M  V30 377 O 36.4744 1.63729 -0.806175 0
M  V30 378 C 36.5254 -0.474867 -3.58368 0
M  V30 379 O 36.2464 -1.80933 -3.98992 0
M  V30 380 C 37.7474 -0.0609112 -4.43258 0
M  V30 381 H 34.9674 -0.162587 -0.651004 0
M  V30 382 H 37.5114 -1.09102 -1.72965 0
M  V30 383 H 35.6664 0.167534 -3.87038 0
M  V30 384 H 36.0804 -1.77256 -4.9364 0
M  V30 385 H 37.5544 -0.164145 -5.51756 0
M  V30 386 H 38.0314 0.993831 -4.27808 0
M  V30 387 H 38.6374 -0.676492 -4.19885 0
M  V30 388 N 36.9525 1.47285 -0.560781 0
M  V30 389 C 38.1805 2.06855 -0.0430262 0
M  V30 390 C 38.5955 1.41291 1.25229 0
M  V30 391 O 37.9525 0.510648 1.7521 0
M  V30 392 C 38.0035 3.61178 0.152518 0
M  V30 393 O 37.7245 4.24285 -1.0915 0
M  V30 394 C 39.2255 4.37624 0.707145 0
M  V30 395 H 36.4455 0.669319 -0.0474652 0
M  V30 396 H 38.9895 1.89237 -0.77521 0
M  V30 397 H 37.1445 3.78298 0.834843 0
M  V30 398 H 37.5585 5.16868 -0.891482 0
M  V30 399 H 39.0325 5.46271 0.793244 0
M  V30 400 H 39.5095 4.04152 1.71923 0
M  V30 401 H 40.1155 4.25257 0.0604027 0
M  V30 402 N 38.4306 0.297415 1.54768 0
M  V30 403 C 39.3936 -0.567375 2.22066 0
M  V30 404 C 40.3936 -1.06409 1.20556 0
M  V30 405 O 41.5836 -0.960691 1.45315 0
M  V30 406 C 38.7156 -1.78517 2.90421 0
M  V30 407 H 39.9086 0.0205534 2.99893 0
M  V30 408 H 37.4616 0.0482163 1.56226 0
M  V30 409 H 38.1966 -2.41303 2.16664 0
M  V30 410 H 37.9816 -1.43669 3.64831 0
M  V30 411 H 39.4716 -2.39964 3.41771 0
M  V30 412 N 39.9087 -1.5758 0.0250728 0
M  V30 413 C 41.1547 -1.91917 -0.655413 0
M  V30 414 C 41.4877 -0.901433 -1.72011 0
M  V30 415 O 40.7627 0.0764069 -1.9435 0
M  V30 416 C 41.0457 -3.36751 -1.27558 0
M  V30 417 C 40.8987 -4.49258 -0.220719 0
M  V30 418 C 42.2177 -3.81469 -2.19475 0
M  V30 419 H 39.3367 -0.697925 -0.23679 0
M  V30 420 H 41.9787 -1.89825 0.0815036 0
M  V30 421 H 40.1287 -3.38664 -1.90365 0
M  V30 422 H 41.8007 -4.59478 0.409601 0
M  V30 423 H 40.0437 -4.31415 0.454264 0
M  V30 424 H 40.7147 -5.47618 -0.694175 0
M  V30 425 H 43.1907 -3.81266 -1.66659 0
M  V30 426 H 42.0667 -4.83512 -2.59822 0
M  V30 427 H 42.3277 -3.16744 -3.08424 0
M  V30 428 N 41.3868 0.248026 -1.55636 0
M  V30 429 C 42.6638 0.998988 -1.68165 0
M  V30 430 C 43.0438 2.03409 -0.564621 0
M  V30 431 O 42.3918 2.24378 0.432076 0
M  V30 432 C 42.6018 1.63334 -3.0842 0
M  V30 433 C 43.9498 2.13562 -3.66983 0
M  V30 434 O 44.9738 1.73277 -3.11213 0
M  V30 435 O 43.8328 2.87526 -4.64749 0
M  V30 436 H 40.9268 0.464933 -0.683935 0
M  V30 437 H 43.4728 0.241902 -1.67967 0
M  V30 438 H 42.2448 0.884583 -3.8117 0
M  V30 439 H 41.8678 2.45666 -3.12624 0
M  V30 440 N 42.8649 1.48995 0.513639 0
M  V30 441 C 44.1129 1.57531 1.26604 0
M  V30 442 C 44.4339 0.258236 1.93283 0
M  V30 443 O 43.7039 -0.721502 1.8213 0
M  V30 444 H 42.2839 0.580387 0.470276 0
M  V30 445 H 44.9459 1.85552 0.596373 0
M  V30 446 H 44.0419 2.36486 2.03669 0
M  V30 447 N 44.343 -0.763751 1.37857 0
M  V30 448 C 45.589 -1.52483 1.33704 0
M  V30 449 C 45.922 -1.94051 -0.0759612 0
M  V30 450 O 45.197 -1.64675 -1.03501 0
M  V30 451 C 45.48 -2.78441 2.28348 0
M  V30 452 C 45.333 -2.43075 3.78463 0
M  V30 453 C 46.652 -3.80415 2.21298 0
M  V30 454 H 43.771 -0.553169 0.487005 0
M  V30 455 H 46.413 -0.875562 1.68624 0
M  V30 456 H 44.563 -3.33842 1.987 0
M  V30 457 H 46.235 -1.93527 4.18742 0
M  V30 458 H 44.478 -1.75666 3.96641 0
M  V30 459 H 45.149 -3.33149 4.40132 0
M  V30 460 H 47.625 -3.34527 2.47449 0
M  V30 461 H 46.501 -4.66257 2.89647 0
M  V30 462 H 46.762 -4.25262 1.20849 0
M  V30 463 N 45.8211 -1.22559 -0.990812 0
M  V30 464 C 46.7841 -0.998863 -2.0629 0
M  V30 465 C 47.7841 0.0354834 -1.60761 0
M  V30 466 O 48.9741 -0.203231 -1.7301 0
M  V30 467 C 46.1061 -0.509203 -3.37076 0
M  V30 468 H 47.2991 -1.95014 -2.27837 0
M  V30 469 H 44.8521 -1.04456 -1.16269 0
M  V30 470 H 45.5871 0.446335 -3.21214 0
M  V30 471 H 45.3721 -1.25547 -3.71457 0
M  V30 472 H 46.8621 -0.370888 -4.1595 0
M  V30 473 N 47.2992 1.18797 -1.03562 0
M  V30 474 C 48.7102 1.70322 -0.764676 0
M  V30 475 C 49.0612 1.82708 0.714996 0
M  V30 476 O 48.1862 1.50299 1.55689 0
M  V30 477 C 48.7812 3.09356 -1.38145 0
M  V30 478 C 47.3402 3.58114 -1.15895 0
M  V30 479 C 46.4872 2.34798 -1.4753 0
M  V30 480 H 49.4382 1.03543 -1.20268 0
M  V30 481 H 49.4592 3.72378 -0.781977 0
M  V30 482 H 48.9712 3.00309 -2.45837 0
M  V30 483 H 47.0722 3.72464 -0.100544 0
M  V30 484 H 47.1852 4.4184 -1.8524 0
M  V30 485 H 45.5492 2.38464 -0.894829 0
M  V30 486 H 46.3322 2.28375 -2.56319 0
M  V30 487 N 48.7773 0.814389 1.34928 0
M  V30 488 C 50.0233 0.399013 1.98836 0
M  V30 489 C 50.3563 -1.03314 1.64438 0
M  V30 490 O 49.6313 -1.71811 0.911659 0
M  V30 491 C 49.9143 0.591629 3.55207 0
M  V30 492 C 49.7673 2.06928 3.99376 0
M  V30 493 C 51.0863 0.022199 4.40094 0
M  V30 494 H 48.2053 0.146451 0.722303 0
M  V30 495 H 50.8473 1.02537 1.59957 0
M  V30 496 H 48.9973 0.0584441 3.88456 0
M  V30 497 H 50.6693 2.66544 3.76499 0
M  V30 498 H 48.9123 2.56287 3.49999 0
M  V30 499 H 49.5833 2.1549 5.08201 0
M  V30 500 H 52.0593 0.477643 4.13349 0
M  V30 501 H 50.9353 0.186832 5.48582 0
M  V30 502 H 51.1963 -1.07215 4.28902 0
M  V30 503 N 50.2554 -1.46986 0.568584 0
M  V30 504 C 51.5034 -2.02041 0.0487022 0
M  V30 505 C 51.8244 -1.44408 -1.31039 0
M  V30 506 O 51.0944 -0.623477 -1.85714 0
M  V30 507 H 49.6744 -0.746849 0.015014 0
M  V30 508 H 52.3364 -1.80257 0.741168 0
M  V30 509 H 51.4324 -3.12085 -0.0308961 0
M  V30 510 N 51.7335 -0.305618 -1.54608 0
M  V30 511 C 52.6435 0.57778 -2.27374 0
M  V30 512 C 53.6595 1.14451 -1.31061 0
M  V30 513 O 54.8355 1.16831 -1.6405 0
M  V30 514 C 51.9005 1.73123 -3.00382 0
M  V30 515 C 50.9615 1.19812 -4.12242 0
M  V30 516 C 50.1945 2.2966 -4.81759 0
M  V30 517 O 50.4175 3.49651 -4.50666 0
M  V30 518 O 49.3515 1.96091 -5.69062 0
M  V30 519 H 53.1775 -0.012624 -3.03697 0
M  V30 520 H 50.7625 -0.0719184 -1.49227 0
M  V30 521 H 52.6445 2.40315 -3.4616 0
M  V30 522 H 51.3195 2.30815 -2.26949 0
M  V30 523 H 50.2265 0.491798 -3.70853 0
M  V30 524 H 51.5595 0.666566 -4.87666 0
M  V30 525 N 53.2116 1.57565 -0.0334293 0
M  V30 526 C 54.1436 2.0739 0.975811 0
M  V30 527 C 55.1566 0.998166 1.2861 0
M  V30 528 O 56.3456 1.27426 1.25 0
M  V30 529 C 53.4456 2.4871 2.30209 0
M  V30 530 C 52.6186 3.79413 2.17634 0
M  V30 531 C 51.6776 4.07237 3.33233 0
M  V30 532 O 50.7036 4.77425 3.09927 0
M  V30 533 N 51.9056 3.5775 4.5716 0
M  V30 534 H 54.6706 2.94598 0.55066 0
M  V30 535 H 52.2316 1.61173 0.15323 0
M  V30 536 H 54.2236 2.64413 3.06378 0
M  V30 537 H 52.7936 1.66845 2.64351 0
M  V30 538 H 52.0136 3.73465 1.26165 0
M  V30 539 H 53.3016 4.65038 2.0644 0
M  V30 540 H 52.6996 3.00976 4.78989 0
M  V30 541 H 51.2566 3.78724 5.30482 0
M  V30 542 N 54.6897 -0.239769 1.55765 0
M  V30 543 C 55.9357 -0.968234 1.78194 0
M  V30 544 C 56.2687 -1.84701 0.599938 0
M  V30 545 O 55.5437 -1.9031 -0.401524 0
M  V30 546 C 55.8267 -1.8227 3.10564 0
M  V30 547 C 55.6797 -0.971633 4.3918 0
M  V30 548 C 56.9987 -2.80388 3.39221 0
M  V30 549 H 54.1177 -0.350572 0.648281 0
M  V30 550 H 56.7597 -0.238259 1.885 0
M  V30 551 H 54.9097 -2.44507 3.01908 0
M  V30 552 H 56.5817 -0.367408 4.59835 0
M  V30 553 H 54.8247 -0.276276 4.32919 0
M  V30 554 H 55.4957 -1.60346 5.28198 0
M  V30 555 H 57.9717 -2.28287 3.47885 0
M  V30 556 H 56.8477 -3.3729 4.33044 0
M  V30 557 H 57.1087 -3.57212 2.60484 0
M  V30 558 N 56.1678 -1.49265 -0.50573 0
M  V30 559 C 57.0978 -1.68495 -1.61653 0
M  V30 560 C 58.0788 -0.53366 -1.61512 0
M  V30 561 O 59.2638 -0.76897 -1.78327 0
M  V30 562 C 56.3938 -1.74709 -3.00157 0
M  V30 563 C 55.3478 -2.89581 -3.15162 0
M  V30 564 C 54.6738 -2.80903 -4.5497 0
M  V30 565 C 55.9738 -4.30578 -2.95634 0
M  V30 566 H 57.6678 -2.61493 -1.45814 0
M  V30 567 H 55.2138 -1.25838 -0.70005 0
M  V30 568 H 57.1668 -1.86748 -3.77761 0
M  V30 569 H 55.8908 -0.783067 -3.17074 0
M  V30 570 H 54.5498 -2.77136 -2.39982 0
M  V30 571 H 54.1978 -1.82419 -4.68756 0
M  V30 572 H 53.8978 -3.57999 -4.65951 0
M  V30 573 H 55.4218 -2.94944 -5.34641 0
M  V30 574 H 56.8358 -4.4373 -3.63011 0
M  V30 575 H 55.2328 -5.0886 -3.18091 0
M  V30 576 H 56.3028 -4.45352 -1.91806 0
M  V30 577 N 57.6459 0.756429 -1.3826 0
M  V30 578 C 59.0619 1.0591 -1.19395 0
M  V30 579 C 59.2619 2.01459 -0.0406567 0
M  V30 580 O 58.3179 2.44909 0.614467 0
M  V30 581 C 59.6309 1.64191 -2.51916 0
M  V30 582 C 61.1789 1.76376 -2.58574 0
M  V30 583 C 61.6539 2.38069 -3.91264 0
M  V30 584 N 63.1449 2.45503 -3.92788 0
M  V30 585 C 63.8799 2.94126 -4.92217 0
M  V30 586 N 63.3759 3.42805 -6.02043 0
M  V30 587 N 65.1689 2.9314 -4.7961 0
M  V30 588 H 57.3199 0.122313 -2.12048 0
M  V30 589 H 59.5829 0.116892 -0.940766 0
M  V30 590 H 59.2889 1.01451 -3.3675 0
M  V30 591 H 59.1629 2.6329 -2.70108 0
M  V30 592 H 61.5499 2.38244 -1.74137 0
M  V30 593 H 61.6309 0.759894 -2.44252 0
M  V30 594 H 61.2749 1.76835 -4.76121 0
M  V30 595 H 61.2049 3.39091 -4.02895 0
M  V30 596 H 63.6959 2.1107 -3.13461 0
M  V30 597 H 64.0089 3.78354 -6.73846 0
M  V30 598 H 62.3539 3.4087 -6.05667 0
M  V30 599 H 65.5449 2.54419 -3.92923 0
M  V30 600 H 65.7179 3.30721 -5.5725 0
M  V30 601 N 59.124 1.23083 0.984299 0
M  V30 602 C 60.034 1.02515 2.11016 0
M  V30 603 C 61.05 -0.0291702 1.73976 0
M  V30 604 O 62.226 0.165434 2.00719 0
M  V30 605 C 59.291 0.614673 3.41208 0
M  V30 606 C 58.352 1.74359 3.92297 0
M  V30 607 C 57.585 1.35261 5.16275 0
M  V30 608 O 57.808 0.235136 5.69915 0
M  V30 609 O 56.742 2.17227 5.61334 0
M  V30 610 H 60.568 1.96862 2.31255 0
M  V30 611 H 58.153 1.01753 1.09392 0
M  V30 612 H 60.035 0.396518 4.1953 0
M  V30 613 H 58.71 -0.299851 3.22308 0
M  V30 614 H 57.617 2.01635 3.1511 0
M  V30 615 H 58.95 2.63629 4.15645 0
M  V30 616 N 60.6021 -1.18246 1.0419 0
M  V30 617 C 61.5321 -2.24127 0.654914 0
M  V30 618 C 62.5131 -1.66617 -0.342451 0
M  V30 619 O 63.6981 -1.92924 -0.222277 0
M  V30 620 C 60.8281 -3.47295 0.0183757 0
M  V30 621 C 59.7821 -4.17563 0.939414 0
M  V30 622 C 59.1081 -5.34438 0.167286 0
M  V30 623 C 60.4081 -4.70917 2.25908 0
M  V30 624 H 62.1021 -2.56753 1.54007 0
M  V30 625 H 59.6481 -1.23414 0.74195 0
M  V30 626 H 61.6011 -4.20572 -0.264082 0
M  V30 627 H 60.3251 -3.13907 -0.901664 0
M  V30 628 H 58.9841 -3.46186 1.20628 0
M  V30 629 H 58.6321 -4.97298 -0.7552 0
M  V30 630 H 58.3321 -5.82388 0.780901 0
M  V30 631 H 59.8561 -6.10504 -0.108125 0
M  V30 632 H 61.2701 -5.35882 2.03724 0
M  V30 633 H 59.6671 -5.29406 2.82577 0
M  V30 634 H 60.7371 -3.88272 2.9047 0
M  V30 635 N 62.0802 -0.821533 -1.34494 0
M  V30 636 C 63.3282 -0.408139 -1.97936 0
M  V30 637 C 63.6492 1.03193 -1.65457 0
M  V30 638 O 62.9192 1.71622 -0.944595 0
M  V30 639 H 61.4992 -0.147928 -0.732206 0
M  V30 640 H 64.1612 -1.05067 -1.64155 0
M  V30 641 H 63.2572 -0.52601 -3.07635 0
M  V30 642 N 63.5583 1.46682 -0.576371 0
M  V30 643 C 64.4903 2.28341 0.198231 0
M  V30 644 C 65.5033 1.38141 0.861453 0
M  V30 645 O 66.6923 1.62797 0.732082 0
M  V30 646 C 63.7923 3.12986 1.29972 0
M  V30 647 C 62.9653 4.31271 0.729639 0
M  V30 648 C 62.0243 4.97363 1.71803 0
M  V30 649 O 61.0503 5.55156 1.25658 0
M  V30 650 N 62.2523 4.93796 3.05198 0
M  V30 651 H 65.0173 2.9546 -0.502324 0
M  V30 652 H 62.5783 1.56525 -0.413715 0
M  V30 653 H 64.5703 3.54066 1.96008 0
M  V30 654 H 63.1403 2.47984 1.90323 0
M  V30 655 H 62.3603 3.94052 -0.108012 0
M  V30 656 H 63.6483 5.07739 0.328438 0
M  V30 657 H 63.0463 4.48077 3.45317 0
M  V30 658 H 61.6033 5.38837 3.6674 0
M  V30 659 N 65.0364 0.313813 1.54444 0
M  V30 660 C 65.9684 -0.590425 2.21465 0
M  V30 661 C 66.9814 -1.08753 1.21147 0
M  V30 662 O 68.1704 -1.00278 1.4767 0
M  V30 663 C 65.2704 -1.82179 2.85769 0
M  V30 664 C 64.4434 -1.46502 4.12136 0
M  V30 665 C 63.5024 -2.55288 4.60124 0
M  V30 666 O 62.5284 -2.19842 5.25032 0
M  V30 667 N 63.7304 -3.86053 4.33525 0
M  V30 668 H 66.4954 -0.0166033 2.99695 0
M  V30 669 H 64.0564 0.136578 1.61323 0
M  V30 670 H 66.0484 -2.54328 3.14801 0
M  V30 671 H 64.6184 -2.30369 2.11303 0
M  V30 672 H 63.8384 -0.575595 3.89975 0
M  V30 673 H 65.1264 -1.20221 4.94393 0
M  V30 674 H 64.5244 -4.17654 3.81552 0
M  V30 675 H 63.0814 -4.54461 4.67235 0
M  V30 676 N 66.5145 -1.57545 0.0417849 0
M  V30 677 C 67.9305 -1.56467 -0.314704 0
M  V30 678 C 68.1305 -1.04859 -1.72066 0
M  V30 679 O 67.1865 -0.700983 -2.42575 0
M  V30 680 C 68.4995 -3.00317 -0.15174 0
M  V30 681 C 70.0475 -3.12201 -0.223553 0
M  V30 682 C 70.5225 -4.57913 -0.0892295 0
M  V30 683 N 72.0135 -4.6297 -0.145808 0
M  V30 684 C 72.7485 -5.73362 -0.0658459 0
M  V30 685 N 72.2445 -6.92769 0.0659282 0
M  V30 686 N 74.0375 -5.6197 -0.12075 0
M  V30 687 H 66.1885 -1.89416 0.961014 0
M  V30 688 H 68.4515 -0.871862 0.372237 0
M  V30 689 H 68.1575 -3.42073 0.817254 0
M  V30 690 H 68.0315 -3.65892 -0.916692 0
M  V30 691 H 70.4185 -2.70349 -1.18301 0
M  V30 692 H 70.4995 -2.49323 0.571994 0
M  V30 693 H 70.1435 -5.00448 0.866867 0
M  V30 694 H 70.0735 -5.18786 -0.903802 0
M  V30 695 H 72.5645 -3.7709 -0.247286 0
M  V30 696 H 72.8775 -7.72707 0.119905 0
M  V30 697 H 71.2225 -6.94927 0.100885 0
M  V30 698 H 74.4135 -4.67572 -0.222187 0
M  V30 699 H 74.5865 -6.47977 -0.0549735 0
M  V30 700 N 67.9926 0.231505 -1.5589 0
M  V30 701 C 69.2206 0.974505 -1.82513 0
M  V30 702 C 69.6356 1.78344 -0.619591 0
M  V30 703 O 68.9926 1.77792 0.411848 0
M  V30 704 C 69.0436 1.90007 -3.07538 0
M  V30 705 O 68.7646 1.12385 -4.2344 0
M  V30 706 C 70.2656 2.75779 -3.47075 0
M  V30 707 H 67.4856 0.286065 -0.606966 0
M  V30 708 H 70.0296 0.249739 -2.02969 0
M  V30 709 H 68.1846 2.57891 -2.89086 0
M  V30 710 H 68.5986 1.75125 -4.944 0
M  V30 711 H 70.0726 3.36443 -4.37619 0
M  V30 712 H 70.5496 3.47672 -2.68367 0
M  V30 713 H 71.1556 2.13323 -3.67931 0
M  V30 714 N 69.4707 1.49531 0.497807 0
M  V30 715 C 70.3807 1.69176 1.62532 0
M  V30 716 C 71.3967 0.5744 1.64246 0
M  V30 717 O 72.5727 0.849497 1.82608 0
M  V30 718 C 69.6377 1.75695 2.98885 0
M  V30 719 C 68.6987 2.9929 3.07773 0
M  V30 720 C 67.9317 3.05488 4.37622 0
M  V30 721 O 68.1547 2.19192 5.26603 0
M  V30 722 O 67.0887 3.9798 4.51548 0
M  V30 723 H 70.9147 2.647 1.48887 0
M  V30 724 H 68.4997 1.3331 0.674441 0
M  V30 725 H 70.3817 1.82317 3.79919 0
M  V30 726 H 69.0567 0.8335 3.12785 0
M  V30 727 H 67.9637 2.98183 2.25915 0
M  V30 728 H 69.2967 3.91125 2.98801 0
M  V30 729 N 70.9488 -0.749086 1.3866 0
M  V30 730 C 71.8988 -1.85368 1.32751 0
M  V30 731 C 72.8828 -1.59511 0.210945 0
M  V30 732 O 74.0748 -1.71255 0.447299 0
M  V30 733 C 71.2038 -3.23131 1.15935 0
M  V30 734 C 70.2898 -3.54864 2.32233 0
M  V30 735 N 70.6808 -3.57625 3.57684 0
M  V30 736 C 68.9788 -3.85154 2.24883 0
M  V30 737 C 69.6798 -3.86753 4.34508 0
M  V30 738 N 68.6558 -4.03812 3.63918 0
M  V30 739 H 72.4578 -1.85787 2.27729 0
M  V30 740 H 69.9718 -0.946658 1.31955 0
M  V30 741 H 71.9688 -4.02185 1.09786 0
M  V30 742 H 70.6288 -3.23961 0.218947 0
M  V30 743 H 71.6398 -3.39276 3.91295 0
M  V30 744 H 68.3168 -3.93672 1.39027 0
M  V30 745 H 69.7068 -3.95474 5.43185 0
M  V30 746 N 72.4269 -1.23603 -0.977757 0
M  V30 747 C 73.3569 -1.04401 -2.0886 0
M  V30 748 C 74.3379 0.0399052 -1.70053 0
M  V30 749 O 75.5229 -0.125246 -1.93796 0
M  V30 750 C 72.6529 -0.637269 -3.41403 0
M  V30 751 C 71.6069 -1.66883 -3.94124 0
M  V30 752 C 70.9329 -1.11745 -5.22893 0
M  V30 753 C 72.2329 -3.06247 -4.23096 0
M  V30 754 H 73.9269 -1.97316 -2.25182 0
M  V30 755 H 71.4729 -0.950096 -1.08209 0
M  V30 756 H 73.4259 -0.48998 -4.18542 0
M  V30 757 H 72.1499 0.327557 -3.24953 0
M  V30 758 H 70.8089 -1.80416 -3.19133 0
M  V30 759 H 70.4569 -0.143527 -5.02795 0
M  V30 760 H 70.1569 -1.80672 -5.59134 0
M  V30 761 H 71.6809 -0.982067 -6.02651 0
M  V30 762 H 73.0949 -2.96001 -4.90975 0
M  V30 763 H 71.4919 -3.72436 -4.70544 0
M  V30 764 H 72.5619 -3.55041 -3.30263 0
M  V30 765 N 73.905 1.17692 -1.04816 0
M  V30 766 C 74.835 2.23777 -0.666791 0
M  V30 767 C 75.816 1.66796 0.33361 0
M  V30 768 O 77.001 1.93039 0.212042 0
M  V30 769 C 74.131 3.47281 -0.0367933 0
M  V30 770 C 73.085 4.17059 -0.961546 0
M  V30 771 C 72.411 5.34342 -0.195626 0
M  V30 772 C 73.711 4.69713 -2.28402 0
M  V30 773 H 75.405 2.55933 -1.55367 0
M  V30 774 H 72.951 1.23019 -0.748484 0
M  V30 775 H 74.904 4.20706 0.241775 0
M  V30 776 H 73.628 3.14381 0.885004 0
M  V30 777 H 72.287 3.45541 -1.22462 0
M  V30 778 H 71.935 4.97692 0.728816 0
M  V30 779 H 71.635 5.81966 -0.811775 0
M  V30 780 H 73.159 6.10553 0.0757473 0
M  V30 781 H 74.573 5.34794 -2.06563 0
M  V30 782 H 72.97 5.279 -2.8538 0
M  V30 783 H 74.04 3.86726 -2.92525 0
M  V30 784 N 75.3831 0.828654 1.34056 0
M  V30 785 C 76.6291 0.42008 1.98402 0
M  V30 786 C 76.9621 -1.01564 1.65525 0
M  V30 787 O 76.2371 -1.70834 0.929831 0
M  V30 788 C 76.5201 0.62927 3.54559 0
M  V30 789 C 76.3731 2.11152 3.97159 0
M  V30 790 C 77.6921 0.0688756 4.40046 0
M  V30 791 H 74.8111 0.154104 0.720709 0
M  V30 792 H 77.4531 1.04228 1.5886 0
M  V30 793 H 75.6031 0.0996418 3.88372 0
M  V30 794 H 77.2751 2.70522 3.73651 0
M  V30 795 H 75.5181 2.59985 3.47261 0
M  V30 796 H 76.1891 2.20868 5.05887 0
M  V30 797 H 78.6651 0.521458 4.1282 0
M  V30 798 H 77.5411 0.245006 5.48353 0
M  V30 799 H 77.8021 -1.0266 4.30015 0
M  V30 800 N 76.8612 -1.46375 0.584142 0
M  V30 801 C 77.8242 -2.28784 -0.138108 0
M  V30 802 C 78.8242 -1.38471 -0.817462 0
M  V30 803 O 80.0142 -1.60833 -0.669199 0
M  V30 804 C 77.1462 -3.18892 -1.20503 0
M  V30 805 H 78.3392 -2.94117 0.586127 0
M  V30 806 H 75.8922 -1.52509 0.342171 0
M  V30 807 H 76.6272 -2.58309 -1.96079 0
M  V30 808 H 76.4122 -3.85388 -0.722384 0
M  V30 809 H 77.9022 -3.80914 -1.71155 0
M  V30 810 N 78.3393 -0.321999 -1.54275 0
M  V30 811 C 79.5873 0.280489 -2.00144 0
M  V30 812 C 79.9083 1.52777 -1.21178 0
M  V30 813 O 79.1783 1.9338 -0.313187 0
M  V30 814 H 77.7583 0.106632 -0.73935 0
M  V30 815 H 80.4203 -0.438184 -1.8991 0
M  V30 816 H 79.5163 0.537972 -3.07428 0
M  V30 817 N 79.8174 1.5752 -0.0501392 0
M  V30 818 C 81.0424 1.97376 0.636997 0
M  V30 819 C 81.4674 0.927466 1.63645 0
M  V30 820 O 80.8254 -0.10941 1.8097 0
M  V30 821 C 80.8734 3.36304 1.30123 0
M  V30 822 O 79.9774 3.34156 2.41689 0
M  V30 823 H 79.3184 0.642998 0.165679 0
M  V30 824 H 81.8484 2.04258 -0.118233 0
M  V30 825 H 81.8584 3.73008 1.65315 0
M  V30 826 H 80.5334 4.11993 0.568746 0
M  V30 827 H 79.1104 3.09196 2.08451 0
M  V30 828 N 81.2955 -0.223234 1.56011 0
M  V30 829 C 82.7115 -0.572856 1.48965 0
M  V30 830 C 82.9115 -1.87225 0.74492 0
M  V30 831 O 81.9675 -2.50899 0.283896 0
M  V30 832 C 83.2805 -0.653646 2.9351 0
M  V30 833 C 84.8285 -0.744386 3.0402 0
M  V30 834 C 85.3035 -0.856535 4.49919 0
M  V30 835 N 86.7945 -0.9208 4.53955 0
M  V30 836 C 87.5295 -1.02726 5.64123 0
M  V30 837 N 87.0255 -1.09777 6.84047 0
M  V30 838 N 88.8185 -1.06226 5.51971 0
M  V30 839 H 80.9695 0.629462 2.02858 0
M  V30 840 H 83.2325 0.220621 0.921971 0
M  V30 841 H 82.9385 0.231518 3.50937 0
M  V30 842 H 82.8125 -1.51781 3.45315 0
M  V30 843 H 85.1995 -1.61999 2.46658 0
M  V30 844 H 85.2805 0.14541 2.55386 0
M  V30 845 H 84.9245 0.0146069 5.07898 0
M  V30 846 H 84.8545 -1.76172 4.96257 0
M  V30 847 H 87.3455 -0.876694 3.6759 0
M  V30 848 H 87.6585 -1.17872 7.63758 0
M  V30 849 H 86.0035 -1.06693 6.86762 0
M  V30 850 H 89.1945 -1.00382 4.5721 0
M  V30 851 H 89.3675 -1.14177 6.37862 0
M  V30 852 N 82.7736 -1.49793 -0.48987 0
M  V30 853 C 84.1846 -1.52914 -1.07118 0
M  V30 854 C 84.5356 -0.321738 -1.93544 0
M  V30 855 O 83.6606 0.567338 -2.08831 0
M  V30 856 C 84.2556 -2.771 -1.94938 0
M  V30 857 C 82.8146 -2.82963 -2.48212 0
M  V30 858 C 81.9616 -2.46972 -1.26096 0
M  V30 859 H 84.9126 -1.56329 -0.273289 0
M  V30 860 H 84.9336 -2.57892 -2.79771 0
M  V30 861 H 84.4456 -3.64959 -1.32009 0
M  V30 862 H 82.5466 -1.99411 -3.14748 0
M  V30 863 H 82.6596 -3.85406 -2.84603 0
M  V30 864 H 81.0236 -1.98994 -1.58976 0
M  V30 865 H 81.8066 -3.37118 -0.648581 0
M  V30 866 N 84.2517 0.741722 -1.39055 0
M  V30 867 C 85.4997 1.49818 -1.35643 0
M  V30 868 C 85.8207 1.94938 0.0491642 0
M  V30 869 O 85.0907 1.68505 0.999141 0
M  V30 870 H 83.6707 0.555755 -0.499144 0
M  V30 871 H 86.3327 0.880957 -1.73854 0
M  V30 872 H 85.4287 2.38348 -2.01486 0
M  V30 873 N 85.7298 1.2412 0.971189 0
M  V30 874 C 86.9778 1.07668 1.71032 0
M  V30 875 C 87.2988 -0.385797 1.91146 0
M  V30 876 O 86.5688 -1.27569 1.4867 0
M  V30 877 H 85.1488 0.395429 0.633755 0
M  V30 878 H 87.8108 1.55984 1.16855 0
M  V30 879 H 86.9068 1.57195 2.69622 0
M  V30 880 N 87.2079 -1.17134 1.05439 0
M  V30 881 C 88.6189 -1.69084 0.791676 0
M  V30 882 C 88.9699 -1.83822 -0.685839 0
M  V30 883 O 88.0949 -1.52757 -1.53278 0
M  V30 884 C 88.6899 -3.07119 1.4305 0
M  V30 885 C 87.2489 -3.56225 1.21577 0
M  V30 886 C 86.3959 -2.32421 1.51247 0
M  V30 887 H 89.3469 -1.01617 1.219 0
M  V30 888 H 89.3679 -3.71087 0.84112 0
M  V30 889 H 88.8799 -2.9636 2.50584 0
M  V30 890 H 86.9809 -3.72257 0.159787 0
M  V30 891 H 87.0939 -4.38837 1.92246 0
M  V30 892 H 85.4579 -2.3701 0.932653 0
M  V30 893 H 86.2409 -2.24268 2.5992 0
M  V30 894 N 88.686 -0.835752 -1.33615 0
M  V30 895 C 89.935 -0.426289 -1.97144 0
M  V30 896 C 90.248 1.01912 -1.66953 0
M  V30 897 O 91.454 1.53311 -2.24072 0
M  V30 898 C 89.91 -0.711321 -3.52801 0
M  V30 899 C 89.518 -2.1712 -3.91871 0
M  V30 900 C 91.262 -0.368654 -4.22896 0
M  V30 901 C 89.169 -2.40044 -5.40493 0
M  V30 902 H 88.099 -0.15567 -0.737755 0
M  V30 903 H 90.75 -1.0239 -1.52278 0
M  V30 904 H 89.132 -0.0433766 -3.95976 0
M  V30 905 H 90.306 -2.87936 -3.59763 0
M  V30 906 H 88.621 -2.47654 -3.34749 0
M  V30 907 H 91.218 -0.517601 -5.32189 0
M  V30 908 H 91.561 0.688078 -4.10574 0
M  V30 909 H 92.094 -0.991702 -3.8524 0
M  V30 910 H 88.833 -3.44271 -5.57815 0
M  V30 911 H 88.353 -1.73785 -5.74072 0
M  V30 912 H 90.032 -2.23042 -6.0734 0
M  V30 913 N 90.1641 1.46063 -0.591896 0
M  V30 914 C 91.4131 2.01547 -0.0786637 0
M  V30 915 C 91.7261 1.46796 1.29268 0
M  V30 916 O 92.9321 1.94157 1.89777 0
M  V30 917 C 91.3881 3.59787 -0.0900024 0
M  V30 918 C 90.9961 4.23534 -1.46023 0
M  V30 919 C 92.7401 4.22895 0.368806 0
M  V30 920 C 90.6471 5.73881 -1.4288 0
M  V30 921 H 89.5771 0.753564 -0.0256388 0
M  V30 922 H 92.2281 1.677 -0.744905 0
M  V30 923 H 90.6101 3.90752 0.642586 0
M  V30 924 H 91.7841 4.04167 -2.21328 0
M  V30 925 H 90.0991 3.72558 -1.85982 0
M  V30 926 H 92.6961 5.33116 0.411258 0
M  V30 927 H 93.0391 3.9247 1.38827 0
M  V30 928 H 93.5721 3.9659 -0.31001 0
M  V30 929 H 90.3111 6.0898 -2.42536 0
M  V30 930 H 89.8311 5.95486 -0.718095 0
M  V30 931 H 91.5101 6.36776 -1.14565 0
M  V30 932 N 91.6422 0.330177 1.54103 0
M  V30 933 C 92.8902 -0.269871 2.0029 0
M  V30 934 C 93.2112 -1.52133 1.21986 0
M  V30 935 O 92.4812 -1.93212 0.323438 0
M  V30 936 H 91.0612 -0.10271 0.739905 0
M  V30 937 H 93.7232 0.448249 1.89675 0
M  V30 938 H 92.8192 -0.52166 3.07709 0
M  V30 939 N 93.1203 -1.57491 0.0584922 0
M  V30 940 C 94.3503 -1.9701 -0.622134 0
M  V30 941 C 94.7583 -0.935034 -1.6448 0
M  V30 942 O 94.1013 0.0882904 -1.83488 0
M  V30 943 C 94.1633 -3.32794 -1.35972 0
M  V30 944 C 93.8273 -4.54343 -0.492043 0
M  V30 945 C 94.8243 -5.19323 0.244901 0
M  V30 946 C 92.5093 -5.00534 -0.420821 0
M  V30 947 C 94.5033 -6.28835 1.04143 0
M  V30 948 C 92.1903 -6.09921 0.379389 0
M  V30 949 C 93.1883 -6.73933 1.10919 0
M  V30 950 O 92.8763 -7.81216 1.89623 0
M  V30 951 H 92.6083 -0.653127 -0.174359 0
M  V30 952 H 95.1623 -2.05029 0.123418 0
M  V30 953 H 93.3923 -3.21351 -2.15105 0
M  V30 954 H 95.0813 -3.5701 -1.93129 0
M  V30 955 H 95.8473 -4.8459 0.19939 0
M  V30 956 H 91.7263 -4.50496 -0.978474 0
M  V30 957 H 95.2703 -6.7873 1.61157 0
M  V30 958 H 91.1673 -6.44089 0.426512 0
M  V30 959 H 91.9353 -7.98029 1.81913 0
M  V30 960 N 94.5984 0.214957 -1.56127 0
M  V30 961 C 95.5284 1.2695 -1.95974 0
M  V30 962 C 96.5094 1.48539 -0.828868 0
M  V30 963 O 97.6944 1.60611 -1.09168 0
M  V30 964 C 94.8244 2.61794 -2.28214 0
M  V30 965 C 93.7784 2.54851 -3.43853 0
M  V30 966 C 93.1044 3.93785 -3.61715 0
M  V30 967 C 94.4044 2.09065 -4.78632 0
M  V30 968 H 96.0984 0.93846 -2.84312 0
M  V30 969 H 93.6444 0.449996 -1.36788 0
M  V30 970 H 95.5974 3.35731 -2.54682 0
M  V30 971 H 94.3214 2.96599 -1.36736 0
M  V30 972 H 92.9804 1.8337 -3.17444 0
M  V30 973 H 92.6284 4.25908 -2.67602 0
M  V30 974 H 92.3284 3.90019 -4.39498 0
M  V30 975 H 93.8524 4.69374 -3.90539 0
M  V30 976 H 95.2664 2.7275 -5.04262 0
M  V30 977 H 93.6634 2.16346 -5.59745 0
M  V30 978 H 94.7334 1.04315 -4.73547 0
M  V30 979 N 96.0765 1.50051 0.48192 0
M  V30 980 C 97.0245 1.68635 1.60203 0
M  V30 981 C 98.0185 0.552184 1.60148 0
M  V30 982 O 99.2245 0.732377 1.64427 0
M  V30 983 H 95.5995 0.532081 0.531407 0
M  V30 984 H 97.5705 2.62616 1.41688 0
M  V30 985 C 96.3195 1.78775 2.9822 0
M  V30 986 H 95.6425 2.6543 2.98976 0
M  V30 987 H 97.0825 1.95806 3.7608 0
M  V30 988 C 95.5415 0.536849 3.32595 0
M  V30 989 O 96.0715 -0.328897 4.00351 0
M  V30 990 N 94.2775 0.394091 2.87915 0
M  V30 991 H 93.8245 1.09962 2.32951 0
M  V30 992 H 93.7825 -0.441737 3.11281 0
M  V30 993 N 97.5546 -0.734337 1.39446 0
M  V30 994 C 98.4846 -1.86155 1.40955 0
M  V30 995 C 99.4656 -1.67898 0.272827 0
M  V30 996 O 100.651 -1.88207 0.478743 0
M  V30 997 C 97.7806 -3.23912 1.25294 0
M  V30 998 C 96.7346 -3.56808 2.36373 0
M  V30 999 C 96.0606 -4.93508 2.058 0
M  V30 1000 C 97.3606 -3.59713 3.78687 0
M  V30 1001 H 99.0546 -1.8515 2.35287 0
M  V30 1002 H 96.6006 -0.889367 1.13253 0
M  V30 1003 H 98.5536 -4.02443 1.2497 0
M  V30 1004 H 97.2776 -3.25446 0.274308 0
M  V30 1005 H 95.9366 -2.80606 2.35914 0
M  V30 1006 H 95.5846 -4.91623 1.06374 0
M  V30 1007 H 95.2846 -5.16486 2.80208 0
M  V30 1008 H 96.8086 -5.74396 2.07128 0
M  V30 1009 H 98.2226 -4.2832 3.81071 0
M  V30 1010 H 96.6196 -3.94209 4.52459 0
M  V30 1011 H 97.6896 -2.59504 4.09617 0
M  V30 1012 N 99.0327 -1.24633 -0.964593 0
M  V30 1013 C 100.258 -1.11596 -1.74818 0
M  V30 1014 C 100.683 0.32723 -1.85232 0
M  V30 1015 O 100.041 1.23695 -1.32549 0
M  V30 1016 C 100.089 -1.76397 -3.1451 0
M  V30 1017 O 99.1927 -1.03685 -3.99153 0
M  V30 1018 H 98.5337 -0.390196 -0.537255 0
M  V30 1019 H 101.064 -1.65002 -1.20977 0
M  V30 1020 H 101.074 -1.8228 -3.65018 0
M  V30 1021 H 99.7487 -2.81401 -3.06246 0
M  V30 1022 H 98.3257 -1.05611 -3.57632 0
M  V30 1023 N 100.511 1.16574 -1.06058 0
M  V30 1024 C 101.922 1.68662 -0.800632 0
M  V30 1025 C 102.273 1.84184 0.67608 0
M  V30 1026 O 101.398 1.53568 1.52466 0
M  V30 1027 C 101.993 3.06356 -1.44676 0
M  V30 1028 C 100.552 3.55575 -1.23465 0
M  V30 1029 C 99.6988 2.31616 -1.52477 0
M  V30 1030 H 102.65 1.00969 -1.22438 0
M  V30 1031 H 102.671 3.70636 -0.860788 0
M  V30 1032 H 102.183 2.95027 -2.52152 0
M  V30 1033 H 100.284 3.72167 -0.179527 0
M  V30 1034 H 100.397 4.37812 -1.94571 0
M  V30 1035 H 98.7608 2.36512 -0.945209 0
M  V30 1036 H 99.5438 2.22887 -2.61106 0
M  V30 1037 N 101.989 0.842826 1.3317 0
M  V30 1038 C 103.4 0.496651 1.79973 0
M  V30 1039 C 103.751 -0.984641 1.69703 0
M  V30 1040 O 102.876 -1.76743 1.24863 0
M  V30 1041 C 103.471 0.894727 3.26772 0
M  V30 1042 C 102.03 0.600629 3.71577 0
M  V30 1043 C 101.177 1.10091 2.5451 0
M  V30 1044 H 104.128 1.03116 1.20635 0
M  V30 1045 H 104.149 0.206347 3.7994 0
M  V30 1046 H 103.661 1.97287 3.34215 0
M  V30 1047 H 101.762 -0.467284 3.69658 0
M  V30 1048 H 101.875 1.15863 4.64879 0
M  V30 1049 H 100.239 0.52162 2.49301 0
M  V30 1050 H 101.022 2.18591 2.64713 0
M  V30 1051 N 103.467 -1.45747 0.599634 0
M  V30 1052 C 104.883 -1.57424 0.26264 0
M  V30 1053 C 105.083 -1.59222 -1.23493 0
M  V30 1054 O 104.139 -1.51825 -2.01756 0
M  V30 1055 C 105.452 -2.86061 0.926795 0
M  V30 1056 C 107 -2.99722 0.901967 0
M  V30 1057 C 107.475 -4.31119 1.54598 0
M  V30 1058 N 108.966 -4.37858 1.5111 0
M  V30 1059 C 109.701 -5.3818 1.97863 0
M  V30 1060 N 109.197 -6.45083 2.52666 0
M  V30 1061 N 110.99 -5.29487 1.88679 0
M  V30 1062 H 103.141 -1.42823 1.57211 0
M  V30 1063 H 105.404 -0.68235 0.658105 0
M  V30 1064 H 105.11 -2.90605 1.98095 0
M  V30 1065 H 104.984 -3.74563 0.445238 0
M  V30 1066 H 107.371 -2.9475 -0.143617 0
M  V30 1067 H 107.452 -2.12652 1.42171 0
M  V30 1068 H 107.096 -4.36849 2.59085 0
M  V30 1069 H 107.026 -5.16992 1.00132 0
M  V30 1070 H 109.517 -3.61209 1.11068 0
M  V30 1071 H 109.83 -7.17869 2.86155 0
M  V30 1072 H 108.175 -6.45856 2.56701 0
M  V30 1073 H 111.366 -4.44877 1.4561 0
M  V30 1074 H 111.539 -6.07524 2.25429 0
M  V30 1075 N 104.945 -0.338344 -1.53925 0
M  V30 1076 C 106.193 0.259245 -2.0043 0
M  V30 1077 C 106.514 1.51484 -1.22791 0
M  V30 1078 O 105.784 1.93037 -0.33368 0
M  V30 1079 H 104.364 0.0987845 -0.740439 0
M  V30 1080 H 107.026 -0.458302 -1.89435 0
M  V30 1081 H 106.122 0.505334 -3.07982 0
M  V30 1082 N 106.423 1.57458 -0.0668435 0
M  V30 1083 C 107.386 2.11323 0.887422 0
M  V30 1084 C 108.386 1.03618 1.22964 0
M  V30 1085 O 109.576 1.29626 1.16373 0
M  V30 1086 C 106.708 2.61048 2.19242 0
M  V30 1087 H 107.901 2.96942 0.420194 0
M  V30 1088 H 105.454 1.55239 0.181793 0
M  V30 1089 H 106.189 1.78868 2.70512 0
M  V30 1090 H 105.974 3.39769 1.95702 0
M  V30 1091 H 107.464 3.02814 2.87565 0
M  V30 1092 N 107.901 -0.206675 1.56239 0
M  V30 1093 C 109.149 -0.927007 1.79586 0
M  V30 1094 C 109.47 -1.8427 0.637929 0
M  V30 1095 O 108.74 -1.92849 -0.344398 0
M  V30 1096 H 107.32 -0.345292 0.662407 0
M  V30 1097 H 109.982 -0.21496 1.93711 0
M  V30 1098 H 109.078 -1.52501 2.72305 0
M  V30 1099 N 109.379 -1.50304 -0.473955 0
M  V30 1100 C 110.627 -1.60832 -1.22382 0
M  V30 1101 C 110.948 -0.30939 -1.9253 0
M  V30 1102 O 110.218 0.67296 -1.83978 0
M  V30 1103 H 108.798 -0.592652 -0.454723 0
M  V30 1104 H 111.46 -1.87068 -0.546968 0
M  V30 1105 H 110.556 -2.41803 -1.97327 0
M  V30 1106 N 110.857 0.726932 -1.39834 0
M  V30 1107 C 111.82 1.82269 -1.38962 0
M  V30 1108 C 112.82 1.58248 -0.285334 0
M  V30 1109 O 114.01 1.65499 -0.54366 0
M  V30 1110 C 111.142 3.20186 -1.17019 0
M  V30 1111 H 112.335 1.84443 -2.36476 0
M  V30 1112 H 109.888 0.931416 -1.25516 0
M  V30 1113 H 110.623 3.23669 -0.202204 0
M  V30 1114 H 110.408 3.3902 -1.96998 0
M  V30 1115 H 111.898 4.00235 -1.1917 0
M  V30 1116 N 112.336 1.25143 0.95797 0
M  V30 1117 C 113.269 0.995565 2.05338 0
M  V30 1118 C 114.247 -0.0740423 1.62431 0
M  V30 1119 O 115.431 0.0649212 1.88388 0
M  V30 1120 C 112.558 0.504298 3.34925 0
M  V30 1121 C 111.604 1.56393 3.96792 0
M  V30 1122 S 112.437 3.14815 4.33188 0
M  V30 1123 C 113.593 2.67415 5.65898 0
M  V30 1124 H 113.826 1.92309 2.26726 0
M  V30 1125 H 111.359 1.08635 1.09716 0
M  V30 1126 H 113.317 0.227497 4.09869 0
M  V30 1127 H 111.978 -0.402671 3.11508 0
M  V30 1128 H 111.171 1.17082 4.90212 0
M  V30 1129 H 110.773 1.79124 3.28315 0
M  V30 1130 H 113.065 2.10833 6.4386 0
M  V30 1131 H 114.008 3.59463 6.10076 0
M  V30 1132 H 114.416 2.07521 5.24972 0
M  V30 1133 N 113.814 -1.1601 1.06675 0
M  V30 1134 C 114.777 -2.18724 0.685001 0
M  V30 1135 C 115.777 -1.58496 -0.271246 0
M  V30 1136 O 116.967 -1.74119 -0.0531156 0
M  V30 1137 C 114.099 -3.40899 0.00853648 0
M  V30 1138 H 115.292 -2.54011 1.59431 0
M  V30 1139 H 112.845 -1.30352 0.862441 0
M  V30 1140 H 113.58 -3.11173 -0.913337 0
M  V30 1141 H 113.365 -3.8587 0.696204 0
M  V30 1142 H 114.855 -4.16886 -0.24414 0
M  V30 1143 N 115.292 -0.849877 -1.32721 0
M  V30 1144 C 116.202 -0.293791 -2.32753 0
M  V30 1145 C 117.218 0.585906 -1.63839 0
M  V30 1146 O 118.394 0.487413 -1.95413 0
M  V30 1147 C 115.459 0.512752 -3.42887 0
M  V30 1148 C 114.52 -0.39252 -4.27502 0
M  V30 1149 C 113.753 0.375625 -5.32377 0
M  V30 1150 O 113.976 1.60613 -5.4732 0
M  V30 1151 O 112.91 -0.256094 -6.01355 0
M  V30 1152 H 116.736 -1.12242 -2.82197 0
M  V30 1153 H 114.321 -0.612685 -1.36259 0
M  V30 1154 H 116.203 0.970704 -4.10067 0
M  V30 1155 H 114.878 1.31826 -2.95641 0
M  V30 1156 H 113.785 -0.898547 -3.63149 0
M  V30 1157 H 115.118 -1.16309 -4.7826 0
M  V30 1158 N 116.77 1.45427 -0.607355 0
M  V30 1159 C 117.7 2.3329 0.0989352 0
M  V30 1160 C 118.681 1.46816 0.859007 0
M  V30 1161 O 119.866 1.75588 0.829604 0
M  V30 1162 C 116.996 3.29518 1.09705 0
M  V30 1163 C 115.95 4.25626 0.450206 0
M  V30 1164 C 115.276 5.11542 1.55655 0
M  V30 1165 C 116.576 5.18505 -0.628455 0
M  V30 1166 H 118.27 2.92595 -0.634716 0
M  V30 1167 H 115.816 1.40696 -0.306681 0
M  V30 1168 H 117.769 3.89855 1.59971 0
M  V30 1169 H 116.493 2.68372 1.86129 0
M  V30 1170 H 115.152 3.66586 -0.0315886 0
M  V30 1171 H 114.8 4.46765 2.31107 0
M  V30 1172 H 114.5 5.76647 1.12925 0
M  V30 1173 H 116.024 5.74748 2.06148 0
M  V30 1174 H 117.438 5.72916 -0.209877 0
M  V30 1175 H 115.835 5.92085 -0.977489 0
M  V30 1176 H 116.905 4.60948 -1.50514 0
M  V30 1177 N 118.248 0.346503 1.53744 0
M  V30 1178 C 119.494 -0.249473 2.0126 0
M  V30 1179 C 119.827 -1.49965 1.23386 0
M  V30 1180 O 119.102 -1.91811 0.32229 0
M  V30 1181 C 119.385 -0.560643 3.55709 0
M  V30 1182 C 119.238 0.701836 4.44291 0
M  V30 1183 C 120.557 -1.36905 4.18264 0
M  V30 1184 H 117.676 -0.0891987 0.731582 0
M  V30 1185 H 120.318 0.467624 1.84156 0
M  V30 1186 H 118.468 -1.17156 3.70414 0
M  V30 1187 H 120.14 1.33974 4.41417 0
M  V30 1188 H 118.383 1.32612 4.13033 0
M  V30 1189 H 119.054 0.43933 5.50249 0
M  V30 1190 H 121.53 -0.852448 4.07275 0
M  V30 1191 H 120.406 -1.55553 5.26398 0
M  V30 1192 H 120.667 -2.37203 3.73078 0
M  V30 1193 N 119.726 -1.57421 0.075193 0
M  V30 1194 C 120.972 -1.93905 -0.594025 0
M  V30 1195 C 121.305 -0.955701 -1.69056 0
M  V30 1196 O 120.58 0.0145373 -1.94495 0
M  V30 1197 C 120.863 -3.40638 -1.1678 0
M  V30 1198 C 120.716 -4.49733 -0.0776792 0
M  V30 1199 C 122.035 -3.88259 -2.07228 0
M  V30 1200 H 119.154 -0.705105 -0.214466 0
M  V30 1201 H 121.796 -1.8947 0.141854 0
M  V30 1202 H 119.946 -3.44549 -1.79494 0
M  V30 1203 H 121.618 -4.57942 0.555573 0
M  V30 1204 H 119.861 -4.29751 0.591286 0
M  V30 1205 H 120.532 -5.49549 -0.519603 0
M  V30 1206 H 123.008 -3.86376 -1.54445 0
M  V30 1207 H 121.884 -4.91533 -2.44308 0
M  V30 1208 H 122.145 -3.26396 -2.98191 0
M  V30 1209 N 121.204 0.198386 -1.56346 0
M  V30 1210 C 122.154 1.2499 -1.90687 0
M  V30 1211 C 123.138 1.41158 -0.772217 0
M  V30 1212 O 124.33 1.43584 -1.03502 0
M  V30 1213 C 121.459 2.59542 -2.24706 0
M  V30 1214 C 120.545 2.47181 -3.44619 0
M  V30 1215 N 120.936 2.04495 -4.62618 0
M  V30 1216 C 119.234 2.78082 -3.48692 0
M  V30 1217 C 119.935 2.03945 -5.44776 0
M  V30 1218 N 118.911 2.45323 -4.85095 0
M  V30 1219 H 122.713 0.911149 -2.7942 0
M  V30 1220 H 120.227 0.40684 -1.57221 0
M  V30 1221 H 122.224 3.3549 -2.47491 0
M  V30 1222 H 120.884 2.94244 -1.37298 0
M  V30 1223 H 121.895 1.75256 -4.87345 0
M  V30 1224 H 118.572 3.17002 -2.71691 0
M  V30 1225 H 119.962 1.72872 -6.4928 0
M  V30 1226 N 122.682 1.50554 0.465978 0
M  V30 1227 C 124.093 1.54599 1.04671 0
M  V30 1228 C 124.444 0.352488 1.93008 0
M  V30 1229 O 123.569 -0.534044 2.09707 0
M  V30 1230 C 124.164 2.80166 1.90505 0
M  V30 1231 C 122.723 2.86876 2.43678 0
M  V30 1232 C 121.87 2.48947 1.22151 0
M  V30 1233 H 124.821 1.56744 0.248384 0
M  V30 1234 H 124.842 2.62311 2.75633 0
M  V30 1235 H 124.354 3.67013 1.26186 0
M  V30 1236 H 122.455 2.04393 3.11536 0
M  V30 1237 H 122.568 3.89885 2.78436 0
M  V30 1238 H 120.932 2.01498 1.5579 0
M  V30 1239 H 121.715 3.38107 0.594866 0
M  V30 1240 N 124.16 -0.719506 1.40217 0
M  V30 1241 C 125.092 -1.84428 1.36084 0
M  V30 1242 C 126.105 -1.60597 0.266913 0
M  V30 1243 O 127.294 -1.70544 0.526983 0
M  V30 1244 C 124.394 -3.20757 1.094 0
M  V30 1245 C 123.567 -3.71817 2.30372 0
M  V30 1246 C 122.626 -4.86748 1.99907 0
M  V30 1247 O 121.652 -4.99603 2.72737 0
M  V30 1248 N 122.854 -5.7226 0.974635 0
M  V30 1249 H 125.619 -1.88473 2.33019 0
M  V30 1250 H 123.18 -0.900885 1.3452 0
M  V30 1251 H 125.172 -3.95235 0.870116 0
M  V30 1252 H 123.742 -3.11884 0.211452 0
M  V30 1253 H 122.962 -2.88514 2.68614 0
M  V30 1254 H 124.25 -4.02666 3.11026 0
M  V30 1255 H 123.648 -5.6448 0.371368 0
M  V30 1256 H 122.205 -6.46739 0.810656 0
M  V30 1257 N 125.638 -1.25649 -0.95132 0
M  V30 1258 C 126.863 -1.13443 -1.73624 0
M  V30 1259 C 127.288 0.307565 -1.85568 0
M  V30 1260 O 126.646 1.22282 -1.33854 0
M  V30 1261 C 126.694 -1.79723 -3.12621 0
M  V30 1262 O 125.798 -1.07912 -3.98031 0
M  V30 1263 H 125.139 -0.395872 -0.533086 0
M  V30 1264 H 127.669 -1.66276 -1.1922 0
M  V30 1265 H 127.679 -1.86141 -3.63064 0
M  V30 1266 H 126.354 -2.84633 -3.03244 0
M  V30 1267 H 124.931 -1.09398 -3.56492 0
M  V30 1268 N 127.117 1.15442 -1.07289 0
M  V30 1269 C 128.533 1.38201 -0.798288 0
M  V30 1270 C 128.733 1.92429 0.597769 0
M  V30 1271 O 127.789 2.12962 1.3566 0
M  V30 1272 C 129.102 2.35357 -1.87156 0
M  V30 1273 C 130.65 2.49021 -1.89624 0
M  V30 1274 C 131.125 3.49468 -2.96034 0
M  V30 1275 N 132.616 3.57003 -2.95132 0
M  V30 1276 C 133.351 4.34543 -3.74112 0
M  V30 1277 N 132.847 5.15421 -4.6294 0
M  V30 1278 N 134.64 4.29625 -3.62462 0
M  V30 1279 H 126.791 0.78584 -1.97328 0
M  V30 1280 H 129.054 0.408065 -0.855679 0
M  V30 1281 H 128.76 2.02626 -2.87464 0
M  V30 1282 H 128.634 3.35129 -1.73114 0
M  V30 1283 H 131.021 2.81051 -0.899687 0
M  V30 1284 H 131.102 1.4925 -2.07745 0
M  V30 1285 H 130.746 3.18173 -3.95889 0
M  V30 1286 H 130.676 4.48992 -2.75161 0
M  V30 1287 H 133.167 2.99276 -2.30743 0
M  V30 1288 H 133.48 5.7183 -5.19837 0
M  V30 1289 H 131.825 5.14729 -4.66989 0
M  V30 1290 H 135.016 3.65505 -2.92444 0
M  V30 1291 H 135.189 4.89807 -4.24256 0
M  V30 1292 N 128.595 0.856903 1.32268 0
M  V30 1293 C 130.011 0.547061 1.49931 0
M  V30 1294 C 130.211 -0.921781 1.7918 0
M  V30 1295 O 129.267 -1.70469 1.8627 0
M  V30 1296 C 130.58 1.43599 2.64196 0
M  V30 1297 C 132.128 1.43665 2.78081 0
M  V30 1298 C 132.603 2.31085 3.95428 0
M  V30 1299 N 134.094 2.28893 4.02694 0
M  V30 1300 C 134.829 2.93262 4.92732 0
M  V30 1301 N 134.325 3.66751 5.87763 0
M  V30 1302 N 136.118 2.82638 4.85873 0
M  V30 1303 H 128.269 1.8075 1.11549 0
M  V30 1304 H 130.532 0.772144 0.549997 0
M  V30 1305 H 130.238 2.48058 2.49319 0
M  V30 1306 H 130.112 1.12502 3.60032 0
M  V30 1307 H 132.499 0.399701 2.92381 0
M  V30 1308 H 132.58 1.7878 1.82952 0
M  V30 1309 H 132.224 3.34849 3.81888 0
M  V30 1310 H 132.154 1.93302 4.89839 0
M  V30 1311 H 134.645 1.75466 3.34694 0
M  V30 1312 H 134.958 4.13027 6.53168 0
M  V30 1313 H 133.303 3.70859 5.87783 0
M  V30 1314 H 136.494 2.24774 4.10602 0
M  V30 1315 H 136.667 3.33084 5.55841 0
M  V30 1316 N 130.073 -1.45103 0.615059 0
M  V30 1317 C 131.489 -1.57137 0.279322 0
M  V30 1318 C 131.689 -1.60523 -1.21797 0
M  V30 1319 O 130.745 -1.53956 -2.00134 0
M  V30 1320 C 132.058 -2.85062 0.957083 0
M  V30 1321 C 133.606 -2.98749 0.933706 0
M  V30 1322 C 134.081 -4.29455 1.59162 0
M  V30 1323 N 135.572 -4.36231 1.55746 0
M  V30 1324 C 136.307 -5.36051 2.0356 0
M  V30 1325 N 135.803 -6.42367 2.59494 0
M  V30 1326 N 137.596 -5.27456 1.94284 0
M  V30 1327 H 129.747 -1.41148 1.58717 0
M  V30 1328 H 132.01 -0.675331 0.665306 0
M  V30 1329 H 131.716 -2.88488 2.01166 0
M  V30 1330 H 131.59 -3.7407 0.48494 0
M  V30 1331 H 133.977 -2.94886 -0.112347 0
M  V30 1332 H 134.058 -2.11132 1.44419 0
M  V30 1333 H 133.702 -4.34077 2.63704 0
M  V30 1334 H 133.632 -5.15901 1.0561 0
M  V30 1335 H 136.123 -3.60011 1.14893 0
M  V30 1336 H 136.436 -7.14793 2.93752 0
M  V30 1337 H 134.781 -6.43097 2.63537 0
M  V30 1338 H 137.972 -4.43308 1.5032 0
M  V30 1339 H 138.145 -6.05099 2.3186 0
M  V30 1340 N 131.551 -0.354651 -1.53558 0
M  V30 1341 C 132.799 0.237972 -2.00694 0
M  V30 1342 C 133.12 1.50173 -1.24391 0
M  V30 1343 O 132.39 1.92673 -0.354135 0
M  V30 1344 H 130.97 0.0909256 -0.741446 0
M  V30 1345 H 133.632 -0.478368 -1.88938 0
M  V30 1346 H 132.728 0.47264 -3.085 0
M  V30 1347 N 133.029 1.57378 -0.0835403 0
M  V30 1348 C 134.278 1.93106 0.582498 0
M  V30 1349 C 134.591 0.96651 1.70053 0
M  V30 1350 O 135.797 1.21705 2.42693 0
M  V30 1351 C 134.253 3.43076 1.08751 0
M  V30 1352 C 133.861 4.48 -0.000146404 0
M  V30 1353 C 135.605 3.87785 1.72694 0
M  V30 1354 C 133.512 5.89113 0.519568 0
M  V30 1355 H 132.442 0.720775 0.221358 0
M  V30 1356 H 135.093 1.82821 -0.157675 0
M  V30 1357 H 133.475 3.48474 1.88101 0
M  V30 1358 H 134.649 4.54233 -0.775199 0
M  V30 1359 H 132.964 4.1283 -0.54406 0
M  V30 1360 H 135.561 4.90604 2.1263 0
M  V30 1361 H 135.904 3.25796 2.59158 0
M  V30 1362 H 136.437 3.8504 0.999457 0
M  V30 1363 H 133.176 6.54775 -0.308186 0
M  V30 1364 H 132.696 5.86376 1.26188 0
M  V30 1365 H 134.375 6.39346 0.992237 0
M  V30 1366 N 134.507 -0.190092 1.56449 0
M  V30 1367 C 135.755 -0.907908 1.80559 0
M  V30 1368 C 136.076 -1.83583 0.657438 0
M  V30 1369 O 135.346 -1.93203 -0.323924 0
M  V30 1370 H 133.926 -0.338247 0.666032 0
M  V30 1371 H 136.588 -0.194403 1.93928 0
M  V30 1372 H 135.684 -1.49604 2.73907 0
M  V30 1373 N 135.985 -1.50799 -0.457987 0
M  V30 1374 C 137.213 -1.66218 -1.23203 0
M  V30 1375 C 137.628 -0.350894 -1.85511 0
M  V30 1376 O 136.985 0.668546 -1.69814 0
M  V30 1377 C 137.036 -2.76291 -2.33121 0
M  V30 1378 O 136.757 -4.02338 -1.73366 0
M  V30 1379 C 138.258 -3.028 -3.2377 0
M  V30 1380 H 135.478 -0.558361 -0.372121 0
M  V30 1381 H 138.022 -1.97099 -0.545179 0
M  V30 1382 H 136.177 -2.48068 -2.97558 0
M  V30 1383 H 136.591 -4.63312 -2.4585 0
M  V30 1384 H 138.065 -3.8345 -3.97077 0
M  V30 1385 H 138.542 -2.14385 -3.83322 0
M  V30 1386 H 139.148 -3.32604 -2.65056 0
M  V30 1387 N 137.463 0.71206 -1.40597 0
M  V30 1388 C 138.426 1.80785 -1.40888 0
M  V30 1389 C 139.426 1.57937 -0.302103 0
M  V30 1390 O 140.616 1.64913 -0.561182 0
M  V30 1391 C 137.748 3.18927 -1.20409 0
M  V30 1392 H 138.941 1.81924 -2.38419 0
M  V30 1393 H 136.494 0.91805 -1.26497 0
M  V30 1394 H 137.229 3.23436 -0.236522 0
M  V30 1395 H 137.014 3.36911 -2.00582 0
M  V30 1396 H 138.504 3.98949 -1.23408 0
M  V30 1397 N 138.941 1.26152 0.944643 0
M  V30 1398 C 139.874 1.01729 2.04271 0
M  V30 1399 C 140.852 -0.0568101 1.62501 0
M  V30 1400 O 142.036 0.0848987 1.88309 0
M  V30 1401 C 139.163 0.539792 3.34371 0
M  V30 1402 C 138.209 1.60593 3.9511 0
M  V30 1403 S 139.042 3.19392 4.29825 0
M  V30 1404 C 140.198 2.73402 5.63029 0
M  V30 1405 H 140.431 1.94703 2.24673 0
M  V30 1406 H 137.964 1.09793 1.08558 0
M  V30 1407 H 139.922 0.270956 4.09605 0
M  V30 1408 H 138.583 -0.369609 3.11918 0
M  V30 1409 H 137.776 1.22275 4.88943 0
M  V30 1410 H 137.378 1.82596 3.26397 0
M  V30 1411 H 139.67 2.1765 6.41588 0
M  V30 1412 H 140.613 3.65913 6.06229 0
M  V30 1413 H 141.021 2.13077 5.22741 0
M  V30 1414 N 140.419 -1.14872 1.07899 0
M  V30 1415 C 141.382 -2.17986 0.708161 0
M  V30 1416 C 142.382 -1.58775 -0.25442 0
M  V30 1417 O 143.572 -1.74166 -0.034645 0
M  V30 1418 C 140.704 -3.40871 0.0446929 0
M  V30 1419 H 141.897 -2.52306 1.62116 0
M  V30 1420 H 139.45 -1.2943 0.876218 0
M  V30 1421 H 140.185 -3.12124 -0.880281 0
M  V30 1422 H 139.97 -3.8511 0.737091 0
M  V30 1423 H 141.46 -4.17121 -0.19991 0
M  V30 1424 N 141.898 -0.863906 -1.31812 0
M  V30 1425 C 143.314 -0.555004 -1.49639 0
M  V30 1426 C 143.514 0.912266 -1.79666 0
M  V30 1427 O 142.57 1.69479 -1.87171 0
M  V30 1428 C 143.883 -1.44998 -2.63431 0
M  V30 1429 C 145.431 -1.45138 -2.77316 0
M  V30 1430 C 145.906 -2.33179 -3.94197 0
M  V30 1431 N 147.397 -2.31025 -4.01474 0
M  V30 1432 C 148.132 -2.95871 -4.9117 0
M  V30 1433 N 147.628 -3.69863 -5.8581 0
M  V30 1434 N 149.421 -2.85211 -4.84367 0
M  V30 1435 H 141.572 -1.81339 -1.10589 0
M  V30 1436 H 143.835 -0.77505 -0.545895 0
M  V30 1437 H 143.541 -2.49377 -2.48 0
M  V30 1438 H 143.415 -1.14409 -3.59431 0
M  V30 1439 H 145.802 -0.415201 -2.92164 0
M  V30 1440 H 145.883 -1.79747 -1.82001 0
M  V30 1441 H 145.527 -3.3687 -3.80107 0
M  V30 1442 H 145.457 -1.95897 -4.88807 0
M  V30 1443 H 147.948 -1.77238 -3.33759 0
M  V30 1444 H 148.261 -4.16486 -6.50968 0
M  V30 1445 H 146.606 -3.73971 -5.85808 0
M  V30 1446 H 149.797 -2.26948 -4.09405 0
M  V30 1447 H 149.97 -3.36027 -5.54066 0
M  V30 1448 N 143.376 1.44774 -0.622745 0
M  V30 1449 C 144.339 2.29069 0.0774015 0
M  V30 1450 C 145.339 1.4059 0.780461 0
M  V30 1451 O 146.529 1.62551 0.626322 0
M  V30 1452 C 143.661 3.21974 1.12006 0
M  V30 1453 H 144.854 2.92459 -0.663901 0
M  V30 1454 H 142.407 1.51548 -0.382486 0
M  V30 1455 H 143.142 2.63417 1.89162 0
M  V30 1456 H 142.927 3.87168 0.619951 0
M  V30 1457 H 144.417 3.85318 1.60995 0
M  V30 1458 N 144.854 0.36279 1.53368 0
M  V30 1459 C 145.817 -0.472679 2.24273 0
M  V30 1460 C 146.817 -1.012 1.24961 0
M  V30 1461 O 148.007 -0.898194 1.49259 0
M  V30 1462 C 145.139 -1.66039 2.97731 0
M  V30 1463 H 146.332 0.14773 2.99536 0
M  V30 1464 H 143.885 0.114434 1.55881 0
M  V30 1465 H 144.62 -2.31896 2.26704 0
M  V30 1466 H 144.405 -1.28066 3.70596 0
M  V30 1467 H 145.895 -2.25252 3.51641 0
M  V30 1468 N 146.332 -1.57332 0.0918853 0
M  V30 1469 C 147.262 -2.16872 -0.865371 0
M  V30 1470 C 148.243 -1.10118 -1.29646 0
M  V30 1471 O 149.428 -1.38242 -1.36392 0
M  V30 1472 C 146.558 -2.74649 -2.12569 0
M  V30 1473 C 145.512 -3.86747 -1.83333 0
M  V30 1474 C 144.838 -4.31212 -3.16166 0
M  V30 1475 C 146.138 -5.10089 -1.1228 0
M  V30 1476 H 147.832 -2.97114 -0.369307 0
M  V30 1477 H 145.378 -1.42918 -0.176194 0
M  V30 1478 H 147.331 -3.14952 -2.7997 0
M  V30 1479 H 146.055 -1.91657 -2.64452 0
M  V30 1480 H 144.714 -3.46978 -1.18331 0
M  V30 1481 H 144.362 -3.45115 -3.6593 0
M  V30 1482 H 144.062 -5.06788 -2.97388 0
M  V30 1483 H 145.586 -4.74146 -3.84731 0
M  V30 1484 H 147 -5.47582 -1.69785 0
M  V30 1485 H 145.397 -5.91073 -1.03693 0
M  V30 1486 H 146.467 -4.84786 -0.105041 0
M  V30 1487 N 147.81 0.181792 -1.56548 0
M  V30 1488 C 148.773 1.20894 -1.94724 0
M  V30 1489 C 149.773 1.37738 -0.829747 0
M  V30 1490 O 150.963 1.35323 -1.09697 0
M  V30 1491 C 148.095 2.57593 -2.23291 0
M  V30 1492 H 149.288 0.882275 -2.86629 0
M  V30 1493 H 146.841 0.423838 -1.50444 0
M  V30 1494 H 147.576 2.95291 -1.34067 0
M  V30 1495 H 147.361 2.46735 -3.04736 0
M  V30 1496 H 148.851 3.31637 -2.53785 0
M  V30 1497 N 149.288 1.51039 0.449983 0
M  V30 1498 C 150.235 1.71439 1.54523 0
M  V30 1499 C 151.205 0.555871 1.56522 0
M  V30 1500 O 152.39 0.788871 1.73728 0
M  V30 1501 C 149.53 1.83384 2.92343 0
M  V30 1502 C 148.643 3.10873 2.9997 0
M  V30 1503 C 147.778 3.13488 4.28834 0
M  V30 1504 C 146.817 4.35343 4.30282 0
M  V30 1505 N 145.954 4.35579 5.5065 0
M  V30 1506 H 150.794 2.64934 1.36433 0
M  V30 1507 H 148.331 1.31312 0.662982 0
M  V30 1508 H 150.289 1.88291 3.72293 0
M  V30 1509 H 148.919 0.933086 3.0902 0
M  V30 1510 H 147.971 3.15336 2.12761 0
M  V30 1511 H 149.283 4.00814 2.96901 0
M  V30 1512 H 148.437 3.17241 5.17149 0
M  V30 1513 H 147.176 2.21414 4.34543 0
M  V30 1514 H 146.181 4.3178 3.40362 0
M  V30 1515 H 147.406 5.28668 4.26248 0
M  V30 1516 H 145.352 3.46369 5.57104 0
M  V30 1517 H 145.269 5.19313 5.49409 0
M  V30 1518 H 146.537 4.43507 6.41032 0
M  V30 1519 N 150.766 -0.704594 1.40972 0
M  V30 1520 C 151.994 -1.49354 1.43182 0
M  V30 1521 C 152.409 -1.88768 0.0345508 0
M  V30 1522 O 151.766 -1.56184 -0.944081 0
M  V30 1523 C 151.817 -2.76187 2.33244 0
M  V30 1524 O 151.538 -2.38436 3.67532 0
M  V30 1525 C 153.039 -3.7 2.44162 0
M  V30 1526 H 150.259 -0.460559 0.487982 0
M  V30 1527 H 152.803 -0.868261 1.85153 0
M  V30 1528 H 150.958 -3.34974 1.94606 0
M  V30 1529 H 151.372 -3.20126 4.15475 0
M  V30 1530 H 152.846 -4.55803 3.11364 0
M  V30 1531 H 153.323 -4.13867 1.47006 0
M  V30 1532 H 153.929 -3.17121 2.83398 0
M  V30 1533 N 152.244 -1.26651 -0.937939 0
M  V30 1534 C 153.207 -1.08546 -2.01867 0
M  V30 1535 C 154.207 -0.0327327 -1.60767 0
M  V30 1536 O 155.397 -0.276427 -1.71993 0
M  V30 1537 C 152.529 -0.651711 -3.34613 0
M  V30 1538 H 153.722 -2.04502 -2.1936 0
M  V30 1539 H 151.275 -1.09294 -1.11734 0
M  V30 1540 H 152.01 0.309696 -3.22818 0
M  V30 1541 H 151.795 -1.41189 -3.65798 0
M  V30 1542 H 153.285 -0.546973 -4.14002 0
M  V30 1543 N 153.722 1.14298 -1.08507 0
M  V30 1544 C 154.97 1.84993 -0.813763 0
M  V30 1545 C 155.291 1.83405 0.662393 0
M  V30 1546 O 154.561 1.28319 1.48024 0
M  V30 1547 H 153.141 0.684966 -0.298045 0
M  V30 1548 H 155.803 1.385 -1.37126 0
M  V30 1549 H 154.899 2.89788 -1.15884 0
M  V30 1550 N 155.201 0.870884 1.31352 0
M  V30 1551 C 156.617 0.562932 1.49343 0
M  V30 1552 C 156.817 -0.902725 1.80148 0
M  V30 1553 O 155.873 -1.68484 1.88067 0
M  V30 1554 C 157.186 1.46393 2.62659 0
M  V30 1555 C 158.734 1.46607 2.76542 0
M  V30 1556 C 159.209 2.35266 3.92955 0
M  V30 1557 N 160.7 2.33151 4.00243 0
M  V30 1558 C 161.435 2.98471 4.89594 0
M  V30 1559 N 160.931 3.72964 5.8384 0
M  V30 1560 N 162.724 2.87775 4.82848 0
M  V30 1561 H 154.875 1.81923 1.09626 0
M  V30 1562 H 157.138 0.777934 0.541777 0
M  V30 1563 H 156.844 2.50689 2.46674 0
M  V30 1564 H 156.718 1.16314 3.58819 0
M  V30 1565 H 159.105 0.43069 2.9194 0
M  V30 1566 H 159.186 1.8071 1.81046 0
M  V30 1567 H 158.83 3.38881 3.78315 0
M  V30 1568 H 158.76 1.98487 4.87761 0
M  V30 1569 H 161.251 1.79006 3.32814 0
M  V30 1570 H 161.564 4.19932 6.4875 0
M  V30 1571 H 159.909 3.77073 5.83816 0
M  V30 1572 H 163.1 2.29116 4.08195 0
M  V30 1573 H 163.273 3.38961 5.52277 0
M  V30 1574 N 156.679 -1.44442 0.630414 0
M  V30 1575 C 157.627 -2.32437 -0.0871428 0
M  V30 1576 C 158.621 -1.47304 -0.836525 0
M  V30 1577 O 159.827 -1.63653 -0.749506 0
M  V30 1578 H 156.202 -0.750533 -0.0469495 0
M  V30 1579 H 158.173 -2.90709 0.673096 0
M  V30 1580 C 156.922 -3.31288 -1.05563 0
M  V30 1581 H 156.245 -3.96805 -0.488426 0
M  V30 1582 H 157.685 -3.9554 -1.52721 0
M  V30 1583 C 156.144 -2.6016 -2.14052 0
M  V30 1584 O 156.674 -2.39997 -3.22124 0
M  V30 1585 N 154.88 -2.19911 -1.89967 0
M  V30 1586 H 154.427 -2.36509 -1.02085 0
M  V30 1587 H 154.385 -1.72646 -2.62756 0
M  V30 1588 N 158.157 -0.370918 -1.53173 0
M  V30 1589 C 159.089 0.507823 -2.23503 0
M  V30 1590 C 160.102 1.04182 -1.251 0
M  V30 1591 O 161.291 0.947286 -1.5129 0
M  V30 1592 C 158.391 1.71447 -2.92334 0
M  V30 1593 C 157.564 1.31105 -4.17289 0
M  V30 1594 C 156.623 2.38035 -4.69282 0
M  V30 1595 O 155.649 2.00204 -5.32829 0
M  V30 1596 N 156.851 3.69697 -4.47554 0
M  V30 1597 H 159.616 -0.0946382 -2.99551 0
M  V30 1598 H 157.177 -0.196358 -1.60705 0
M  V30 1599 H 159.169 2.42469 -3.24023 0
M  V30 1600 H 157.739 2.22368 -2.19707 0
M  V30 1601 H 156.959 0.430462 -3.91843 0
M  V30 1602 H 158.247 1.0179 -4.98514 0
M  V30 1603 H 157.645 4.03205 -3.9679 0
M  V30 1604 H 156.202 4.36807 -4.8378 0
M  V30 1605 N 159.635 1.57281 -0.100228 0
M  V30 1606 C 160.882 1.94537 0.562268 0
M  V30 1607 C 161.21 0.982315 1.67871 0
M  V30 1608 O 160.465 0.00280936 1.957 0
M  V30 1609 C 160.764 3.38305 1.15259 0
M  V30 1610 C 160.43 4.50618 0.159409 0
M  V30 1611 C 159.092 4.81066 -0.113741 0
M  V30 1612 C 161.444 5.18615 -0.518461 0
M  V30 1613 C 158.772 5.76835 -1.07137 0
M  V30 1614 C 161.124 6.15412 -1.46459 0
M  V30 1615 C 159.788 6.44262 -1.74592 0
M  V30 1616 H 159.058 0.711863 0.205748 0
M  V30 1617 H 161.705 1.90679 -0.17715 0
M  V30 1618 H 160.01 3.38766 1.96836 0
M  V30 1619 H 161.707 3.64435 1.67297 0
M  V30 1620 H 158.297 4.2689 0.382491 0
M  V30 1621 H 162.481 4.95264 -0.320581 0
M  V30 1622 H 157.737 5.975 -1.29628 0
M  V30 1623 H 161.911 6.67194 -1.99564 0
M  V30 1624 H 159.538 7.1828 -2.48953 0
M  V30 1625 N 161.113 -0.173488 1.56642 0
M  V30 1626 C 162.359 -0.887108 1.83035 0
M  V30 1627 C 162.714 -1.79965 0.680461 0
M  V30 1628 O 162.007 -1.88854 -0.323225 0
M  V30 1629 C 162.201 -1.72069 3.13252 0
M  V30 1630 C 162.03 -0.89035 4.40798 0
M  V30 1631 C 160.8 -0.566282 5.02117 0
M  V30 1632 C 162.998 -0.232921 5.13772 0
M  V30 1633 N 160.98 0.280427 6.13259 0
M  V30 1634 C 162.351 0.475046 6.18177 0
M  V30 1635 C 164.406 -0.150863 4.97671 0
M  V30 1636 C 163.109 1.25729 7.08227 0
M  V30 1637 C 165.135 0.618039 5.88162 0
M  V30 1638 C 164.497 1.31438 6.92029 0
M  V30 1639 H 160.596 -0.303303 0.720785 0
M  V30 1640 H 163.18 -0.154244 1.94088 0
M  V30 1641 H 161.351 -2.42499 3.03395 0
M  V30 1642 H 163.083 -2.37545 3.2765 0
M  V30 1643 H 159.838 -0.895852 4.6505 0
M  V30 1644 H 160.262 0.694027 6.73433 0
M  V30 1645 H 164.904 -0.674868 4.17379 0
M  V30 1646 H 162.622 1.79265 7.87966 0
M  V30 1647 H 166.208 0.683173 5.77775 0
M  V30 1648 H 165.088 1.89981 7.6084 0
M  V30 1649 N 162.591 -1.51276 -0.441967 0
M  V30 1650 C 163.554 -1.7167 -1.51862 0
M  V30 1651 C 164.554 -0.586793 -1.49711 0
M  V30 1652 O 165.744 -0.854276 -1.51815 0
M  V30 1653 C 162.876 -1.76889 -2.91416 0
M  V30 1654 H 164.069 -2.67754 -1.35084 0
M  V30 1655 H 161.622 -1.41196 -0.670333 0
M  V30 1656 H 162.357 -0.826026 -3.13604 0
M  V30 1657 H 162.142 -2.59001 -2.94382 0
M  V30 1658 H 163.632 -1.94522 -3.69528 0
M  V30 1659 N 164.069 0.697108 -1.41344 0
M  V30 1660 C 165.019 1.80313 -1.39539 0
M  V30 1661 C 166.003 1.58618 -0.270001 0
M  V30 1662 O 167.195 1.69477 -0.510551 0
M  V30 1663 C 164.324 3.18606 -1.27848 0
M  V30 1664 C 163.41 3.46001 -2.45244 0
M  V30 1665 N 163.801 3.44103 -3.70711 0
M  V30 1666 C 162.099 3.76542 -2.39023 0
M  V30 1667 C 162.8 3.7036 -4.48563 0
M  V30 1668 N 161.776 3.90027 -3.78655 0
M  V30 1669 H 165.578 1.77207 -2.34468 0
M  V30 1670 H 163.092 0.897031 -1.35378 0
M  V30 1671 H 165.089 3.97833 -1.24637 0
M  V30 1672 H 163.749 3.22925 -0.339032 0
M  V30 1673 H 164.76 3.2452 -4.03618 0
M  V30 1674 H 161.437 3.88241 -1.53542 0
M  V30 1675 H 162.827 3.75042 -5.57488 0
M  V30 1676 N 165.547 1.27147 0.931209 0
M  V30 1677 C 166.795 1.13055 1.6752 0
M  V30 1678 C 167.116 -0.324791 1.92276 0
M  V30 1679 O 166.386 -1.22775 1.52654 0
M  V30 1680 H 164.966 0.415391 0.620854 0
M  V30 1681 H 167.628 1.59623 1.11833 0
M  V30 1682 H 166.724 1.65694 2.64485 0
M  V30 1683 N 167.025 -1.13721 1.09112 0
M  V30 1684 C 168.253 -1.88773 0.846899 0
M  V30 1685 C 168.668 -1.7896 -0.601572 0
M  V30 1686 O 168.025 -1.15394 -1.41388 0
M  V30 1687 C 168.076 -3.3849 1.26913 0
M  V30 1688 O 167.797 -3.48043 2.66079 0
M  V30 1689 C 169.298 -4.30518 1.05682 0
M  V30 1690 H 166.518 -0.59772 0.304914 0
M  V30 1691 H 169.062 -1.43977 1.45227 0
M  V30 1692 H 167.217 -3.80881 0.707723 0
M  V30 1693 H 167.631 -4.4109 2.83795 0
M  V30 1694 H 169.105 -5.3391 1.40156 0
M  V30 1695 H 169.582 -4.392 -0.00563416 0
M  V30 1696 H 170.188 -3.93893 1.60402 0
M  V30 1697 N 168.503 -0.877838 -1.30888 0
M  V30 1698 C 169.433 -0.35534 -2.3078 0
M  V30 1699 C 170.414 0.557994 -1.60687 0
M  V30 1700 O 171.599 0.473355 -1.88343 0
M  V30 1701 C 168.729 0.437221 -3.44537 0
M  V30 1702 C 167.683 -0.383715 -4.26276 0
M  V30 1703 C 167.009 0.535014 -5.32017 0
M  V30 1704 C 168.309 -1.62201 -4.96476 0
M  V30 1705 H 170.003 -1.19007 -2.74732 0
M  V30 1706 H 167.549 -0.573698 -1.32078 0
M  V30 1707 H 169.502 0.813334 -4.13477 0
M  V30 1708 H 168.226 1.30553 -2.99372 0
M  V30 1709 H 166.885 -0.741874 -3.59015 0
M  V30 1710 H 166.533 1.40083 -4.831 0
M  V30 1711 H 166.233 -0.0104211 -5.87599 0
M  V30 1712 H 167.757 0.907799 -6.03814 0
M  V30 1713 H 169.171 -1.31689 -5.5797 0
M  V30 1714 H 167.568 -2.10711 -5.61891 0
M  V30 1715 H 168.638 -2.37044 -4.23011 0
M  V30 1716 N 169.982 1.44106 -0.638065 0
M  V30 1717 C 171.259 1.95453 -0.0759321 0
M  V30 1718 C 171.639 1.57984 1.40015 0
M  V30 1719 O 170.987 0.857361 2.11806 0
M  V30 1720 C 171.197 3.47655 -0.306132 0
M  V30 1721 C 172.545 4.24114 -0.203008 0
M  V30 1722 O 173.569 3.55405 -0.237871 0
M  V30 1723 O 172.428 5.46381 -0.113827 0
M  V30 1724 H 169.522 0.826797 0.0183332 0
M  V30 1725 H 172.068 1.54122 -0.710251 0
M  V30 1726 H 170.84 3.68 -1.3301 0
M  V30 1727 H 170.463 3.95949 0.361991 0
M  V30 1728 N 171.46 0.379036 1.52974 0
M  V30 1729 C 172.871 -0.0972525 1.86447 0
M  V30 1730 C 173.222 -1.47027 1.29914 0
M  V30 1731 O 172.347 -2.07135 0.626433 0
M  V30 1732 C 172.942 -0.183248 3.38304 0
M  V30 1733 C 171.501 -0.603812 3.71525 0
M  V30 1734 C 170.648 0.240632 2.76254 0
M  V30 1735 H 173.599 0.597316 1.4703 0
M  V30 1736 H 173.62 -1.00432 3.67006 0
M  V30 1737 H 173.132 0.816191 3.79421 0
M  V30 1738 H 171.233 -1.61099 3.35973 0
M  V30 1739 H 171.346 -0.369086 4.77676 0
M  V30 1740 H 169.71 -0.292548 2.53014 0
M  V30 1741 H 170.493 1.23786 3.20206 0
M  V30 1742 N 172.938 -1.57226 0.108567 0
M  V30 1743 C 173.901 -2.13602 -0.831082 0
M  V30 1744 C 174.901 -1.06841 -1.20173 0
M  V30 1745 O 176.091 -1.32666 -1.12895 0
M  V30 1746 C 173.223 -2.66769 -2.12243 0
M  V30 1747 H 174.416 -2.97951 -0.341317 0
M  V30 1748 H 171.969 -1.55667 -0.14057 0
M  V30 1749 H 172.704 -1.85977 -2.65675 0
M  V30 1750 H 172.489 -3.44839 -1.86625 0
M  V30 1751 H 173.979 -3.10332 -2.79435 0
M  V30 1752 N 174.416 0.165178 -1.56732 0
M  V30 1753 C 175.832 0.517174 -1.50988 0
M  V30 1754 C 176.032 1.84331 -0.813894 0
M  V30 1755 O 175.088 2.49672 -0.37682 0
M  V30 1756 C 176.401 0.544261 -2.95733 0
M  V30 1757 C 177.949 0.631039 -3.06573 0
M  V30 1758 C 178.424 0.68896 -4.52788 0
M  V30 1759 N 179.915 0.751683 -4.5706 0
M  V30 1760 C 180.65 0.817177 -5.67547 0
M  V30 1761 N 180.146 0.843129 -6.8765 0
M  V30 1762 N 181.939 0.856668 -5.55534 0
M  V30 1763 H 174.09 -0.704318 -2.00382 0
M  V30 1764 H 176.353 -0.254687 -0.913148 0
M  V30 1765 H 176.059 -0.361607 -3.49836 0
M  V30 1766 H 175.933 1.3886 -3.5071 0
M  V30 1767 H 178.32 1.52733 -2.52501 0
M  V30 1768 H 178.401 -0.240095 -2.54671 0
M  V30 1769 H 178.045 -0.2031 -5.07494 0
M  V30 1770 H 177.975 1.57633 -5.02454 0
M  V30 1771 H 180.466 0.739661 -3.70591 0
M  V30 1772 H 180.779 0.894448 -7.67606 0
M  V30 1773 H 179.124 0.811304 -6.90248 0
M  V30 1774 H 182.315 0.833437 -4.60621 0
M  V30 1775 H 182.488 0.904247 -6.4166 0
M  V30 1776 N 175.894 1.51508 0.433938 0
M  V30 1777 C 176.857 1.72473 1.50949 0
M  V30 1778 C 177.857 0.594725 1.49398 0
M  V30 1779 O 179.047 0.862315 1.5136 0
M  V30 1780 C 176.179 1.78431 2.90474 0
M  V30 1781 H 177.372 2.68467 1.33662 0
M  V30 1782 H 174.925 1.41549 0.662836 0
M  V30 1783 H 175.66 0.842645 3.13161 0
M  V30 1784 H 175.445 2.60558 2.93005 0
M  V30 1785 H 176.935 1.96479 3.68491 0
M  V30 1786 N 177.372 -0.689602 1.41712 0
M  V30 1787 C 178.6 -1.47827 1.44758 0
M  V30 1788 C 179.015 -1.88721 0.0545703 0
M  V30 1789 O 178.372 -1.57176 -0.927463 0
M  V30 1790 C 178.423 -2.73698 2.3616 0
M  V30 1791 O 178.144 -2.34524 3.7004 0
M  V30 1792 C 179.645 -3.67389 2.48072 0
M  V30 1793 H 176.865 -0.455357 0.49284 0
M  V30 1794 H 179.409 -0.848574 1.86063 0
M  V30 1795 H 177.564 -3.32891 1.98148 0
M  V30 1796 H 177.978 -3.15701 4.18847 0
M  V30 1797 H 179.452 -4.52475 3.16181 0
M  V30 1798 H 179.929 -4.12284 1.51388 0
M  V30 1799 H 180.535 -3.14097 2.86746 0
M  V30 1800 N 178.85 -1.27639 -0.924453 0
M  V30 1801 C 179.813 -1.10681 -2.00705 0
M  V30 1802 C 180.813 -0.0497823 -1.60723 0
M  V30 1803 O 182.003 -0.294654 -1.7169 0
M  V30 1804 C 179.135 -0.687164 -3.33902 0
M  V30 1805 H 180.328 -2.06817 -2.17179 0
M  V30 1806 H 177.881 -1.10473 -1.10569 0
M  V30 1807 H 178.616 0.275439 -3.23128 0
M  V30 1808 H 178.401 -1.45061 -3.6428 0
M  V30 1809 H 179.891 -0.590853 -4.13399 0
M  V30 1810 N 180.328 1.1314 -1.09713 0
M  V30 1811 C 181.553 1.88862 -0.857081 0
M  V30 1812 C 181.978 1.78729 0.586304 0
M  V30 1813 O 181.336 1.13692 1.41222 0
M  V30 1814 C 181.384 3.36325 -1.30069 0
M  V30 1815 O 180.488 4.09815 -0.461007 0
M  V30 1816 H 179.829 0.587108 -0.310162 0
M  V30 1817 H 182.359 1.43129 -1.46203 0
M  V30 1818 H 182.369 3.87157 -1.28738 0
M  V30 1819 H 181.044 3.43017 -2.35185 0
M  V30 1820 H 179.621 3.68986 -0.538888 0
M  V30 1821 N 181.806 0.884767 1.30421 0
M  V30 1822 C 182.769 0.356277 2.26414 0
M  V30 1823 C 183.769 -0.501124 1.52792 0
M  V30 1824 O 184.959 -0.30831 1.7145 0
M  V30 1825 C 182.091 -0.492316 3.37326 0
M  V30 1826 H 183.284 1.20389 2.74675 0
M  V30 1827 H 180.837 0.661607 1.41607 0
M  V30 1828 H 181.572 -1.36052 2.94381 0
M  V30 1829 H 181.357 0.121832 3.91911 0
M  V30 1830 H 182.847 -0.853871 4.08777 0
M  V30 1831 N 183.284 -1.43765 0.645699 0
M  V30 1832 C 184.214 -2.33471 -0.0370477 0
M  V30 1833 C 185.195 -1.49042 -0.819779 0
M  V30 1834 O 186.38 -1.77726 -0.782758 0
M  V30 1835 C 183.51 -3.32311 -1.0093 0
M  V30 1836 C 182.464 -4.2667 -0.337201 0
M  V30 1837 C 181.79 -5.1549 -1.42037 0
M  V30 1838 C 183.09 -5.16657 0.765706 0
M  V30 1839 H 184.784 -2.90809 0.712069 0
M  V30 1840 H 182.33 -1.39834 0.343876 0
M  V30 1841 H 184.283 -3.9396 -1.49578 0
M  V30 1842 H 183.007 -2.73213 -1.78948 0
M  V30 1843 H 181.666 -3.66374 0.128771 0
M  V30 1844 H 181.314 -4.52735 -2.1918 0
M  V30 1845 H 181.014 -5.79438 -0.975966 0
M  V30 1846 H 182.538 -5.80012 -1.90838 0
M  V30 1847 H 183.952 -5.72158 0.361702 0
M  V30 1848 H 182.349 -5.89286 1.13413 0
M  V30 1849 H 183.419 -4.56796 1.62683 0
M  V30 1850 N 184.763 -0.387143 -1.52771 0
M  V30 1851 C 186.011 0.195349 -2.01154 0
M  V30 1852 C 186.332 1.475 -1.27549 0
M  V30 1853 O 185.602 1.91878 -0.394924 0
M  V30 1854 H 184.182 0.075178 -0.743207 0
M  V30 1855 H 186.844 -0.518337 -1.87881 0
M  V30 1856 H 185.94 0.407096 -3.09434 0
M  V30 1857 N 186.241 1.57166 -0.116904 0
M  V30 1858 C 187.171 2.18222 0.830759 0
M  V30 1859 C 188.152 1.12167 1.27877 0
M  V30 1860 O 189.337 1.40394 1.34176 0
M  V30 1861 C 186.467 2.77996 2.08172 0
M  V30 1862 C 185.421 3.89614 1.77157 0
M  V30 1863 C 184.747 4.36187 3.09265 0
M  V30 1864 C 186.047 5.1181 1.04151 0
M  V30 1865 H 187.741 2.97664 0.321992 0
M  V30 1866 H 185.287 1.4318 0.153434 0
M  V30 1867 H 187.24 3.19366 2.74924 0
M  V30 1868 H 185.964 1.9584 2.6137 0
M  V30 1869 H 184.623 3.48816 1.12796 0
M  V30 1870 H 184.271 3.50893 3.60393 0
M  V30 1871 H 183.971 5.11455 2.89288 0
M  V30 1872 H 185.495 4.80207 3.77139 0
M  V30 1873 H 186.909 5.50214 1.61052 0
M  V30 1874 H 185.306 5.92648 0.942762 0
M  V30 1875 H 186.376 4.84892 0.0279022 0
M  V30 1876 N 187.719 -0.156864 1.56817 0
M  V30 1877 C 188.965 -0.872416 1.83076 0
M  V30 1878 C 189.298 -1.81261 0.697001 0
M  V30 1879 O 188.573 -1.92171 -0.30008 0
M  V30 1880 C 188.856 -1.65551 3.19789 0
M  V30 1881 C 188.709 -0.737467 4.43713 0
M  V30 1882 C 190.028 -2.62012 3.53606 0
M  V30 1883 H 187.147 -0.315715 0.665953 0
M  V30 1884 H 189.789 -0.138004 1.89498 0
M  V30 1885 H 187.939 -2.28159 3.14445 0
M  V30 1886 H 189.611 -0.123143 4.61136 0
M  V30 1887 H 187.854 -0.0464067 4.33775 0
M  V30 1888 H 188.525 -1.32122 5.35955 0
M  V30 1889 H 191.001 -2.09525 3.59497 0
M  V30 1890 H 189.877 -3.13861 4.50314 0
M  V30 1891 H 190.138 -3.42902 2.79053 0
M  V30 1892 N 189.197 -1.51736 -0.425897 0
M  V30 1893 C 190.445 -1.64644 -1.17204 0
M  V30 1894 C 190.766 -0.370486 -1.91448 0
M  V30 1895 O 190.036 0.614088 -1.86026 0
M  V30 1896 H 188.616 -0.606819 -0.435638 0
M  V30 1897 H 191.278 -1.88713 -0.487177 0
M  V30 1898 H 190.374 -2.47958 -1.89534 0
M  V30 1899 N 190.675 0.682077 -1.42076 0
M  V30 1900 C 191.921 1.44428 -1.42367 0
M  V30 1901 C 192.254 1.94164 -0.0373056 0
M  V30 1902 O 191.529 1.70429 0.937239 0
M  V30 1903 C 191.812 2.64654 -2.44194 0
M  V30 1904 C 191.665 2.20596 -3.91991 0
M  V30 1905 C 192.984 3.66865 -2.431 0
M  V30 1906 H 190.103 0.523834 -0.518428 0
M  V30 1907 H 192.745 0.77576 -1.73442 0
M  V30 1908 H 190.895 3.2169 -2.17826 0
M  V30 1909 H 192.567 1.68783 -4.29313 0
M  V30 1910 H 190.81 1.52242 -4.06208 0
M  V30 1911 H 191.481 3.06921 -4.58807 0
M  V30 1912 H 193.957 3.19531 -2.66532 0
M  V30 1913 H 192.833 4.48577 -3.16339 0
M  V30 1914 H 193.094 4.17493 -1.45437 0
M  V30 1915 N 192.153 1.28127 0.917671 0
M  V30 1916 C 193.569 1.05749 1.19538 0
M  V30 1917 C 193.769 -0.202633 2.00479 0
M  V30 1918 O 192.825 -0.905382 2.3571 0
M  V30 1919 C 194.138 2.30273 1.93378 0
M  V30 1920 C 195.686 2.35412 2.06277 0
M  V30 1921 C 196.161 3.59692 2.83524 0
M  V30 1922 N 197.652 3.60309 2.91087 0
M  V30 1923 C 198.387 4.53147 3.51348 0
M  V30 1924 N 197.883 5.563 4.12919 0
M  V30 1925 N 199.676 4.40751 3.48849 0
M  V30 1926 H 191.827 2.09024 0.377184 0
M  V30 1927 H 194.09 0.919798 0.22951 0
M  V30 1928 H 193.796 3.22055 1.41328 0
M  V30 1929 H 193.67 2.36378 2.93947 0
M  V30 1930 H 196.057 1.4413 2.57508 0
M  V30 1931 H 196.138 2.33304 1.04895 0
M  V30 1932 H 195.782 4.51316 2.32973 0
M  V30 1933 H 195.712 3.59054 3.85211 0
M  V30 1934 H 198.203 2.85714 2.47338 0
M  V30 1935 H 198.516 6.2329 4.56869 0
M  V30 1936 H 196.861 5.60131 4.11435 0
M  V30 1937 H 200.052 3.59367 2.99955 0
M  V30 1938 H 200.225 5.13291 3.9552 0
M  V30 1939 N 193.631 -1.12557 1.10312 0
M  V30 1940 C 194.541 -2.21841 0.763142 0
M  V30 1941 C 195.557 -1.72354 -0.238801 0
M  V30 1942 O 196.733 -2.01249 -0.0778746 0
M  V30 1943 C 193.798 -3.46131 0.198632 0
M  V30 1944 C 192.859 -4.10464 1.25769 0
M  V30 1945 C 192.092 -5.28821 0.72002 0
M  V30 1946 O 192.315 -5.6859 -0.453993 0
M  V30 1947 O 191.249 -5.83437 1.47935 0
M  V30 1948 H 195.075 -2.53312 1.67532 0
M  V30 1949 H 192.66 -1.20867 0.878157 0
M  V30 1950 H 194.542 -4.2125 -0.112401 0
M  V30 1951 H 193.217 -3.16338 -0.686419 0
M  V30 1952 H 192.124 -3.3713 1.62156 0
M  V30 1953 H 193.457 -4.44408 2.11571 0
M  V30 1954 N 195.109 -0.891671 -1.2995 0
M  V30 1955 C 196.039 -0.379797 -2.30391 0
M  V30 1956 C 197.02 0.540919 -1.6127 0
M  V30 1957 O 198.205 0.453352 -1.88834 0
M  V30 1958 C 195.335 0.400654 -3.44981 0
M  V30 1959 C 194.289 -0.428905 -4.25846 0
M  V30 1960 C 193.615 0.478557 -5.32554 0
M  V30 1961 C 194.915 -1.67458 -4.94727 0
M  V30 1962 H 196.609 -1.21914 -2.73454 0
M  V30 1963 H 194.155 -0.587675 -1.31462 0
M  V30 1964 H 196.108 0.769434 -4.14316 0
M  V30 1965 H 194.832 1.27371 -3.0074 0
M  V30 1966 H 193.491 -0.779911 -3.58208 0
M  V30 1967 H 193.139 1.34951 -4.84559 0
M  V30 1968 H 192.839 -0.0727433 -5.87555 0
M  V30 1969 H 194.363 0.843705 -6.04743 0
M  V30 1970 H 195.777 -1.376 -5.56542 0
M  V30 1971 H 194.174 -2.16659 -5.59624 0
M  V30 1972 H 195.244 -2.41518 -4.20473 0
M  V30 1973 N 196.587 1.43421 -0.653314 0
M  V30 1974 C 197.836 2.01032 -0.164076 0
M  V30 1975 C 198.149 1.52147 1.22926 0
M  V30 1976 O 199.355 2.02031 1.81371 0
M  V30 1977 C 197.811 3.59082 -0.24252 0
M  V30 1978 C 197.419 4.1696 -1.63855 0
M  V30 1979 C 199.163 4.24079 0.18911 0
M  V30 1980 C 197.07 5.67304 -1.67092 0
M  V30 1981 H 196 0.751798 -0.0575769 0
M  V30 1982 H 198.651 1.6439 -0.815362 0
M  V30 1983 H 197.033 3.93125 0.476276 0
M  V30 1984 H 198.207 3.94416 -2.38271 0
M  V30 1985 H 196.522 3.64335 -2.01616 0
M  V30 1986 H 199.119 5.34381 0.184775 0
M  V30 1987 H 199.462 3.98005 1.22056 0
M  V30 1988 H 199.995 3.94918 -0.477938 0
M  V30 1989 H 196.734 5.98145 -2.68146 0
M  V30 1990 H 196.254 5.91904 -0.970014 0
M  V30 1991 H 197.933 6.31344 -1.4147 0
M  V30 1992 N 198.065 0.39524 1.52563 0
M  V30 1993 C 198.997 -0.472201 2.24283 0
M  V30 1994 C 200.01 -1.02178 1.26742 0
M  V30 1995 O 201.199 -0.923097 1.52778 0
M  V30 1996 C 198.299 -1.66775 2.95024 0
M  V30 1997 C 197.472 -1.2445 4.19322 0
M  V30 1998 C 196.531 -2.30539 4.7301 0
M  V30 1999 O 195.557 -1.91702 5.35947 0
M  V30 2000 N 196.759 -3.6253 4.53379 0
M  V30 2001 H 199.524 0.142282 2.99362 0
M  V30 2002 H 197.085 0.2219 1.60372 0
M  V30 2003 H 199.077 -2.37283 3.27839 0
M  V30 2004 H 197.647 -2.18845 2.23217 0
M  V30 2005 H 196.867 -0.368069 3.92478 0
M  V30 2006 H 198.155 -0.938457 5.0007 0
M  V30 2007 H 197.553 -3.96841 4.03154 0
M  V30 2008 H 196.11 -4.29055 4.90668 0
M  V30 2009 N 199.544 -1.57102 0.125237 0
M  V30 2010 C 200.477 -2.11371 -0.860094 0
M  V30 2011 C 201.455 -1.03168 -1.25679 0
M  V30 2012 O 202.639 -1.30862 -1.35674 0
M  V30 2013 C 199.766 -2.61555 -2.1519 0
M  V30 2014 C 198.812 -3.81701 -1.9028 0
M  V30 2015 S 199.645 -5.23797 -1.11343 0
M  V30 2016 C 200.801 -5.77353 -2.41689 0
M  V30 2017 H 201.034 -2.94617 -0.39852 0
M  V30 2018 H 198.567 -1.54145 -0.0886555 0
M  V30 2019 H 200.525 -2.91122 -2.89411 0
M  V30 2020 H 199.186 -1.78479 -2.58465 0
M  V30 2021 H 198.379 -4.14985 -2.86014 0
M  V30 2022 H 197.981 -3.52783 -1.24178 0
M  V30 2023 H 200.273 -5.87458 -3.37489 0
M  V30 2024 H 201.216 -6.75323 -2.12942 0
M  V30 2025 H 201.624 -5.05457 -2.51342 0
M  V30 2026 N 201.022 0.148545 -1.56898 0
M  V30 2027 C 202.438 0.501131 -1.51528 0
M  V30 2028 C 202.638 1.83458 -0.833399 0
M  V30 2029 O 201.694 2.49259 -0.40328 0
M  V30 2030 C 203.007 0.512864 -2.96294 0
M  V30 2031 C 204.555 0.598487 -3.07225 0
M  V30 2032 C 205.03 0.640897 -4.53494 0
M  V30 2033 N 206.521 0.703163 -4.57832 0
M  V30 2034 C 207.256 0.756935 -5.68382 0
M  V30 2035 N 206.752 0.770147 -6.88506 0
M  V30 2036 N 208.545 0.797698 -5.56411 0
M  V30 2037 H 200.696 -0.725532 -1.99624 0
M  V30 2038 H 202.959 -0.264358 -0.910395 0
M  V30 2039 H 202.665 -0.398691 -3.49433 0
M  V30 2040 H 202.539 1.35133 -3.52163 0
M  V30 2041 H 204.926 1.50046 -2.54106 0
M  V30 2042 H 205.007 -0.267093 -2.54402 0
M  V30 2043 H 204.651 -0.256915 -5.0725 0
M  V30 2044 H 204.581 1.52295 -5.04097 0
M  V30 2045 H 207.072 0.700314 -3.71354 0
M  V30 2046 H 207.385 0.812983 -7.68512 0
M  V30 2047 H 205.73 0.738049 -6.9107 0
M  V30 2048 H 208.921 0.784535 -4.61479 0
M  V30 2049 H 209.094 0.83614 -6.42583 0
M  V30 2050 N 202.5 1.5196 0.417844 0
M  V30 2051 C 203.916 1.40569 0.755816 0
M  V30 2052 C 204.116 0.503316 1.95113 0
M  V30 2053 O 203.172 -0.0341925 2.52477 0
M  V30 2054 C 204.485 2.82947 1.01791 0
M  V30 2055 C 206.033 2.92231 1.12116 0
M  V30 2056 C 206.508 4.35559 1.41608 0
M  V30 2057 N 207.999 4.38753 1.48491 0
M  V30 2058 C 208.734 5.46705 1.7292 0
M  V30 2059 N 208.23 6.64788 1.95011 0
M  V30 2060 N 210.023 5.34209 1.74863 0
M  V30 2061 H 202.174 2.09168 -0.369098 0
M  V30 2062 H 204.437 0.942409 -0.102809 0
M  V30 2063 H 204.143 3.5106 0.212081 0
M  V30 2064 H 204.017 3.23462 1.94042 0
M  V30 2065 H 206.404 2.24304 1.9176 0
M  V30 2066 H 206.485 2.55185 0.177225 0
M  V30 2067 H 206.129 5.04042 0.624848 0
M  V30 2068 H 206.059 4.70133 2.37239 0
M  V30 2069 H 208.55 3.5363 1.33244 0
M  V30 2070 H 208.863 7.42845 2.13076 0
M  V30 2071 H 207.208 6.67869 1.92293 0
M  V30 2072 H 210.399 4.40937 1.57137 0
M  V30 2073 H 210.572 6.18415 1.93563 0
M  V30 2074 N 203.978 -0.674533 1.42435 0
M  V30 2075 C 205.389 -1.25514 1.38214 0
M  V30 2076 C 205.74 -1.96055 0.0755464 0
M  V30 2077 O 204.865 -2.00028 -0.8257 0
M  V30 2078 C 205.46 -2.28269 2.50357 0
M  V30 2079 C 204.019 -2.81856 2.49467 0
M  V30 2080 C 203.166 -1.56182 2.29134 0
M  V30 2081 H 206.117 -0.467902 1.51646 0
M  V30 2082 H 206.138 -3.10009 2.20624 0
M  V30 2083 H 205.65 -1.769 3.45439 0
M  V30 2084 H 203.751 -3.37346 1.58204 0
M  V30 2085 H 203.864 -3.30854 3.46515 0
M  V30 2086 H 202.228 -1.82761 1.774 0
M  V30 2087 H 203.011 -1.06778 3.26272 0
M  V30 2088 N 205.456 -1.28612 -0.910864 0
M  V30 2089 C 206.386 -1.15326 -2.03032 0
M  V30 2090 C 207.367 -0.0502924 -1.70026 0
M  V30 2091 O 208.552 -0.227797 -1.92859 0
M  V30 2092 C 205.682 -0.817343 -3.37545 0
M  V30 2093 C 204.636 -1.8754 -3.84724 0
M  V30 2094 C 203.962 -1.39305 -5.16235 0
M  V30 2095 C 205.262 -3.28244 -4.06267 0
M  V30 2096 H 206.956 -2.08975 -2.14406 0
M  V30 2097 H 204.502 -1.00612 -1.03021 0
M  V30 2098 H 206.455 -0.711151 -4.15356 0
M  V30 2099 H 205.179 0.154846 -3.26233 0
M  V30 2100 H 203.838 -1.97079 -3.09121 0
M  V30 2101 H 203.486 -0.409846 -5.01328 0
M  V30 2102 H 203.186 -2.10057 -5.48771 0
M  V30 2103 H 204.71 -1.30014 -5.96598 0
M  V30 2104 H 206.124 -3.21611 -4.74594 0
M  V30 2105 H 204.521 -3.96855 -4.5014 0
M  V30 2106 H 205.591 -3.72048 -3.10979 0
M  V30 2107 N 206.934 1.1197 -1.10907 0
M  V30 2108 C 208.35 1.35591 -0.841852 0
M  V30 2109 C 208.55 1.94233 0.536246 0
M  V30 2110 O 207.606 2.1717 1.28816 0
M  V30 2111 C 208.919 2.29284 -1.94549 0
M  V30 2112 C 210.467 2.42862 -1.97451 0
M  V30 2113 C 210.942 3.39873 -3.07002 0
M  V30 2114 N 212.433 3.47433 -3.06341 0
M  V30 2115 C 213.168 4.22421 -3.87748 0
M  V30 2116 N 212.664 5.00432 -4.79103 0
M  V30 2117 N 214.457 4.17876 -3.75946 0
M  V30 2118 H 206.608 0.722664 -1.99728 0
M  V30 2119 H 208.871 0.380635 -0.868229 0
M  V30 2120 H 208.577 1.93378 -2.93765 0
M  V30 2121 H 208.451 3.29452 -1.83688 0
M  V30 2122 H 210.838 2.78046 -0.988645 0
M  V30 2123 H 210.919 1.42566 -2.12388 0
M  V30 2124 H 210.563 3.05417 -4.05811 0
M  V30 2125 H 210.493 4.40011 -2.89306 0
M  V30 2126 H 212.984 2.91784 -2.40147 0
M  V30 2127 H 213.297 5.55002 -5.37766 0
M  V30 2128 H 211.642 4.99612 -4.83128 0
M  V30 2129 H 214.833 3.56016 -3.03924 0
M  V30 2130 H 215.006 4.76061 -4.39624 0
M  V30 2131 N 208.412 0.89855 1.29475 0
M  V30 2132 C 209.689 0.443416 1.90508 0
M  V30 2133 C 210.069 -1.07685 1.81569 0
M  V30 2134 O 209.417 -1.9182 1.24166 0
M  V30 2135 C 209.627 0.956708 3.35631 0
M  V30 2136 C 210.975 0.999728 4.12663 0
M  V30 2137 O 211.999 0.904299 3.4453 0
M  V30 2138 O 210.858 1.14289 5.34416 0
M  V30 2139 H 207.952 0.138025 0.815401 0
M  V30 2140 H 210.498 0.98834 1.37949 0
M  V30 2141 H 209.27 2.00067 3.36287 0
M  V30 2142 H 208.893 0.391728 3.95666 0
M  V30 2143 N 209.89 -1.43072 0.660911 0
M  V30 2144 C 211.139 -2.00942 0.174735 0
M  V30 2145 C 211.452 -1.52797 -1.22117 0
M  V30 2146 O 212.658 -2.02991 -1.80297 0
M  V30 2147 C 211.114 -3.58948 0.261559 0
M  V30 2148 C 210.722 -4.16085 1.66064 0
M  V30 2149 C 212.466 -4.24173 -0.166617 0
M  V30 2150 C 210.373 -5.6641 1.70098 0
M  V30 2151 H 209.303 -0.751483 0.0615631 0
M  V30 2152 H 211.954 -1.63955 0.824069 0
M  V30 2153 H 210.336 -3.93372 -0.455421 0
M  V30 2154 H 211.51 -3.93147 2.40359 0
M  V30 2155 H 209.825 -3.6326 2.03546 0
M  V30 2156 H 212.422 -5.34471 -0.156433 0
M  V30 2157 H 212.765 -3.98647 -1.19943 0
M  V30 2158 H 213.298 -3.94659 0.498875 0
M  V30 2159 H 210.037 -5.96715 2.71315 0
M  V30 2160 H 209.557 -5.91382 1.00139 0
M  V30 2161 H 211.236 -6.30585 1.44816 0
M  V30 2162 N 211.368 -0.403325 -1.52352 0
M  V30 2163 C 212.779 0.0675782 -1.86578 0
M  V30 2164 C 213.13 1.44941 -1.32236 0
M  V30 2165 O 212.255 2.06112 -0.659307 0
M  V30 2166 C 212.85 0.129404 -3.38553 0
M  V30 2167 C 211.409 0.544629 -3.72439 0
M  V30 2168 C 210.556 -0.284551 -2.75836 0
M  V30 2169 H 213.507 -0.620631 -1.46061 0
M  V30 2170 H 213.528 0.94581 -3.68558 0
M  V30 2171 H 213.04 -0.87645 -3.78074 0
M  V30 2172 H 211.141 1.55734 -3.38493 0
M  V30 2173 H 211.254 0.293046 -4.78203 0
M  V30 2174 H 209.618 0.252258 -2.53448 0
M  V30 2175 H 210.401 -1.28865 -3.18196 0
M  V30 2176 N 212.846 1.57033 -0.133567 0
M  V30 2177 C 213.756 2.19632 0.824564 0
M  V30 2178 C 214.772 1.17666 1.28182 0
M  V30 2179 O 215.948 1.50193 1.3418 0
M  V30 2180 C 213.013 2.79499 2.05137 0
M  V30 2181 C 212.074 3.96548 1.64464 0
M  V30 2182 C 211.307 4.5355 2.81297 0
M  V30 2183 O 211.53 4.09438 3.97136 0
M  V30 2184 O 210.464 5.44018 2.57542 0
M  V30 2185 H 214.29 3.01991 0.321766 0
M  V30 2186 H 211.875 1.49112 0.0927889 0
M  V30 2187 H 213.757 3.17602 2.7696 0
M  V30 2188 H 212.432 2.00162 2.54395 0
M  V30 2189 H 211.339 3.63186 0.897048 0
M  V30 2190 H 212.672 4.77364 1.19934 0
M  V30 2191 N 214.325 -0.140222 1.56975 0
M  V30 2192 C 215.736 -0.699596 1.73097 0
M  V30 2193 C 216.087 -1.8134 0.749022 0
M  V30 2194 O 215.212 -2.16241 -0.0828503 0
M  V30 2195 C 215.807 -1.27582 3.1386 0
M  V30 2196 C 214.366 -1.78169 3.31561 0
M  V30 2197 C 213.513 -0.672855 2.69013 0
M  V30 2198 H 216.464 0.0855115 1.58469 0
M  V30 2199 H 216.485 -2.14561 3.14235 0
M  V30 2200 H 215.997 -0.464955 3.85305 0
M  V30 2201 H 214.098 -2.61801 2.65124 0
M  V30 2202 H 214.211 -1.90574 4.39566 0
M  V30 2203 H 212.575 -1.10118 2.29665 0
M  V30 2204 H 213.358 0.126679 3.43066 0
M  V30 2205 N 215.803 -1.52179 -0.40978 0
M  V30 2206 C 217.031 -1.70054 -1.17853 0
M  V30 2207 C 217.446 -0.409735 -1.843 0
M  V30 2208 O 216.803 0.614183 -1.71855 0
M  V30 2209 C 216.854 -2.83568 -2.24213 0
M  V30 2210 O 216.575 -4.0765 -1.60478 0
M  V30 2211 C 218.076 -3.12947 -3.13973 0
M  V30 2212 H 215.296 -0.569917 -0.354169 0
M  V30 2213 H 217.84 -1.98734 -0.482198 0
M  V30 2214 H 215.995 -2.57409 -2.89516 0
M  V30 2215 H 216.409 -4.70899 -2.30986 0
M  V30 2216 H 217.883 -3.95889 -3.84677 0
M  V30 2217 H 218.36 -2.26472 -3.76307 0
M  V30 2218 H 218.966 -3.40868 -2.5434 0
M  V30 2219 N 217.281 0.66697 -1.42791 0
M  V30 2220 C 218.53 1.42278 -1.42968 0
M  V30 2221 C 218.843 1.9553 -0.0524489 0
M  V30 2222 O 220.049 2.71414 0.068363 0
M  V30 2223 C 218.505 2.57418 -2.51524 0
M  V30 2224 C 218.113 2.10832 -3.9529 0
M  V30 2225 C 219.857 3.34878 -2.60877 0
M  V30 2226 C 217.764 3.23101 -4.95338 0
M  V30 2227 H 216.694 0.534533 -0.531781 0
M  V30 2228 H 219.345 0.721302 -1.68729 0
M  V30 2229 H 217.727 3.29971 -2.18941 0
M  V30 2230 H 218.901 1.4538 -4.37266 0
M  V30 2231 H 217.216 1.46289 -3.89857 0
M  V30 2232 H 219.813 4.18505 -3.32802 0
M  V30 2233 H 220.156 3.81993 -1.6549 0
M  V30 2234 H 220.689 2.69398 -2.92693 0
M  V30 2235 H 217.428 2.80969 -5.9223 0
M  V30 2236 H 216.948 3.87309 -4.57987 0
M  V30 2237 H 218.627 3.88447 -5.17415 0
M  V30 2238 N 218.759 1.29093 0.90403 0
M  V30 2239 C 220.17 1.15186 1.46932 0
M  V30 2240 C 220.521 -0.254587 1.94541 0
M  V30 2241 O 219.646 -1.14972 1.83332 0
M  V30 2242 C 220.241 2.08492 2.67051 0
M  V30 2243 C 218.8 1.98621 3.19729 0
M  V30 2244 C 217.947 1.9967 1.92425 0
M  V30 2245 H 220.898 1.41641 0.715789 0
M  V30 2246 H 220.919 1.65461 3.42641 0
M  V30 2247 H 220.431 3.10847 2.3237 0
M  V30 2248 H 218.532 0.993389 3.59114 0
M  V30 2249 H 218.645 2.86068 3.8432 0
M  V30 2250 H 217.009 1.44208 2.09943 0
M  V30 2251 H 217.792 3.03721 1.60026 0
M  V30 2252 N 220.237 -1.11381 1.11499 0
M  V30 2253 C 221.514 -1.7955 0.775965 0
M  V30 2254 C 221.894 -1.97859 -0.73588 0
M  V30 2255 O 221.242 -1.56376 -1.66609 0
M  V30 2256 C 221.452 -3.13196 1.53977 0
M  V30 2257 C 222.8 -3.88227 1.71944 0
M  V30 2258 O 223.824 -3.22887 1.50407 0
M  V30 2259 O 222.683 -5.05477 2.07738 0
M  V30 2260 H 219.777 -0.777728 0.28119 0
M  V30 2261 H 222.323 -1.18118 1.21845 0
M  V30 2262 H 221.095 -2.95229 2.56818 0
M  V30 2263 H 220.718 -3.82342 1.09088 0
M  V30 2264 N 221.715 -0.905404 -1.28997 0
M  V30 2265 C 222.963 -0.533192 -1.9494 0
M  V30 2266 C 223.284 0.924618 -1.71685 0
M  V30 2267 O 222.554 1.65268 -1.05183 0
M  V30 2268 H 221.134 -0.194194 -0.721317 0
M  V30 2269 H 223.796 -1.15294 -1.57141 0
M  V30 2270 H 222.892 -0.72059 -3.03667 0
M  V30 2271 N 223.193 1.4272 -0.668489 0
M  V30 2272 C 224.439 2.01923 -0.188419 0
M  V30 2273 C 224.772 1.52704 1.19979 0
M  V30 2274 O 224.047 0.726566 1.8042 0
M  V30 2275 C 224.33 3.59451 -0.216085 0
M  V30 2276 C 224.183 4.18864 -1.6393 0
M  V30 2277 C 225.502 4.37903 0.439179 0
M  V30 2278 H 222.621 0.733674 -0.0699412 0
M  V30 2279 H 225.263 1.69822 -0.852076 0
M  V30 2280 H 223.413 3.86929 0.349012 0
M  V30 2281 H 225.085 4.02362 -2.25616 0
M  V30 2282 H 223.328 3.74933 -2.18193 0
M  V30 2283 H 223.999 5.27987 -1.61039 0
M  V30 2284 H 226.475 4.16079 -0.0417878 0
M  V30 2285 H 225.351 5.47519 0.389157 0
M  V30 2286 H 225.612 4.15303 1.51577 0
M  V30 2287 N 224.671 0.411399 1.52136 0
M  V30 2288 C 225.917 -0.163888 2.02137 0
M  V30 2289 C 226.25 -1.44597 1.29636 0
M  V30 2290 O 225.525 -1.90272 0.403353 0
M  V30 2291 C 225.808 -0.40927 3.57767 0
M  V30 2292 C 225.661 0.889643 4.40914 0
M  V30 2293 C 226.98 -1.19042 4.23694 0
M  V30 2294 H 224.099 -0.0580896 0.734707 0
M  V30 2295 H 226.741 0.54531 1.82007 0
M  V30 2296 H 224.891 -1.0134 3.7505 0
M  V30 2297 H 226.563 1.52575 4.35337 0
M  V30 2298 H 224.806 1.50011 4.07037 0
M  V30 2299 H 225.477 0.672314 5.4789 0
M  V30 2300 H 227.953 -0.678942 4.10524 0
M  V30 2301 H 226.829 -1.33086 5.32522 0
M  V30 2302 H 227.09 -2.21166 3.82803 0
M  V30 2303 N 226.149 -1.5696 0.141893 0
M  V30 2304 C 227.398 -1.95135 -0.510427 0
M  V30 2305 C 227.711 -1.02896 -1.66348 0
M  V30 2306 O 228.917 -1.30629 -2.38009 0
M  V30 2307 C 227.373 -3.46876 -0.959427 0
M  V30 2308 C 226.981 -4.47691 0.166419 0
M  V30 2309 C 228.725 -3.93927 -1.58183 0
M  V30 2310 C 226.632 -5.90636 -0.300565 0
M  V30 2311 H 225.562 -0.728494 -0.194454 0
M  V30 2312 H 228.213 -1.8211 0.22542 0
M  V30 2313 H 226.595 -3.55215 -1.75038 0
M  V30 2314 H 227.769 -4.51043 0.94325 0
M  V30 2315 H 226.084 -4.10527 0.696905 0
M  V30 2316 H 228.681 -4.98158 -1.94275 0
M  V30 2317 H 229.024 -3.3519 -2.46888 0
M  V30 2318 H 229.557 -3.88484 -0.855863 0
M  V30 2319 H 226.296 -6.5318 0.550989 0
M  V30 2320 H 225.816 -5.90655 -1.04338 0
M  V30 2321 H 227.495 -6.42588 -0.754265 0
M  V30 2322 N 227.627 0.131896 -1.57047 0
M  V30 2323 C 229.043 0.485031 -1.52051 0
M  V30 2324 C 229.243 1.82563 -0.85281 0
M  V30 2325 O 228.299 2.48817 -0.429694 0
M  V30 2326 C 229.612 0.481409 -2.96821 0
M  V30 2327 C 231.16 0.565868 -3.07842 0
M  V30 2328 C 231.635 0.592762 -4.54148 0
M  V30 2329 N 233.126 0.654564 -4.58552 0
M  V30 2330 C 233.861 0.696608 -5.69153 0
M  V30 2331 N 233.357 0.697078 -6.89284 0
M  V30 2332 N 235.15 0.738639 -5.57226 0
M  V30 2333 H 227.301 -0.746664 -1.98843 0
M  V30 2334 H 229.564 -0.273999 -0.90754 0
M  V30 2335 H 229.27 -0.435731 -3.4899 0
M  V30 2336 H 229.144 1.3139 -3.53577 0
M  V30 2337 H 231.531 1.47343 -2.55684 0
M  V30 2338 H 231.612 -0.29406 -2.54104 0
M  V30 2339 H 231.256 -0.310701 -5.06949 0
M  V30 2340 H 231.186 1.46939 -5.05684 0
M  V30 2341 H 233.677 0.660887 -3.72076 0
M  V30 2342 H 233.99 0.731426 -7.69331 0
M  V30 2343 H 232.335 0.66471 -6.91814 0
M  V30 2344 H 235.526 0.735545 -4.62285 0
M  V30 2345 H 235.699 0.767938 -6.43434 0
M  V30 2346 N 229.106 1.52395 0.401703 0
M  V30 2347 C 230.334 1.70676 1.16949 0
M  V30 2348 C 230.749 0.419503 1.8408 0
M  V30 2349 O 230.106 -0.605061 1.72178 0
M  V30 2350 C 230.157 2.84753 2.22706 0
M  V30 2351 O 229.878 4.08495 1.58314 0
M  V30 2352 C 231.379 3.14608 3.12309 0
M  V30 2353 H 228.599 0.571787 0.351142 0
M  V30 2354 H 231.143 1.98987 0.471652 0
M  V30 2355 H 229.298 2.58941 2.88147 0
M  V30 2356 H 229.712 4.72117 2.28485 0
M  V30 2357 H 231.186 3.97923 3.82572 0
M  V30 2358 H 231.663 2.28464 3.75101 0
M  V30 2359 H 232.269 3.42212 2.52529 0
M  V30 2360 N 230.584 -0.659388 1.43143 0
M  V30 2361 C 231.814 -1.44513 1.47646 0
M  V30 2362 C 232.222 -1.88981 0.0910095 0
M  V30 2363 O 231.565 -1.59702 -0.907789 0
M  V30 2364 C 231.627 -2.71663 2.35456 0
M  V30 2365 C 231.291 -2.49175 3.83094 0
M  V30 2366 C 232.288 -2.1279 4.74359 0
M  V30 2367 C 229.973 -2.63691 4.27519 0
M  V30 2368 C 231.967 -1.9121 6.08044 0
M  V30 2369 C 229.654 -2.41726 5.61259 0
M  V30 2370 C 230.652 -2.0554 6.51339 0
M  V30 2371 O 230.34 -1.838 7.82606 0
M  V30 2372 H 230.072 -0.45064 0.503884 0
M  V30 2373 H 232.626 -0.816248 1.88485 0
M  V30 2374 H 230.856 -3.37089 1.89493 0
M  V30 2375 H 232.545 -3.33595 2.31235 0
M  V30 2376 H 233.311 -2.01157 4.41317 0
M  V30 2377 H 229.19 -2.90832 3.57684 0
M  V30 2378 H 232.734 -1.62889 6.78316 0
M  V30 2379 H 228.631 -2.52959 5.9387 0
M  V30 2380 H 229.399 -1.98275 7.94122 0
M  V30 2381 N 232.062 -1.29571 -0.897171 0
M  V30 2382 C 233.025 -1.14913 -1.98312 0
M  V30 2383 C 234.025 -0.0838629 -1.60581 0
M  V30 2384 O 235.215 -0.331006 -1.71026 0
M  V30 2385 C 232.347 -0.757835 -3.3237 0
M  V30 2386 H 233.54 -2.11377 -2.12743 0
M  V30 2387 H 231.093 -1.12793 -1.08201 0
M  V30 2388 H 231.828 0.206837 -3.2364 0
M  V30 2389 H 231.613 -1.52755 -3.61121 0
M  V30 2390 H 233.103 -0.678408 -4.12053 0
M  V30 2391 N 233.54 1.10788 -1.12088 0
M  V30 2392 C 234.788 1.8231 -0.872205 0
M  V30 2393 C 235.109 1.85419 0.603709 0
M  V30 2394 O 234.379 1.32963 1.43867 0
M  V30 2395 H 232.959 0.675137 -0.319686 0
M  V30 2396 H 235.621 1.34068 -1.41463 0
M  V30 2397 H 234.717 2.85955 -1.25045 0
M  V30 2398 N 235.018 0.912232 1.28515 0
M  V30 2399 C 236.246 0.560416 1.99166 0
M  V30 2400 C 236.661 -0.857927 1.68182 0
M  V30 2401 O 236.018 -1.56805 0.933733 0
M  V30 2402 C 236.069 0.758142 3.53461 0
M  V30 2403 O 235.79 2.12067 3.83352 0
M  V30 2404 C 237.291 0.412954 4.41372 0
M  V30 2405 H 234.511 0.213805 0.636026 0
M  V30 2406 H 237.055 1.22502 1.63749 0
M  V30 2407 H 235.21 0.140556 3.87145 0
M  V30 2408 H 235.624 2.15923 4.77993 0
M  V30 2409 H 237.098 0.60208 5.48707 0
M  V30 2410 H 237.575 -0.65073 4.34353 0
M  V30 2411 H 238.181 1.00802 4.13182 0
M  V30 2412 N 236.496 -1.42363 0.676048 0
M  V30 2413 C 237.721 -2.06377 0.205705 0
M  V30 2414 C 238.146 -1.50463 -1.12883 0
M  V30 2415 O 237.504 -0.623619 -1.70237 0
M  V30 2416 C 237.552 -3.60277 0.152655 0
M  V30 2417 O 236.656 -4.02935 -0.87845 0
M  V30 2418 H 235.997 -0.655588 0.105359 0
M  V30 2419 H 238.527 -1.82475 0.925412 0
M  V30 2420 H 238.537 -4.07993 -0.0230675 0
M  V30 2421 H 237.212 -4.00346 1.12675 0
M  V30 2422 H 235.789 -3.66764 -0.673668 0
M  V30 2423 N 237.974 -0.419461 -1.51915 0
M  V30 2424 C 239.251 0.211999 -1.94448 0
M  V30 2425 C 239.631 1.61703 -1.35703 0
M  V30 2426 O 238.979 2.22102 -0.536931 0
M  V30 2427 C 239.189 0.207872 -3.4838 0
M  V30 2428 C 240.537 0.422192 -4.22496 0
M  V30 2429 O 241.561 0.286778 -3.55044 0
M  V30 2430 O 240.42 0.690009 -5.42126 0
M  V30 2431 H 237.514 0.139586 -0.815135 0
M  V30 2432 H 240.06 -0.476151 -1.62883 0
M  V30 2433 H 238.832 -0.775102 -3.83546 0
M  V30 2434 H 238.455 0.939688 -3.86336 0
M  V30 2435 N 239.452 1.56882 -0.150215 0
M  V30 2436 C 240.729 1.87844 0.545327 0
M  V30 2437 C 241.109 1.0567 1.82749 0
M  V30 2438 O 240.457 0.144442 2.28043 0
M  V30 2439 C 240.667 3.39526 0.80767 0
M  V30 2440 C 242.015 4.08814 1.14703 0
M  V30 2441 O 243.039 3.44723 0.896917 0
M  V30 2442 O 241.898 5.22004 1.61784 0
M  V30 2443 H 238.992 0.778677 0.278553 0
M  V30 2444 H 241.538 1.68666 -0.187068 0
M  V30 2445 H 240.31 3.91173 -0.0996096 0
M  V30 2446 H 239.933 3.64243 1.59413 0
M  V30 2447 N 240.93 -0.123565 1.57115 0
M  V30 2448 C 241.893 -1.13583 1.99076 0
M  V30 2449 C 242.893 -1.34564 0.880296 0
M  V30 2450 O 244.083 -1.31158 1.14644 0
M  V30 2451 C 241.215 -2.49128 2.32698 0
M  V30 2452 H 242.408 -0.775287 2.89706 0
M  V30 2453 H 239.961 -0.36771 1.51913 0
M  V30 2454 H 240.696 -2.90111 1.44934 0
M  V30 2455 H 240.481 -2.35255 3.13684 0
M  V30 2456 H 241.971 -3.2199 2.65918 0
M  V30 2457 N 242.408 -1.52605 -0.393616 0
M  V30 2458 C 243.318 -1.79971 -1.50492 0
M  V30 2459 C 244.334 -0.686181 -1.59899 0
M  V30 2460 O 245.51 -0.973274 -1.76322 0
M  V30 2461 C 242.575 -1.95867 -2.86072 0
M  V30 2462 C 241.636 -3.19781 -2.86424 0
M  V30 2463 C 240.869 -3.34909 -4.15538 0
M  V30 2464 O 241.092 -2.54948 -5.10253 0
M  V30 2465 O 240.026 -4.28141 -4.23059 0
M  V30 2466 H 243.852 -2.74328 -1.30299 0
M  V30 2467 H 241.437 -1.3764 -0.581005 0
M  V30 2468 H 243.319 -2.08056 -3.66457 0
M  V30 2469 H 241.994 -1.04699 -3.063 0
M  V30 2470 H 240.901 -3.13038 -2.04837 0
M  V30 2471 H 242.234 -4.1078 -2.71147 0
M  V30 2472 N 243.887 0.651787 -1.4349 0
M  V30 2473 C 244.817 1.77621 -1.51569 0
M  V30 2474 C 245.798 1.66022 -0.370253 0
M  V30 2475 O 246.983 1.85095 -0.587658 0
M  V30 2476 C 244.113 3.16056 -1.43966 0
M  V30 2477 C 243.067 3.4242 -2.56774 0
M  V30 2478 C 242.393 4.8067 -2.34223 0
M  V30 2479 C 243.693 3.37023 -3.99015 0
M  V30 2480 H 245.387 1.71117 -2.45681 0
M  V30 2481 H 242.933 0.821825 -1.18246 0
M  V30 2482 H 244.886 3.94472 -1.48221 0
M  V30 2483 H 243.61 3.23293 -0.463586 0
M  V30 2484 H 242.269 2.66375 -2.51873 0
M  V30 2485 H 241.917 4.84585 -1.34856 0
M  V30 2486 H 241.617 4.9927 -3.09844 0
M  V30 2487 H 243.141 5.61342 -2.40265 0
M  V30 2488 H 244.555 4.05374 -4.05395 0
M  V30 2489 H 242.952 3.67159 -4.74673 0
M  V30 2490 H 244.022 2.3518 -4.2405 0
M  V30 2491 N 245.365 1.30045 0.890287 0
M  V30 2492 C 246.295 1.18541 2.01172 0
M  V30 2493 C 247.276 0.0773356 1.69924 0
M  V30 2494 O 248.461 0.25845 1.92473 0
M  V30 2495 C 245.591 0.870941 3.36202 0
M  V30 2496 C 244.545 1.93637 3.81692 0
M  V30 2497 C 243.871 1.475 5.13953 0
M  V30 2498 C 245.171 3.34666 4.00994 0
M  V30 2499 H 246.865 2.12359 2.11054 0
M  V30 2500 H 244.411 1.02238 1.01407 0
M  V30 2501 H 246.364 0.777141 4.14172 0
M  V30 2502 H 245.088 -0.102926 3.26438 0
M  V30 2503 H 243.747 2.01972 3.05946 0
M  V30 2504 H 243.395 0.489551 5.00612 0
M  V30 2505 H 243.095 2.1876 5.4536 0
M  V30 2506 H 244.619 1.39489 5.94454 0
M  V30 2507 H 246.033 3.2912 4.69417 0
M  V30 2508 H 244.43 4.03966 4.43769 0
M  V30 2509 H 245.5 3.76949 3.05021 0
M  V30 2510 N 246.843 -1.10192 1.12674 0
M  V30 2511 C 248.259 -1.34235 0.863317 0
M  V30 2512 C 248.459 -1.95062 -0.505277 0
M  V30 2513 O 247.515 -2.19192 -1.25345 0
M  V30 2514 C 248.828 -2.2616 1.98172 0
M  V30 2515 C 250.376 -2.3969 2.0129 0
M  V30 2516 C 250.851 -3.34946 3.1237 0
M  V30 2517 N 252.342 -3.42515 3.11829 0
M  V30 2518 C 253.077 -4.16199 3.94419 0
M  V30 2519 N 252.573 -4.92747 4.87004 0
M  V30 2520 N 254.366 -4.11843 3.82547 0
M  V30 2521 H 246.517 -0.690798 2.00853 0
M  V30 2522 H 248.78 -0.366774 0.874174 0
M  V30 2523 H 248.486 -1.8868 2.96804 0
M  V30 2524 H 248.36 -3.26488 1.88906 0
M  V30 2525 H 250.747 -2.76438 1.03276 0
M  V30 2526 H 250.828 -1.39169 2.14629 0
M  V30 2527 H 250.472 -2.98923 4.10619 0
M  V30 2528 H 250.402 -4.35353 2.96269 0
M  V30 2529 H 252.893 -2.87926 2.44759 0
M  V30 2530 H 253.206 -5.46376 5.46528 0
M  V30 2531 H 251.551 -4.91862 4.91016 0
M  V30 2532 H 254.742 -3.51136 3.0955 0
M  V30 2533 H 254.915 -4.69007 4.47142 0
M  V30 2534 N 248.321 -0.919034 -1.28029 0
M  V30 2535 C 249.567 -0.555757 -1.95036 0
M  V30 2536 C 249.9 0.899198 -1.72128 0
M  V30 2537 O 249.175 1.64023 -1.04531 0
M  V30 2538 C 249.458 -0.872024 -3.49382 0
M  V30 2539 C 249.311 -2.3801 -3.81669 0
M  V30 2540 C 250.63 -0.37185 -4.38526 0
M  V30 2541 H 247.749 -0.203386 -0.708381 0
M  V30 2542 H 250.391 -1.14924 -1.51303 0
M  V30 2543 H 248.541 -0.366946 -3.86763 0
M  V30 2544 H 250.213 -2.9562 -3.54128 0
M  V30 2545 H 248.456 -2.83289 -3.28526 0
M  V30 2546 H 249.127 -2.55192 -4.8947 0
M  V30 2547 H 251.603 -0.804602 -4.08247 0
M  V30 2548 H 250.479 -0.622173 -5.45362 0
M  V30 2549 H 250.74 0.727934 -4.36066 0
M  V30 2550 N 249.799 1.42003 -0.683588 0
M  V30 2551 C 250.747 2.326 0.000815408 0
M  V30 2552 C 251.741 1.50308 0.781278 0
M  V30 2553 O 252.947 1.66322 0.688251 0
M  V30 2554 H 249.322 0.751758 0.0190616 0
M  V30 2555 H 251.293 2.88011 -0.780528 0
M  V30 2556 C 250.042 3.34978 0.93195 0
M  V30 2557 H 249.365 3.98345 0.340817 0
M  V30 2558 H 250.805 4.00936 1.37936 0
M  V30 2559 C 249.264 2.67925 2.04249 0
M  V30 2560 O 249.794 2.51788 3.12995 0
M  V30 2561 N 248 2.2681 1.81675 0
M  V30 2562 H 247.547 2.40135 0.932363 0
M  V30 2563 H 247.505 1.8228 2.56167 0
M  V30 2564 N 251.277 0.427512 1.51691 0
M  V30 2565 C 252.225 -0.403359 2.29076 0
M  V30 2566 C 253.219 -1.02962 1.34518 0
M  V30 2567 O 254.425 -0.965715 1.51901 0
M  V30 2568 H 250.8 -0.148879 0.737115 0
M  V30 2569 H 252.771 0.270295 2.97173 0
M  V30 2570 C 251.52 -1.49763 3.13794 0
M  V30 2571 H 250.843 -1.02508 3.86435 0
M  V30 2572 H 252.283 -2.05244 3.71014 0
M  V30 2573 C 250.742 -2.47536 2.28533 0
M  V30 2574 O 251.272 -3.51848 1.93819 0
M  V30 2575 N 249.478 -2.18187 1.91945 0
M  V30 2576 H 249.025 -1.33389 2.20375 0
M  V30 2577 H 248.983 -2.83848 1.35195 0
M  V30 2578 N 252.755 -1.56801 0.158532 0
M  V30 2579 C 253.718 -2.16138 -0.762705 0
M  V30 2580 C 254.718 -1.1061 -1.16713 0
M  V30 2581 O 255.908 -1.36191 -1.08617 0
M  V30 2582 C 253.04 -2.73386 -2.03649 0
M  V30 2583 H 254.233 -2.98886 -0.246354 0
M  V30 2584 H 251.786 -1.56035 -0.0909744 0
M  V30 2585 H 252.521 -1.94335 -2.59623 0
M  V30 2586 H 252.306 -3.50601 -1.75559 0
M  V30 2587 H 253.796 -3.19065 -2.6942 0
M  V30 2588 N 254.233 0.115231 -1.57178 0
M  V30 2589 C 255.196 1.12526 -1.99676 0
M  V30 2590 C 256.196 1.34095 -0.88742 0
M  V30 2591 O 257.386 1.30548 -1.15337 0
M  V30 2592 C 254.518 2.4789 -2.34015 0
M  V30 2593 H 255.711 0.759912 -2.90113 0
M  V30 2594 H 253.264 0.359648 -1.52106 0
M  V30 2595 H 253.999 2.89339 -1.4647 0
M  V30 2596 H 253.784 2.33588 -3.14927 0
M  V30 2597 H 255.274 3.20575 -2.67622 0
M  V30 2598 N 255.711 1.52812 0.385517 0
M  V30 2599 C 256.958 1.68026 1.1302 0
M  V30 2600 C 257.286 0.421934 1.89868 0
M  V30 2601 O 256.541 -0.595749 1.86412 0
M  V30 2602 C 256.84 2.86856 2.13187 0
M  V30 2603 C 256.506 4.24159 1.5297 0
M  V30 2604 C 255.168 4.61501 1.36274 0
M  V30 2605 C 257.52 5.09627 1.09223 0
M  V30 2606 C 254.848 5.81966 0.743837 0
M  V30 2607 C 257.2 6.30719 0.487411 0
M  V30 2608 C 255.864 6.6679 0.307777 0
M  V30 2609 H 255.134 0.614849 0.413571 0
M  V30 2610 H 257.781 1.86962 0.414405 0
M  V30 2611 H 256.086 2.6235 2.90998 0
M  V30 2612 H 257.783 2.95821 2.70722 0
M  V30 2613 H 254.373 3.94746 1.66954 0
M  V30 2614 H 258.557 4.81343 1.20922 0
M  V30 2615 H 253.813 6.08519 0.592891 0
M  V30 2616 H 257.987 6.96259 0.140143 0
M  V30 2617 H 255.614 7.60001 -0.173879 0
M  V30 2618 N 257.189 -0.644168 1.43834 0
M  V30 2619 C 258.152 -1.73857 1.49353 0
M  V30 2620 C 259.152 -1.56315 0.377112 0
M  V30 2621 O 260.342 -1.62048 0.639226 0
M  V30 2622 C 257.474 -3.12819 1.35488 0
M  V30 2623 H 258.667 -1.70342 2.46827 0
M  V30 2624 H 256.22 -0.856652 1.30733 0
M  V30 2625 H 256.955 -3.2194 0.390569 0
M  V30 2626 H 256.74 -3.26958 2.16428 0
M  V30 2627 H 258.23 -3.92606 1.42302 0
M  V30 2628 N 258.668 -1.30515 -0.883378 0
M  V30 2629 C 259.916 -1.19194 -1.63209 0
M  V30 2630 C 260.237 0.253205 -1.93349 0
M  V30 2631 O 259.507 1.17025 -1.57105 0
M  V30 2632 H 258.087 -0.438148 -0.605009 0
M  V30 2633 H 260.749 -1.63663 -1.05832 0
M  V30 2634 H 259.845 -1.75396 -2.58153 0
M  V30 2635 N 260.146 1.09593 -1.13257 0
M  V30 2636 C 261.096 2.14345 -0.777179 0
M  V30 2637 C 262.08 1.59277 0.227966 0
M  V30 2638 O 263.272 1.76971 0.0321413 0
M  V30 2639 C 260.401 3.42439 -0.242991 0
M  V30 2640 C 259.487 4.04419 -1.27694 0
M  V30 2641 N 259.878 4.40979 -2.47732 0
M  V30 2642 C 258.176 4.31596 -1.12432 0
M  V30 2643 C 258.877 4.89784 -3.13826 0
M  V30 2644 N 257.853 4.87133 -2.41252 0
M  V30 2645 H 261.655 2.40415 -1.69049 0
M  V30 2646 H 259.169 1.26803 -1.01463 0
M  V30 2647 H 261.166 4.16889 0.0298496 0
M  V30 2648 H 259.826 3.17824 0.66467 0
M  V30 2649 H 260.837 4.32396 -2.85051 0
M  V30 2650 H 257.514 4.16595 -0.274684 0
M  V30 2651 H 258.904 5.2755 -4.16102 0
M  V30 2652 N 261.624 0.925811 1.2754 0
M  V30 2653 C 263.035 0.610102 1.7645 0
M  V30 2654 C 263.386 -0.874723 1.75622 0
M  V30 2655 O 262.511 -1.68444 1.35851 0
M  V30 2656 C 263.106 1.10073 3.20421 0
M  V30 2657 C 261.665 0.835723 3.67005 0
M  V30 2658 C 260.812 1.26054 2.46993 0
M  V30 2659 H 263.763 1.10579 1.13833 0
M  V30 2660 H 263.784 0.447557 3.77859 0
M  V30 2661 H 263.296 2.18143 3.20991 0
M  V30 2662 H 261.397 -0.231249 3.71882 0
M  V30 2663 H 261.51 1.45193 4.56569 0
M  V30 2664 H 259.874 0.679111 2.45479 0
M  V30 2665 H 260.657 2.34984 2.50275 0
M  V30 2666 N 263.102 -1.41638 0.69111 0
M  V30 2667 C 264.012 -2.34588 0.0233487 0
M  V30 2668 C 265.028 -1.55987 -0.770984 0
M  V30 2669 O 266.204 -1.88486 -0.709569 0
M  V30 2670 C 263.269 -3.34684 -0.904851 0
M  V30 2671 C 262.33 -4.29176 -0.103225 0
M  V30 2672 C 261.563 -5.2449 -0.987216 0
M  V30 2673 O 261.786 -5.2514 -2.22674 0
M  V30 2674 O 260.72 -6.00295 -0.439281 0
M  V30 2675 H 264.546 -2.93261 0.789416 0
M  V30 2676 H 262.131 -1.42417 0.45142 0
M  V30 2677 H 264.013 -3.96133 -1.43724 0
M  V30 2678 H 262.688 -2.78461 -1.65049 0
M  V30 2679 H 261.595 -3.71089 0.473655 0
M  V30 2680 H 262.928 -4.88484 0.60365 0
M  V30 2681 N 264.58 -0.43555 -1.51462 0
M  V30 2682 C 265.512 0.41257 -2.25456 0
M  V30 2683 C 266.525 0.987822 -1.29406 0
M  V30 2684 O 267.714 0.882266 -1.55172 0
M  V30 2685 C 264.814 1.58894 -2.99342 0
M  V30 2686 C 263.987 1.13288 -4.22474 0
M  V30 2687 C 263.046 2.17917 -4.78956 0
M  V30 2688 O 262.072 1.77425 -5.40841 0
M  V30 2689 N 263.274 3.50382 -4.62832 0
M  V30 2690 H 266.039 -0.221603 -2.9888 0
M  V30 2691 H 263.6 -0.264342 -1.59727 0
M  V30 2692 H 265.592 2.28508 -3.34015 0
M  V30 2693 H 264.162 2.12849 -2.28941 0
M  V30 2694 H 263.382 0.263881 -3.93316 0
M  V30 2695 H 264.67 0.805542 -5.02383 0
M  V30 2696 H 264.068 3.86013 -4.13534 0
M  V30 2697 H 262.625 4.15895 -5.01871 0
M  V30 2698 N 266.058 1.56714 -0.166846 0
M  V30 2699 C 267.306 1.96358 0.478305 0
M  V30 2700 C 267.627 1.0537 1.6408 0
M  V30 2701 O 266.897 0.119154 1.95537 0
M  V30 2702 H 265.477 0.725065 0.179692 0
M  V30 2703 H 268.139 1.93329 -0.246985 0
M  V30 2704 H 267.235 3.00547 0.841292 0
M  V30 2705 N 267.536 -0.106894 1.57237 0
M  V30 2706 C 268.784 -0.810921 1.85117 0
M  V30 2707 C 269.105 -1.7984 0.753827 0
M  V30 2708 O 268.375 -1.94649 -0.221056 0
M  V30 2709 H 266.955 -0.302466 0.683025 0
M  V30 2710 H 269.617 -0.0913324 1.94686 0
M  V30 2711 H 268.713 -1.34875 2.81452 0
M  V30 2712 N 269.014 -1.53014 -0.377408 0
M  V30 2713 C 270.26 -1.69821 -1.11948 0
M  V30 2714 C 270.615 -0.438581 -1.87335 0
M  V30 2715 O 269.908 0.568094 -1.82984 0
M  V30 2716 C 270.102 -2.87982 -2.11663 0
M  V30 2717 C 269.931 -4.25315 -1.46072 0
M  V30 2718 C 268.701 -4.90354 -1.21986 0
M  V30 2719 C 270.899 -5.06281 -0.904664 0
M  V30 2720 N 268.881 -6.11641 -0.526215 0
M  V30 2721 C 270.252 -6.19069 -0.339726 0
M  V30 2722 C 272.307 -4.91395 -0.8022 0
M  V30 2723 C 271.01 -7.18598 0.317669 0
M  V30 2724 C 273.036 -5.91187 -0.158606 0
M  V30 2725 C 272.398 -7.03289 0.39551 0
M  V30 2726 H 268.497 -0.674785 -0.395207 0
M  V30 2727 H 271.081 -1.90389 -0.407437 0
M  V30 2728 H 269.252 -2.68974 -2.80192 0
M  V30 2729 H 270.984 -2.93669 -2.78461 0
M  V30 2730 H 267.739 -4.49286 -1.49798 0
M  V30 2731 H 268.163 -6.76719 -0.195098 0
M  V30 2732 H 272.805 -4.04925 -1.21639 0
M  V30 2733 H 270.523 -8.04669 0.743836 0
M  V30 2734 H 274.109 -5.81744 -0.0804138 0
M  V30 2735 H 272.989 -7.79183 0.885648 0
M  V30 2736 N 270.492 0.636531 -1.44174 0
M  V30 2737 C 271.72 1.42353 -1.50144 0
M  V30 2738 C 272.135 1.88389 -0.124575 0
M  V30 2739 O 271.492 1.6051 0.868489 0
M  V30 2740 C 271.543 2.64744 -2.46156 0
M  V30 2741 O 271.264 2.20629 -3.7849 0
M  V30 2742 C 272.765 3.57929 -2.61537 0
M  V30 2743 H 269.985 0.436752 -0.5094 0
M  V30 2744 H 272.529 0.778933 -1.89084 0
M  V30 2745 H 270.684 3.25307 -2.10366 0
M  V30 2746 H 271.098 2.99938 -4.30276 0
M  V30 2747 H 272.572 4.40428 -3.32757 0
M  V30 2748 H 273.049 4.06382 -1.66585 0
M  V30 2749 H 273.655 3.03238 -2.98206 0
M  V30 2750 N 271.97 1.30982 0.876444 0
M  V30 2751 C 272.933 1.18054 1.96459 0
M  V30 2752 C 273.933 0.109399 1.60427 0
M  V30 2753 O 275.123 0.358173 1.70478 0
M  V30 2754 C 272.255 0.810616 3.31122 0
M  V30 2755 H 273.448 2.14735 2.09354 0
M  V30 2756 H 271.001 1.145 1.06392 0
M  V30 2757 H 271.736 -0.155322 3.23928 0
M  V30 2758 H 271.521 1.58481 3.58645 0
M  V30 2759 H 273.011 0.743876 4.10921 0
M  V30 2760 N 273.449 -1.08991 1.13837 0
M  V30 2761 C 274.695 -1.81526 0.90422 0
M  V30 2762 C 275.028 -1.85706 -0.568066 0
M  V30 2763 O 274.303 -1.32855 -1.42056 0
M  V30 2764 C 274.586 -3.27447 1.49835 0
M  V30 2765 C 274.439 -3.31512 3.04006 0
M  V30 2766 C 275.758 -4.24256 1.17025 0
M  V30 2767 H 272.877 -0.659029 0.329923 0
M  V30 2768 H 275.519 -1.27644 1.40737 0
M  V30 2769 H 273.669 -3.73462 1.07044 0
M  V30 2770 H 275.341 -2.93867 3.55584 0
M  V30 2771 H 273.584 -2.70963 3.38765 0
M  V30 2772 H 274.255 -4.34329 3.40679 0
M  V30 2773 H 276.731 -3.86549 1.54009 0
M  V30 2774 H 275.607 -5.24684 1.61237 0
M  V30 2775 H 275.868 -4.42019 0.0846274 0
M  V30 2776 N 274.927 -0.932562 -1.27047 0
M  V30 2777 C 275.859 -0.392734 -2.2581 0
M  V30 2778 C 276.872 0.479241 -1.55586 0
M  V30 2779 O 278.061 0.291078 -1.76111 0
M  V30 2780 C 275.161 0.455456 -3.35826 0
M  V30 2781 C 274.334 -0.398355 -4.35582 0
M  V30 2782 C 273.393 0.387985 -5.24768 0
M  V30 2783 O 272.419 -0.206003 -5.68827 0
M  V30 2784 N 273.621 1.68664 -5.55457 0
M  V30 2785 H 276.386 -1.24173 -2.72766 0
M  V30 2786 H 273.947 -0.800511 -1.40725 0
M  V30 2787 H 275.939 0.988692 -3.92437 0
M  V30 2788 H 274.509 1.20522 -2.88432 0
M  V30 2789 H 273.729 -1.11286 -3.78165 0
M  V30 2790 H 275.017 -0.981889 -4.99236 0
M  V30 2791 H 274.415 2.19147 -5.21528 0
M  V30 2792 H 272.972 2.1663 -6.14748 0
M  V30 2793 N 276.405 1.4127 -0.698611 0
M  V30 2794 C 277.335 2.33447 -0.049629 0
M  V30 2795 C 278.316 1.51982 0.763898 0
M  V30 2796 O 279.501 1.80509 0.716257 0
M  V30 2797 C 276.631 3.35828 0.885267 0
M  V30 2798 C 275.585 4.27627 0.178613 0
M  V30 2799 C 274.911 5.20406 1.22807 0
M  V30 2800 C 276.211 5.13459 -0.956933 0
M  V30 2801 H 277.905 2.87966 -0.81951 0
M  V30 2802 H 275.451 1.38461 -0.395538 0
M  V30 2803 H 277.404 3.9924 1.34854 0
M  V30 2804 H 276.128 2.79666 1.68685 0
M  V30 2805 H 274.787 3.65643 -0.26466 0
M  V30 2806 H 274.435 4.60558 2.02226 0
M  V30 2807 H 274.135 5.82661 0.760239 0
M  V30 2808 H 275.659 5.86695 1.69179 0
M  V30 2809 H 277.073 5.70421 -0.573805 0
M  V30 2810 H 275.47 5.8467 -1.35205 0
M  V30 2811 H 276.54 4.50443 -1.79524 0
M  V30 2812 N 277.883 0.443576 1.51229 0
M  V30 2813 C 278.846 -0.353132 2.26463 0
M  V30 2814 C 279.846 -0.944338 1.3015 0
M  V30 2815 O 281.036 -0.817813 1.5381 0
M  V30 2816 C 278.168 -1.50023 3.06114 0
M  V30 2817 H 279.361 0.3063 2.98332 0
M  V30 2818 H 276.914 0.196902 1.55055 0
M  V30 2819 H 277.649 -2.19553 2.38677 0
M  V30 2820 H 277.434 -1.08241 3.76864 0
M  V30 2821 H 278.924 -2.06296 3.63087 0
M  V30 2822 N 279.361 -1.56624 0.175154 0
M  V30 2823 C 280.271 -2.21741 -0.766042 0
M  V30 2824 C 281.287 -1.21023 -1.25018 0
M  V30 2825 O 282.463 -1.53697 -1.3015 0
M  V30 2826 C 279.528 -2.84839 -1.97655 0
M  V30 2827 C 278.589 -4.00769 -1.53892 0
M  V30 2828 C 277.822 -4.60849 -2.69173 0
M  V30 2829 O 278.045 -4.19823 -3.86141 0
M  V30 2830 O 276.979 -5.50655 -2.43028 0
M  V30 2831 H 280.805 -3.02738 -0.241585 0
M  V30 2832 H 278.39 -1.49305 -0.053222 0
M  V30 2833 H 280.272 -3.24834 -2.68442 0
M  V30 2834 H 278.947 -2.06836 -2.48999 0
M  V30 2835 H 277.854 -3.65436 -0.80044 0
M  V30 2836 H 279.187 -4.80376 -1.07236 0
M  V30 2837 N 280.839 0.0985539 -1.57292 0
M  V30 2838 C 282.255 0.45267 -1.53046 0
M  V30 2839 C 282.455 1.80713 -0.891342 0
M  V30 2840 O 281.511 2.4785 -0.482375 0
M  V30 2841 C 282.824 0.418341 -2.97776 0
M  V30 2842 C 284.372 0.500443 -3.08973 0
M  V30 2843 C 284.847 0.496297 -4.55303 0
M  V30 2844 N 286.338 0.557151 -4.59837 0
M  V30 2845 C 287.073 0.575726 -5.70502 0
M  V30 2846 N 286.569 0.550714 -6.90608 0
M  V30 2847 N 288.362 0.620277 -5.58667 0
M  V30 2848 H 280.513 -0.788673 -1.97215 0
M  V30 2849 H 282.776 -0.293188 -0.901524 0
M  V30 2850 H 282.482 -0.509659 -3.47988 0
M  V30 2851 H 282.356 1.2386 -3.56284 0
M  V30 2852 H 284.743 1.41886 -2.58751 0
M  V30 2853 H 284.824 -0.347894 -2.53423 0
M  V30 2854 H 284.468 -0.418162 -5.06176 0
M  V30 2855 H 284.398 1.3618 -5.08687 0
M  V30 2856 H 286.889 0.581816 -3.73394 0
M  V30 2857 H 287.202 0.568075 -7.70709 0
M  V30 2858 H 285.547 0.517816 -6.93068 0
M  V30 2859 H 288.738 0.637322 -4.63741 0
M  V30 2860 H 288.911 0.631283 -6.44918 0
M  V30 2861 N 282.317 1.53212 0.369288 0
M  V30 2862 C 283.733 1.42902 0.710712 0
M  V30 2863 C 283.933 0.565135 1.93413 0
M  V30 2864 O 282.989 0.0461484 2.52458 0
M  V30 2865 C 284.302 2.86042 0.927382 0
M  V30 2866 C 285.85 2.9565 1.02762 0
M  V30 2867 C 286.325 4.39843 1.27679 0
M  V30 2868 N 287.816 4.43256 1.34457 0
M  V30 2869 C 288.551 5.51929 1.55439 0
M  V30 2870 N 288.047 6.70655 1.73762 0
M  V30 2871 N 289.84 5.39502 1.57779 0
M  V30 2872 H 281.991 2.07888 -0.435457 0
M  V30 2873 H 284.254 0.938661 -0.132739 0
M  V30 2874 H 283.96 3.51557 0.100287 0
M  V30 2875 H 283.834 3.29472 1.83653 0
M  V30 2876 H 286.221 2.30291 1.84527 0
M  V30 2877 H 286.302 2.5562 0.0959504 0
M  V30 2878 H 285.946 5.05774 0.464175 0
M  V30 2879 H 285.876 4.77443 2.22162 0
M  V30 2880 H 288.367 3.5769 1.21926 0
M  V30 2881 H 288.68 7.49248 1.89335 0
M  V30 2882 H 287.025 6.73648 1.70948 0
M  V30 2883 H 290.216 4.45713 1.43029 0
M  V30 2884 H 290.389 6.2426 1.7379 0
M  V30 2885 N 283.795 -0.628877 1.44509 0
M  V30 2886 C 285.043 -1.38565 1.4712 0
M  V30 2887 C 285.364 -1.94712 0.105899 0
M  V30 2888 O 284.634 -1.75912 -0.862079 0
M  V30 2889 H 283.214 -0.514333 0.541729 0
M  V30 2890 H 285.876 -0.740018 1.80305 0
M  V30 2891 H 284.972 -2.21583 2.19789 0
M  V30 2892 N 285.273 -1.31445 -0.869486 0
M  V30 2893 C 286.183 -1.21097 -2.0093 0
M  V30 2894 C 287.199 -0.127584 -1.73532 0
M  V30 2895 O 288.375 -0.345477 -1.98415 0
M  V30 2896 C 285.44 -0.919378 -3.34288 0
M  V30 2897 C 284.501 -2.08971 -3.75006 0
M  V30 2898 C 283.734 -1.81194 -5.02001 0
M  V30 2899 O 283.957 -0.747296 -5.65484 0
M  V30 2900 O 282.891 -2.66883 -5.39497 0
M  V30 2901 H 286.717 -2.16883 -2.12592 0
M  V30 2902 H 284.302 -1.11189 -0.997868 0
M  V30 2903 H 286.184 -0.772625 -4.14257 0
M  V30 2904 H 284.859 0.00844772 -3.23699 0
M  V30 2905 H 283.766 -2.29187 -2.95676 0
M  V30 2906 H 285.099 -2.9998 -3.90221 0
M  V30 2907 N 286.751 1.08385 -1.14413 0
M  V30 2908 C 287.714 2.13486 -0.834048 0
M  V30 2909 C 288.714 1.59988 0.161418 0
M  V30 2910 O 289.904 1.74071 -0.0669575 0
M  V30 2911 C 287.036 3.4003 -0.243354 0
M  V30 2912 H 288.229 2.42425 -1.7655 0
M  V30 2913 H 285.782 1.24101 -0.950189 0
M  V30 2914 H 286.517 3.16726 0.696807 0
M  V30 2915 H 286.302 3.80157 -0.960367 0
M  V30 2916 H 287.792 4.17577 -0.0436242 0
M  V30 2917 N 288.23 0.939286 1.26551 0
M  V30 2918 C 289.476 0.596234 1.94465 0
M  V30 2919 C 289.831 -0.855013 1.72358 0
M  V30 2920 O 289.124 -1.6034 1.04889 0
M  V30 2921 C 289.318 0.872106 3.46596 0
M  V30 2922 C 289.147 2.34862 3.83497 0
M  V30 2923 C 287.917 3.00344 4.06352 0
M  V30 2924 C 290.115 3.32697 3.92195 0
M  V30 2925 N 288.097 4.38027 4.30123 0
M  V30 2926 C 289.468 4.55631 4.20476 0
M  V30 2927 C 291.523 3.27747 3.74815 0
M  V30 2928 C 290.226 5.74233 4.33185 0
M  V30 2929 C 292.252 4.45672 3.88755 0
M  V30 2930 C 291.614 5.67388 4.17433 0
M  V30 2931 H 287.713 0.268515 0.734455 0
M  V30 2932 H 290.297 1.2083 1.5267 0
M  V30 2933 H 288.468 0.289102 3.87323 0
M  V30 2934 H 290.2 0.490513 4.01716 0
M  V30 2935 H 286.955 2.50969 4.01636 0
M  V30 2936 H 287.379 5.09288 4.46044 0
M  V30 2937 H 292.021 2.34703 3.51673 0
M  V30 2938 H 289.739 6.67731 4.55149 0
M  V30 2939 H 293.325 4.43372 3.76713 0
M  V30 2940 H 292.205 6.57115 4.27983 0
M  V30 2941 N 289.708 -1.40897 0.706093 0
M  V30 2942 C 290.955 -2.01054 0.241531 0
M  V30 2943 C 291.283 -1.55956 -1.16223 0
M  V30 2944 O 290.538 -0.766336 -1.80072 0
M  V30 2945 C 290.837 -3.5646 0.259099 0
M  V30 2946 C 290.503 -4.21106 1.61184 0
M  V30 2947 C 289.165 -4.38479 1.98216 0
M  V30 2948 C 291.517 -4.57256 2.50132 0
M  V30 2949 C 288.845 -4.89282 3.2376 0
M  V30 2950 C 291.197 -5.09454 3.7502 0
M  V30 2951 C 289.861 -5.25037 4.12181 0
M  V30 2952 H 289.131 -0.73571 0.0883825 0
M  V30 2953 H 291.778 -1.68645 0.907257 0
M  V30 2954 H 290.083 -3.88721 -0.490189 0
M  V30 2955 H 291.78 -4.00826 -0.11804 0
M  V30 2956 H 288.37 -4.07966 1.31384 0
M  V30 2957 H 292.554 -4.43479 2.228 0
M  V30 2958 H 287.81 -4.99531 3.52532 0
M  V30 2959 H 291.984 -5.36404 4.44121 0
M  V30 2960 H 289.611 -5.64164 5.09532 0
M  V30 2961 N 291.186 -0.45159 -1.50991 0
M  V30 2962 C 292.463 0.170707 -1.94854 0
M  V30 2963 C 292.843 1.58788 -1.39103 0
M  V30 2964 O 292.191 2.20913 -0.583921 0
M  V30 2965 C 292.401 0.133929 -3.48743 0
M  V30 2966 C 293.749 0.33248 -4.23296 0
M  V30 2967 O 294.773 0.211403 -3.55572 0
M  V30 2968 O 293.632 0.57486 -5.43468 0
M  V30 2969 H 290.726 0.122264 -0.817912 0
M  V30 2970 H 293.272 -0.510594 -1.61836 0
M  V30 2971 H 292.044 -0.856283 -3.81816 0
M  V30 2972 H 291.667 0.857529 -3.88242 0
M  V30 2973 N 292.664 1.56529 -0.183458 0
M  V30 2974 C 294.075 1.83739 0.331177 0
M  V30 2975 C 294.426 1.10373 1.62211 0
M  V30 2976 O 293.551 0.36071 2.13373 0
M  V30 2977 C 294.146 3.33306 0.607646 0
M  V30 2978 C 292.705 3.60969 1.06668 0
M  V30 2979 C 291.852 2.77086 0.109029 0
M  V30 2980 H 294.803 1.53379 -0.407484 0
M  V30 2981 H 294.824 3.51444 1.45832 0
M  V30 2982 H 294.336 3.86677 -0.332086 0
M  V30 2983 H 292.437 3.13021 2.0211 0
M  V30 2984 H 292.55 4.69231 0.967447 0
M  V30 2985 H 290.914 2.47319 0.608714 0
M  V30 2986 H 291.697 3.33241 -0.82494 0
M  V30 2987 N 294.142 -0.090211 1.57342 0
M  V30 2988 C 295.419 -0.824761 1.77361 0
M  V30 2989 C 295.799 -1.96698 0.76637 0
M  V30 2990 O 295.147 -2.27586 -0.204179 0
M  V30 2991 C 295.357 -1.31481 3.23286 0
M  V30 2992 C 296.705 -1.75563 3.86604 0
M  V30 2993 O 297.729 -1.41093 3.27065 0
M  V30 2994 O 296.588 -2.39317 4.91314 0
M  V30 2995 H 293.682 -0.393776 0.727234 0
M  V30 2996 H 296.228 -0.0717138 1.69548 0
M  V30 2997 H 295 -0.496671 3.88135 0
M  V30 2998 H 294.623 -2.12973 3.35751 0
M  V30 2999 N 295.62 -1.53406 -0.361157 0
M  V30 3000 C 296.868 -1.69467 -1.10115 0
M  V30 3001 C 297.189 -0.451352 -1.89705 0
M  V30 3002 O 296.459 0.534636 -1.88463 0
M  V30 3003 H 295.039 -0.624749 -0.409508 0
M  V30 3004 H 297.701 -1.90609 -0.406699 0
M  V30 3005 H 296.797 -2.55774 -1.78847 0
M  V30 3006 N 297.098 0.621204 -1.44841 0
M  V30 3007 C 298.028 1.74366 -1.55303 0
M  V30 3008 C 299.009 1.65199 -0.405385 0
M  V30 3009 O 300.194 1.83807 -0.626787 0
M  V30 3010 C 297.324 3.12931 -1.50637 0
M  V30 3011 C 296.278 3.36896 -2.63979 0
M  V30 3012 C 295.604 4.75594 -2.44366 0
M  V30 3013 C 296.904 3.28483 -4.06074 0
M  V30 3014 H 298.598 1.65867 -2.49256 0
M  V30 3015 H 296.144 0.796558 -1.19962 0
M  V30 3016 H 298.097 3.9124 -1.56555 0
M  V30 3017 H 296.821 3.22237 -0.532057 0
M  V30 3018 H 295.48 2.60972 -2.57467 0
M  V30 3019 H 295.128 4.81616 -1.45105 0
M  V30 3020 H 294.828 4.92586 -3.20364 0
M  V30 3021 H 296.352 5.5612 -2.52117 0
M  V30 3022 H 297.766 3.96684 -4.13902 0
M  V30 3023 H 296.163 3.57008 -4.82354 0
M  V30 3024 H 297.233 2.26133 -4.28943 0
M  V30 3025 N 298.576 1.31904 0.862503 0
M  V30 3026 C 299.825 1.21373 1.61094 0
M  V30 3027 C 300.138 -0.22504 1.94301 0
M  V30 3028 O 301.344 -0.452121 2.67709 0
M  V30 3029 C 299.8 2.12525 2.9045 0
M  V30 3030 C 299.408 3.61441 2.64697 0
M  V30 3031 C 301.152 2.10813 3.68454 0
M  V30 3032 C 299.059 4.44578 3.90006 0
M  V30 3033 H 297.989 0.450705 0.604468 0
M  V30 3034 H 300.64 1.56811 0.953027 0
M  V30 3035 H 299.022 1.69994 3.57656 0
M  V30 3036 H 300.196 4.12264 2.05851 0
M  V30 3037 H 298.511 3.65205 2.00036 0
M  V30 3038 H 301.108 2.70167 4.61426 0
M  V30 3039 H 301.451 1.09713 4.01583 0
M  V30 3040 H 301.984 2.51583 3.08141 0
M  V30 3041 H 298.723 5.46461 3.62023 0
M  V30 3042 H 298.243 3.98508 4.48276 0
M  V30 3043 H 299.922 4.57176 4.5782 0
M  V30 3044 N 300.054 -1.07777 1.14986 0
M  V30 3045 C 300.984 -2.16865 0.865557 0
M  V30 3046 C 301.965 -1.69123 -0.182083 0
M  V30 3047 O 303.15 -1.94164 -0.0373815 0
M  V30 3048 C 300.28 -3.45539 0.349313 0
M  V30 3049 C 299.234 -4.06708 1.33313 0
M  V30 3050 C 298.56 -5.30411 0.675918 0
M  V30 3051 C 299.86 -4.47241 2.69764 0
M  V30 3052 H 301.554 -2.40905 1.77778 0
M  V30 3053 H 299.1 -1.15781 0.856203 0
M  V30 3054 H 301.053 -4.21174 0.137983 0
M  V30 3055 H 299.777 -3.21072 -0.598362 0
M  V30 3056 H 298.436 -3.33112 1.53075 0
M  V30 3057 H 298.084 -5.02232 -0.277767 0
M  V30 3058 H 297.784 -5.72293 1.33244 0
M  V30 3059 H 299.308 -6.08755 0.474262 0
M  V30 3060 H 300.722 -5.14025 2.53873 0
M  V30 3061 H 299.119 -5.00062 3.3175 0
M  V30 3062 H 300.189 -3.58818 3.26156 0
M  V30 3063 N 301.532 -0.945985 -1.26051 0
M  V30 3064 C 302.495 -0.463897 -2.24456 0
M  V30 3065 C 303.495 0.427655 -1.55009 0
M  V30 3066 O 304.685 0.226157 -1.72726 0
M  V30 3067 C 301.817 0.330812 -3.39291 0
M  V30 3068 H 303.01 -1.33357 -2.68619 0
M  V30 3069 H 300.563 -0.728416 -1.38289 0
M  V30 3070 H 301.298 1.21852 -3.00537 0
M  V30 3071 H 301.083 -0.308679 -3.90883 0
M  V30 3072 H 302.573 0.657865 -4.12386 0
M  V30 3073 N 303.011 1.40521 -0.713556 0
M  V30 3074 C 304.258 2.00923 -0.25219 0
M  V30 3075 C 304.586 1.56571 1.15395 0
M  V30 3076 O 303.841 0.775874 1.79663 0
M  V30 3077 C 304.14 3.56317 -0.278 0
M  V30 3078 C 303.806 4.20246 -1.63415 0
M  V30 3079 C 302.468 4.37422 -2.00538 0
M  V30 3080 C 304.82 4.55923 -2.52554 0
M  V30 3081 C 302.148 4.87558 -3.2635 0
M  V30 3082 C 304.5 5.07458 -3.77716 0
M  V30 3083 C 303.164 5.22843 -4.14959 0
M  V30 3084 H 302.434 0.735231 -0.0922829 0
M  V30 3085 H 305.081 1.68161 -0.916188 0
M  V30 3086 H 303.386 3.88976 0.469567 0
M  V30 3087 H 305.083 4.00883 0.0967819 0
M  V30 3088 H 301.673 4.07263 -1.33546 0
M  V30 3089 H 305.857 4.42291 -2.25149 0
M  V30 3090 H 301.113 4.97654 -3.55176 0
M  V30 3091 H 305.287 5.34041 -4.4696 0
M  V30 3092 H 302.914 5.61454 -5.12516 0
M  V30 3093 N 304.489 0.459591 1.5075 0
M  V30 3094 C 305.737 -0.0991532 2.01857 0
M  V30 3095 C 306.058 -1.41247 1.34441 0
M  V30 3096 O 305.328 -1.89775 0.486022 0
M  V30 3097 H 303.908 -0.039633 0.745948 0
M  V30 3098 H 306.57 0.607387 1.85194 0
M  V30 3099 H 305.666 -0.258998 3.11023 0
M  V30 3100 N 305.967 -1.56429 0.191757 0
M  V30 3101 C 307.244 -1.89224 -0.495332 0
M  V30 3102 C 307.624 -1.10478 -1.79883 0
M  V30 3103 O 306.972 -0.204852 -2.2758 0
M  V30 3104 C 307.182 -3.41548 -0.717367 0
M  V30 3105 C 308.53 -4.11711 -1.03823 0
M  V30 3106 O 309.554 -3.4698 -0.805204 0
M  V30 3107 O 308.413 -5.2611 -1.47887 0
M  V30 3108 H 305.507 -0.785788 -0.25781 0
M  V30 3109 H 308.053 -1.68111 0.231721 0
M  V30 3110 H 306.825 -3.90772 0.203287 0
M  V30 3111 H 306.448 -3.68342 -1.497 0
M  V30 3112 N 307.445 0.0818655 -1.57387 0
M  V30 3113 C 308.67 0.799946 -1.91352 0
M  V30 3114 C 309.095 1.70833 -0.787258 0
M  V30 3115 O 308.453 1.79419 0.26048 0
M  V30 3116 C 308.501 1.57812 -3.24234 0
M  V30 3117 O 307.605 2.68806 -3.12757 0
M  V30 3118 H 306.946 0.21891 -0.626877 0
M  V30 3119 H 309.476 0.0531256 -2.04531 0
M  V30 3120 H 309.486 1.95952 -3.57864 0
M  V30 3121 H 308.161 0.911548 -4.05788 0
M  V30 3122 H 306.738 2.33597 -2.90666 0
M  V30 3123 N 308.923 1.53595 0.353017 0
M  V30 3124 C 310.334 1.61937 0.929153 0
M  V30 3125 C 310.685 0.494686 1.89861 0
M  V30 3126 O 309.81 -0.377017 2.1309 0
M  V30 3127 C 310.405 2.93526 1.69199 0
M  V30 3128 C 308.964 3.04161 2.21727 0
M  V30 3129 C 308.111 2.57322 1.03348 0
M  V30 3130 H 311.062 1.58155 0.131431 0
M  V30 3131 H 311.083 2.82034 2.55416 0
M  V30 3132 H 310.595 3.75362 0.986144 0
M  V30 3133 H 308.696 2.26938 2.95516 0
M  V30 3134 H 308.809 4.09465 2.48748 0
M  V30 3135 H 307.173 2.12499 1.40414 0
M  V30 3136 H 307.956 3.41588 0.342428 0
M  V30 3137 N 310.401 -0.613514 1.45168 0
M  V30 3138 C 311.817 -0.933629 1.29443 0
M  V30 3139 C 312.017 -2.00028 0.243101 0
M  V30 3140 O 311.073 -2.49848 -0.364992 0
M  V30 3141 C 312.386 -1.38018 2.67155 0
M  V30 3142 C 313.934 -1.49471 2.75004 0
M  V30 3143 C 314.409 -1.97503 4.13227 0
M  V30 3144 N 315.9 -2.04746 4.15491 0
M  V30 3145 C 316.635 -2.43121 5.19307 0
M  V30 3146 N 316.131 -2.80506 6.33473 0
M  V30 3147 N 317.924 -2.43408 5.06664 0
M  V30 3148 H 310.075 0.0916097 2.12202 0
M  V30 3149 H 312.338 -0.0216655 0.947752 0
M  V30 3150 H 312.044 -0.670625 3.45247 0
M  V30 3151 H 311.918 -2.34784 2.95222 0
M  V30 3152 H 314.305 -2.19519 1.9722 0
M  V30 3153 H 314.386 -0.510342 2.50657 0
M  V30 3154 H 314.03 -1.28045 4.91495 0
M  V30 3155 H 313.96 -2.96843 4.34962 0
M  V30 3156 H 316.451 -1.78468 3.33103 0
M  V30 3157 H 316.764 -3.08652 7.08487 0
M  V30 3158 H 315.109 -2.78216 6.36884 0
M  V30 3159 H 318.3 -2.13604 4.16523 0
M  V30 3160 H 318.473 -2.72989 5.87691 0
M  V30 3161 N 311.879 -1.3236 -0.855495 0
M  V30 3162 C 312.789 -1.23221 -1.99634 0
M  V30 3163 C 313.805 -0.145983 -1.73387 0
M  V30 3164 O 314.981 -0.366502 -1.98037 0
M  V30 3165 C 312.046 -0.954782 -3.33294 0
M  V30 3166 C 311.107 -2.12937 -3.72769 0
M  V30 3167 C 310.34 -1.86508 -5.00051 0
M  V30 3168 O 310.563 -0.807231 -5.64659 0
M  V30 3169 O 309.497 -2.72591 -5.36636 0
M  V30 3170 H 313.323 -2.19126 -2.1028 0
M  V30 3171 H 310.908 -1.12241 -0.986018 0
M  V30 3172 H 312.79 -0.816519 -4.13414 0
M  V30 3173 H 311.465 -0.0258854 -3.2369 0
M  V30 3174 H 310.372 -2.3231 -2.93228 0
M  V30 3175 H 311.705 -3.04102 -3.87018 0
M  V30 3176 N 313.357 1.07166 -1.15556 0
M  V30 3177 C 314.773 1.31899 -0.898603 0
M  V30 3178 C 314.973 1.96333 0.453383 0
M  V30 3179 O 314.029 2.22438 1.19489 0
M  V30 3180 C 315.342 2.20826 -2.04099 0
M  V30 3181 C 316.89 2.34269 -2.07574 0
M  V30 3182 C 317.365 3.26546 -3.21141 0
M  V30 3183 N 318.856 3.34127 -3.20801 0
M  V30 3184 C 319.591 4.05595 -4.05315 0
M  V30 3185 N 319.087 4.79661 -4.99897 0
M  V30 3186 N 320.88 4.01555 -3.93332 0
M  V30 3187 H 313.031 0.637302 -2.02613 0
M  V30 3188 H 315.294 0.343468 -0.883591 0
M  V30 3189 H 315 1.80744 -3.01703 0
M  V30 3190 H 314.874 3.21364 -1.97496 0
M  V30 3191 H 317.261 2.73603 -1.10568 0
M  V30 3192 H 317.342 1.33429 -2.18244 0
M  V30 3193 H 316.986 2.87931 -4.184 0
M  V30 3194 H 316.916 4.27345 -3.07708 0
M  V30 3195 H 319.407 2.81336 -2.52306 0
M  V30 3196 H 319.72 5.31694 -5.60822 0
M  V30 3197 H 318.065 4.78671 -5.03884 0
M  V30 3198 H 321.256 3.42806 -3.18751 0
M  V30 3199 H 321.429 4.56987 -4.5942 0
M  V30 3200 N 314.835 0.952656 1.25548 0
M  V30 3201 C 316.246 0.647392 1.75116 0
M  V30 3202 C 316.597 -0.837274 1.77438 0
M  V30 3203 O 315.722 -1.65525 1.39393 0
M  V30 3204 C 316.317 1.16845 3.18014 0
M  V30 3205 C 314.876 0.913382 3.6515 0
M  V30 3206 C 314.023 1.31265 2.44264 0
M  V30 3207 H 316.974 1.12968 1.11462 0
M  V30 3208 H 316.995 0.527606 3.76824 0
M  V30 3209 H 316.507 2.24902 3.16292 0
M  V30 3210 H 314.608 -0.152316 3.72289 0
M  V30 3211 H 314.721 1.54845 4.53387 0
M  V30 3212 H 313.085 0.731028 2.43984 0
M  V30 3213 H 313.868 2.40239 2.45234 0
M  V30 3214 N 316.313 -1.40141 0.720998 0
M  V30 3215 C 317.561 -2.0039 0.262323 0
M  V30 3216 C 317.882 -1.57469 -1.15015 0
M  V30 3217 O 317.152 -0.816582 -1.78069 0
M  V30 3218 H 315.732 -0.741063 0.093996 0
M  V30 3219 H 318.394 -1.71398 0.927835 0
M  V30 3220 H 317.49 -3.10658 0.299671 0
M  V30 3221 N 317.792 -0.46758 -1.50504 0
M  V30 3222 C 319.208 -0.121533 -1.59137 0
M  V30 3223 C 319.408 1.3717 -1.47603 0
M  V30 3224 O 318.464 2.14464 -1.33272 0
M  V30 3225 C 319.777 -0.6686 -2.93173 0
M  V30 3226 C 321.325 -0.631716 -3.06559 0
M  V30 3227 C 321.8 -1.15627 -4.43164 0
M  V30 3228 N 323.291 -1.11553 -4.49567 0
M  V30 3229 C 324.026 -1.49195 -5.5365 0
M  V30 3230 N 323.522 -1.94269 -6.65005 0
M  V30 3231 N 325.315 -1.4082 -5.44175 0
M  V30 3232 H 317.466 -1.4388 -1.56245 0
M  V30 3233 H 319.729 -0.594784 -0.738198 0
M  V30 3234 H 319.435 -1.71453 -3.07078 0
M  V30 3235 H 319.309 -0.11021 -3.77039 0
M  V30 3236 H 321.696 0.405297 -2.92304 0
M  V30 3237 H 321.777 -1.22687 -2.24458 0
M  V30 3238 H 321.421 -2.1919 -4.58168 0
M  V30 3239 H 321.351 -0.537365 -5.23851 0
M  V30 3240 H 323.842 -0.784895 -3.69659 0
M  V30 3241 H 324.155 -2.21148 -7.40482 0
M  V30 3242 H 322.5 -1.98219 -6.66134 0
M  V30 3243 H 325.691 -1.0545 -4.56068 0
M  V30 3244 H 325.864 -1.70481 -6.25172 0
M  V30 3245 N 319.27 1.56325 -0.20005 0
M  V30 3246 C 320.2 2.22318 0.713916 0
M  V30 3247 C 321.181 1.18788 1.21752 0
M  V30 3248 O 322.366 1.47309 1.26545 0
M  V30 3249 C 319.496 2.88639 1.93144 0
M  V30 3250 C 318.45 3.98457 1.56255 0
M  V30 3251 C 317.776 4.51967 2.85709 0
M  V30 3252 C 319.076 5.16612 0.768747 0
M  V30 3253 H 320.77 2.98952 0.163755 0
M  V30 3254 H 318.316 1.43792 0.0773219 0
M  V30 3255 H 320.269 3.33491 2.57608 0
M  V30 3256 H 318.993 2.09419 2.50621 0
M  V30 3257 H 317.652 3.54305 0.941471 0
M  V30 3258 H 317.3 3.69503 3.41287 0
M  V30 3259 H 317 5.26071 2.6177 0
M  V30 3260 H 318.524 4.99523 3.51154 0
M  V30 3261 H 319.938 5.57977 1.3166 0
M  V30 3262 H 318.335 5.96812 0.627286 0
M  V30 3263 H 319.405 4.84358 -0.229168 0
M  V30 3264 N 320.748 -0.0735177 1.57428 0
M  V30 3265 C 321.678 -1.0879 2.06608 0
M  V30 3266 C 322.659 -1.40473 0.959237 0
M  V30 3267 O 323.844 -1.5013 1.23185 0
M  V30 3268 C 320.974 -2.40183 2.50857 0
M  V30 3269 C 319.928 -2.22858 3.65402 0
M  V30 3270 C 319.254 -3.59619 3.957 0
M  V30 3271 C 320.554 -1.65123 4.95511 0
M  V30 3272 H 322.248 -0.678673 2.91607 0
M  V30 3273 H 319.794 -0.325013 1.40284 0
M  V30 3274 H 321.747 -3.11437 2.83874 0
M  V30 3275 H 320.471 -2.83083 1.62885 0
M  V30 3276 H 319.13 -1.54045 3.32664 0
M  V30 3277 H 318.778 -4.00086 3.04861 0
M  V30 3278 H 318.478 -3.48866 4.72828 0
M  V30 3279 H 320.002 -4.32306 4.31212 0
M  V30 3280 H 321.416 -2.26241 5.26771 0
M  V30 3281 H 319.813 -1.65071 5.7695 0
M  V30 3282 H 320.883 -0.612559 4.81015 0
M  V30 3283 N 322.226 -1.5378 -0.344866 0
M  V30 3284 C 323.474 -1.70625 -1.08311 0
M  V30 3285 C 323.795 -0.471447 -1.89215 0
M  V30 3286 O 323.065 0.514616 -1.8902 0
M  V30 3287 H 321.645 -0.629058 -0.402859 0
M  V30 3288 H 324.307 -1.9103 -0.386459 0
M  V30 3289 H 323.403 -2.57656 -1.76124 0
M  V30 3290 N 323.704 0.605807 -1.45491 0
M  V30 3291 C 324.951 1.36476 -1.49601 0
M  V30 3292 C 325.279 1.94007 -0.138452 0
M  V30 3293 O 324.534 1.75638 0.863114 0
M  V30 3294 C 324.833 2.53012 -2.52428 0
M  V30 3295 C 324.499 2.13617 -3.97087 0
M  V30 3296 C 323.161 2.02587 -4.36477 0
M  V30 3297 C 325.513 1.82899 -4.88055 0
M  V30 3298 C 322.841 1.59064 -5.64726 0
M  V30 3299 C 325.193 1.40861 -6.16718 0
M  V30 3300 C 323.857 1.28391 -6.55036 0
M  V30 3301 H 323.127 0.499402 -0.547429 0
M  V30 3302 H 325.774 0.684546 -1.78847 0
M  V30 3303 H 324.079 3.26379 -2.16758 0
M  V30 3304 H 325.776 3.1124 -2.52845 0
M  V30 3305 H 322.366 2.23129 -3.65939 0
M  V30 3306 H 326.55 1.90317 -4.58359 0
M  V30 3307 H 321.806 1.48034 -5.93208 0
M  V30 3308 H 325.98 1.16138 -6.86648 0
M  V30 3309 H 323.607 0.944403 -7.54311 0
M  V30 3310 N 325.182 1.32811 0.848464 0
M  V30 3311 C 326.132 1.18842 1.94578 0
M  V30 3312 C 327.116 0.0937517 1.60627 0
M  V30 3313 O 328.308 0.320887 1.74067 0
M  V30 3314 C 325.437 0.91999 3.30743 0
M  V30 3315 C 324.523 2.05665 3.70894 0
M  V30 3316 N 324.914 3.30579 3.8282 0
M  V30 3317 C 323.212 1.9612 4.00566 0
M  V30 3318 C 323.913 4.05067 4.17487 0
M  V30 3319 N 322.889 3.33419 4.2934 0
M  V30 3320 H 326.691 2.13536 2.0194 0
M  V30 3321 H 324.205 1.2468 1.0406 0
M  V30 3322 H 326.202 0.800859 4.09136 0
M  V30 3323 H 324.862 -0.0185076 3.24695 0
M  V30 3324 H 325.873 3.65441 3.66978 0
M  V30 3325 H 322.55 1.09871 4.02784 0
M  V30 3326 H 323.94 5.12815 4.34131 0
M  V30 3327 N 326.66 -1.06551 1.16123 0
M  V30 3328 C 327.906 -1.79719 0.952505 0
M  V30 3329 C 328.261 -1.85396 -0.514385 0
M  V30 3330 O 327.554 -1.33263 -1.37665 0
M  V30 3331 C 327.748 -3.23911 1.51052 0
M  V30 3332 C 327.577 -3.32284 3.03013 0
M  V30 3333 C 326.347 -3.42371 3.71632 0
M  V30 3334 C 328.545 -3.22363 4.00732 0
M  V30 3335 N 326.527 -3.39732 5.11327 0
M  V30 3336 C 327.898 -3.26937 5.26794 0
M  V30 3337 C 329.953 -3.0623 3.92591 0
M  V30 3338 C 328.656 -3.17035 6.45663 0
M  V30 3339 C 330.682 -2.97665 5.11028 0
M  V30 3340 C 330.044 -3.02858 6.35969 0
M  V30 3341 H 326.143 -0.670585 0.402293 0
M  V30 3342 H 328.727 -1.27125 1.4747 0
M  V30 3343 H 326.898 -3.74907 1.01484 0
M  V30 3344 H 328.63 -3.85242 1.2398 0
M  V30 3345 H 325.385 -3.47058 3.22254 0
M  V30 3346 H 325.809 -3.41919 5.84312 0
M  V30 3347 H 330.451 -3.01063 2.96852 0
M  V30 3348 H 328.169 -3.2096 7.41627 0
M  V30 3349 H 331.755 -2.86273 5.06497 0
M  V30 3350 H 330.635 -2.96286 7.26075 0
M  V30 3351 N 328.138 -0.959301 -1.25041 0
M  V30 3352 C 329.366 -0.633949 -1.96948 0
M  V30 3353 C 329.781 0.794916 -1.7125 0
M  V30 3354 O 329.138 1.53231 -0.991287 0
M  V30 3355 C 329.189 -0.888805 -3.50403 0
M  V30 3356 O 328.91 -2.26149 -3.75218 0
M  V30 3357 C 330.411 -0.576482 -4.39536 0
M  V30 3358 H 327.631 -0.237263 -0.627652 0
M  V30 3359 H 330.175 -1.28495 -1.59089 0
M  V30 3360 H 328.33 -0.284145 -3.86357 0
M  V30 3361 H 328.744 -2.33514 -4.6965 0
M  V30 3362 H 330.218 -0.805314 -5.46094 0
M  V30 3363 H 330.695 0.489075 -4.36468 0
M  V30 3364 H 331.301 -1.16067 -4.09156 0
M  V30 3365 N 329.616 1.39756 -0.72842 0
M  V30 3366 C 330.563 2.30647 -0.0841519 0
M  V30 3367 C 331.533 1.48869 0.7367 0
M  V30 3368 O 332.718 1.77574 0.698015 0
M  V30 3369 C 329.858 3.35165 0.822091 0
M  V30 3370 C 328.971 4.31999 -0.0106663 0
M  V30 3371 C 328.106 5.23585 0.896241 0
M  V30 3372 C 327.145 6.12072 0.0583381 0
M  V30 3373 N 326.282 6.96035 0.920818 0
M  V30 3374 H 331.122 2.85173 -0.864891 0
M  V30 3375 H 328.659 1.40422 -0.438179 0
M  V30 3376 H 330.617 3.94345 1.36189 0
M  V30 3377 H 329.247 2.8211 1.56888 0
M  V30 3378 H 328.299 3.74492 -0.66781 0
M  V30 3379 H 329.611 4.9443 -0.658825 0
M  V30 3380 H 328.765 5.87759 1.50412 0
M  V30 3381 H 327.504 4.61459 1.57819 0
M  V30 3382 H 326.509 5.46916 -0.562389 0
M  V30 3383 H 327.734 6.76261 -0.6203 0
M  V30 3384 H 325.68 6.36485 1.58818 0
M  V30 3385 H 325.597 7.55284 0.32899 0
M  V30 3386 H 326.865 7.64646 1.51447 0
M  V30 3387 N 331.094 0.475555 1.50254 0
M  V30 3388 C 332.34 -0.0780073 2.0265 0
M  V30 3389 C 332.673 -1.38968 1.35652 0
M  V30 3390 O 331.948 -1.8839 0.483691 0
M  V30 3391 C 332.231 -0.257161 3.59181 0
M  V30 3392 C 332.084 1.07585 4.36744 0
M  V30 3393 C 333.403 -1.00965 4.28362 0
M  V30 3394 H 330.522 -0.0268758 0.73651 0
M  V30 3395 H 333.164 0.622015 1.7953 0
M  V30 3396 H 331.314 -0.853412 3.79011 0
M  V30 3397 H 332.986 1.70902 4.28474 0
M  V30 3398 H 331.229 1.6714 4.00308 0
M  V30 3399 H 331.9 0.904088 5.44546 0
M  V30 3400 H 334.376 -0.504214 4.13034 0
M  V30 3401 H 333.252 -1.10381 5.37687 0
M  V30 3402 H 333.513 -2.04731 3.91839 0
M  V30 3403 N 332.573 -1.56217 0.208337 0
M  V30 3404 C 333.523 -2.16324 -0.720281 0
M  V30 3405 C 334.507 -1.10775 -1.16695 0
M  V30 3406 O 335.699 -1.36801 -1.12314 0
M  V30 3407 C 332.828 -2.83644 -1.93393 0
M  V30 3408 C 331.914 -3.96401 -1.50755 0
M  V30 3409 N 332.305 -4.99546 -0.792937 0
M  V30 3410 C 330.603 -4.08246 -1.79585 0
M  V30 3411 C 331.304 -5.78828 -0.577364 0
M  V30 3412 N 330.28 -5.31723 -1.1301 0
M  V30 3413 H 334.082 -2.93432 -0.165725 0
M  V30 3414 H 331.596 -1.62397 0.00906463 0
M  V30 3415 H 333.593 -3.25107 -2.60981 0
M  V30 3416 H 332.253 -2.08027 -2.49308 0
M  V30 3417 H 333.264 -5.15967 -0.447004 0
M  V30 3418 H 329.941 -3.4377 -2.36915 0
M  V30 3419 H 331.331 -6.71899 -0.00952956 0
M  V30 3420 N 334.051 0.0651679 -1.57465 0
M  V30 3421 C 335.462 0.616213 -1.76238 0
M  V30 3422 C 335.813 1.7756 -0.834689 0
M  V30 3423 O 334.938 2.1639 -0.0204156 0
M  V30 3424 C 335.533 1.12462 -3.1959 0
M  V30 3425 C 334.092 1.62147 -3.39684 0
M  V30 3426 C 333.239 0.543739 -2.71917 0
M  V30 3427 H 336.19 -0.161022 -1.57881 0
M  V30 3428 H 336.211 1.99324 -3.24114 0
M  V30 3429 H 335.723 0.280592 -3.87084 0
M  V30 3430 H 333.824 2.48854 -2.77313 0
M  V30 3431 H 333.937 1.69385 -4.48158 0
M  V30 3432 H 332.301 0.990352 -2.34657 0
M  V30 3433 H 333.084 -0.290216 -3.42071 0
M  V30 3434 N 335.529 1.53961 0.336706 0
M  V30 3435 C 336.806 1.62171 1.09361 0
M  V30 3436 C 337.186 0.447263 2.06307 0
M  V30 3437 O 336.534 -0.559802 2.21537 0
M  V30 3438 C 336.744 2.98565 1.80721 0
M  V30 3439 C 338.092 3.54157 2.34218 0
M  V30 3440 O 339.116 3.00784 1.90807 0
M  V30 3441 O 337.975 4.47528 3.13657 0
M  V30 3442 H 335.069 0.6562 0.503319 0
M  V30 3443 H 337.615 1.66307 0.33765 0
M  V30 3444 H 336.387 3.75482 1.10132 0
M  V30 3445 H 336.01 2.9805 2.63158 0
M  V30 3446 N 337.007 -0.598083 1.45811 0
M  V30 3447 C 337.957 -1.70272 1.51629 0
M  V30 3448 C 338.941 -1.56382 0.378629 0
M  V30 3449 O 340.133 -1.65557 0.626087 0
M  V30 3450 C 337.262 -3.09042 1.49493 0
M  V30 3451 C 336.348 -3.28284 2.68496 0
M  V30 3452 N 336.739 -3.17748 3.93535 0
M  V30 3453 C 335.037 -3.59182 2.64394 0
M  V30 3454 C 335.738 -3.38579 4.7301 0
M  V30 3455 N 334.714 -3.63016 4.04624 0
M  V30 3456 H 338.516 -1.60634 2.46118 0
M  V30 3457 H 336.03 -0.801642 1.41235 0
M  V30 3458 H 338.027 -3.88302 1.51747 0
M  V30 3459 H 336.687 -3.19823 0.560683 0
M  V30 3460 H 337.698 -2.95944 4.25014 0
M  V30 3461 H 334.375 -3.76742 1.79922 0
M  V30 3462 H 335.765 -3.35747 5.82 0
M  V30 3463 N 338.485 -1.33259 -0.841409 0
M  V30 3464 C 339.896 -1.22066 -1.41269 0
M  V30 3465 C 340.247 0.161479 -1.95534 0
M  V30 3466 O 339.372 1.06094 -1.88608 0
M  V30 3467 C 339.967 -2.20996 -2.568 0
M  V30 3468 C 338.526 -2.13649 -3.09888 0
M  V30 3469 C 337.673 -2.08623 -1.82679 0
M  V30 3470 H 340.624 -1.44895 -0.647395 0
M  V30 3471 H 340.645 -1.81621 -3.34356 0
M  V30 3472 H 340.157 -3.2158 -2.17274 0
M  V30 3473 H 338.258 -1.16359 -3.53965 0
M  V30 3474 H 338.371 -3.04079 -3.70234 0
M  V30 3475 H 336.735 -1.54061 -2.02824 0
M  V30 3476 H 337.518 -3.1101 -1.45353 0
M  V30 3477 N 339.963 1.05934 -1.16686 0
M  V30 3478 C 341.211 1.78447 -0.948744 0
M  V30 3479 C 341.532 1.87813 0.524523 0
M  V30 3480 O 340.802 1.38945 1.38098 0
M  V30 3481 H 339.382 0.660971 -0.348033 0
M  V30 3482 H 342.044 1.27947 -1.47022 0
M  V30 3483 H 341.14 2.80394 -1.37061 0
M  V30 3484 N 341.441 0.965919 1.2453 0
M  V30 3485 C 342.371 0.513476 2.27784 0
M  V30 3486 C 343.352 -0.445974 1.6415 0
M  V30 3487 O 344.537 -0.342485 1.91156 0
M  V30 3488 C 341.667 -0.198839 3.4673 0
M  V30 3489 C 340.621 0.676456 4.2262 0
M  V30 3490 C 339.947 -0.167248 5.34438 0
M  V30 3491 C 341.247 1.96017 4.84123 0
M  V30 3492 H 342.941 1.3765 2.65881 0
M  V30 3493 H 340.487 0.663321 1.27813 0
M  V30 3494 H 342.44 -0.526567 4.18097 0
M  V30 3495 H 341.164 -1.0962 3.07654 0
M  V30 3496 H 339.823 0.98743 3.53052 0
M  V30 3497 H 339.471 -1.0647 4.91603 0
M  V30 3498 H 339.171 0.415181 5.86131 0
M  V30 3499 H 340.695 -0.489688 6.08633 0
M  V30 3500 H 342.109 1.69814 5.47573 0
M  V30 3501 H 340.506 2.48918 5.4604 0
M  V30 3502 H 341.576 2.65622 4.05676 0
M  V30 3503 N 342.919 -1.39368 0.735821 0
M  V30 3504 C 344.167 -2.00101 0.283562 0
M  V30 3505 C 344.488 -1.5868 -1.13338 0
M  V30 3506 O 343.758 -0.835423 -1.77193 0
M  V30 3507 H 342.338 -0.740024 0.101851 0
M  V30 3508 H 345 -1.70404 0.945962 0
M  V30 3509 H 344.096 -3.10323 0.332604 0
M  V30 3510 N 344.397 -0.483516 -1.5 0
M  V30 3511 C 345.307 0.309172 -2.32554 0
M  V30 3512 C 346.323 0.984159 -1.43493 0
M  V30 3513 O 347.499 0.969399 -1.76535 0
M  V30 3514 C 344.564 1.36979 -3.18493 0
M  V30 3515 C 343.625 0.710095 -4.23387 0
M  V30 3516 C 342.858 1.72018 -5.05218 0
M  V30 3517 O 343.081 2.94813 -4.88305 0
M  V30 3518 O 342.015 1.28515 -5.8802 0
M  V30 3519 H 345.841 -0.366064 -3.01486 0
M  V30 3520 H 343.426 -0.24514 -1.47375 0
M  V30 3521 H 345.308 1.98385 -3.71781 0
M  V30 3522 H 343.983 2.02828 -2.52275 0
M  V30 3523 H 342.89 0.0567539 -3.74057 0
M  V30 3524 H 344.223 0.0943557 -4.9211 0
M  V30 3525 N 345.875 1.56104 -0.216619 0
M  V30 3526 C 347.121 1.98466 0.417033 0
M  V30 3527 C 347.454 1.10403 1.59765 0
M  V30 3528 O 346.729 0.160632 1.93836 0
M  V30 3529 C 347.012 3.49769 0.85637 0
M  V30 3530 C 346.865 4.48606 -0.327546 0
M  V30 3531 C 348.184 4.05339 1.7143 0
M  V30 3532 H 345.303 0.721551 0.150112 0
M  V30 3533 H 347.945 1.87423 -0.311864 0
M  V30 3534 H 346.095 3.5931 1.47745 0
M  V30 3535 H 347.767 4.5108 -0.965618 0
M  V30 3536 H 346.01 4.22682 -0.975805 0
M  V30 3537 H 346.681 5.51995 0.0227149 0
M  V30 3538 H 349.157 3.98712 1.19031 0
M  V30 3539 H 348.033 5.11533 1.99061 0
M  V30 3540 H 348.294 3.51918 2.67593 0
M  V30 3541 N 347.353 -0.0568162 1.57498 0
M  V30 3542 C 348.583 -0.764515 1.91934 0
M  V30 3543 C 348.991 -1.70877 0.81227 0
M  V30 3544 O 348.334 -1.82351 -0.222213 0
M  V30 3545 C 348.396 -1.5994 3.21962 0
M  V30 3546 C 348.06 -0.822925 4.4953 0
M  V30 3547 C 349.057 -0.135464 5.19723 0
M  V30 3548 C 346.742 -0.785666 4.96117 0
M  V30 3549 C 348.736 0.578861 6.34766 0
M  V30 3550 C 346.423 -0.0675784 6.11063 0
M  V30 3551 C 347.421 0.613471 6.80239 0
M  V30 3552 O 347.109 1.31996 7.92989 0
M  V30 3553 H 346.841 -0.221647 0.63863 0
M  V30 3554 H 349.395 -0.0268218 2.05382 0
M  V30 3555 H 347.625 -2.38026 3.04763 0
M  V30 3556 H 349.314 -2.18715 3.41934 0
M  V30 3557 H 350.08 -0.155458 4.84751 0
M  V30 3558 H 345.959 -1.30524 4.42136 0
M  V30 3559 H 349.503 1.111 6.88696 0
M  V30 3560 H 345.4 -0.0455636 6.45484 0
M  V30 3561 H 346.168 1.23077 8.09194 0
M  V30 3562 N 348.832 -1.54138 -0.328536 0
M  V30 3563 C 350.078 -1.7236 -1.06865 0
M  V30 3564 C 350.411 -0.493231 -1.87832 0
M  V30 3565 O 349.686 0.5098 -1.877 0
M  V30 3566 C 349.969 -2.99621 -1.99747 0
M  V30 3567 C 349.822 -4.32899 -1.22143 0
M  V30 3568 C 351.141 -3.22615 -2.99345 0
M  V30 3569 H 348.26 -0.627151 -0.387105 0
M  V30 3570 H 350.902 -1.86827 -0.345767 0
M  V30 3571 H 349.052 -2.87418 -2.61387 0
M  V30 3572 H 350.724 -4.56978 -0.630017 0
M  V30 3573 H 348.967 -4.30628 -0.523628 0
M  V30 3574 H 349.638 -5.18154 -1.90318 0
M  V30 3575 H 352.114 -3.34248 -2.47826 0
M  V30 3576 H 350.99 -4.13027 -3.61524 0
M  V30 3577 H 351.251 -2.3961 -3.71536 0
M  V30 3578 N 350.31 0.590341 -1.46126 0
M  V30 3579 C 351.24 1.71032 -1.58966 0
M  V30 3580 C 352.221 1.64302 -0.440335 0
M  V30 3581 O 353.406 1.82436 -0.665634 0
M  V30 3582 C 350.536 3.09665 -1.57241 0
M  V30 3583 C 349.49 3.31221 -2.71066 0
M  V30 3584 C 348.816 4.70303 -2.54399 0
M  V30 3585 C 350.116 3.19796 -4.1295 0
M  V30 3586 H 351.81 1.60543 -2.52718 0
M  V30 3587 H 349.356 0.770933 -1.21625 0
M  V30 3588 H 351.309 3.87831 -1.64819 0
M  V30 3589 H 350.033 3.21036 -0.600289 0
M  V30 3590 H 348.692 2.55452 -2.62944 0
M  V30 3591 H 348.34 4.78429 -1.55288 0
M  V30 3592 H 348.04 4.85679 -3.30741 0
M  V30 3593 H 349.564 5.50647 -2.63857 0
M  V30 3594 H 350.978 3.87815 -4.22223 0
M  V30 3595 H 349.375 3.46696 -4.89818 0
M  V30 3596 H 350.445 2.16983 -4.33643 0
M  V30 3597 N 351.788 1.33704 0.83433 0
M  V30 3598 C 353.036 1.25169 1.58673 0
M  V30 3599 C 353.357 -0.18127 1.94156 0
M  V30 3600 O 352.627 -1.11113 1.6134 0
M  V30 3601 H 351.207 0.4603 0.58833 0
M  V30 3602 H 353.869 1.67478 0.996847 0
M  V30 3603 H 352.965 1.84856 2.51465 0
M  V30 3604 N 353.266 -1.05314 1.17247 0
M  V30 3605 C 354.512 -1.78557 0.961513 0
M  V30 3606 C 354.845 -1.87419 -0.508697 0
M  V30 3607 O 354.12 -1.37307 -1.37757 0
M  V30 3608 C 354.403 -3.22514 1.60176 0
M  V30 3609 C 354.256 -3.21673 3.14399 0
M  V30 3610 C 355.575 -4.20318 1.30463 0
M  V30 3611 H 352.694 -0.6482 0.350723 0
M  V30 3612 H 355.336 -1.23102 1.44727 0
M  V30 3613 H 353.486 -3.69867 1.18871 0
M  V30 3614 H 355.158 -2.82405 3.64753 0
M  V30 3615 H 353.401 -2.60048 3.47214 0
M  V30 3616 H 354.072 -4.23271 3.54324 0
M  V30 3617 H 356.548 -3.81454 1.66229 0
M  V30 3618 H 355.424 -5.19289 1.77848 0
M  V30 3619 H 355.685 -4.41526 0.22521 0
M  V30 3620 N 354.744 -0.972509 -1.24016 0
M  V30 3621 C 356.021 -0.553733 -1.87598 0
M  V30 3622 C 356.401 0.969158 -1.87538 0
M  V30 3623 O 355.749 1.84255 -1.35139 0
M  V30 3624 C 355.959 -1.15076 -3.29482 0
M  V30 3625 C 357.307 -1.23862 -4.06132 0
M  V30 3626 O 358.331 -1.10363 -3.38672 0
M  V30 3627 O 357.19 -1.45252 -5.26844 0
M  V30 3628 H 354.284 -0.185331 -0.805966 0
M  V30 3629 H 356.83 -1.06709 -1.31952 0
M  V30 3630 H 355.602 -2.19333 -3.2405 0
M  V30 3631 H 355.225 -0.621746 -3.92709 0
M  V30 3632 N 356.222 1.38976 -0.743202 0
M  V30 3633 C 357.633 1.83123 -0.363732 0
M  V30 3634 C 357.984 1.6205 1.10609 0
M  V30 3635 O 357.109 1.11606 1.854 0
M  V30 3636 C 357.704 3.32439 -0.653408 0
M  V30 3637 C 356.263 3.74974 -0.327338 0
M  V30 3638 C 355.41 2.61878 -0.911875 0
M  V30 3639 H 358.361 1.27852 -0.940191 0
M  V30 3640 H 358.382 3.80432 0.0720031 0
M  V30 3641 H 357.894 3.47745 -1.72323 0
M  V30 3642 H 355.995 3.65252 0.736314 0
M  V30 3643 H 356.108 4.72106 -0.815631 0
M  V30 3644 H 354.472 2.52448 -0.337944 0
M  V30 3645 H 355.255 2.79987 -1.98651 0
M  V30 3646 N 357.7 0.491464 1.49741 0
M  V30 3647 C 358.663 -0.280906 2.27472 0
M  V30 3648 C 359.663 -0.902454 1.33088 0
M  V30 3649 O 360.853 -0.768465 1.56334 0
M  V30 3650 C 357.985 -1.40209 3.10732 0
M  V30 3651 H 359.178 0.401056 2.97206 0
M  V30 3652 H 356.731 0.246131 1.5435 0
M  V30 3653 H 357.466 -2.11849 2.45541 0
M  V30 3654 H 357.251 -0.961969 3.80117 0
M  V30 3655 H 358.741 -1.9464 3.69466 0
M  V30 3656 N 359.178 -1.55987 0.224894 0
M  V30 3657 C 360.141 -2.19178 -0.670348 0
M  V30 3658 C 361.141 -1.15461 -1.11917 0
M  V30 3659 O 362.331 -1.40675 -1.02743 0
M  V30 3660 C 359.463 -2.81777 -1.9187 0
M  V30 3661 H 360.656 -2.99662 -0.119364 0
M  V30 3662 H 358.209 -1.5628 -0.0247128 0
M  V30 3663 H 358.944 -2.05172 -2.51147 0
M  V30 3664 H 358.729 -3.57732 -1.60531 0
M  V30 3665 H 360.219 -3.30205 -2.55645 0
M  V30 3666 N 360.656 0.0484629 -1.57525 0
M  V30 3667 C 361.588 1.08222 -2.02041 0
M  V30 3668 C 362.601 1.33621 -0.930012 0
M  V30 3669 O 363.79 1.3145 -1.20761 0
M  V30 3670 C 360.89 2.42818 -2.36416 0
M  V30 3671 C 360.063 2.37049 -3.67596 0
M  V30 3672 C 359.122 3.53937 -3.89378 0
M  V30 3673 O 358.148 3.34308 -4.60681 0
M  V30 3674 N 359.35 4.75126 -3.3352 0
M  V30 3675 H 362.115 0.702946 -2.9134 0
M  V30 3676 H 359.676 0.236745 -1.6016 0
M  V30 3677 H 361.668 3.197 -2.48141 0
M  V30 3678 H 360.238 2.72661 -1.52888 0
M  V30 3679 H 359.458 1.45395 -3.66407 0
M  V30 3680 H 360.746 2.30318 -4.53686 0
M  V30 3681 H 360.144 4.93976 -2.75688 0
M  V30 3682 H 358.701 5.49439 -3.50656 0
M  V30 3683 N 362.134 1.5431 0.320358 0
M  V30 3684 C 363.55 1.45091 0.664889 0
M  V30 3685 C 363.75 0.626382 1.91517 0
M  V30 3686 O 362.806 0.126443 2.52183 0
M  V30 3687 C 364.119 2.88848 0.83591 0
M  V30 3688 C 365.667 2.9877 0.933046 0
M  V30 3689 C 366.142 4.43683 1.13621 0
M  V30 3690 N 367.633 4.47309 1.20287 0
M  V30 3691 C 368.368 5.56595 1.37801 0
M  V30 3692 N 367.864 6.75844 1.52338 0
M  V30 3693 N 369.657 5.44248 1.40535 0
M  V30 3694 H 361.808 2.06398 -0.501374 0
M  V30 3695 H 364.071 0.933963 -0.162534 0
M  V30 3696 H 363.777 3.51698 -0.0116092 0
M  V30 3697 H 363.651 3.35148 1.73078 0
M  V30 3698 H 366.038 2.36045 1.77107 0
M  V30 3699 H 366.119 2.55796 0.0145782 0
M  V30 3700 H 365.763 5.06995 0.303032 0
M  V30 3701 H 365.693 4.84269 2.0686 0
M  V30 3702 H 368.184 3.61388 1.10485 0
M  V30 3703 H 368.497 7.54892 1.65403 0
M  V30 3704 H 366.842 6.78746 1.4943 0
M  V30 3705 H 370.033 4.50038 1.28777 0
M  V30 3706 H 370.206 6.29473 1.53842 0
M  V30 3707 N 363.613 -0.582584 1.46437 0
M  V30 3708 C 365.029 -0.905962 1.31394 0
M  V30 3709 C 365.229 -1.99468 0.285476 0
M  V30 3710 O 364.285 -2.50566 -0.311914 0
M  V30 3711 C 365.598 -1.3232 2.70022 0
M  V30 3712 C 367.146 -1.43604 2.78113 0
M  V30 3713 C 367.621 -1.88694 4.17323 0
M  V30 3714 N 369.112 -1.95887 4.19741 0
M  V30 3715 C 369.847 -2.32051 5.24347 0
M  V30 3716 N 369.343 -2.67006 6.39281 0
M  V30 3717 N 371.136 -2.32606 5.11713 0
M  V30 3718 H 363.287 0.1366 2.1196 0
M  V30 3719 H 365.55 -0.00155736 0.947999 0
M  V30 3720 H 365.256 -0.597242 3.46592 0
M  V30 3721 H 365.13 -2.28469 3.00136 0
M  V30 3722 H 367.517 -2.15286 2.01832 0
M  V30 3723 H 367.598 -0.457059 2.51684 0
M  V30 3724 H 367.242 -1.1759 4.941 0
M  V30 3725 H 367.172 -2.8755 4.4116 0
M  V30 3726 H 369.663 -1.71362 3.36814 0
M  V30 3727 H 369.976 -2.93554 7.14875 0
M  V30 3728 H 368.321 -2.64644 6.42642 0
M  V30 3729 H 371.512 -2.04721 4.2096 0
M  V30 3730 H 371.685 -2.60462 5.93349 0
M  V30 3731 N 365.091 -1.34144 -0.827227 0
M  V30 3732 C 366.339 -1.26009 -1.58007 0
M  V30 3733 C 366.66 0.170971 -1.94249 0
M  V30 3734 O 365.93 1.10256 -1.61927 0
M  V30 3735 H 364.51 -0.463414 -0.585881 0
M  V30 3736 H 367.172 -1.68005 -0.987951 0
M  V30 3737 H 366.268 -1.86187 -2.50481 0
M  V30 3738 N 366.569 1.04691 -1.17803 0
M  V30 3739 C 367.499 2.14494 -0.92275 0
M  V30 3740 C 368.48 1.69546 0.137179 0
M  V30 3741 O 369.665 1.94195 -0.0141108 0
M  V30 3742 C 366.795 3.44491 -0.440803 0
M  V30 3743 C 365.749 4.03031 -1.4405 0
M  V30 3744 C 365.075 5.28432 -0.81631 0
M  V30 3745 C 366.375 4.39932 -2.81527 0
M  V30 3746 H 368.069 2.36107 -1.84103 0
M  V30 3747 H 365.615 1.1347 -0.886599 0
M  V30 3748 H 367.568 4.2066 -0.249602 0
M  V30 3749 H 366.292 3.22546 0.513025 0
M  V30 3750 H 364.951 3.28937 -1.61853 0
M  V30 3751 H 364.599 5.02792 0.144511 0
M  V30 3752 H 364.299 5.68559 -1.48371 0
M  V30 3753 H 365.823 6.07284 -0.635496 0
M  V30 3754 H 367.237 5.07113 -2.67412 0
M  V30 3755 H 365.634 4.9109 -3.44892 0
M  V30 3756 H 366.704 3.50045 -3.35554 0
M  V30 3757 N 368.047 0.979072 1.23499 0
M  V30 3758 C 369.295 0.645941 1.91499 0
M  V30 3759 C 369.616 -0.822948 1.76784 0
M  V30 3760 O 368.886 -1.58854 1.14639 0
M  V30 3761 H 367.466 0.235919 0.708767 0
M  V30 3762 H 370.128 1.2426 1.50152 0
M  V30 3763 H 369.224 0.896411 2.9895 0
M  V30 3764 N 369.525 -1.3858 0.750561 0
M  V30 3765 C 370.457 -2.29057 0.0810714 0
M  V30 3766 C 371.47 -1.47596 -0.686973 0
M  V30 3767 O 372.659 -1.70495 -0.528563 0
M  V30 3768 C 369.759 -3.26475 -0.909247 0
M  V30 3769 C 368.932 -4.36945 -0.199478 0
M  V30 3770 C 367.991 -5.14572 -1.10011 0
M  V30 3771 O 367.017 -5.66321 -0.57177 0
M  V30 3772 N 368.219 -5.27262 -2.42849 0
M  V30 3773 H 370.984 -2.87153 0.858087 0
M  V30 3774 H 368.545 -1.50328 0.60109 0
M  V30 3775 H 370.537 -3.75285 -1.51471 0
M  V30 3776 H 369.107 -2.69298 -1.58736 0
M  V30 3777 H 368.327 -3.8981 0.586664 0
M  V30 3778 H 369.615 -5.07963 0.291783 0
M  V30 3779 H 369.013 -4.86763 -2.88233 0
M  V30 3780 H 367.57 -5.79456 -2.98453 0
M  V30 3781 N 371.003 -0.499398 -1.49478 0
M  V30 3782 C 371.936 0.326491 -2.25852 0
M  V30 3783 C 372.914 0.971776 -1.30366 0
M  V30 3784 O 374.098 1.00219 -1.59651 0
M  V30 3785 C 371.225 1.45969 -3.05632 0
M  V30 3786 C 370.271 0.928938 -4.16261 0
M  V30 3787 S 371.104 -0.179012 -5.35201 0
M  V30 3788 C 372.26 0.957389 -6.18534 0
M  V30 3789 H 372.493 -0.321746 -2.95554 0
M  V30 3790 H 370.026 -0.284674 -1.51753 0
M  V30 3791 H 371.984 2.109 -3.52181 0
M  V30 3792 H 370.645 2.07953 -2.35402 0
M  V30 3793 H 369.838 1.77813 -4.71592 0
M  V30 3794 H 369.44 0.356869 -3.72293 0
M  V30 3795 H 371.732 1.86296 -6.51383 0
M  V30 3796 H 372.675 0.442733 -7.06715 0
M  V30 3797 H 373.083 1.224 -5.5107 0
M  V30 3798 N 372.481 1.55866 -0.233164 0
M  V30 3799 C 373.411 2.23783 0.666599 0
M  V30 3800 C 374.392 1.21343 1.19205 0
M  V30 3801 O 375.577 1.4996 1.23392 0
M  V30 3802 C 372.707 2.92671 1.86978 0
M  V30 3803 C 371.661 4.01682 1.47768 0
M  V30 3804 C 370.987 4.57926 2.76058 0
M  V30 3805 C 372.287 5.18126 0.658993 0
M  V30 3806 H 373.981 2.99232 0.100306 0
M  V30 3807 H 371.527 1.43924 0.046804 0
M  V30 3808 H 373.48 3.3888 2.50476 0
M  V30 3809 H 372.204 2.14688 2.46123 0
M  V30 3810 H 370.863 3.56222 0.866106 0
M  V30 3811 H 370.511 3.76659 3.33372 0
M  V30 3812 H 370.211 5.31505 2.50552 0
M  V30 3813 H 371.735 5.06859 3.40479 0
M  V30 3814 H 373.149 5.60644 1.19795 0
M  V30 3815 H 371.546 5.98009 0.500552 0
M  V30 3816 H 372.616 4.83763 -0.331856 0
M  V30 3817 N 373.959 -0.0401083 1.57549 0
M  V30 3818 C 375.187 -0.745196 1.93014 0
M  V30 3819 C 375.602 -1.6948 0.831984 0
M  V30 3820 O 374.959 -1.81482 -0.192463 0
M  V30 3821 C 375.01 -1.51176 3.28372 0
M  V30 3822 O 374.731 -0.600284 4.33968 0
M  V30 3823 C 376.232 -2.315 3.78051 0
M  V30 3824 H 373.452 -0.210088 0.637263 0
M  V30 3825 H 375.996 -0.000924689 2.045 0
M  V30 3826 H 374.151 -2.20801 3.18317 0
M  V30 3827 H 374.565 -1.13669 5.12035 0
M  V30 3828 H 376.039 -2.80697 4.75303 0
M  V30 3829 H 376.516 -3.12436 3.08675 0
M  V30 3830 H 377.122 -1.66971 3.91153 0
M  V30 3831 N 375.437 -1.54477 -0.31217 0
M  V30 3832 C 376.662 -1.77526 -1.07235 0
M  V30 3833 C 377.087 -0.527775 -1.80544 0
M  V30 3834 O 376.445 0.52121 -1.73646 0
M  V30 3835 C 376.493 -2.97535 -2.03728 0
M  V30 3836 O 375.597 -2.69878 -3.11833 0
M  V30 3837 H 374.938 -0.58792 -0.30862 0
M  V30 3838 H 377.468 -2.01532 -0.352993 0
M  V30 3839 H 377.478 -3.25198 -2.46395 0
M  V30 3840 H 376.153 -3.87996 -1.49774 0
M  V30 3841 H 374.73 -2.53199 -2.7376 0
M  V30 3842 N 376.915 0.57481 -1.46744 0
M  V30 3843 C 378.164 1.32898 -1.51727 0
M  V30 3844 C 378.477 1.948 -0.176692 0
M  V30 3845 O 379.683 2.71299 -0.104385 0
M  V30 3846 C 378.139 2.40901 -2.67385 0
M  V30 3847 C 377.747 1.85266 -4.07898 0
M  V30 3848 C 379.491 3.17609 -2.81646 0
M  V30 3849 C 377.398 2.90945 -5.14883 0
M  V30 3850 H 376.328 0.499631 -0.564699 0
M  V30 3851 H 378.979 0.612536 -1.72975 0
M  V30 3852 H 377.361 3.15379 -2.39483 0
M  V30 3853 H 378.535 1.17278 -4.45626 0
M  V30 3854 H 376.85 1.21199 -3.98371 0
M  V30 3855 H 379.447 3.96493 -3.58744 0
M  V30 3856 H 379.79 3.70696 -1.89448 0
M  V30 3857 H 380.323 2.50239 -3.09233 0
M  V30 3858 H 377.062 2.42736 -6.089 0
M  V30 3859 H 376.582 3.57398 -4.81691 0
M  V30 3860 H 378.261 3.54755 -5.41071 0
M  V30 3861 N 378.394 1.34581 0.820102 0
M  V30 3862 C 379.642 1.26845 1.57336 0
M  V30 3863 C 379.963 -0.160667 1.94337 0
M  V30 3864 O 379.233 -1.09396 1.6251 0
M  V30 3865 H 377.813 0.466514 0.583415 0
M  V30 3866 H 380.475 1.68526 0.979027 0
M  V30 3867 H 379.571 1.87513 2.4949 0
M  V30 3868 N 379.872 -1.04064 1.18357 0
M  V30 3869 C 381.121 -1.76662 0.973313 0
M  V30 3870 C 381.434 -1.89154 -0.497991 0
M  V30 3871 O 382.64 -2.58606 -0.826762 0
M  V30 3872 C 381.096 -3.17624 1.69242 0
M  V30 3873 C 380.704 -3.13225 3.20303 0
M  V30 3874 C 382.448 -3.946 1.56497 0
M  V30 3875 C 380.355 -4.49046 3.84853 0
M  V30 3876 H 379.285 -0.662214 0.36054 0
M  V30 3877 H 381.936 -1.16553 1.41731 0
M  V30 3878 H 380.318 -3.78129 1.1762 0
M  V30 3879 H 381.492 -2.62172 3.78949 0
M  V30 3880 H 379.807 -2.49749 3.33189 0
M  V30 3881 H 382.404 -4.95042 2.02084 0
M  V30 3882 H 382.747 -4.13074 0.517243 0
M  V30 3883 H 383.28 -3.4067 2.05399 0
M  V30 3884 H 380.019 -4.35777 4.89672 0
M  V30 3885 H 379.539 -5.00203 3.30994 0
M  V30 3886 H 381.218 -5.17961 3.87718 0
M  V30 3887 N 381.35 -0.985608 -1.22978 0
M  V30 3888 C 382.596 -0.65836 -1.91816 0
M  V30 3889 C 382.929 0.806692 -1.76653 0
M  V30 3890 O 382.204 1.58252 -1.13078 0
M  V30 3891 C 382.487 -1.056 -3.44268 0
M  V30 3892 C 382.34 -2.57906 -3.68516 0
M  V30 3893 C 383.659 -0.603781 -4.35939 0
M  V30 3894 H 380.778 -0.24065 -0.696604 0
M  V30 3895 H 383.42 -1.22783 -1.44998 0
M  V30 3896 H 381.57 -0.571445 -3.84274 0
M  V30 3897 H 383.242 -3.13976 -3.3796 0
M  V30 3898 H 381.485 -3.00305 -3.13048 0
M  V30 3899 H 382.156 -2.80779 -4.75255 0
M  V30 3900 H 384.632 -1.01987 -4.03408 0
M  V30 3901 H 383.508 -0.910383 -5.41298 0
M  V30 3902 H 383.769 0.495761 -4.39312 0
M  V30 3903 N 382.828 1.3818 -0.7579 0
M  V30 3904 C 384.053 2.04827 -0.325679 0
M  V30 3905 C 384.478 1.56788 1.03919 0
M  V30 3906 O 383.836 0.721811 1.66312 0
M  V30 3907 C 383.884 3.58774 -0.362447 0
M  V30 3908 O 382.988 4.07372 0.642033 0
M  V30 3909 H 382.329 0.64833 -0.143402 0
M  V30 3910 H 384.859 1.7677 -1.03023 0
M  V30 3911 H 384.869 4.07434 -0.214844 0
M  V30 3912 H 383.544 3.93096 -1.35824 0
M  V30 3913 H 382.121 3.70068 0.458688 0
M  V30 3914 N 384.306 0.507319 1.49211 0
M  V30 3915 C 385.236 -0.256939 2.32082 0
M  V30 3916 C 386.217 -0.956609 1.40652 0
M  V30 3917 O 387.402 -0.946788 1.69557 0
M  V30 3918 C 384.532 -1.31802 3.21318 0
M  V30 3919 C 383.486 -0.737855 4.21592 0
M  V30 3920 C 382.812 -1.89992 4.99807 0
M  V30 3921 C 384.112 0.275325 5.21574 0
M  V30 3922 H 385.806 0.434798 2.96226 0
M  V30 3923 H 383.352 0.210546 1.42452 0
M  V30 3924 H 385.305 -1.86045 3.78107 0
M  V30 3925 H 384.029 -2.03903 2.5513 0
M  V30 3926 H 382.688 -0.217126 3.65956 0
M  V30 3927 H 382.336 -2.60877 4.30061 0
M  V30 3928 H 382.036 -1.51777 5.6766 0
M  V30 3929 H 383.56 -2.44657 5.59442 0
M  V30 3930 H 384.974 -0.179193 5.7302 0
M  V30 3931 H 383.371 0.573649 5.97352 0
M  V30 3932 H 384.441 1.18903 4.70096 0
M  V30 3933 N 385.784 -1.5574 0.241426 0
M  V30 3934 C 386.747 -2.19877 -0.647063 0
M  V30 3935 C 387.747 -1.16642 -1.10686 0
M  V30 3936 O 388.937 -1.41757 -1.01245 0
M  V30 3937 C 386.069 -2.83797 -1.88871 0
M  V30 3938 H 387.262 -2.99772 -0.087574 0
M  V30 3939 H 384.815 -1.56298 -0.00813574 0
M  V30 3940 H 385.55 -2.07824 -2.48957 0
M  V30 3941 H 385.335 -3.59414 -1.56728 0
M  V30 3942 H 386.825 -3.32898 -2.52129 0
M  V30 3943 N 387.262 0.0317525 -1.57568 0
M  V30 3944 C 388.678 0.38735 -1.54828 0
M  V30 3945 C 388.878 1.7677 -0.967187 0
M  V30 3946 O 387.934 2.45581 -0.587063 0
M  V30 3947 C 389.247 0.291667 -2.99282 0
M  V30 3948 C 390.795 0.368946 -3.10818 0
M  V30 3949 C 391.27 0.302741 -4.56998 0
M  V30 3950 N 392.761 0.361617 -4.61786 0
M  V30 3951 C 393.496 0.333238 -5.72431 0
M  V30 3952 N 392.992 0.257308 -6.92322 0
M  V30 3953 N 394.785 0.382769 -5.60795 0
M  V30 3954 H 386.936 -0.871609 -1.93692 0
M  V30 3955 H 389.199 -0.331161 -0.888277 0
M  V30 3956 H 388.905 -0.656794 -3.45513 0
M  V30 3957 H 388.779 1.08638 -3.61217 0
M  V30 3958 H 391.166 1.30784 -2.64536 0
M  V30 3959 H 391.247 -0.455066 -2.5172 0
M  V30 3960 H 390.891 -0.632473 -5.03947 0
M  V30 3961 H 390.821 1.14482 -5.14005 0
M  V30 3962 H 393.312 0.422923 -3.75526 0
M  V30 3963 H 393.625 0.24068 -7.72425 0
M  V30 3964 H 391.97 0.223396 -6.94641 0
M  V30 3965 H 395.161 0.44006 -4.66027 0
M  V30 3966 H 395.334 0.357184 -6.47015 0
M  V30 3967 N 388.74 1.54641 0.303973 0
M  V30 3968 C 390.156 1.45788 0.649463 0
M  V30 3969 C 390.356 0.64666 1.90842 0
M  V30 3970 O 389.412 0.153183 2.52035 0
M  V30 3971 C 390.725 2.89718 0.805227 0
M  V30 3972 C 392.273 2.99742 0.901305 0
M  V30 3973 C 392.748 4.44863 1.08909 0
M  V30 3974 N 394.239 4.48559 1.15536 0
M  V30 3975 C 394.974 5.58026 1.3189 0
M  V30 3976 N 394.47 6.77422 1.45161 0
M  V30 3977 N 396.263 5.45708 1.34755 0
M  V30 3978 H 388.414 2.05854 -0.523237 0
M  V30 3979 H 390.677 0.932186 -0.172431 0
M  V30 3980 H 390.383 3.51666 -0.0489108 0
M  V30 3981 H 390.257 3.36964 1.69513 0
M  V30 3982 H 392.644 2.3791 1.74593 0
M  V30 3983 H 392.725 2.55797 -0.0125531 0
M  V30 3984 H 392.369 5.07288 0.249241 0
M  V30 3985 H 392.299 4.86436 2.01713 0
M  V30 3986 H 394.79 3.6254 1.06646 0
M  V30 3987 H 395.103 7.56604 1.57387 0
M  V30 3988 H 393.448 6.80292 1.42223 0
M  V30 3989 H 396.639 4.51378 1.23996 0
M  V30 3990 H 396.812 6.3107 1.47157 0
M  V30 3991 N 390.218 -0.567019 1.47046 0
M  V30 3992 C 391.148 -1.68482 1.61667 0
M  V30 3993 C 392.129 -1.6358 0.466418 0
M  V30 3994 O 393.314 -1.81354 0.694574 0
M  V30 3995 C 390.444 -3.07124 1.62148 0
M  V30 3996 C 389.398 -3.26867 2.76301 0
M  V30 3997 C 388.724 -4.66196 2.61849 0
M  V30 3998 C 390.024 -3.13186 4.17986 0
M  V30 3999 H 391.718 -1.56502 2.5524 0
M  V30 4000 H 389.264 -0.751486 1.22836 0
M  V30 4001 H 391.217 -3.8516 1.70968 0
M  V30 4002 H 389.941 -3.2004 0.651287 0
M  V30 4003 H 388.6 -2.51237 2.66975 0
M  V30 4004 H 388.248 -4.75898 1.62879 0
M  V30 4005 H 387.948 -4.80356 3.38425 0
M  V30 4006 H 389.472 -5.46379 2.72584 0
M  V30 4007 H 390.886 -3.81049 4.2834 0
M  V30 4008 H 389.283 -3.3886 4.95272 0
M  V30 4009 H 390.353 -2.10057 4.3704 0
M  V30 4010 N 391.696 -1.35014 -0.812953 0
M  V30 4011 C 392.944 -1.27678 -1.56661 0
M  V30 4012 C 393.265 0.150359 -1.94419 0
M  V30 4013 O 392.535 1.08532 -1.63088 0
M  V30 4014 H 391.115 -0.469602 -0.580933 0
M  V30 4015 H 393.777 -1.69043 -0.970076 0
M  V30 4016 H 392.873 -1.88833 -2.48492 0
M  V30 4017 N 393.175 1.03435 -1.18907 0
M  V30 4018 C 394.423 1.76394 -0.986382 0
M  V30 4019 C 394.744 1.88883 0.484567 0
M  V30 4020 O 394.014 1.41843 1.3512 0
M  V30 4021 H 392.594 0.65344 -0.361975 0
M  V30 4022 H 395.256 1.248 -1.49703 0
M  V30 4023 H 394.352 2.77424 -1.42978 0
M  V30 4024 N 394.653 0.992116 1.22453 0
M  V30 4025 C 396.069 0.702713 1.43297 0
M  V30 4026 C 396.269 -0.726909 1.87932 0
M  V30 4027 O 395.325 -1.49792 2.0327 0
M  V30 4028 C 396.638 1.70762 2.47509 0
M  V30 4029 C 398.186 1.72298 2.61309 0
M  V30 4030 C 398.661 2.71649 3.68742 0
M  V30 4031 N 400.152 2.70239 3.76199 0
M  V30 4032 C 400.887 3.43778 4.58917 0
M  V30 4033 N 400.383 4.26914 5.45633 0
M  V30 4034 N 402.176 3.32487 4.5322 0
M  V30 4035 H 394.327 1.91543 0.917871 0
M  V30 4036 H 396.59 0.826031 0.465162 0
M  V30 4037 H 396.296 2.73059 2.21657 0
M  V30 4038 H 396.17 1.49985 3.46099 0
M  V30 4039 H 398.557 0.706989 2.86506 0
M  V30 4040 H 398.638 1.97143 1.62997 0
M  V30 4041 H 398.282 3.73397 3.44292 0
M  V30 4042 H 398.212 2.44074 4.66622 0
M  V30 4043 H 400.703 2.09912 3.14237 0
M  V30 4044 H 401.016 4.79855 6.05771 0
M  V30 4045 H 399.361 4.31002 5.45218 0
M  V30 4046 H 402.552 2.6698 3.84499 0
M  V30 4047 H 402.725 3.90058 5.17454 0
M  V30 4048 N 396.131 -1.37776 0.765217 0
M  V30 4049 C 397.078 -2.30342 0.145274 0
M  V30 4050 C 398.048 -1.5077 -0.696971 0
M  V30 4051 O 399.233 -1.79362 -0.650689 0
M  V30 4052 C 396.373 -3.37227 -0.732939 0
M  V30 4053 C 395.486 -4.31819 0.125199 0
M  V30 4054 C 394.621 -5.25777 -0.757107 0
M  V30 4055 C 393.66 -6.12012 0.103963 0
M  V30 4056 N 392.797 -6.98232 -0.735953 0
M  V30 4057 H 397.637 -2.8278 0.940195 0
M  V30 4058 H 395.174 -1.39211 0.475255 0
M  V30 4059 H 397.132 -3.97818 -1.25686 0
M  V30 4060 H 395.762 -2.86171 -1.49353 0
M  V30 4061 H 394.814 -3.7259 0.766865 0
M  V30 4062 H 396.126 -4.92509 0.789683 0
M  V30 4063 H 395.28 -5.91541 -1.34776 0
M  V30 4064 H 394.019 -4.65481 -1.45529 0
M  V30 4065 H 393.024 -5.45233 0.707197 0
M  V30 4066 H 394.249 -6.74379 0.799381 0
M  V30 4067 H 392.195 -6.40472 -1.41887 0
M  V30 4068 H 392.112 -7.55891 -0.128624 0
M  V30 4069 H 393.38 -7.68393 -1.31121 0
M  V30 4070 N 397.609 -0.515225 -1.4894 0
M  V30 4071 C 398.837 0.0206034 -2.0689 0
M  V30 4072 C 399.252 1.29514 -1.37374 0
M  V30 4073 O 398.609 1.76698 -0.456529 0
M  V30 4074 C 398.66 0.26351 -3.60538 0
M  V30 4075 O 398.381 -0.960517 -4.27441 0
M  V30 4076 C 399.882 0.841383 -4.35242 0
M  V30 4077 H 397.102 -0.0268608 -0.670462 0
M  V30 4078 H 399.646 -0.716651 -1.91532 0
M  V30 4079 H 397.801 0.950777 -3.75552 0
M  V30 4080 H 398.215 -0.73212 -5.19365 0
M  V30 4081 H 399.689 0.96085 -5.43573 0
M  V30 4082 H 400.166 1.8427 -3.98674 0
M  V30 4083 H 400.772 0.191143 -4.2487 0
M  V30 4084 N 399.087 1.5561 -0.249682 0
M  V30 4085 C 400.017 2.24477 0.642826 0
M  V30 4086 C 400.998 1.22601 1.17911 0
M  V30 4087 O 402.183 1.5126 1.21795 0
M  V30 4088 C 399.313 2.94638 1.83863 0
M  V30 4089 C 398.267 4.03227 1.435 0
M  V30 4090 C 397.593 4.60828 2.71186 0
M  V30 4091 C 398.893 5.18796 0.604002 0
M  V30 4092 H 400.587 2.99321 0.0685625 0
M  V30 4093 H 398.133 1.43965 0.0315363 0
M  V30 4094 H 400.086 3.41517 2.46868 0
M  V30 4095 H 398.81 2.17287 2.43832 0
M  V30 4096 H 397.469 3.57121 0.828275 0
M  V30 4097 H 397.117 3.80174 3.29358 0
M  V30 4098 H 396.817 5.34132 2.44901 0
M  V30 4099 H 398.341 5.10442 3.35084 0
M  V30 4100 H 399.755 5.61883 1.13842 0
M  V30 4101 H 398.152 5.98506 0.437097 0
M  V30 4102 H 399.222 4.83384 -0.383147 0
M  V30 4103 N 400.565 -0.0233959 1.57583 0
M  V30 4104 C 401.842 -0.748794 1.807 0
M  V30 4105 C 402.222 -1.9327 0.849106 0
M  V30 4106 O 401.57 -2.28247 -0.107468 0
M  V30 4107 C 401.78 -1.17651 3.28571 0
M  V30 4108 C 403.128 -1.59008 3.93702 0
M  V30 4109 O 404.152 -1.27094 3.32755 0
M  V30 4110 O 403.011 -2.18264 5.01022 0
M  V30 4111 H 400.105 -0.362578 0.743281 0
M  V30 4112 H 402.651 0.000261958 1.697 0
M  V30 4113 H 401.423 -0.331603 3.89892 0
M  V30 4114 H 401.046 -1.98541 3.44481 0
M  V30 4115 N 402.043 -1.548 -0.295768 0
M  V30 4116 C 403.454 -1.65274 -0.868411 0
M  V30 4117 C 403.805 -0.56481 -1.87894 0
M  V30 4118 O 402.93 0.29767 -2.14343 0
M  V30 4119 C 403.525 -2.99603 -1.58188 0
M  V30 4120 C 402.084 -3.12181 -2.10286 0
M  V30 4121 C 401.231 -2.6098 -0.93727 0
M  V30 4122 H 404.182 -1.58534 -0.0726422 0
M  V30 4123 H 404.203 -2.91319 -2.44772 0
M  V30 4124 H 403.715 -3.78764 -0.846151 0
M  V30 4125 H 401.816 -2.3775 -2.8689 0
M  V30 4126 H 401.929 -4.18415 -2.33379 0
M  V30 4127 H 400.293 -2.17564 -1.32431 0
M  V30 4128 H 401.076 -3.42623 -0.215414 0
M  V30 4129 N 403.521 0.559213 -1.47345 0
M  V30 4130 C 404.484 1.64854 -1.59235 0
M  V30 4131 C 405.484 1.53851 -0.467607 0
M  V30 4132 O 406.674 1.58045 -0.732617 0
M  V30 4133 C 403.806 3.04388 -1.53496 0
M  V30 4134 H 404.999 1.55662 -2.56339 0
M  V30 4135 H 402.552 0.778973 -1.35505 0
M  V30 4136 H 403.287 3.19115 -0.577604 0
M  V30 4137 H 403.072 3.13783 -2.35123 0
M  V30 4138 H 404.562 3.83642 -1.6495 0
M  V30 4139 N 404.999 1.35443 0.805782 0
M  V30 4140 C 406.245 1.28952 1.56522 0
M  V30 4141 C 406.578 -0.135597 1.93726 0
M  V30 4142 O 405.853 -1.08516 1.61414 0
M  V30 4143 C 406.136 2.19678 2.85331 0
M  V30 4144 C 405.989 3.7081 2.54598 0
M  V30 4145 C 407.308 2.09495 3.8704 0
M  V30 4146 H 404.427 0.469764 0.567883 0
M  V30 4147 H 407.069 1.65851 0.927001 0
M  V30 4148 H 405.219 1.8834 3.39795 0
M  V30 4149 H 406.891 4.12593 2.06312 0
M  V30 4150 H 405.134 3.91051 1.8778 0
M  V30 4151 H 405.805 4.29679 3.46525 0
M  V30 4152 H 408.281 2.37045 3.41978 0
M  V30 4153 H 407.157 2.75173 4.74943 0
M  V30 4154 H 407.418 1.07714 4.28777 0
M  V30 4155 N 406.477 -1.02803 1.19454 0
M  V30 4156 C 407.387 -2.14575 0.948408 0
M  V30 4157 C 408.403 -1.73757 -0.091871 0
M  V30 4158 O 409.579 -2.01185 0.0929654 0
M  V30 4159 C 406.644 -3.43202 0.491265 0
M  V30 4160 C 405.705 -3.98328 1.60103 0
M  V30 4161 C 404.938 -5.20816 1.16561 0
M  V30 4162 O 405.161 -5.70392 0.0295238 0
M  V30 4163 O 404.095 -5.68801 1.96849 0
M  V30 4164 H 407.921 -2.38202 1.88397 0
M  V30 4165 H 405.506 -1.12989 0.977433 0
M  V30 4166 H 407.388 -4.20687 0.245015 0
M  V30 4167 H 406.063 -3.21018 -0.415851 0
M  V30 4168 H 404.97 -3.22174 1.90144 0
M  V30 4169 H 406.303 -4.24879 2.48473 0
M  V30 4170 N 407.956 -0.998596 -1.21925 0
M  V30 4171 C 409.367 -0.711939 -1.72593 0
M  V30 4172 C 409.718 0.770842 -1.80423 0
M  V30 4173 O 408.843 1.60237 -1.4544 0
M  V30 4174 C 409.438 -1.28567 -3.13458 0
M  V30 4175 C 407.997 -1.04828 -3.61508 0
M  V30 4176 C 407.144 -1.4024 -2.39224 0
M  V30 4177 H 410.095 -1.17027 -1.07193 0
M  V30 4178 H 410.116 -0.667098 -3.74607 0
M  V30 4179 H 409.628 -2.36486 -3.07727 0
M  V30 4180 H 407.729 0.0140383 -3.72597 0
M  V30 4181 H 407.842 -1.71566 -4.47328 0
M  V30 4182 H 406.206 -0.821077 -2.41103 0
M  V30 4183 H 406.989 -2.49176 -2.36149 0
M  V30 4184 N 409.434 1.37368 -0.772513 0
M  V30 4185 C 410.397 2.28601 -0.165541 0
M  V30 4186 C 411.397 1.48062 0.627238 0
M  V30 4187 O 412.587 1.68268 0.450715 0
M  V30 4188 C 409.719 3.32023 0.772897 0
M  V30 4189 H 410.912 2.83787 -0.969787 0
M  V30 4190 H 408.465 1.46647 -0.540775 0
M  V30 4191 H 409.2 2.81962 1.60212 0
M  V30 4192 H 408.985 3.91555 0.206585 0
M  V30 4193 H 410.475 4.00197 1.19298 0
M  V30 4194 N 410.912 0.523116 1.48665 0
M  V30 4195 C 412.158 -0.0134963 2.02796 0
M  V30 4196 C 412.491 -1.34582 1.40004 0
M  V30 4197 O 411.766 -1.86756 0.543381 0
M  V30 4198 C 412.049 -0.14276 3.59817 0
M  V30 4199 C 411.902 1.21425 4.331 0
M  V30 4200 C 413.221 -0.872856 4.31357 0
M  V30 4201 H 410.34 -0.00343074 0.736992 0
M  V30 4202 H 412.982 0.678816 1.7746 0
M  V30 4203 H 411.132 -0.732401 3.81534 0
M  V30 4204 H 412.804 1.84447 4.2282 0
M  V30 4205 H 411.047 1.79791 3.94788 0
M  V30 4206 H 411.718 1.07687 5.41394 0
M  V30 4207 H 414.194 -0.372555 4.14429 0
M  V30 4208 H 413.07 -0.932185 5.40927 0
M  V30 4209 H 413.331 -1.92161 3.98154 0
M  V30 4210 N 412.39 -1.55475 0.257931 0
M  V30 4211 C 413.32 -2.24815 -0.630912 0
M  V30 4212 C 414.301 -1.23224 -1.17259 0
M  V30 4213 O 415.486 -1.51904 -1.20991 0
M  V30 4214 C 412.616 -2.95609 -1.82298 0
M  V30 4215 C 411.57 -4.03982 -1.41359 0
M  V30 4216 C 410.896 -4.6226 -2.68738 0
M  V30 4217 C 412.196 -5.19109 -0.57648 0
M  V30 4218 H 413.89 -2.99354 -0.0526878 0
M  V30 4219 H 411.436 -1.4398 -0.023901 0
M  V30 4220 H 413.389 -3.42822 -2.45054 0
M  V30 4221 H 412.113 -2.18577 -2.42676 0
M  V30 4222 H 410.772 -3.57555 -0.809324 0
M  V30 4223 H 410.42 -3.81915 -3.27338 0
M  V30 4224 H 410.12 -5.35424 -2.42065 0
M  V30 4225 H 411.644 -5.12212 -3.32372 0
M  V30 4226 H 413.058 -5.62479 -1.10861 0
M  V30 4227 H 411.455 -5.98729 -0.405351 0
M  V30 4228 H 412.525 -4.83174 0.408776 0
M  V30 4229 N 413.868 0.0150385 -1.57593 0
M  V30 4230 C 414.798 1.01047 -2.10503 0
M  V30 4231 C 415.779 1.36816 -1.01071 0
M  V30 4232 O 416.964 1.45455 -1.28672 0
M  V30 4233 C 414.094 2.30708 -2.59598 0
M  V30 4234 C 413.048 2.09142 -3.73421 0
M  V30 4235 C 412.374 3.44685 -4.08774 0
M  V30 4236 C 413.674 1.46619 -5.01298 0
M  V30 4237 H 415.368 0.569978 -2.93925 0
M  V30 4238 H 412.914 0.272724 -1.41394 0
M  V30 4239 H 414.867 3.00687 -2.95238 0
M  V30 4240 H 413.591 2.76843 -1.73279 0
M  V30 4241 H 412.25 1.41592 -3.38153 0
M  V30 4242 H 411.898 3.88495 -3.195 0
M  V30 4243 H 411.598 3.31077 -4.8545 0
M  V30 4244 H 413.122 4.16004 -4.4696 0
M  V30 4245 H 414.536 2.06535 -5.34805 0
M  V30 4246 H 412.933 1.43544 -5.82679 0
M  V30 4247 H 414.003 0.433611 -4.82957 0
M  V30 4248 N 415.346 1.54954 0.287554 0
M  V30 4249 C 416.576 1.78622 1.03816 0
M  V30 4250 C 416.984 0.552451 1.80955 0
M  V30 4251 O 416.327 -0.487665 1.77109 0
M  V30 4252 C 416.389 2.94975 2.055 0
M  V30 4253 C 416.053 4.32565 1.47433 0
M  V30 4254 C 417.05 5.12096 0.897436 0
M  V30 4255 C 414.735 4.79195 1.50591 0
M  V30 4256 C 416.729 6.36383 0.359851 0
M  V30 4257 C 414.416 6.03441 0.964459 0
M  V30 4258 C 415.414 6.81872 0.392413 0
M  V30 4259 O 415.102 8.03777 -0.140788 0
M  V30 4260 H 414.834 0.599144 0.313053 0
M  V30 4261 H 417.388 2.02761 0.328225 0
M  V30 4262 H 415.618 2.66493 2.80211 0
M  V30 4263 H 417.307 3.06097 2.6657 0
M  V30 4264 H 418.073 4.77209 0.865841 0
M  V30 4265 H 413.952 4.18167 1.94055 0
M  V30 4266 H 417.496 6.97545 -0.0872951 0
M  V30 4267 H 413.393 6.37813 0.993246 0
M  V30 4268 H 414.161 8.18495 -0.0287617 0
M  V30 4269 N 416.824 -0.551391 1.4764 0
M  V30 4270 C 418.07 -1.31024 1.54792 0
M  V30 4271 C 418.403 -1.9304 0.211967 0
M  V30 4272 O 417.678 -1.78175 -0.77999 0
M  V30 4273 C 417.961 -2.41593 2.67029 0
M  V30 4274 C 417.814 -1.84408 4.10261 0
M  V30 4275 C 419.133 -3.43488 2.75143 0
M  V30 4276 H 416.252 -0.475031 0.563485 0
M  V30 4277 H 418.894 -0.616454 1.79722 0
M  V30 4278 H 417.044 -3.00772 2.45904 0
M  V30 4279 H 418.716 -1.29445 4.42766 0
M  V30 4280 H 416.959 -1.15051 4.18265 0
M  V30 4281 H 417.63 -2.64367 4.84576 0
M  V30 4282 H 420.106 -2.94236 2.94218 0
M  V30 4283 H 418.982 -4.18274 3.55441 0
M  V30 4284 H 419.243 -4.02703 1.82435 0
M  V30 4285 N 418.302 -1.35869 -0.798587 0
M  V30 4286 C 419.212 -1.31578 -1.94228 0
M  V30 4287 C 420.228 -0.21939 -1.72611 0
M  V30 4288 O 421.404 -0.450167 -1.96305 0
M  V30 4289 C 418.469 -1.09528 -3.28944 0
M  V30 4290 C 417.53 -2.28556 -3.63402 0
M  V30 4291 C 416.763 -2.07549 -4.9169 0
M  V30 4292 O 416.986 -1.046 -5.60727 0
M  V30 4293 O 415.92 -2.95106 -5.24591 0
M  V30 4294 H 419.746 -2.27847 -2.00796 0
M  V30 4295 H 417.331 -1.16322 -0.937526 0
M  V30 4296 H 419.213 -0.991127 -4.09579 0
M  V30 4297 H 417.888 -0.16315 -3.23289 0
M  V30 4298 H 416.795 -2.44538 -2.83112 0
M  V30 4299 H 418.128 -3.20244 -3.73771 0
M  V30 4300 N 419.78 1.02168 -1.19998 0
M  V30 4301 C 421.005 1.79833 -1.03319 0
M  V30 4302 C 421.43 1.83504 0.413281 0
M  V30 4303 O 420.788 1.26635 1.29743 0
M  V30 4304 C 420.836 3.22396 -1.61533 0
M  V30 4305 O 419.94 4.03555 -0.849519 0
M  V30 4306 H 419.281 0.554872 -0.364709 0
M  V30 4307 H 421.811 1.28542 -1.59179 0
M  V30 4308 H 421.821 3.73124 -1.65054 0
M  V30 4309 H 420.496 3.19039 -2.66809 0
M  V30 4310 H 419.073 3.62169 -0.888129 0
M  V30 4311 N 421.258 1.00505 1.21394 0
M  V30 4312 C 422.535 0.603277 1.86064 0
M  V30 4313 C 422.915 -0.919095 1.90042 0
M  V30 4314 O 422.263 -1.80607 1.39977 0
M  V30 4315 C 422.473 1.23772 3.26315 0
M  V30 4316 C 423.821 1.34586 4.02705 0
M  V30 4317 O 424.845 1.19304 3.35626 0
M  V30 4318 O 423.704 1.59169 5.22807 0
M  V30 4319 H 420.798 0.206634 0.800769 0
M  V30 4320 H 423.344 1.1017 1.29076 0
M  V30 4321 H 422.116 2.27848 3.18121 0
M  V30 4322 H 421.739 0.725648 3.90922 0
M  V30 4323 N 422.737 -1.36956 0.779787 0
M  V30 4324 C 423.685 -2.32053 0.15942 0
M  V30 4325 C 424.679 -1.55333 -0.675878 0
M  V30 4326 O 425.885 -1.70668 -0.57204 0
M  V30 4327 H 422.26 -0.751286 0.0327707 0
M  V30 4328 H 424.231 -2.8195 0.977078 0
M  V30 4329 C 422.98 -3.40602 -0.698977 0
M  V30 4330 H 422.303 -3.99746 -0.0655966 0
M  V30 4331 H 423.743 -4.09486 -1.09989 0
M  V30 4332 C 422.202 -2.81359 -1.85307 0
M  V30 4333 O 422.732 -2.72751 -2.94906 0
M  V30 4334 N 420.938 -2.38786 -1.65619 0
M  V30 4335 H 420.485 -2.45987 -0.764725 0
M  V30 4336 H 420.443 -1.99493 -2.43002 0
M  V30 4337 N 424.215 -0.530993 -1.48385 0
M  V30 4338 C 425.461 0.00274135 -2.028 0
M  V30 4339 C 425.794 1.33838 -1.40716 0
M  V30 4340 O 425.069 1.86465 -0.553277 0
M  V30 4341 C 425.352 0.123676 -3.59888 0
M  V30 4342 C 425.205 -1.2372 -4.3245 0
M  V30 4343 C 426.524 0.849967 -4.31814 0
M  V30 4344 H 423.643 -0.000477758 -0.737 0
M  V30 4345 H 426.285 -0.688217 -1.77098 0
M  V30 4346 H 424.435 0.712157 -3.81917 0
M  V30 4347 H 426.107 -1.86687 -4.21836 0
M  V30 4348 H 424.35 -1.81882 -3.93829 0
M  V30 4349 H 425.021 -1.10557 -5.40815 0
M  V30 4350 H 427.497 0.350572 -4.14621 0
M  V30 4351 H 426.373 0.903486 -5.41413 0
M  V30 4352 H 426.634 1.90047 -3.99167 0
M  V30 4353 N 425.693 1.55336 -0.266172 0
M  V30 4354 C 426.656 2.20878 0.612001 0
M  V30 4355 C 427.656 1.18388 1.08816 0
M  V30 4356 O 428.846 1.4335 0.989774 0
M  V30 4357 C 425.978 2.86765 1.84332 0
M  V30 4358 H 427.171 2.99873 0.0398718 0
M  V30 4359 H 424.724 1.56291 -0.0167309 0
M  V30 4360 H 425.459 2.11759 2.45619 0
M  V30 4361 H 425.244 3.61862 1.5099 0
M  V30 4362 H 426.734 3.36867 2.46801 0
M  V30 4363 N 427.171 -0.0066808 1.57599 0
M  V30 4364 C 428.134 -0.985035 2.06953 0
M  V30 4365 C 429.134 -1.27663 0.977687 0
M  V30 4366 O 430.324 -1.22293 1.24057 0
M  V30 4367 C 427.456 -2.3118 2.50536 0
M  V30 4368 H 428.649 -0.558255 2.94658 0
M  V30 4369 H 426.202 -0.254011 1.54222 0
M  V30 4370 H 426.937 -2.78561 1.66054 0
M  V30 4371 H 426.722 -2.11338 3.3027 0
M  V30 4372 H 428.212 -3.01377 2.8907 0
M  V30 4373 N 428.649 -1.55105 -0.279332 0
M  V30 4374 C 429.895 -1.75672 -1.01327 0
M  V30 4375 C 430.228 -0.552739 -1.86168 0
M  V30 4376 O 429.503 0.449827 -1.89227 0
M  V30 4377 C 429.786 -3.05825 -1.90114 0
M  V30 4378 C 429.639 -4.36565 -1.08309 0
M  V30 4379 C 430.958 -3.31975 -2.8893 0
M  V30 4380 H 428.077 -0.639149 -0.366957 0
M  V30 4381 H 430.719 -1.87833 -0.286154 0
M  V30 4382 H 428.869 -2.95588 -2.52111 0
M  V30 4383 H 430.541 -4.58751 -0.484314 0
M  V30 4384 H 428.784 -4.32076 -0.386362 0
M  V30 4385 H 429.455 -5.23946 -1.73737 0
M  V30 4386 H 431.931 -3.41963 -2.37067 0
M  V30 4387 H 430.807 -4.2432 -3.48201 0
M  V30 4388 H 431.068 -2.51309 -3.63725 0
M  V30 4389 N 430.127 0.543554 -1.4793 0
M  V30 4390 C 431.543 0.870806 -1.3375 0
M  V30 4391 C 431.743 1.9864 -0.338261 0
M  V30 4392 O 430.799 2.51305 0.245371 0
M  V30 4393 C 432.112 1.25114 -2.73435 0
M  V30 4394 C 433.66 1.3618 -2.81823 0
M  V30 4395 C 434.135 1.77563 -4.22179 0
M  V30 4396 N 435.626 1.8469 -4.24787 0
M  V30 4397 C 436.361 2.18067 -5.30315 0
M  V30 4398 N 435.857 2.49963 -6.46135 0
M  V30 4399 N 437.65 2.18958 -5.17701 0
M  V30 4400 H 429.801 -0.19275 -2.11524 0
M  V30 4401 H 432.064 -0.0235777 -0.947707 0
M  V30 4402 H 431.77 0.50514 -3.48053 0
M  V30 4403 H 431.644 2.20431 -3.06088 0
M  V30 4404 H 434.031 2.09859 -2.07468 0
M  V30 4405 H 434.112 0.390169 -2.52807 0
M  V30 4406 H 433.756 1.04449 -4.97044 0
M  V30 4407 H 433.686 2.75753 -4.48629 0
M  V30 4408 H 436.177 1.62372 -3.41239 0
M  V30 4409 H 436.49 2.74497 -7.22406 0
M  V30 4410 H 434.835 2.47513 -6.49432 0
M  V30 4411 H 438.026 1.93488 -4.2624 0
M  V30 4412 H 438.199 2.44639 -6.00047 0
M  V30 4413 N 431.605 1.3629 0.791371 0
M  V30 4414 C 432.833 1.33562 1.58016 0
M  V30 4415 C 433.248 -0.0835616 1.88615 0
M  V30 4416 O 432.605 -1.0399 1.49974 0
M  V30 4417 C 432.656 2.15517 2.90232 0
M  V30 4418 O 432.377 3.51902 2.60953 0
M  V30 4419 C 433.878 2.20546 3.84544 0
M  V30 4420 H 431.098 0.458226 0.490173 0
M  V30 4421 H 433.642 1.79361 0.982345 0
M  V30 4422 H 431.797 1.73278 3.46487 0
M  V30 4423 H 432.211 3.94644 3.4548 0
M  V30 4424 H 433.685 2.82252 4.74382 0
M  V30 4425 H 434.162 1.20838 4.2225 0
M  V30 4426 H 434.768 2.63013 3.34222 0
M  V30 4427 N 433.083 -1.0153 1.20538 0
M  V30 4428 C 434.313 -1.78487 1.04048 0
M  V30 4429 C 434.721 -1.84631 -0.413292 0
M  V30 4430 O 434.064 -1.29919 -1.29872 0
M  V30 4431 C 434.126 -3.24367 1.55003 0
M  V30 4432 C 433.79 -3.41827 3.0332 0
M  V30 4433 C 434.787 -3.30941 4.00966 0
M  V30 4434 C 432.472 -3.67602 3.42307 0
M  V30 4435 C 434.466 -3.45577 5.35589 0
M  V30 4436 C 432.153 -3.81881 4.77085 0
M  V30 4437 C 433.151 -3.70874 5.73534 0
M  V30 4438 O 432.839 -3.84714 7.05868 0
M  V30 4439 H 432.571 -0.568108 0.366373 0
M  V30 4440 H 435.125 -1.28677 1.60098 0
M  V30 4441 H 433.355 -3.75266 0.933397 0
M  V30 4442 H 435.044 -3.82963 1.34514 0
M  V30 4443 H 435.81 -3.10964 3.72191 0
M  V30 4444 H 431.689 -3.75256 2.67776 0
M  V30 4445 H 435.233 -3.36902 6.10854 0
M  V30 4446 H 431.13 -4.01359 5.0555 0
M  V30 4447 H 431.898 -4.01724 7.13134 0
M  V30 4448 N 434.561 -1.01147 -1.20859 0
M  V30 4449 C 435.493 -0.535546 -2.22855 0
M  V30 4450 C 436.506 0.379323 -1.58319 0
M  V30 4451 O 437.695 0.178489 -1.77605 0
M  V30 4452 C 434.795 0.240962 -3.38042 0
M  V30 4453 C 433.968 -0.674562 -4.32167 0
M  V30 4454 C 433.027 0.053467 -5.26173 0
M  V30 4455 O 432.053 -0.567339 -5.66366 0
M  V30 4456 N 433.255 1.32997 -5.65059 0
M  V30 4457 H 436.02 -1.41268 -2.64317 0
M  V30 4458 H 433.581 -0.888386 -1.35349 0
M  V30 4459 H 435.573 0.737115 -3.97931 0
M  V30 4460 H 434.143 1.01935 -2.95513 0
M  V30 4461 H 433.363 -1.35111 -3.70322 0
M  V30 4462 H 434.651 -1.2974 -4.91981 0
M  V30 4463 H 434.049 1.85536 -5.34409 0
M  V30 4464 H 432.606 1.77095 -6.2728 0
M  V30 4465 N 436.039 1.36541 -0.78704 0
M  V30 4466 C 437.264 2.0409 -0.369053 0
M  V30 4467 C 437.689 1.58957 1.00569 0
M  V30 4468 O 437.047 0.756926 1.64743 0
M  V30 4469 C 437.095 3.57924 -0.438466 0
M  V30 4470 O 436.199 4.08642 0.555479 0
M  V30 4471 H 435.54 0.645142 -0.157122 0
M  V30 4472 H 438.07 1.74545 -1.06749 0
M  V30 4473 H 438.08 4.06887 -0.301218 0
M  V30 4474 H 436.755 3.90127 -1.44132 0
M  V30 4475 H 435.332 3.70958 0.380088 0
M  V30 4476 N 437.518 0.538854 1.48102 0
M  V30 4477 C 438.448 -0.207654 2.32575 0
M  V30 4478 C 439.429 -0.926559 1.4265 0
M  V30 4479 O 440.614 -0.91061 1.71527 0
M  V30 4480 C 437.744 -1.24957 3.24042 0
M  V30 4481 C 436.698 -0.648263 4.23062 0
M  V30 4482 C 436.024 -1.79348 5.03725 0
M  V30 4483 C 437.324 0.385897 5.20872 0
M  V30 4484 H 439.018 0.497534 2.95237 0
M  V30 4485 H 436.564 0.240715 1.41974 0
M  V30 4486 H 438.517 -1.77983 3.81969 0
M  V30 4487 H 437.241 -1.98446 2.59397 0
M  V30 4488 H 435.9 -0.139452 3.66335 0
M  V30 4489 H 435.548 -2.51696 4.35498 0
M  V30 4490 H 435.248 -1.39702 5.70751 0
M  V30 4491 H 436.772 -2.32735 5.64506 0
M  V30 4492 H 438.186 -0.057607 5.73271 0
M  V30 4493 H 436.583 0.700227 5.96001 0
M  V30 4494 H 437.653 1.28848 4.67468 0
M  V30 4495 N 438.996 -1.55193 0.274407 0
M  V30 4496 C 440.244 -1.99187 -0.341902 0
M  V30 4497 C 440.565 -1.16422 -1.56431 0
M  V30 4498 O 439.835 -0.253573 -1.94252 0
M  V30 4499 H 438.415 -0.735721 -0.129317 0
M  V30 4500 H 441.077 -1.91168 0.379578 0
M  V30 4501 H 440.173 -3.05629 -0.632253 0
M  V30 4502 N 440.474 -0.00167713 -1.576 0
M  V30 4503 C 441.721 0.68282 -1.90641 0
M  V30 4504 C 442.049 1.73686 -0.875415 0
M  V30 4505 O 441.304 1.95334 0.119575 0
M  V30 4506 C 441.603 1.36189 -3.30435 0
M  V30 4507 C 441.269 0.440887 -4.48739 0
M  V30 4508 C 439.931 0.187312 -4.80835 0
M  V30 4509 C 442.283 -0.193134 -5.20842 0
M  V30 4510 C 439.611 -0.70855 -5.82406 0
M  V30 4511 C 441.963 -1.07688 -6.23367 0
M  V30 4512 C 440.627 -1.33962 -6.53919 0
M  V30 4513 H 439.897 0.249862 -0.697603 0
M  V30 4514 H 442.544 -0.0575642 -1.91413 0
M  V30 4515 H 440.849 2.17636 -3.25794 0
M  V30 4516 H 442.546 1.89759 -3.5326 0
M  V30 4517 H 439.136 0.648694 -4.23663 0
M  V30 4518 H 443.32 -0.0102445 -4.96299 0
M  V30 4519 H 438.576 -0.920097 -6.04437 0
M  V30 4520 H 442.75 -1.57451 -6.78367 0
M  V30 4521 H 440.377 -2.03549 -7.32442 0
M  V30 4522 N 441.952 1.55251 0.271103 0
M  V30 4523 C 443.18 1.79974 1.02064 0
M  V30 4524 C 443.595 0.574003 1.79863 0
M  V30 4525 O 442.952 -0.456962 1.76686 0
M  V30 4526 C 443.003 3.02603 1.97772 0
M  V30 4527 O 442.724 4.20443 1.23124 0
M  V30 4528 C 444.225 3.39944 2.84522 0
M  V30 4529 H 441.445 0.599489 0.301419 0
M  V30 4530 H 443.989 2.02268 0.301313 0
M  V30 4531 H 442.144 2.8243 2.65165 0
M  V30 4532 H 442.558 4.89783 1.87651 0
M  V30 4533 H 444.032 4.28915 3.47471 0
M  V30 4534 H 444.509 2.59432 3.54389 0
M  V30 4535 H 445.115 3.62383 2.22618 0
M  V30 4536 N 443.43 -0.535701 1.48216 0
M  V30 4537 C 444.658 -1.31671 1.59594 0
M  V30 4538 C 445.073 -1.87083 0.254056 0
M  V30 4539 O 444.43 -1.66112 -0.755854 0
M  V30 4540 C 444.481 -2.47158 2.63809 0
M  V30 4541 O 444.202 -1.94032 3.92789 0
M  V30 4542 C 445.703 -3.39062 2.85573 0
M  V30 4543 H 442.923 -0.400623 0.538277 0
M  V30 4544 H 445.467 -0.646827 1.94001 0
M  V30 4545 H 443.622 -3.10043 2.32276 0
M  V30 4546 H 444.036 -2.69585 4.49916 0
M  V30 4547 H 445.51 -4.16459 3.62306 0
M  V30 4548 H 445.987 -3.93941 1.94184 0
M  V30 4549 H 446.593 -2.81975 3.18387 0
M  V30 4550 N 444.908 -1.36708 -0.784132 0
M  V30 4551 C 446.138 -1.34203 -1.57077 0
M  V30 4552 C 446.546 0.0774945 -1.89041 0
M  V30 4553 O 445.889 1.04628 -1.50992 0
M  V30 4554 C 445.951 -2.10351 -2.91535 0
M  V30 4555 C 445.615 -3.59405 -2.82272 0
M  V30 4556 C 446.612 -4.53545 -2.54151 0
M  V30 4557 C 444.297 -4.02362 -3.00683 0
M  V30 4558 C 446.291 -5.8862 -2.44551 0
M  V30 4559 C 443.978 -5.37526 -2.90704 0
M  V30 4560 C 444.976 -6.30468 -2.62677 0
M  V30 4561 O 444.664 -7.63149 -2.52702 0
M  V30 4562 H 444.396 -0.461791 -0.493685 0
M  V30 4563 H 446.95 -1.80475 -0.980712 0
M  V30 4564 H 445.18 -1.5875 -3.52612 0
M  V30 4565 H 446.869 -2.00636 -3.52845 0
M  V30 4566 H 447.635 -4.21669 -2.39625 0
M  V30 4567 H 443.514 -3.30389 -3.21503 0
M  V30 4568 H 447.058 -6.61133 -2.22596 0
M  V30 4569 H 442.955 -5.69008 -3.04795 0
M  V30 4570 H 443.723 -7.73331 -2.68144 0
M  V30 4571 N 446.386 1.0089 -1.21074 0
M  V30 4572 C 447.611 1.78727 -1.05221 0
M  V30 4573 C 448.036 1.83932 0.393795 0
M  V30 4574 O 447.394 1.28004 1.28393 0
M  V30 4575 C 447.442 3.20665 -1.64944 0
M  V30 4576 O 446.546 4.02632 -0.892273 0
M  V30 4577 H 445.887 0.550973 -0.370574 0
M  V30 4578 H 448.417 1.26847 -1.60534 0
M  V30 4579 H 448.427 3.71352 -1.69002 0
M  V30 4580 H 447.102 3.16191 -2.70177 0
M  V30 4581 H 445.679 3.61207 -0.926492 0
M  V30 4582 N 447.864 1.01787 1.20321 0
M  V30 4583 C 449.11 0.708985 1.90003 0
M  V30 4584 C 449.443 -0.759572 1.78729 0
M  V30 4585 O 448.718 -1.55198 1.17234 0
M  V30 4586 C 449.001 1.1469 3.41348 0
M  V30 4587 C 448.854 2.67586 3.61549 0
M  V30 4588 C 450.173 0.71915 4.34185 0
M  V30 4589 H 447.292 0.259034 0.689978 0
M  V30 4590 H 449.934 1.26584 1.41692 0
M  V30 4591 H 448.084 0.673128 3.82624 0
M  V30 4592 H 449.756 3.22826 3.29517 0
M  V30 4593 H 447.999 3.085 3.04976 0
M  V30 4594 H 448.67 2.93281 4.67643 0
M  V30 4595 H 451.146 1.12647 4.00562 0
M  V30 4596 H 450.022 1.05358 5.38694 0
M  V30 4597 H 450.283 -0.379111 4.40472 0
M  V30 4598 N 449.342 -1.36122 0.79427 0
M  V30 4599 C 450.619 -1.93398 0.292685 0
M  V30 4600 C 450.999 -1.72567 -1.21589 0
M  V30 4601 O 450.347 -1.08745 -2.00965 0
M  V30 4602 C 450.557 -3.42099 0.690614 0
M  V30 4603 C 451.905 -4.19231 0.673105 0
M  V30 4604 O 452.929 -3.50559 0.631389 0
M  V30 4605 O 451.788 -5.41732 0.720362 0
M  V30 4606 H 448.882 -0.823712 0.0736693 0
M  V30 4607 H 451.428 -1.45273 0.87714 0
M  V30 4608 H 450.2 -3.50938 1.73085 0
M  V30 4609 H 449.823 -3.97519 0.0803036 0
M  V30 4610 N 450.82 -0.546701 -1.47814 0
M  V30 4611 C 452.048 -0.0232857 -2.06887 0
M  V30 4612 C 452.463 1.26571 -1.4009 0
M  V30 4613 O 451.82 1.7569 -0.493906 0
M  V30 4614 C 451.871 0.186975 -3.61016 0
M  V30 4615 O 451.592 -1.05097 -4.25307 0
M  V30 4616 C 453.093 0.748872 -4.36929 0
M  V30 4617 H 450.313 -0.0410763 -0.669742 0
M  V30 4618 H 452.857 -0.757117 -1.89968 0
M  V30 4619 H 451.012 0.870903 -3.77484 0
M  V30 4620 H 451.426 -0.842121 -5.17695 0
M  V30 4621 H 452.9 0.845334 -5.45489 0
M  V30 4622 H 453.377 1.75772 -4.02493 0
M  V30 4623 H 453.983 0.100979 -4.2518 0
M  V30 4624 N 452.299 1.55045 -0.282633 0
M  V30 4625 C 453.262 2.21515 0.588539 0
M  V30 4626 C 454.262 1.19535 1.07554 0
M  V30 4627 O 455.452 1.44391 0.974514 0
M  V30 4628 C 452.584 2.88704 1.8128 0
M  V30 4629 H 453.777 2.99899 0.00806397 0
M  V30 4630 H 451.33 1.56265 -0.0333067 0
M  V30 4631 H 452.065 2.14352 2.43359 0
M  V30 4632 H 451.85 3.63443 1.47144 0
M  V30 4633 H 453.34 3.39465 2.43214 0
M  V30 4634 N 453.777 0.010035 1.57597 0
M  V30 4635 C 455.007 -0.682422 1.95004 0
M  V30 4636 C 455.415 -1.67278 0.884014 0
M  V30 4637 O 454.758 -1.83129 -0.144672 0
M  V30 4638 C 454.82 -1.46141 3.28456 0
M  V30 4639 C 454.484 -0.631523 4.52615 0
M  V30 4640 C 455.481 0.0850905 5.1983 0
M  V30 4641 C 453.166 -0.574539 4.99003 0
M  V30 4642 C 455.16 0.847566 6.3174 0
M  V30 4643 C 452.847 0.191655 6.10799 0
M  V30 4644 C 453.845 0.901432 6.77025 0
M  V30 4645 O 453.533 1.65511 7.86677 0
M  V30 4646 H 453.265 -0.194361 0.647456 0
M  V30 4647 H 455.819 0.060312 2.05311 0
M  V30 4648 H 454.049 -2.24885 3.14585 0
M  V30 4649 H 455.738 -2.04016 3.50902 0
M  V30 4650 H 456.504 0.0502812 4.84974 0
M  V30 4651 H 452.383 -1.11654 4.47274 0
M  V30 4652 H 455.927 1.4021 6.83364 0
M  V30 4653 H 451.824 0.228249 6.45096 0
M  V30 4654 H 452.592 1.57287 8.03245 0
M  V30 4655 N 455.255 -1.55392 -0.262866 0
M  V30 4656 C 456.218 -1.88181 -1.30846 0
M  V30 4657 C 457.218 -0.757079 -1.41862 0
M  V30 4658 O 458.408 -1.02519 -1.40838 0
M  V30 4659 C 455.54 -2.09609 -2.68844 0
M  V30 4660 H 456.733 -2.81659 -1.02997 0
M  V30 4661 H 454.286 -1.48039 -0.501414 0
M  V30 4662 H 455.021 -1.18547 -3.01856 0
M  V30 4663 H 454.806 -2.91508 -2.62231 0
M  V30 4664 H 456.296 -2.36215 -3.44372 0
M  V30 4665 N 456.733 0.527833 -1.48498 0
M  V30 4666 C 457.663 1.64136 -1.66077 0
M  V30 4667 C 458.644 1.62286 -0.509625 0
M  V30 4668 O 459.829 1.79449 -0.742413 0
M  V30 4669 C 456.959 3.02717 -1.70234 0
M  V30 4670 C 455.913 3.19426 -2.8487 0
M  V30 4671 C 455.239 4.5909 -2.74118 0
M  V30 4672 C 456.539 3.01993 -4.26142 0
M  V30 4673 H 458.233 1.4968 -2.593 0
M  V30 4674 H 455.779 0.718654 -1.24785 0
M  V30 4675 H 457.732 3.80491 -1.8112 0
M  V30 4676 H 456.456 3.18201 -0.735911 0
M  V30 4677 H 455.115 2.4407 -2.73542 0
M  V30 4678 H 454.763 4.71413 -1.7544 0
M  V30 4679 H 454.463 4.71214 -3.51042 0
M  V30 4680 H 455.987 5.3896 -2.86974 0
M  V30 4681 H 457.401 3.69558 -4.38292 0
M  V30 4682 H 455.798 3.2561 -5.04082 0
M  V30 4683 H 456.868 1.98396 -4.42456 0
M  V30 4684 N 458.211 1.37122 0.776871 0
M  V30 4685 C 459.174 1.32301 1.8716 0
M  V30 4686 C 460.174 0.228099 1.59174 0
M  V30 4687 O 461.364 0.483642 1.67352 0
M  V30 4688 C 458.496 1.054 3.24197 0
M  V30 4689 H 459.689 2.29673 1.92848 0
M  V30 4690 H 457.242 1.22077 0.97606 0
M  V30 4691 H 457.977 0.0853872 3.24188 0
M  V30 4692 H 457.762 1.84648 3.45901 0
M  V30 4693 H 459.252 1.04664 4.04271 0
M  V30 4694 N 459.689 -1.00246 1.21608 0
M  V30 4695 C 460.937 -1.73717 1.0328 0
M  V30 4696 C 461.258 -1.90102 -0.434318 0
M  V30 4697 O 460.528 -1.45376 -1.31311 0
M  V30 4698 H 459.108 -0.643613 0.379172 0
M  V30 4699 H 461.77 -1.20787 1.52959 0
M  V30 4700 H 460.866 -2.73535 1.50283 0
M  V30 4701 N 461.167 -1.02423 -1.1978 0
M  V30 4702 C 462.395 -0.737456 -1.93311 0
M  V30 4703 C 462.81 0.703023 -1.75223 0
M  V30 4704 O 462.167 1.47761 -1.07112 0
M  V30 4705 C 462.218 -1.0733 -3.45199 0
M  V30 4706 O 461.939 -2.4572 -3.62702 0
M  V30 4707 C 463.44 -0.80866 -4.35862 0
M  V30 4708 H 460.66 -0.2702 -0.614193 0
M  V30 4709 H 463.204 -1.36747 -1.52054 0
M  V30 4710 H 461.359 -0.488545 -3.84307 0
M  V30 4711 H 461.773 -2.58081 -4.56612 0
M  V30 4712 H 463.247 -1.09365 -5.41057 0
M  V30 4713 H 463.724 0.257025 -4.38447 0
M  V30 4714 H 464.33 -1.37592 -4.02428 0
M  V30 4715 N 462.645 1.35699 -0.801477 0
M  V30 4716 C 463.922 1.9324 -0.302937 0
M  V30 4717 C 464.302 1.73209 1.20672 0
M  V30 4718 O 463.65 1.09809 2.00385 0
M  V30 4719 C 463.86 3.41728 -0.708747 0
M  V30 4720 C 465.208 4.18868 -0.695328 0
M  V30 4721 O 466.232 3.5022 -0.649971 0
M  V30 4722 O 465.091 5.41342 -0.749081 0
M  V30 4723 H 462.185 0.82331 -0.0780367 0
M  V30 4724 H 464.731 1.44806 -0.884832 0
M  V30 4725 H 463.503 3.50015 -1.74944 0
M  V30 4726 H 463.126 3.97471 -0.101384 0
M  V30 4727 N 464.123 0.554532 1.47522 0
M  V30 4728 C 465.071 -0.207765 2.3167 0
M  V30 4729 C 466.065 -0.911914 1.4276 0
M  V30 4730 O 467.271 -0.833504 1.59539 0
M  V30 4731 H 463.646 -0.0858726 0.747081 0
M  V30 4732 H 465.617 0.521178 2.93813 0
M  V30 4733 C 464.366 -1.2263 3.25357 0
M  V30 4734 H 463.689 -0.693887 3.93732 0
M  V30 4735 H 465.129 -1.73062 3.87073 0
M  V30 4736 C 463.588 -2.27278 2.4869 0
M  V30 4737 O 464.118 -3.34156 2.22941 0
M  V30 4738 N 462.324 -2.01134 2.09746 0
M  V30 4739 H 461.871 -1.14232 2.30887 0
M  V30 4740 H 461.829 -2.71369 1.58765 0
M  V30 4741 O 465.64 -1.55591 0.432879 0
M  V30 4742 H 466.331 -1.93432 -0.101927 0
M  V30 END ATOM
M  V30 BEGIN BOND
M  V30 END BOND
M  V30 END CTAB
M  END
$$$$
