drugbank_target|P9WKD7 Ribose-5-phosphate isomerase B (DB03108; DB04496)
 OpenBabel12092120263D

  0  0  0     0  0            999 V3000
M  V30 BEGIN CTAB
M  V30 COUNTS 2406 2432 0 0 0
M  V30 BEGIN ATOM
M  V30 1 H -0.908 1.98254 -0.117106 0
M  V30 2 N 0 1.576 0 0
M  V30 3 C 0.933 2.03868 1.02534 0
M  V30 4 C 1.911 0.928543 1.3348 0
M  V30 5 O 3.095 1.19667 1.45644 0
M  V30 6 C 0.222 2.43627 2.35294 0
M  V30 7 C -0.732 3.65373 2.2001 0
M  V30 8 S 0.101 5.13292 1.52614 0
M  V30 9 C 1.257 5.56322 2.86805 0
M  V30 10 H 1.49 2.90518 0.631377 0
M  V30 11 H -0.977 1.52953 0.210867 0
M  V30 12 H 0.981 2.67203 3.11629 0
M  V30 13 H -0.358 1.57376 2.7183 0
M  V30 14 H -1.165 3.90944 3.18086 0
M  V30 15 H -1.563 3.418 1.51819 0
M  V30 16 H 0.729 5.58782 3.83104 0
M  V30 17 H 1.672 6.56266 2.65933 0
M  V30 18 H 2.08 4.83886 2.90714 0
M  V30 19 N 1.4781 -0.272755 1.55222 0
M  V30 20 C 2.7031 -1.02683 1.80197 0
M  V30 21 C 3.1281 -1.79142 0.573551 0
M  V30 22 O 2.4861 -1.74917 -0.476849 0
M  V30 23 C 2.5341 -1.9609 3.02624 0
M  V30 24 O 1.6381 -3.04863 2.77727 0
M  V30 25 H 0.9791 -0.293557 0.595584 0
M  V30 26 H 3.5091 -0.30159 2.02365 0
M  V30 27 H 3.5191 -2.38039 3.31363 0
M  V30 28 H 2.1941 -1.39851 3.91682 0
M  V30 29 H 0.7711 -2.67228 2.60084 0
M  V30 30 N 2.9562 -1.48159 -0.537278 0
M  V30 31 C 4.2042 -1.55497 -1.29094 0
M  V30 32 C 4.5252 -0.227454 -1.93669 0
M  V30 33 O 3.7952 0.750386 -1.80959 0
M  V30 34 H 2.3752 -0.572832 -0.47945 0
M  V30 35 H 5.0372 -1.84579 -0.625818 0
M  V30 36 H 4.1332 -2.33216 -2.07405 0
M  V30 37 N 4.4343 0.785586 -1.36625 0
M  V30 38 C 5.3673 1.90509 -1.25625 0
M  V30 39 C 6.3453 1.62 -0.139607 0
M  V30 40 O 7.5293 1.8591 -0.31141 0
M  V30 41 C 4.6563 3.25419 -0.939158 0
M  V30 42 C 3.7023 3.72856 -2.07077 0
M  V30 43 S 4.5353 3.88162 -3.68904 0
M  V30 44 C 5.6913 5.25942 -3.39317 0
M  V30 45 H 5.9243 1.99549 -2.20381 0
M  V30 46 H 3.4573 0.945226 -1.22085 0
M  V30 47 H 5.4153 4.03346 -0.763029 0
M  V30 48 H 4.0763 3.14099 -0.00931402 0
M  V30 49 H 3.2693 4.70624 -1.80357 0
M  V30 50 H 2.8713 3.01989 -2.20632 0
M  V30 51 H 5.1633 6.10651 -2.93447 0
M  V30 52 H 6.1063 5.57668 -4.36363 0
M  V30 53 H 6.5143 4.93224 -2.74573 0
M  V30 54 N 5.9124 1.20967 1.01018 0
M  V30 55 C 7.3284 0.965905 1.27053 0
M  V30 56 C 7.5284 -0.350785 1.98423 0
M  V30 57 O 6.5844 -1.07773 2.28344 0
M  V30 58 C 7.8974 2.15294 2.09926 0
M  V30 59 C 9.4454 2.19463 2.23171 0
M  V30 60 C 9.9204 3.3767 3.09424 0
M  V30 61 N 11.4114 3.37724 3.17012 0
M  V30 62 C 12.1464 4.25837 3.83993 0
M  V30 63 N 11.6424 5.24138 4.53047 0
M  V30 64 N 13.4354 4.1366 3.80581 0
M  V30 65 H 5.5864 2.0565 0.531194 0
M  V30 66 H 7.8494 0.90024 0.297106 0
M  V30 67 H 7.5554 3.10684 1.64828 0
M  V30 68 H 7.4294 2.13923 3.10672 0
M  V30 69 H 9.8164 1.24632 2.6749 0
M  V30 70 H 9.8974 2.2488 1.21912 0
M  V30 71 H 9.5414 4.32791 2.65808 0
M  V30 72 H 9.4714 3.29491 4.10784 0
M  V30 73 H 11.9624 2.6658 2.6785 0
M  V30 74 H 12.2754 5.87684 5.01844 0
M  V30 75 H 10.6204 5.28068 4.5185 0
M  V30 76 H 13.8114 3.36127 3.25785 0
M  V30 77 H 13.9844 4.82538 4.32505 0
M  V30 78 N 7.3905 -1.2043 1.01659 0
M  V30 79 C 8.6365 -1.90079 0.706963 0
M  V30 80 C 8.9695 -1.78648 -0.761474 0
M  V30 81 O 8.2445 -1.17069 -1.55323 0
M  V30 82 C 8.5275 -3.41469 1.14327 0
M  V30 83 C 8.3805 -3.61833 2.67201 0
M  V30 84 C 9.6995 -4.34261 0.714529 0
M  V30 85 H 6.8185 -0.690254 0.2583 0
M  V30 86 H 9.4605 -1.41826 1.26433 0
M  V30 87 H 7.6105 -3.82696 0.669056 0
M  V30 88 H 9.2825 -3.2986 3.22475 0
M  V30 89 H 7.5255 -3.05304 3.08175 0
M  V30 90 H 8.1965 -4.67955 2.92783 0
M  V30 91 H 10.6725 -4.00682 1.12221 0
M  V30 92 H 9.5485 -5.38806 1.04784 0
M  V30 93 H 9.8095 -4.40431 -0.383799 0
M  V30 94 N 8.8686 -0.792821 -1.36206 0
M  V30 95 C 10.0986 -0.378275 -2.03107 0
M  V30 96 C 10.5066 1.01119 -1.59911 0
M  V30 97 O 9.8496 1.66052 -0.785658 0
M  V30 98 C 9.9116 -0.366535 -3.57627 0
M  V30 99 C 9.5756 -1.70416 -4.24037 0
M  V30 100 C 10.5726 -2.6602 -4.46687 0
M  V30 101 C 8.2576 -1.98439 -4.6144 0
M  V30 102 C 10.2516 -3.8784 -5.05825 0
M  V30 103 C 7.9386 -3.20525 -5.20295 0
M  V30 104 C 8.9366 -4.15044 -5.42427 0
M  V30 105 O 8.6246 -5.34978 -6.00045 0
M  V30 106 H 8.3566 -0.153543 -0.658332 0
M  V30 107 H 10.9106 -1.07383 -1.75094 0
M  V30 108 H 9.1406 0.385539 -3.84773 0
M  V30 109 H 10.8296 0.0238088 -4.05893 0
M  V30 110 H 11.5956 -2.45658 -4.18183 0
M  V30 111 H 7.4746 -1.25686 -4.43536 0
M  V30 112 H 11.0186 -4.61628 -5.23015 0
M  V30 113 H 6.9156 -3.40764 -5.48225 0
M  V30 114 H 7.6836 -5.36088 -6.18508 0
M  V30 115 N 10.3467 1.47872 -0.545128 0
M  V30 116 C 11.2767 2.32661 0.197793 0
M  V30 117 C 12.2577 1.43041 0.920504 0
M  V30 118 O 13.4427 1.71912 0.90333 0
M  V30 119 C 10.5727 3.24569 1.23582 0
M  V30 120 C 9.5267 4.23333 0.630323 0
M  V30 121 C 8.8527 5.0448 1.77211 0
M  V30 122 C 10.1527 5.20704 -0.407974 0
M  V30 123 H 11.8467 2.95024 -0.510045 0
M  V30 124 H 9.3927 1.4187 -0.246731 0
M  V30 125 H 11.3457 3.8272 1.76362 0
M  V30 126 H 10.0697 2.60236 1.97344 0
M  V30 127 H 8.7287 3.6639 0.123922 0
M  V30 128 H 8.3767 4.36561 2.49847 0
M  V30 129 H 8.0767 5.71339 1.37281 0
M  V30 130 H 9.6007 5.65487 2.3034 0
M  V30 131 H 11.0147 5.7329 0.033305 0
M  V30 132 H 9.4117 5.95699 -0.725486 0
M  V30 133 H 10.4817 4.66917 -1.30828 0
M  V30 134 N 11.8248 0.280983 1.55075 0
M  V30 135 C 13.0728 -0.333455 1.9933 0
M  V30 136 C 13.3938 -1.55937 1.17085 0
M  V30 137 O 12.6638 -1.94143 0.261805 0
M  V30 138 H 11.2438 -0.126197 0.736263 0
M  V30 139 H 13.9058 0.387678 1.91005 0
M  V30 140 H 13.0018 -0.619292 3.05894 0
M  V30 141 N 13.3029 -1.57598 0.00835791 0
M  V30 142 C 14.2659 -2.07884 -0.965242 0
M  V30 143 C 15.2659 -0.989825 -1.26725 0
M  V30 144 O 16.4559 -1.25218 -1.21104 0
M  V30 145 C 13.5879 -2.52731 -2.28779 0
M  V30 146 H 14.7809 -2.95178 -0.530112 0
M  V30 147 H 12.3339 -1.54458 -0.239283 0
M  V30 148 H 13.0689 -1.68705 -2.76964 0
M  V30 149 H 12.8539 -3.32272 -2.08177 0
M  V30 150 H 14.3439 -2.91933 -2.98605 0
M  V30 151 N 14.781 0.264519 -1.55364 0
M  V30 152 C 16.058 1.01677 -1.67096 0
M  V30 153 C 16.438 2.03996 -0.543015 0
M  V30 154 O 15.786 2.23907 0.45585 0
M  V30 155 C 15.996 1.66596 -3.0667 0
M  V30 156 C 17.344 2.17442 -3.64697 0
M  V30 157 O 18.368 1.76568 -3.09358 0
M  V30 158 O 17.227 2.92439 -4.61673 0
M  V30 159 H 14.321 0.472161 -0.678965 0
M  V30 160 H 16.867 0.259703 -1.67701 0
M  V30 161 H 15.639 0.924962 -3.80211 0
M  V30 162 H 15.262 2.48968 -3.10001 0
M  V30 163 N 16.2591 1.48442 0.529413 0
M  V30 164 C 17.2091 1.59407 1.63014 0
M  V30 165 C 18.1931 0.451166 1.54445 0
M  V30 166 O 19.3851 0.702635 1.62456 0
M  V30 167 C 16.5141 1.63746 3.01732 0
M  V30 168 C 15.6001 2.83518 3.15402 0
M  V30 169 N 15.9911 4.07929 2.99045 0
M  V30 170 C 14.2891 2.80862 3.46457 0
M  V30 171 C 14.9901 4.8829 3.16146 0
M  V30 172 N 13.9661 4.21117 3.43746 0
M  V30 173 H 17.7681 2.53343 1.48978 0
M  V30 174 H 15.2821 1.44821 0.734885 0
M  V30 175 H 17.2791 1.69695 3.80801 0
M  V30 176 H 15.9391 0.709264 3.16859 0
M  V30 177 H 16.9501 4.38357 2.75796 0
M  V30 178 H 13.6271 1.97301 3.67938 0
M  V30 179 H 15.0171 5.97028 3.08232 0
M  V30 180 N 17.7372 -0.778329 1.37039 0
M  V30 181 C 18.7002 -1.87301 1.32102 0
M  V30 182 C 19.7002 -1.59198 0.226405 0
M  V30 183 O 20.8902 -1.67403 0.481861 0
M  V30 184 C 18.0222 -3.24309 1.05055 0
M  V30 185 H 19.2152 -1.93093 2.29467 0
M  V30 186 H 16.7682 -0.977358 1.21973 0
M  V30 187 H 17.5032 -3.24196 0.0819373 0
M  V30 188 H 17.2882 -3.46098 1.84279 0
M  V30 189 H 18.7782 -4.04382 1.04234 0
M  V30 190 N 19.2153 -1.21501 -1.00376 0
M  V30 191 C 20.4633 -1.03095 -1.73827 0
M  V30 192 C 20.7843 0.436341 -1.90055 0
M  V30 193 O 20.0543 1.31466 -1.45236 0
M  V30 194 H 18.6343 -0.378487 -0.644016 0
M  V30 195 H 21.2963 -1.52831 -1.20949 0
M  V30 196 H 20.3923 -1.49991 -2.73695 0
M  V30 197 N 20.6934 1.19889 -1.02296 0
M  V30 198 C 21.9234 1.93109 -0.734332 0
M  V30 199 C 22.3314 1.75377 0.709889 0
M  V30 200 O 21.6744 1.06912 1.49384 0
M  V30 201 C 21.7364 3.45362 -0.99827 0
M  V30 202 C 21.4004 3.8686 -2.43287 0
M  V30 203 C 22.3974 3.92102 -3.41397 0
M  V30 204 C 20.0824 4.18668 -2.77529 0
M  V30 205 C 22.0764 4.28573 -4.71809 0
M  V30 206 C 19.7634 4.54813 -4.08153 0
M  V30 207 C 20.7614 4.59739 -5.05103 0
M  V30 208 O 20.4494 4.95051 -6.33388 0
M  V30 209 H 20.1814 0.620409 -0.268456 0
M  V30 210 H 22.7354 1.53144 -1.3688 0
M  V30 211 H 20.9654 3.85482 -0.306645 0
M  V30 212 H 22.6544 3.99814 -0.700234 0
M  V30 213 H 23.4204 3.67685 -3.1628 0
M  V30 214 H 19.2994 4.14021 -2.0275 0
M  V30 215 H 22.8434 4.32333 -5.4748 0
M  V30 216 H 18.7404 4.78687 -4.33047 0
M  V30 217 H 19.5084 5.1302 -6.37772 0
M  V30 218 N 22.1715 0.800033 1.35784 0
M  V30 219 C 23.0815 0.207204 2.33683 0
M  V30 220 C 24.0975 -0.64631 1.61551 0
M  V30 221 O 25.2735 -0.559604 1.93469 0
M  V30 222 C 22.3385 -0.639659 3.40748 0
M  V30 223 C 21.3995 0.233585 4.28664 0
M  V30 224 C 20.6325 -0.572954 5.30616 0
M  V30 225 O 20.8555 -1.80816 5.40982 0
M  V30 226 O 19.7895 0.0327285 6.01891 0
M  V30 227 H 23.6155 1.01692 2.86169 0
M  V30 228 H 21.2005 0.561691 1.38439 0
M  V30 229 H 23.0825 -1.12223 4.06182 0
M  V30 230 H 21.7575 -1.42708 2.90544 0
M  V30 231 H 20.6645 0.763147 3.66233 0
M  V30 232 H 21.9975 0.984784 4.82248 0
M  V30 233 N 23.6496 -1.47581 0.552962 0
M  V30 234 C 24.5796 -2.32762 -0.185451 0
M  V30 235 C 25.5606 -1.43527 -0.912905 0
M  V30 236 O 26.7456 -1.72388 -0.894201 0
M  V30 237 C 23.8756 -3.25219 -1.21859 0
M  V30 238 C 22.8296 -4.23661 -0.607864 0
M  V30 239 C 22.1556 -5.05413 -1.74533 0
M  V30 240 C 23.4556 -5.20481 0.435582 0
M  V30 241 H 25.1496 -2.94749 0.525684 0
M  V30 242 H 22.6956 -1.41738 0.254251 0
M  V30 243 H 24.6486 -3.8365 -1.7433 0
M  V30 244 H 23.3726 -2.61279 -1.95961 0
M  V30 245 H 22.0316 -3.66451 -0.104489 0
M  V30 246 H 21.6796 -4.3788 -2.47529 0
M  V30 247 H 21.3796 -5.72059 -1.34249 0
M  V30 248 H 22.9036 -5.66701 -2.27338 0
M  V30 249 H 24.3176 -5.733 -0.00290157 0
M  V30 250 H 22.7146 -5.95305 0.757067 0
M  V30 251 H 23.7846 -4.66217 1.33303 0
M  V30 252 N 25.1277 -0.289203 -1.54924 0
M  V30 253 C 26.0747 0.592115 -2.23075 0
M  V30 254 C 27.0447 1.13881 -1.20915 0
M  V30 255 O 28.2297 1.18551 -1.495 0
M  V30 256 C 25.3697 1.76376 -2.96623 0
M  V30 257 C 24.4827 1.24959 -4.13533 0
M  V30 258 C 23.6177 2.38416 -4.74691 0
M  V30 259 C 22.6567 1.84072 -5.83767 0
M  V30 260 N 21.7937 2.91057 -6.38929 0
M  V30 261 H 26.6337 0.00432038 -2.98 0
M  V30 262 H 24.1707 -0.00963529 -1.47097 0
M  V30 263 H 26.1287 2.45268 -3.3749 0
M  V30 264 H 24.7587 2.32337 -2.24097 0
M  V30 265 H 23.8107 0.453307 -3.77689 0
M  V30 266 H 25.1227 0.811662 -4.92152 0
M  V30 267 H 24.2767 3.15276 -5.18349 0
M  V30 268 H 23.0157 2.8553 -3.95378 0
M  V30 269 H 22.0207 1.05697 -5.39545 0
M  V30 270 H 23.2457 1.37877 -6.64956 0
M  V30 271 H 21.1917 3.37526 -5.62505 0
M  V30 272 H 21.1087 2.51724 -7.12861 0
M  V30 273 H 22.3767 3.6785 -6.87246 0
M  V30 274 N 26.6058 1.57591 -0.0167156 0
M  V30 275 C 27.5378 2.06343 0.997753 0
M  V30 276 C 28.5508 0.984469 1.29661 0
M  V30 277 O 29.7398 1.26093 1.26344 0
M  V30 278 C 26.8398 2.46255 2.32834 0
M  V30 279 C 26.0128 3.77083 2.21646 0
M  V30 280 C 25.0718 4.0368 3.37534 0
M  V30 281 O 24.0978 4.7411 3.14973 0
M  V30 282 N 25.2998 3.52881 4.60929 0
M  V30 283 H 28.0648 2.93997 0.581875 0
M  V30 284 H 25.6258 1.61002 0.170316 0
M  V30 285 H 27.6178 2.61149 3.09166 0
M  V30 286 H 26.1878 1.64032 2.66106 0
M  V30 287 H 25.4078 3.72106 1.30119 0
M  V30 288 H 26.6958 4.62822 2.11361 0
M  V30 289 H 26.0938 2.95878 4.82154 0
M  V30 290 H 24.6508 3.73076 5.34469 0
M  V30 291 N 28.0839 -0.256276 1.55502 0
M  V30 292 C 29.4999 -0.604325 1.47716 0
M  V30 293 C 29.6999 -1.88763 0.705039 0
M  V30 294 O 28.7559 -2.51445 0.230613 0
M  V30 295 C 30.0689 -0.715756 2.92057 0
M  V30 296 C 31.6169 -0.808706 3.02372 0
M  V30 297 C 32.0919 -0.951777 4.48001 0
M  V30 298 N 33.5829 -1.01688 4.519 0
M  V30 299 C 34.3179 -1.14668 5.61817 0
M  V30 300 N 33.8139 -1.24261 6.81565 0
M  V30 301 N 35.6069 -1.1791 5.49594 0
M  V30 302 H 27.7579 0.586291 2.04148 0
M  V30 303 H 30.0209 0.201015 0.926443 0
M  V30 304 H 29.7269 0.157027 3.51349 0
M  V30 305 H 29.6009 -1.59071 3.42018 0
M  V30 306 H 31.9879 -1.67195 2.43166 0
M  V30 307 H 32.0689 0.0912063 2.55637 0
M  V30 308 H 31.7129 -0.0931291 5.07815 0
M  V30 309 H 31.6429 -1.86659 4.92408 0
M  V30 310 H 34.1339 -0.954468 3.65648 0
M  V30 311 H 34.4469 -1.34046 7.61086 0
M  V30 312 H 32.7919 -1.21236 6.84344 0
M  V30 313 H 35.9829 -1.10057 4.54978 0
M  V30 314 H 36.1559 -1.27681 6.35296 0
M  V30 315 N 29.562 -1.4872 -0.521534 0
M  V30 316 C 30.811 -1.56419 -1.27341 0
M  V30 317 C 31.124 -0.246805 -1.94037 0
M  V30 318 O 32.33 -0.202122 -2.70747 0
M  V30 319 C 30.786 -2.75896 -2.31105 0
M  V30 320 C 30.394 -4.14311 -1.70441 0
M  V30 321 C 32.138 -2.92913 -3.07249 0
M  V30 322 C 30.045 -5.25038 -2.72194 0
M  V30 323 H 28.975 -0.582344 -0.478949 0
M  V30 324 H 31.626 -1.75071 -0.549779 0
M  V30 325 H 30.008 -2.50697 -3.06541 0
M  V30 326 H 31.182 -4.49564 -1.01136 0
M  V30 327 H 29.497 -4.02482 -1.06759 0
M  V30 328 H 32.094 -3.72805 -3.83302 0
M  V30 329 H 32.437 -2.02689 -3.63625 0
M  V30 330 H 32.97 -3.18054 -2.38928 0
M  V30 331 H 29.709 -6.17255 -2.20627 0
M  V30 332 H 29.229 -4.94263 -3.39801 0
M  V30 333 H 30.908 -5.53508 -3.35019 0
M  V30 334 N 31.0401 0.771051 -1.3745 0
M  V30 335 C 32.2891 1.52491 -1.3202 0
M  V30 336 C 32.6021 1.9538 0.0927347 0
M  V30 337 O 33.8081 2.70159 0.269503 0
M  V30 338 C 32.2641 2.75366 -2.31736 0
M  V30 339 C 31.8721 2.39573 -3.78562 0
M  V30 340 C 33.6161 3.53307 -2.35318 0
M  V30 341 C 31.5231 3.58954 -4.70007 0
M  V30 342 H 30.4531 0.572506 -0.490666 0
M  V30 343 H 33.1041 0.844474 -1.62914 0
M  V30 344 H 31.4861 3.45303 -1.93861 0
M  V30 345 H 32.6601 1.77415 -4.25277 0
M  V30 346 H 30.9751 1.74805 -3.77932 0
M  V30 347 H 33.5721 4.42039 -3.00842 0
M  V30 348 H 33.9151 3.93217 -1.36698 0
M  V30 349 H 34.4481 2.90367 -2.71904 0
M  V30 350 H 31.1871 3.24125 -5.69757 0
M  V30 351 H 30.7071 4.20214 -4.27996 0
M  V30 352 H 32.3861 4.25758 -4.87175 0
M  V30 353 N 32.5182 1.22032 0.997298 0
M  V30 354 C 33.4282 1.00271 2.12092 0
M  V30 355 C 34.4442 -0.047621 1.73935 0
M  V30 356 O 35.6202 0.144136 2.00884 0
M  V30 357 C 32.6852 0.578449 3.4184 0
M  V30 358 C 31.7462 1.70189 3.94125 0
M  V30 359 C 30.9792 1.29778 5.17681 0
M  V30 360 O 31.2022 0.174676 5.70132 0
M  V30 361 O 30.1362 2.11261 5.63607 0
M  V30 362 H 33.9622 1.94398 2.3333 0
M  V30 363 H 31.5472 1.00587 1.10465 0
M  V30 364 H 33.4292 0.351998 4.19927 0
M  V30 365 H 32.1042 -0.334019 3.21972 0
M  V30 366 H 31.0112 1.98282 3.1723 0
M  V30 367 H 32.3442 2.59206 4.18417 0
M  V30 368 N 33.9963 -1.19345 1.0293 0
M  V30 369 C 34.9463 -2.20472 0.58104 0
M  V30 370 C 35.9303 -1.56578 -0.370442 0
M  V30 371 O 37.1223 -1.75963 -0.191344 0
M  V30 372 C 34.2513 -3.43236 -0.066306 0
M  V30 373 C 33.3373 -4.14274 0.907642 0
M  V30 374 N 33.7283 -4.61492 2.07023 0
M  V30 375 C 32.0263 -4.39966 0.731177 0
M  V30 376 C 32.7273 -5.1605 2.68454 0
M  V30 377 N 31.7033 -5.06875 1.96414 0
M  V30 378 H 35.5053 -2.54659 1.46717 0
M  V30 379 H 33.0193 -1.35423 0.896345 0
M  V30 380 H 35.0163 -4.14927 -0.405068 0
M  V30 381 H 33.6763 -3.10549 -0.948118 0
M  V30 382 H 34.6873 -4.56304 2.44963 0
M  V30 383 H 31.3643 -4.17377 -0.101507 0
M  V30 384 H 32.7543 -5.6287 3.66915 0
M  V30 385 N 35.4744 -0.807222 -1.35358 0
M  V30 386 C 36.4044 -0.232509 -2.3234 0
M  V30 387 C 37.3854 0.642386 -1.57504 0
M  V30 388 O 38.5704 0.572526 -1.85569 0
M  V30 389 C 35.7004 0.619238 -3.41735 0
M  V30 390 C 34.6544 -0.157215 -4.27711 0
M  V30 391 C 33.9804 0.816273 -5.28433 0
M  V30 392 C 35.2804 -1.35656 -5.04376 0
M  V30 393 H 36.9744 -1.04276 -2.80654 0
M  V30 394 H 34.5204 -0.50288 -1.34934 0
M  V30 395 H 36.4734 1.03137 -4.08584 0
M  V30 396 H 35.1974 1.46239 -2.92031 0
M  V30 397 H 33.8564 -0.550525 -3.62443 0
M  V30 398 H 33.5044 1.65494 -4.74996 0
M  V30 399 H 33.2044 0.301067 -5.86828 0
M  V30 400 H 34.7284 1.22659 -5.98153 0
M  V30 401 H 36.1424 -1.01927 -5.64166 0
M  V30 402 H 34.5394 -1.8063 -5.7227 0
M  V30 403 H 35.6094 -2.14288 -4.34981 0
M  V30 404 N 36.9525 1.47285 -0.560781 0
M  V30 405 C 37.8995 2.30058 0.18491 0
M  V30 406 C 38.8695 1.39281 0.904986 0
M  V30 407 O 40.0545 1.68241 0.899979 0
M  V30 408 C 37.1945 3.23317 1.20666 0
M  V30 409 C 36.3075 4.29186 0.492285 0
M  V30 410 C 35.4425 5.09592 1.49964 0
M  V30 411 C 34.4815 6.07232 0.770439 0
M  V30 412 N 33.6185 6.80584 1.72479 0
M  V30 413 H 38.4585 2.93302 -0.527048 0
M  V30 414 H 35.9955 1.44568 -0.271738 0
M  V30 415 H 37.9535 3.75811 1.81168 0
M  V30 416 H 36.5835 2.61929 1.88661 0
M  V30 417 H 35.6355 3.7972 -0.227333 0
M  V30 418 H 36.9475 4.98738 -0.0787929 0
M  V30 419 H 36.1015 5.66254 2.17809 0
M  V30 420 H 34.8405 4.3995 2.10464 0
M  V30 421 H 33.8455 5.49745 0.0780846 0
M  V30 422 H 35.0705 6.78884 0.171134 0
M  V30 423 H 33.0165 6.1367 2.3183 0
M  V30 424 H 32.9335 7.46319 1.20596 0
M  V30 425 H 34.2015 7.41818 2.39428 0
M  V30 426 N 38.4306 0.297415 1.54768 0
M  V30 427 C 39.3626 -0.613881 2.20826 0
M  V30 428 C 40.3756 -1.10032 1.19987 0
M  V30 429 O 41.5646 -1.01839 1.46598 0
M  V30 430 C 38.6646 -1.852 2.83821 0
M  V30 431 C 37.8376 -1.50865 4.10559 0
M  V30 432 C 36.8966 -2.60154 4.57391 0
M  V30 433 O 35.9226 -2.25398 5.2267 0
M  V30 434 N 37.1246 -3.90629 4.29406 0
M  V30 435 H 39.8896 -0.048389 2.99661 0
M  V30 436 H 37.4506 0.11946 1.61459 0
M  V30 437 H 39.4426 -2.57652 3.12086 0
M  V30 438 H 38.0126 -2.32597 2.08847 0
M  V30 439 H 37.2326 -0.616925 3.89343 0
M  V30 440 H 38.5206 -1.25458 4.9309 0
M  V30 441 H 37.9186 -4.21677 3.77101 0
M  V30 442 H 36.4756 -4.59391 4.62388 0
M  V30 443 N 39.9087 -1.5758 0.0250728 0
M  V30 444 C 41.1367 -1.9593 -0.664747 0
M  V30 445 C 41.5517 -0.901352 -1.65895 0
M  V30 446 O 40.9087 0.117255 -1.82123 0
M  V30 447 C 40.9597 -3.34342 -1.37468 0
M  V30 448 O 40.6807 -4.36079 -0.420324 0
M  V30 449 C 42.1817 -3.873 -2.1567 0
M  V30 450 H 39.4017 -0.645405 -0.183557 0
M  V30 451 H 41.9457 -2.04329 0.0836372 0
M  V30 452 H 40.1007 -3.27175 -2.0745 0
M  V30 453 H 40.5147 -5.16297 -0.923991 0
M  V30 454 H 41.9887 -4.86504 -2.60803 0
M  V30 455 H 42.4657 -3.21331 -2.99405 0
M  V30 456 H 43.0717 -3.97723 -1.50654 0
M  V30 457 N 41.3868 0.248026 -1.55636 0
M  V30 458 C 42.6348 0.974295 -1.77065 0
M  V30 459 C 42.9558 1.85897 -0.588849 0
M  V30 460 O 42.2258 1.91868 0.395407 0
M  V30 461 H 40.8058 0.362733 -0.653019 0
M  V30 462 H 43.4678 0.266244 -1.93073 0
M  V30 463 H 42.5638 1.59667 -2.68166 0
M  V30 464 N 42.8649 1.48995 0.513639 0
M  V30 465 C 43.8149 1.61127 1.61314 0
M  V30 466 C 44.7989 0.467521 1.53958 0
M  V30 467 O 45.9909 0.719826 1.61702 0
M  V30 468 C 43.1199 1.66937 2.99978 0
M  V30 469 C 42.2059 2.86847 3.12377 0
M  V30 470 N 42.5969 4.11078 2.94701 0
M  V30 471 C 40.8949 2.84521 3.43459 0
M  V30 472 C 41.5959 4.91615 3.10949 0
M  V30 473 N 40.5719 4.24739 3.3926 0
M  V30 474 H 44.3739 2.54909 1.46282 0
M  V30 475 H 41.8879 1.45593 0.719483 0
M  V30 476 H 43.8849 1.73725 3.78979 0
M  V30 477 H 42.5449 0.742831 3.16089 0
M  V30 478 H 43.5559 4.41258 2.71131 0
M  V30 479 H 40.2329 2.01192 3.65825 0
M  V30 480 H 41.6229 6.00264 3.01882 0
M  V30 481 N 44.343 -0.763751 1.37857 0
M  V30 482 C 45.253 -1.90817 1.36478 0
M  V30 483 C 46.269 -1.71997 0.263248 0
M  V30 484 O 47.445 -1.95095 0.499979 0
M  V30 485 C 44.51 -3.2605 1.17864 0
M  V30 486 C 43.571 -3.57467 2.3773 0
M  V30 487 C 42.804 -4.86249 2.19995 0
M  V30 488 O 43.027 -5.57884 1.18836 0
M  V30 489 O 41.961 -5.16911 3.08361 0
M  V30 490 H 45.787 -1.94933 2.32884 0
M  V30 491 H 43.372 -0.907619 1.1867 0
M  V30 492 H 45.254 -4.06924 1.09504 0
M  V30 493 H 43.929 -3.22769 0.245372 0
M  V30 494 H 42.836 -2.76796 2.51664 0
M  V30 495 H 44.169 -3.655 3.29652 0
M  V30 496 N 45.8211 -1.22559 -0.990812 0
M  V30 497 C 47.2321 -1.04791 -1.54518 0
M  V30 498 C 47.5831 0.387998 -1.92325 0
M  V30 499 O 46.7081 1.27328 -1.74976 0
M  V30 500 C 47.3031 -1.896 -2.80779 0
M  V30 501 C 45.8621 -1.76124 -3.32652 0
M  V30 502 C 45.0091 -1.8594 -2.05722 0
M  V30 503 H 47.9601 -1.36374 -0.811662 0
M  V30 504 H 47.9811 -1.41464 -3.53225 0
M  V30 505 H 47.4931 -2.94101 -2.53231 0
M  V30 506 H 45.5941 -0.743643 -3.65104 0
M  V30 507 H 45.7071 -2.58913 -4.03114 0
M  V30 508 H 44.0711 -1.29403 -2.19379 0
M  V30 509 H 44.8541 -2.91976 -1.80568 0
M  V30 510 N 47.2992 1.18797 -1.03562 0
M  V30 511 C 48.5482 1.87978 -0.731235 0
M  V30 512 C 48.8612 1.80911 0.743671 0
M  V30 513 O 50.0672 2.45407 1.16137 0
M  V30 514 C 48.5232 3.3721 -1.25768 0
M  V30 515 C 48.1312 3.52818 -2.76085 0
M  V30 516 C 49.8752 4.11825 -1.0296 0
M  V30 517 C 47.7822 4.9598 -3.22114 0
M  V30 518 H 46.7122 0.704063 -0.269835 0
M  V30 519 H 49.3632 1.34266 -1.25079 0
M  V30 520 H 47.7452 3.90359 -0.666011 0
M  V30 521 H 48.9192 3.09965 -3.40966 0
M  V30 522 H 47.2342 2.91602 -2.97249 0
M  V30 523 H 49.8312 5.17411 -1.34869 0
M  V30 524 H 50.1742 4.16287 0.0333546 0
M  V30 525 H 50.7072 3.64833 -1.58562 0
M  V30 526 H 47.4462 4.96684 -4.27768 0
M  V30 527 H 46.9662 5.39569 -2.61965 0
M  V30 528 H 48.6452 5.6467 -3.15844 0
M  V30 529 N 48.7773 0.814389 1.34928 0
M  V30 530 C 50.0543 0.321363 1.92942 0
M  V30 531 C 50.4343 -1.19014 1.74353 0
M  V30 532 O 49.7823 -1.99328 1.11716 0
M  V30 533 C 49.9923 0.741323 3.41036 0
M  V30 534 C 51.3403 0.735266 4.18185 0
M  V30 535 O 52.3643 0.68336 3.49584 0
M  V30 536 O 51.2233 0.800703 5.40602 0
M  V30 537 H 48.3173 0.0858893 0.822528 0
M  V30 538 H 50.8633 0.898609 1.43955 0
M  V30 539 H 49.6353 1.78276 3.4833 0
M  V30 540 H 49.2583 0.139307 3.97356 0
M  V30 541 N 50.2554 -1.46986 0.568584 0
M  V30 542 C 51.4954 -2.04336 0.0512999 0
M  V30 543 C 51.8594 -1.43214 -1.27881 0
M  V30 544 O 53.0604 -1.91679 -1.88448 0
M  V30 545 C 51.3314 -3.57389 -0.0282328 0
M  V30 546 S 52.8904 -4.36056 -0.489991 0
M  V30 547 H 49.7084 -0.71034 0.0306349 0
M  V30 548 H 52.3104 -1.80212 0.757891 0
M  V30 549 H 51.0144 -3.99395 0.944011 0
M  V30 550 H 50.5454 -3.86028 -0.75803 0
M  V30 551 H 52.5604 -4.6441 -1.74752 0
M  V30 552 N 51.7335 -0.305618 -1.54608 0
M  V30 553 C 52.9815 0.301701 -1.99835 0
M  V30 554 C 53.3025 1.54054 -1.19551 0
M  V30 555 O 52.5725 1.93702 -0.292658 0
M  V30 556 H 51.1525 0.114468 -0.738178 0
M  V30 557 H 53.8145 -0.418016 -1.90364 0
M  V30 558 H 52.9105 0.570548 -3.06841 0
M  V30 559 N 53.2116 1.57565 -0.0334293 0
M  V30 560 C 54.1746 2.09393 0.932048 0
M  V30 561 C 55.1746 1.00986 1.25134 0
M  V30 562 O 56.3646 1.27129 1.19096 0
M  V30 563 C 53.4966 2.56338 2.2473 0
M  V30 564 H 54.6896 2.95984 0.483085 0
M  V30 565 H 52.2426 1.54819 0.21468 0
M  V30 566 H 52.9776 1.7309 2.74245 0
M  V30 567 H 52.7626 3.35542 2.02865 0
M  V30 568 H 54.2526 2.96646 2.93923 0
M  V30 569 N 54.6897 -0.239769 1.55765 0
M  V30 570 C 55.6197 -1.30052 1.9393 0
M  V30 571 C 56.6007 -1.49839 0.805132 0
M  V30 572 O 57.7857 -1.62328 1.06599 0
M  V30 573 C 54.9157 -2.65391 2.2402 0
M  V30 574 C 53.8697 -2.60289 3.39755 0
M  V30 575 C 53.1957 -3.99489 3.55405 0
M  V30 576 C 54.4957 -2.16654 4.75246 0
M  V30 577 H 56.1897 -0.983573 2.82783 0
M  V30 578 H 53.7357 -0.471701 1.36055 0
M  V30 579 H 55.6887 -3.3974 2.49308 0
M  V30 580 H 54.4127 -2.98736 1.32 0
M  V30 581 H 53.0717 -1.88398 3.14487 0
M  V30 582 H 52.7197 -4.30112 2.60793 0
M  V30 583 H 52.4197 -3.96962 4.33238 0
M  V30 584 H 53.9437 -4.75528 3.83022 0
M  V30 585 H 55.3577 -2.80737 4.99859 0
M  V30 586 H 53.7547 -2.25223 5.56232 0
M  V30 587 H 54.8247 -1.11835 4.71827 0
M  V30 588 N 56.1678 -1.49265 -0.50573 0
M  V30 589 C 57.5838 -1.35923 -0.836486 0
M  V30 590 C 57.7838 -0.388704 -1.97715 0
M  V30 591 O 56.8398 0.181336 -2.51848 0
M  V30 592 C 58.1528 -2.76531 -1.18115 0
M  V30 593 C 59.7008 -2.85197 -1.28964 0
M  V30 594 C 60.1758 -4.26561 -1.66761 0
M  V30 595 N 61.6668 -4.2935 -1.73819 0
M  V30 596 C 62.4018 -5.35693 -2.045 0
M  V30 597 N 61.8978 -6.52287 -2.33438 0
M  V30 598 N 63.6908 -5.23105 -2.05711 0
M  V30 599 H 55.8418 -2.10965 0.246519 0
M  V30 600 H 58.1048 -0.9468 0.0476887 0
M  V30 601 H 57.8108 -3.49226 -0.416398 0
M  V30 602 H 57.6848 -3.11599 -2.1257 0
M  V30 603 H 60.0718 -2.12742 -2.04511 0
M  V30 604 H 60.1528 -2.53718 -0.325704 0
M  V30 605 H 59.7968 -4.99541 -0.917656 0
M  V30 606 H 59.7268 -4.55502 -2.64246 0
M  V30 607 H 62.2178 -3.4526 -1.53635 0
M  V30 608 H 62.5308 -7.29158 -2.56024 0
M  V30 609 H 60.8758 -6.55521 -2.30905 0
M  V30 610 H 64.0668 -4.31026 -1.82577 0
M  V30 611 H 64.2398 -6.06078 -2.29289 0
M  V30 612 N 57.6459 0.756429 -1.3826 0
M  V30 613 C 58.8759 1.54341 -1.3734 0
M  V30 614 C 59.2839 1.89159 0.0393917 0
M  V30 615 O 58.6269 1.5307 1.01565 0
M  V30 616 C 58.6889 2.87238 -2.16182 0
M  V30 617 C 58.3529 2.74973 -3.65019 0
M  V30 618 C 59.3499 2.44962 -4.58574 0
M  V30 619 C 57.0349 2.92515 -4.08338 0
M  V30 620 C 59.0289 2.32642 -5.93428 0
M  V30 621 C 56.7159 2.79815 -5.43274 0
M  V30 622 C 57.7139 2.49921 -6.35632 0
M  V30 623 O 57.4019 2.37275 -7.68086 0
M  V30 624 H 57.1339 0.484281 -0.471643 0
M  V30 625 H 59.6879 0.944152 -1.82414 0
M  V30 626 H 57.9179 3.49342 -1.65822 0
M  V30 627 H 59.6069 3.48731 -2.07705 0
M  V30 628 H 60.3729 2.31081 -4.26412 0
M  V30 629 H 56.2519 3.14781 -3.368 0
M  V30 630 H 59.7959 2.0923 -6.65484 0
M  V30 631 H 55.6929 2.93269 -5.75034 0
M  V30 632 H 56.4609 2.52509 -7.78577 0
M  V30 633 N 59.124 1.23083 0.984299 0
M  V30 634 C 60.401 0.9689 1.69917 0
M  V30 635 C 60.781 -0.513604 2.04757 0
M  V30 636 O 60.129 -1.48383 1.73767 0
M  V30 637 C 60.339 1.87518 2.94343 0
M  V30 638 C 61.687 2.13636 3.6694 0
M  V30 639 O 62.711 1.85036 3.04368 0
M  V30 640 O 61.57 2.62119 4.79537 0
M  V30 641 H 58.664 0.365095 0.742048 0
M  V30 642 H 61.21 1.34107 1.03987 0
M  V30 643 H 59.982 2.87756 2.65164 0
M  V30 644 H 59.605 1.50514 3.6801 0
M  V30 645 N 60.6021 -1.18246 1.0419 0
M  V30 646 C 61.5651 -2.20128 0.638452 0
M  V30 647 C 62.5651 -1.57885 -0.304805 0
M  V30 648 O 63.7551 -1.73967 -0.0900369 0
M  V30 649 C 60.8871 -3.4084 -0.0637751 0
M  V30 650 H 62.0801 -2.57336 1.54007 0
M  V30 651 H 59.6331 -1.32152 0.834598 0
M  V30 652 H 60.3681 -3.09166 -0.979136 0
M  V30 653 H 60.1531 -3.8726 0.614198 0
M  V30 654 H 61.6431 -4.16274 -0.332512 0
M  V30 655 N 62.0802 -0.821533 -1.34494 0
M  V30 656 C 63.3572 -0.33159 -1.92769 0
M  V30 657 C 63.7372 1.18088 -1.74981 0
M  V30 658 O 63.0852 1.98733 -1.12772 0
M  V30 659 C 63.2952 -0.759398 -3.40638 0
M  V30 660 C 64.6432 -0.757433 -4.1779 0
M  V30 661 O 65.6672 -0.70189 -3.49216 0
M  V30 662 O 64.5262 -0.829361 -5.4017 0
M  V30 663 H 61.6202 -0.0902502 -0.822061 0
M  V30 664 H 64.1662 -0.906231 -1.43477 0
M  V30 665 H 62.9382 -1.8012 -3.47379 0
M  V30 666 H 62.5612 -0.160378 -3.97276 0
M  V30 667 N 63.5583 1.46682 -0.576371 0
M  V30 668 C 64.8353 1.95599 0.00703437 0
M  V30 669 C 65.2153 1.51904 1.46589 0
M  V30 670 O 64.5633 0.766755 2.15251 0
M  V30 671 C 64.7733 3.4864 -0.158404 0
M  V30 672 C 66.1213 4.24594 -0.0229439 0
M  V30 673 O 67.1453 3.56094 -0.0869173 0
M  V30 674 O 66.0043 5.46373 0.118015 0
M  V30 675 H 63.0983 0.825275 0.053384 0
M  V30 676 H 65.6443 1.56996 -0.644244 0
M  V30 677 H 64.4163 3.7331 -1.17282 0
M  V30 678 H 64.0393 3.94057 0.5296 0
M  V30 679 N 65.0364 0.313813 1.54444 0
M  V30 680 C 66.3134 -0.345447 1.92525 0
M  V30 681 C 66.6934 -1.70667 1.24242 0
M  V30 682 O 66.0414 -2.25273 0.382654 0
M  V30 683 C 66.2514 -0.44737 3.46121 0
M  V30 684 C 67.5994 -0.712238 4.18584 0
M  V30 685 O 68.6234 -0.530678 3.52225 0
M  V30 686 O 67.4824 -1.06183 5.36085 0
M  V30 687 H 64.5764 -0.195407 0.803583 0
M  V30 688 H 67.1224 0.362813 1.65776 0
M  V30 689 H 65.8944 0.509043 3.87975 0
M  V30 690 H 65.5174 -1.20359 3.78945 0
M  V30 691 N 66.5145 -1.57545 0.0417849 0
M  V30 692 C 67.7445 -1.96339 -0.642995 0
M  V30 693 C 68.1525 -0.917536 -1.65463 0
M  V30 694 O 67.4955 0.107747 -1.83384 0
M  V30 695 C 67.5575 -3.31333 -1.39494 0
M  V30 696 C 67.2215 -4.53796 -0.540204 0
M  V30 697 C 68.2185 -5.19553 0.189806 0
M  V30 698 C 65.9035 -5.0006 -0.473886 0
M  V30 699 C 67.8975 -6.29904 0.974674 0
M  V30 700 C 65.5845 -6.10289 0.314677 0
M  V30 701 C 66.5825 -6.75072 1.03765 0
M  V30 702 O 66.2705 -7.83183 1.81327 0
M  V30 703 H 66.0025 -0.651241 -0.181277 0
M  V30 704 H 68.5565 -2.05148 0.101665 0
M  V30 705 H 66.7865 -3.19052 -2.18502 0
M  V30 706 H 68.4755 -3.54942 -1.96904 0
M  V30 707 H 69.2415 -4.84774 0.147981 0
M  V30 708 H 65.1205 -4.49433 -1.0262 0
M  V30 709 H 68.6645 -6.80401 1.5395 0
M  V30 710 H 64.5615 -6.44506 0.358174 0
M  V30 711 H 65.3295 -7.99913 1.73438 0
M  V30 712 N 67.9926 0.231505 -1.5589 0
M  V30 713 C 69.4036 0.799327 -1.68724 0
M  V30 714 C 69.7546 1.85398 -0.642022 0
M  V30 715 O 68.8796 2.1539 0.208784 0
M  V30 716 C 69.4746 1.45664 -3.05888 0
M  V30 717 C 68.0336 1.97197 -3.20609 0
M  V30 718 C 67.1806 0.828552 -2.64632 0
M  V30 719 H 70.1316 0.00702616 -1.58698 0
M  V30 720 H 70.1526 2.32517 -3.01191 0
M  V30 721 H 69.6646 0.688808 -3.81939 0
M  V30 722 H 67.7656 2.76813 -2.4941 0
M  V30 723 H 67.8786 2.15878 -4.27707 0
M  V30 724 H 66.2426 1.23321 -2.22854 0
M  V30 725 H 67.0256 0.0735544 -3.43221 0
M  V30 726 N 69.4707 1.49531 0.497807 0
M  V30 727 C 70.4337 1.65916 1.58128 0
M  V30 728 C 71.4337 0.530825 1.51786 0
M  V30 729 O 72.6237 0.797342 1.54881 0
M  V30 730 C 69.7557 1.65951 2.9778 0
M  V30 731 H 70.9487 2.62556 1.44929 0
M  V30 732 H 68.5017 1.38611 0.722275 0
M  V30 733 H 69.2367 0.709065 3.16453 0
M  V30 734 H 69.0217 2.47897 3.03792 0
M  V30 735 H 70.5117 1.80673 3.76493 0
M  V30 736 N 70.9488 -0.749086 1.3866 0
M  V30 737 C 72.1958 -1.50833 1.35114 0
M  V30 738 C 72.5238 -1.94415 -0.0574049 0
M  V30 739 O 71.7788 -1.66065 -1.03541 0
M  V30 740 C 72.0778 -2.7712 2.25697 0
M  V30 741 C 71.7438 -2.52477 3.73585 0
M  V30 742 C 70.4058 -2.45466 4.13884 0
M  V30 743 C 72.7578 -2.31066 4.67181 0
M  V30 744 C 70.0858 -2.15064 5.45861 0
M  V30 745 C 72.4378 -2.02183 5.9942 0
M  V30 746 C 71.1018 -1.93631 6.38798 0
M  V30 747 H 70.3718 -0.551936 0.494416 0
M  V30 748 H 73.0188 -0.860979 1.71054 0
M  V30 749 H 71.3238 -3.46528 1.82827 0
M  V30 750 H 73.0208 -3.35096 2.20254 0
M  V30 751 H 69.6108 -2.58807 3.41638 0
M  V30 752 H 73.7948 -2.35459 4.3689 0
M  V30 753 H 69.0508 -2.06954 5.75308 0
M  V30 754 H 73.2248 -1.8462 6.71482 0
M  V30 755 H 70.8518 -1.69839 7.40985 0
M  V30 756 N 72.4269 -1.23603 -0.977757 0
M  V30 757 C 73.6669 -1.08148 -1.73446 0
M  V30 758 C 74.0309 0.374785 -1.88307 0
M  V30 759 O 75.2319 0.650588 -2.60808 0
M  V30 760 C 73.5029 -1.78991 -3.0935 0
M  V30 761 S 75.0619 -1.79141 -4.00567 0
M  V30 762 H 71.8799 -0.386987 -0.596458 0
M  V30 763 H 74.4819 -1.5678 -1.16792 0
M  V30 764 H 73.1859 -2.8408 -2.96187 0
M  V30 765 H 72.7169 -1.30651 -3.71071 0
M  V30 766 H 74.7319 -0.851892 -4.88833 0
M  V30 767 N 73.905 1.17692 -1.04816 0
M  V30 768 C 75.154 1.87192 -0.751132 0
M  V30 769 C 75.467 1.8169 0.724441 0
M  V30 770 O 76.673 2.46625 1.13527 0
M  V30 771 C 75.129 3.35857 -1.29338 0
M  V30 772 C 74.737 3.4987 -2.79812 0
M  V30 773 C 76.481 4.10709 -1.07322 0
M  V30 774 C 74.388 4.92536 -3.27356 0
M  V30 775 H 73.318 0.701162 -0.277288 0
M  V30 776 H 75.969 1.32932 -1.26496 0
M  V30 777 H 74.351 3.89631 -0.707376 0
M  V30 778 H 75.525 3.06332 -3.44235 0
M  V30 779 H 73.84 2.88433 -3.00325 0
M  V30 780 H 76.437 5.15952 -1.4035 0
M  V30 781 H 76.78 4.16299 -0.0108001 0
M  V30 782 H 77.313 3.6313 -1.62423 0
M  V30 783 H 74.052 4.92119 -4.33012 0
M  V30 784 H 73.572 5.3676 -2.67673 0
M  V30 785 H 75.251 5.61288 -3.21815 0
M  V30 786 N 75.3831 0.828654 1.34056 0
M  V30 787 C 76.3461 0.259927 2.27721 0
M  V30 788 C 77.3461 -0.565478 1.50529 0
M  V30 789 O 78.5361 -0.38075 1.69988 0
M  V30 790 C 75.6681 -0.634944 3.34935 0
M  V30 791 H 76.8611 1.0863 2.79534 0
M  V30 792 H 74.4141 0.600951 1.44285 0
M  V30 793 H 75.1491 -1.48416 2.88346 0
M  V30 794 H 74.9341 -0.0444999 3.92075 0
M  V30 795 H 76.4241 -1.02648 4.04788 0
M  V30 796 N 76.8612 -1.46375 0.584142 0
M  V30 797 C 77.8242 -2.28784 -0.138108 0
M  V30 798 C 78.8242 -1.38471 -0.817462 0
M  V30 799 O 80.0142 -1.60833 -0.669199 0
M  V30 800 C 77.1462 -3.18892 -1.20503 0
M  V30 801 H 78.3392 -2.94117 0.586127 0
M  V30 802 H 75.8922 -1.52509 0.342171 0
M  V30 803 H 76.6272 -2.58309 -1.96079 0
M  V30 804 H 76.4122 -3.85388 -0.722384 0
M  V30 805 H 77.9022 -3.80914 -1.71155 0
M  V30 806 N 78.3393 -0.321999 -1.54275 0
M  V30 807 C 79.3023 0.531975 -2.22941 0
M  V30 808 C 80.3023 1.04478 -1.22234 0
M  V30 809 O 81.4923 0.937452 -1.46825 0
M  V30 810 C 78.6243 1.73874 -2.93224 0
M  V30 811 H 79.8173 -0.0682612 -2.99822 0
M  V30 812 H 77.3703 -0.0730644 -1.56129 0
M  V30 813 H 78.1053 2.37825 -2.20476 0
M  V30 814 H 77.8903 1.37847 -3.6707 0
M  V30 815 H 79.3803 2.34496 -3.45545 0
M  V30 816 N 79.8174 1.5752 -0.0501392 0
M  V30 817 C 81.0454 1.96963 0.633492 0
M  V30 818 C 81.4604 0.927631 1.6444 0
M  V30 819 O 80.8174 -0.0882665 1.82286 0
M  V30 820 C 80.8684 3.36487 1.32132 0
M  V30 821 O 80.5894 4.36693 0.350894 0
M  V30 822 C 82.0904 3.90682 2.09481 0
M  V30 823 H 79.3104 0.648244 0.173266 0
M  V30 824 H 81.8544 2.0417 -0.116134 0
M  V30 825 H 80.0094 3.30434 2.02218 0
M  V30 826 H 80.4234 5.17702 0.841735 0
M  V30 827 H 81.8974 4.90591 2.5303 0
M  V30 828 H 82.3744 3.26053 2.94255 0
M  V30 829 H 82.9804 4.00069 1.44307 0
M  V30 830 N 81.2955 -0.223234 1.56011 0
M  V30 831 C 82.7115 -0.572856 1.48965 0
M  V30 832 C 82.9115 -1.87225 0.74492 0
M  V30 833 O 81.9675 -2.50899 0.283896 0
M  V30 834 C 83.2805 -0.653646 2.9351 0
M  V30 835 C 84.8285 -0.744386 3.0402 0
M  V30 836 C 85.3035 -0.856535 4.49919 0
M  V30 837 N 86.7945 -0.9208 4.53955 0
M  V30 838 C 87.5295 -1.02726 5.64123 0
M  V30 839 N 87.0255 -1.09777 6.84047 0
M  V30 840 N 88.8185 -1.06226 5.51971 0
M  V30 841 H 80.9695 0.629462 2.02858 0
M  V30 842 H 83.2325 0.220621 0.921971 0
M  V30 843 H 82.9385 0.231518 3.50937 0
M  V30 844 H 82.8125 -1.51781 3.45315 0
M  V30 845 H 85.1995 -1.61999 2.46658 0
M  V30 846 H 85.2805 0.14541 2.55386 0
M  V30 847 H 84.9245 0.0146069 5.07898 0
M  V30 848 H 84.8545 -1.76172 4.96257 0
M  V30 849 H 87.3455 -0.876694 3.6759 0
M  V30 850 H 87.6585 -1.17872 7.63758 0
M  V30 851 H 86.0035 -1.06693 6.86762 0
M  V30 852 H 89.1945 -1.00382 4.5721 0
M  V30 853 H 89.3675 -1.14177 6.37862 0
M  V30 854 N 82.7736 -1.49793 -0.48987 0
M  V30 855 C 84.0016 -1.63568 -1.26701 0
M  V30 856 C 84.4166 -0.311465 -1.86213 0
M  V30 857 O 83.7736 0.704416 -1.68357 0
M  V30 858 C 83.8246 -2.71284 -2.38929 0
M  V30 859 O 83.5456 -3.9857 -1.81861 0
M  V30 860 C 85.0466 -2.95864 -3.3012 0
M  V30 861 H 82.2666 -0.550342 -0.383881 0
M  V30 862 H 84.8106 -1.95898 -0.586864 0
M  V30 863 H 82.9656 -2.417 -3.02753 0
M  V30 864 H 83.3796 -4.57993 -2.55622 0
M  V30 865 H 84.8536 -3.74941 -4.05121 0
M  V30 866 H 85.3306 -2.06206 -3.87783 0
M  V30 867 H 85.9366 -3.26907 -2.72051 0
M  V30 868 N 84.2517 0.741722 -1.39055 0
M  V30 869 C 85.4977 1.50336 -1.36113 0
M  V30 870 C 85.8307 1.94148 0.0450796 0
M  V30 871 O 85.1057 1.66301 1.00868 0
M  V30 872 C 85.3887 2.74773 -2.32749 0
M  V30 873 C 85.2417 2.37023 -3.82283 0
M  V30 874 C 86.5607 3.76846 -2.27322 0
M  V30 875 H 83.6797 0.545351 -0.495743 0
M  V30 876 H 86.3217 0.848624 -1.69995 0
M  V30 877 H 84.4717 3.30639 -2.03986 0
M  V30 878 H 86.1437 1.8684 -4.21768 0
M  V30 879 H 84.3867 1.69334 -3.99385 0
M  V30 880 H 85.0577 3.26104 -4.45376 0
M  V30 881 H 87.5337 3.30548 -2.5274 0
M  V30 882 H 86.4097 4.6159 -2.97028 0
M  V30 883 H 86.6707 4.23286 -1.27599 0
M  V30 884 N 85.7298 1.2412 0.971189 0
M  V30 885 C 86.6928 1.03156 2.04674 0
M  V30 886 C 87.6928 -0.00990322 1.60797 0
M  V30 887 O 88.8828 0.230729 1.72665 0
M  V30 888 C 86.0148 0.562765 3.36223 0
M  V30 889 H 87.2078 1.98614 2.24705 0
M  V30 890 H 84.7608 1.06293 1.14593 0
M  V30 891 H 85.4958 -0.395176 3.21883 0
M  V30 892 H 85.2808 1.31441 3.69413 0
M  V30 893 H 86.7708 0.437015 4.15307 0
M  V30 894 N 87.2079 -1.17134 1.05439 0
M  V30 895 C 88.4849 -1.83411 0.679699 0
M  V30 896 C 88.8649 -1.9368 -0.839726 0
M  V30 897 O 88.2129 -1.47325 -1.74664 0
M  V30 898 C 88.4229 -3.20918 1.37159 0
M  V30 899 C 89.7709 -3.96796 1.51123 0
M  V30 900 O 90.7949 -3.30406 1.3308 0
M  V30 901 O 89.6539 -5.15778 1.80651 0
M  V30 902 H 86.7479 -0.79154 0.239569 0
M  V30 903 H 89.2939 -1.24411 1.15413 0
M  V30 904 H 88.0659 -3.08428 2.40807 0
M  V30 905 H 87.6889 -3.87587 0.886674 0
M  V30 906 N 88.686 -0.835752 -1.33615 0
M  V30 907 C 90.097 -0.487099 -1.80234 0
M  V30 908 C 90.448 0.993627 -1.69179 0
M  V30 909 O 89.573 1.77403 -1.23924 0
M  V30 910 C 90.168 -0.877385 -3.27242 0
M  V30 911 C 88.727 -0.580915 -3.7189 0
M  V30 912 C 87.874 -1.0874 -2.5509 0
M  V30 913 H 90.825 -1.02474 -1.2118 0
M  V30 914 H 90.846 -0.186195 -3.80044 0
M  V30 915 H 90.358 -1.95512 -3.35256 0
M  V30 916 H 88.459 0.486881 -3.69405 0
M  V30 917 H 88.572 -1.13396 -4.65487 0
M  V30 918 H 86.936 -0.508392 -2.49575 0
M  V30 919 H 87.719 -2.17184 -2.65868 0
M  V30 920 N 90.1641 1.46063 -0.591896 0
M  V30 921 C 91.4121 2.01938 -0.0808391 0
M  V30 922 C 91.7331 1.46475 1.28725 0
M  V30 923 O 91.0031 0.652944 1.84698 0
M  V30 924 H 89.5831 0.746516 -0.0268938 0
M  V30 925 H 92.2451 1.79055 -0.769752 0
M  V30 926 H 91.3411 3.12094 -0.0187578 0
M  V30 927 N 91.6422 0.330177 1.54103 0
M  V30 928 C 92.8672 -0.274893 2.0557 0
M  V30 929 C 93.2922 -1.44487 1.20437 0
M  V30 930 O 92.6502 -1.80021 0.214991 0
M  V30 931 C 92.6982 -0.68079 3.54115 0
M  V30 932 O 91.8022 -1.7824 3.71893 0
M  V30 933 H 91.1432 -0.0483849 0.662235 0
M  V30 934 H 93.6732 0.480508 1.98878 0
M  V30 935 H 93.6832 -0.961635 3.96505 0
M  V30 936 H 92.3582 0.174903 4.15532 0
M  V30 937 H 90.9352 -1.49985 3.41407 0
M  V30 938 N 93.1203 -1.57491 0.0584922 0
M  V30 939 C 94.0503 -2.14988 -0.911178 0
M  V30 940 C 95.0313 -1.07343 -1.31952 0
M  V30 941 O 96.2163 -1.35318 -1.39294 0
M  V30 942 C 93.3463 -2.70078 -2.18347 0
M  V30 943 C 92.3003 -3.82771 -1.91495 0
M  V30 944 C 91.6263 -4.24408 -3.25241 0
M  V30 945 C 92.9263 -5.07592 -1.23075 0
M  V30 946 H 94.6203 -2.96263 -0.432246 0
M  V30 947 H 92.1663 -1.42512 -0.206469 0
M  V30 948 H 94.1193 -3.08943 -2.86587 0
M  V30 949 H 92.8433 -1.86005 -2.68458 0
M  V30 950 H 91.5023 -3.44389 -1.25664 0
M  V30 951 H 91.1503 -3.37275 -3.73168 0
M  V30 952 H 90.8503 -5.00366 -3.08071 0
M  V30 953 H 92.3743 -4.65879 -3.94701 0
M  V30 954 H 93.7883 -5.43857 -1.81362 0
M  V30 955 H 92.1853 -5.88741 -1.16207 0
M  V30 956 H 93.2553 -4.84454 -0.207847 0
M  V30 957 N 94.5984 0.214957 -1.56127 0
M  V30 958 C 95.8464 0.936518 -1.79091 0
M  V30 959 C 96.1674 1.84606 -0.628148 0
M  V30 960 O 95.4374 1.92664 0.35462 0
M  V30 961 H 94.0174 0.3488 -0.660566 0
M  V30 962 H 96.6794 0.22523 -1.93594 0
M  V30 963 H 95.7754 1.53943 -2.71492 0
M  V30 964 N 96.0765 1.50051 0.48192 0
M  V30 965 C 97.3255 1.59741 1.23149 0
M  V30 966 C 97.6385 0.298163 1.93314 0
M  V30 967 O 98.8445 0.273835 2.70116 0
M  V30 968 C 97.3005 2.81926 2.23708 0
M  V30 969 C 96.9085 4.18685 1.59396 0
M  V30 970 C 98.6525 3.00956 2.99375 0
M  V30 971 C 96.5595 5.3207 2.58178 0
M  V30 972 H 95.4895 0.594838 0.46334 0
M  V30 973 H 98.1405 1.76467 0.503169 0
M  V30 974 H 96.5225 2.58736 2.99786 0
M  V30 975 H 97.6965 4.52088 0.891811 0
M  V30 976 H 96.0115 4.05171 0.960503 0
M  V30 977 H 98.6085 3.82836 3.73283 0
M  V30 978 H 98.9515 2.12258 3.58123 0
M  V30 979 H 99.4845 3.24277 2.30411 0
M  V30 980 H 96.2235 6.22888 2.04184 0
M  V30 981 H 95.7435 5.03098 3.26577 0
M  V30 982 H 97.4225 5.62196 3.20225 0
M  V30 983 N 97.5546 -0.734337 1.39446 0
M  V30 984 C 98.8006 -1.49613 1.36908 0
M  V30 985 C 99.1336 -1.94169 -0.0347829 0
M  V30 986 O 98.4086 -1.66833 -0.999847 0
M  V30 987 C 98.6916 -2.73534 2.34203 0
M  V30 988 C 98.5446 -2.34993 3.83534 0
M  V30 989 C 99.8636 -3.75635 2.29317 0
M  V30 990 H 96.9826 -0.542714 0.498629 0
M  V30 991 H 99.6246 -0.839597 1.70443 0
M  V30 992 H 97.7746 -3.29553 2.05736 0
M  V30 993 H 99.4466 -1.84601 4.22753 0
M  V30 994 H 97.6896 -1.67213 4.00278 0
M  V30 995 H 98.3606 -3.23738 4.47099 0
M  V30 996 H 100.837 -3.29203 2.54489 0
M  V30 997 H 99.7126 -4.60008 2.99472 0
M  V30 998 H 99.9736 -4.22603 1.29842 0
M  V30 999 N 99.0327 -1.24633 -0.964593 0
M  V30 1000 C 99.9627 -1.06611 -2.07741 0
M  V30 1001 C 100.944 0.0218666 -1.70086 0
M  V30 1002 O 102.129 -0.145793 -1.93652 0
M  V30 1003 C 99.2587 -0.673444 -3.40708 0
M  V30 1004 C 98.2127 -1.71054 -3.92332 0
M  V30 1005 C 97.5387 -1.17285 -5.21678 0
M  V30 1006 C 98.8387 -3.10718 -4.19824 0
M  V30 1007 H 100.533 -1.99693 -2.23076 0
M  V30 1008 H 98.0787 -0.96152 -1.07195 0
M  V30 1009 H 100.032 -0.534345 -4.17998 0
M  V30 1010 H 98.7557 0.293073 -3.25282 0
M  V30 1011 H 97.4147 -1.83791 -3.17201 0
M  V30 1012 H 97.0627 -0.196847 -5.02615 0
M  V30 1013 H 96.7627 -1.86592 -5.57187 0
M  V30 1014 H 98.2867 -1.04593 -6.01575 0
M  V30 1015 H 99.7007 -3.01192 -4.87808 0
M  V30 1016 H 98.0977 -3.77406 -4.66567 0
M  V30 1017 H 99.1677 -3.58524 -3.26479 0
M  V30 1018 N 100.511 1.16574 -1.06058 0
M  V30 1019 C 101.759 1.86677 -0.77434 0
M  V30 1020 C 102.08 1.81959 0.701147 0
M  V30 1021 O 101.35 1.2515 1.50713 0
M  V30 1022 H 99.9298 0.691134 -0.283449 0
M  V30 1023 H 102.592 1.41378 -1.34158 0
M  V30 1024 H 101.688 2.92181 -1.09711 0
M  V30 1025 N 101.989 0.842826 1.3317 0
M  V30 1026 C 103.237 0.439577 1.97262 0
M  V30 1027 C 103.558 -1.00548 1.67078 0
M  V30 1028 O 102.828 -1.70098 0.971779 0
M  V30 1029 H 101.408 0.159558 0.72976 0
M  V30 1030 H 104.07 1.07665 1.62463 0
M  V30 1031 H 103.166 0.574886 3.0676 0
M  V30 1032 N 103.467 -1.45747 0.599634 0
M  V30 1033 C 104.692 -2.07178 0.0960198 0
M  V30 1034 C 105.117 -1.44268 -1.207 0
M  V30 1035 O 104.475 -0.532503 -1.73303 0
M  V30 1036 C 104.523 -3.60579 -0.0385348 0
M  V30 1037 O 103.627 -3.97713 -1.0908 0
M  V30 1038 H 102.968 -0.660251 0.0704593 0
M  V30 1039 H 105.498 -1.87124 0.827385 0
M  V30 1040 H 105.508 -4.07298 -0.239304 0
M  V30 1041 H 104.183 -4.05756 0.912947 0
M  V30 1042 H 102.76 -3.62678 -0.867135 0
M  V30 1043 N 104.945 -0.338344 -1.53925 0
M  V30 1044 C 106.193 0.259245 -2.0043 0
M  V30 1045 C 106.514 1.51484 -1.22791 0
M  V30 1046 O 105.784 1.93037 -0.33368 0
M  V30 1047 H 104.364 0.0987845 -0.740439 0
M  V30 1048 H 107.026 -0.458302 -1.89435 0
M  V30 1049 H 106.122 0.505334 -3.07982 0
M  V30 1050 N 106.423 1.57458 -0.0668435 0
M  V30 1051 C 107.371 2.13639 0.919851 0
M  V30 1052 C 108.365 1.07204 1.31163 0
M  V30 1053 O 109.571 1.25591 1.28945 0
M  V30 1054 H 105.946 0.683048 0.314562 0
M  V30 1055 H 107.917 2.95415 0.421047 0
M  V30 1056 C 106.666 2.70892 2.17975 0
M  V30 1057 H 105.989 3.5246 1.88711 0
M  V30 1058 H 107.429 3.13803 2.85138 0
M  V30 1059 C 105.888 1.65414 2.93496 0
M  V30 1060 O 106.418 1.07619 3.87015 0
M  V30 1061 N 104.624 1.36564 2.56512 0
M  V30 1062 H 104.171 1.83751 1.80536 0
M  V30 1063 H 104.129 0.66223 3.07347 0
M  V30 1064 N 107.901 -0.206675 1.56239 0
M  V30 1065 C 109.149 -0.927007 1.79586 0
M  V30 1066 C 109.47 -1.8427 0.637929 0
M  V30 1067 O 108.74 -1.92849 -0.344398 0
M  V30 1068 H 107.32 -0.345292 0.662407 0
M  V30 1069 H 109.982 -0.21496 1.93711 0
M  V30 1070 H 109.078 -1.52501 2.72305 0
M  V30 1071 N 109.379 -1.50304 -0.473955 0
M  V30 1072 C 110.289 -1.7174 -1.5982 0
M  V30 1073 C 111.305 -0.600457 -1.63311 0
M  V30 1074 O 112.481 -0.878441 -1.81233 0
M  V30 1075 C 109.546 -1.80427 -2.96052 0
M  V30 1076 C 108.607 -3.04148 -3.02972 0
M  V30 1077 C 107.84 -3.12411 -4.32706 0
M  V30 1078 O 108.063 -2.27542 -5.23049 0
M  V30 1079 O 106.997 -4.05113 -4.45159 0
M  V30 1080 H 110.823 -2.67035 -1.44657 0
M  V30 1081 H 108.408 -1.34366 -0.653148 0
M  V30 1082 H 110.29 -1.88338 -3.7697 0
M  V30 1083 H 108.965 -0.883156 -3.11419 0
M  V30 1084 H 107.872 -3.0174 -2.21142 0
M  V30 1085 H 109.205 -3.95829 -2.92541 0
M  V30 1086 N 110.857 0.726932 -1.39834 0
M  V30 1087 C 111.789 1.85147 -1.35104 0
M  V30 1088 C 112.802 1.60736 -0.258392 0
M  V30 1089 O 113.991 1.70821 -0.517931 0
M  V30 1090 C 111.091 3.21332 -1.07697 0
M  V30 1091 C 110.264 3.73033 -2.28396 0
M  V30 1092 C 109.323 4.87802 -1.97322 0
M  V30 1093 O 108.349 5.01043 -2.70083 0
M  V30 1094 N 109.551 5.72768 -0.944273 0
M  V30 1095 H 112.316 1.89706 -2.32017 0
M  V30 1096 H 109.877 0.908006 -1.3404 0
M  V30 1097 H 111.869 3.95691 -0.849144 0
M  V30 1098 H 110.439 3.11992 -0.194909 0
M  V30 1099 H 109.659 2.89934 -2.6708 0
M  V30 1100 H 110.947 4.0431 -3.08887 0
M  V30 1101 H 110.345 5.64669 -0.341427 0
M  V30 1102 H 108.902 6.4716 -0.776346 0
M  V30 1103 N 112.336 1.25143 0.95797 0
M  V30 1104 C 113.585 1.0909 1.69654 0
M  V30 1105 C 113.898 -0.368548 1.92097 0
M  V30 1106 O 115.104 -0.649455 2.63618 0
M  V30 1107 C 113.56 1.90395 3.05414 0
M  V30 1108 C 113.168 3.4081 2.90779 0
M  V30 1109 C 114.912 1.82901 3.83076 0
M  V30 1110 C 112.819 4.14423 4.21909 0
M  V30 1111 H 111.749 0.404625 0.636235 0
M  V30 1112 H 114.4 1.4931 1.06672 0
M  V30 1113 H 112.782 1.42996 3.69281 0
M  V30 1114 H 113.956 3.95859 2.35865 0
M  V30 1115 H 112.271 3.49361 2.26575 0
M  V30 1116 H 114.868 2.35196 4.80195 0
M  V30 1117 H 115.211 0.796224 4.08615 0
M  V30 1118 H 115.744 2.28033 3.25954 0
M  V30 1119 H 112.483 5.18102 4.01561 0
M  V30 1120 H 112.003 3.64159 4.76601 0
M  V30 1121 H 113.682 4.21956 4.90471 0
M  V30 1122 N 113.814 -1.1601 1.06675 0
M  V30 1123 C 114.777 -2.18724 0.685001 0
M  V30 1124 C 115.777 -1.58496 -0.271246 0
M  V30 1125 O 116.967 -1.74119 -0.0531156 0
M  V30 1126 C 114.099 -3.40899 0.00853648 0
M  V30 1127 H 115.292 -2.54011 1.59431 0
M  V30 1128 H 112.845 -1.30352 0.862441 0
M  V30 1129 H 113.58 -3.11173 -0.913337 0
M  V30 1130 H 113.365 -3.8587 0.696204 0
M  V30 1131 H 114.855 -4.16886 -0.24414 0
M  V30 1132 N 115.292 -0.849877 -1.32721 0
M  V30 1133 C 116.255 -0.296122 -2.27279 0
M  V30 1134 C 117.255 0.541458 -1.5141 0
M  V30 1135 O 118.445 0.353658 -1.70572 0
M  V30 1136 C 115.577 0.581579 -3.35902 0
M  V30 1137 H 116.77 -1.13064 -2.77771 0
M  V30 1138 H 114.323 -0.62383 -1.43311 0
M  V30 1139 H 115.058 1.43809 -2.9067 0
M  V30 1140 H 114.843 -0.0178814 -3.92096 0
M  V30 1141 H 116.333 0.961951 -4.0637 0
M  V30 1142 N 116.77 1.45427 -0.607355 0
M  V30 1143 C 117.718 2.32269 0.12411 0
M  V30 1144 C 118.712 1.45955 0.859854 0
M  V30 1145 O 119.918 1.6244 0.775447 0
M  V30 1146 H 116.293 0.749691 0.0588839 0
M  V30 1147 H 118.264 2.91743 -0.626762 0
M  V30 1148 C 117.013 3.29567 1.1082 0
M  V30 1149 H 116.336 3.95978 0.551492 0
M  V30 1150 H 117.776 3.93061 1.58995 0
M  V30 1151 C 116.235 2.56722 2.18164 0
M  V30 1152 O 116.765 2.34842 3.25902 0
M  V30 1153 N 114.971 2.16861 1.93442 0
M  V30 1154 H 114.518 2.34855 1.05834 0
M  V30 1155 H 114.476 1.68444 2.65469 0
M  V30 1156 N 118.248 0.346503 1.53744 0
M  V30 1157 C 119.195 -0.508914 2.25119 0
M  V30 1158 C 120.165 -1.09315 1.25058 0
M  V30 1159 O 121.35 -1.12921 1.53797 0
M  V30 1160 C 118.49 -1.65246 3.02965 0
M  V30 1161 C 117.603 -1.09525 4.17886 0
M  V30 1162 C 116.738 -2.20634 4.83212 0
M  V30 1163 C 115.777 -1.62279 5.90196 0
M  V30 1164 N 114.914 -2.67143 6.49291 0
M  V30 1165 H 119.754 0.106283 2.9781 0
M  V30 1166 H 117.291 0.0642227 1.4696 0
M  V30 1167 H 119.249 -2.32574 3.4636 0
M  V30 1168 H 117.879 -2.2386 2.32565 0
M  V30 1169 H 116.931 -0.312818 3.79112 0
M  V30 1170 H 118.243 -0.628444 4.94825 0
M  V30 1171 H 117.397 -2.95821 5.29693 0
M  V30 1172 H 116.136 -2.70659 4.05703 0
M  V30 1173 H 115.141 -0.855989 5.43096 0
M  V30 1174 H 116.366 -1.13102 6.69615 0
M  V30 1175 H 114.312 -3.16417 5.74645 0
M  V30 1176 H 114.229 -2.25093 7.21713 0
M  V30 1177 H 115.497 -3.4209 7.00425 0
M  V30 1178 N 119.726 -1.57421 0.075193 0
M  V30 1179 C 120.972 -1.93905 -0.594025 0
M  V30 1180 C 121.305 -0.955701 -1.69056 0
M  V30 1181 O 120.58 0.0145373 -1.94495 0
M  V30 1182 C 120.863 -3.40638 -1.1678 0
M  V30 1183 C 120.716 -4.49733 -0.0776792 0
M  V30 1184 C 122.035 -3.88259 -2.07228 0
M  V30 1185 H 119.154 -0.705105 -0.214466 0
M  V30 1186 H 121.796 -1.8947 0.141854 0
M  V30 1187 H 119.946 -3.44549 -1.79494 0
M  V30 1188 H 121.618 -4.57942 0.555573 0
M  V30 1189 H 119.861 -4.29751 0.591286 0
M  V30 1190 H 120.532 -5.49549 -0.519603 0
M  V30 1191 H 123.008 -3.86376 -1.54445 0
M  V30 1192 H 121.884 -4.91533 -2.44308 0
M  V30 1193 H 122.145 -3.26396 -2.98191 0
M  V30 1194 N 121.204 0.198386 -1.56346 0
M  V30 1195 C 122.615 0.763358 -1.70381 0
M  V30 1196 C 122.966 1.83995 -0.681203 0
M  V30 1197 O 122.091 2.15785 0.16305 0
M  V30 1198 C 122.686 1.39143 -3.08909 0
M  V30 1199 C 121.245 1.90352 -3.2472 0
M  V30 1200 C 120.392 0.772233 -2.6633 0
M  V30 1201 H 123.343 -0.0266377 -1.58678 0
M  V30 1202 H 123.364 2.26076 -3.06055 0
M  V30 1203 H 122.876 0.607638 -3.83314 0
M  V30 1204 H 120.977 2.71461 -2.55225 0
M  V30 1205 H 121.09 2.06757 -4.3219 0
M  V30 1206 H 119.454 1.18566 -2.2542 0
M  V30 1207 H 120.237 0.00073556 -3.433 0
M  V30 1208 N 122.682 1.50554 0.465978 0
M  V30 1209 C 123.93 1.61479 1.21528 0
M  V30 1210 C 124.251 0.319596 1.92363 0
M  V30 1211 O 123.521 -0.663194 1.84333 0
M  V30 1212 H 122.101 0.595055 0.451573 0
M  V30 1213 H 124.763 1.87355 0.53704 0
M  V30 1214 H 123.859 2.42846 1.96042 0
M  V30 1215 N 124.16 -0.719506 1.40217 0
M  V30 1216 C 125.123 -1.8153 1.39927 0
M  V30 1217 C 126.123 -1.58095 0.293723 0
M  V30 1218 O 127.313 -1.65209 0.552429 0
M  V30 1219 C 124.445 -3.19561 1.18716 0
M  V30 1220 H 125.638 -1.83186 2.37451 0
M  V30 1221 H 123.191 -0.924746 1.26008 0
M  V30 1222 H 123.926 -3.23557 0.219366 0
M  V30 1223 H 123.711 -3.3797 1.98793 0
M  V30 1224 H 125.201 -3.99598 1.21291 0
M  V30 1225 N 125.638 -1.25649 -0.95132 0
M  V30 1226 C 127.054 -1.02542 -1.223 0
M  V30 1227 C 127.254 0.255715 -1.99871 0
M  V30 1228 O 126.31 0.967558 -2.33226 0
M  V30 1229 C 127.623 -2.25065 -1.99415 0
M  V30 1230 C 129.171 -2.29861 -2.12446 0
M  V30 1231 C 129.646 -3.52048 -2.92961 0
M  V30 1232 N 131.137 -3.52465 -3.00538 0
M  V30 1233 C 131.872 -4.43672 -3.63239 0
M  V30 1234 N 131.368 -5.45157 -4.27523 0
M  V30 1235 N 133.161 -4.31346 -3.60412 0
M  V30 1236 H 125.312 -2.07951 -0.432471 0
M  V30 1237 H 127.575 -0.91339 -0.253816 0
M  V30 1238 H 127.281 -3.18194 -1.49817 0
M  V30 1239 H 127.155 -2.28502 -3.00111 0
M  V30 1240 H 129.542 -1.37252 -2.61239 0
M  V30 1241 H 129.623 -2.3044 -1.11044 0
M  V30 1242 H 129.267 -4.44981 -2.44856 0
M  V30 1243 H 129.197 -3.48715 -3.94596 0
M  V30 1244 H 131.688 -2.79056 -2.54826 0
M  V30 1245 H 132.001 -6.10958 -4.73234 0
M  V30 1246 H 130.346 -5.49025 -4.26141 0
M  V30 1247 H 133.537 -3.51288 -3.09377 0
M  V30 1248 H 133.71 -5.02624 -4.0899 0
M  V30 1249 N 127.117 1.15442 -1.07289 0
M  V30 1250 C 128.357 1.8788 -0.805012 0
M  V30 1251 C 128.721 1.80413 0.656907 0
M  V30 1252 O 129.922 2.47874 1.0398 0
M  V30 1253 C 128.193 3.3298 -1.29843 0
M  V30 1254 S 129.752 4.23158 -1.16114 0
M  V30 1255 H 126.57 0.64839 -0.291739 0
M  V30 1256 H 129.172 1.39285 -1.37186 0
M  V30 1257 H 127.876 3.35958 -2.35712 0
M  V30 1258 H 127.407 3.86629 -0.726767 0
M  V30 1259 H 129.422 4.96103 -0.0982778 0
M  V30 1260 N 128.595 0.856903 1.32268 0
M  V30 1261 C 129.558 0.308171 2.27119 0
M  V30 1262 C 130.558 -0.533421 1.51695 0
M  V30 1263 O 131.748 -0.344607 1.70757 0
M  V30 1264 C 128.88 -0.563757 3.36206 0
M  V30 1265 H 130.073 1.14535 2.77167 0
M  V30 1266 H 127.626 0.631421 1.42978 0
M  V30 1267 H 128.361 -1.42266 2.91429 0
M  V30 1268 H 128.146 0.0386749 3.92081 0
M  V30 1269 H 129.636 -0.940386 4.06874 0
M  V30 1270 N 130.073 -1.45103 0.615059 0
M  V30 1271 C 131.003 -2.33339 -0.0865619 0
M  V30 1272 C 131.984 -1.4727 -0.851209 0
M  V30 1273 O 133.169 -1.76026 -0.820281 0
M  V30 1274 C 130.299 -3.30095 -1.07956 0
M  V30 1275 C 129.253 -4.25858 -0.427628 0
M  V30 1276 C 128.579 -5.12361 -1.5294 0
M  V30 1277 C 129.879 -5.18165 0.655944 0
M  V30 1278 H 131.573 -2.92254 0.650224 0
M  V30 1279 H 129.119 -1.40532 0.314138 0
M  V30 1280 H 131.072 -3.90698 -1.57901 0
M  V30 1281 H 129.796 -2.69355 -1.84703 0
M  V30 1282 H 128.455 -3.66564 0.0510292 0
M  V30 1283 H 128.103 -4.47984 -2.28734 0
M  V30 1284 H 127.803 -5.77238 -1.09865 0
M  V30 1285 H 129.327 -5.75833 -2.03098 0
M  V30 1286 H 130.741 -5.72796 0.240257 0
M  V30 1287 H 129.138 -5.91559 1.00888 0
M  V30 1288 H 130.208 -4.60144 1.52957 0
M  V30 1289 N 131.551 -0.354651 -1.53558 0
M  V30 1290 C 132.514 0.484566 -2.24019 0
M  V30 1291 C 133.514 1.01861 -1.24422 0
M  V30 1292 O 134.704 0.906097 -1.4878 0
M  V30 1293 C 131.836 1.67615 -2.96847 0
M  V30 1294 H 133.029 -0.131843 -2.9961 0
M  V30 1295 H 130.582 -0.106165 -1.55939 0
M  V30 1296 H 131.317 2.33095 -2.25471 0
M  V30 1297 H 131.102 1.30029 -3.69912 0
M  V30 1298 H 132.592 2.27114 -3.50441 0
M  V30 1299 N 133.029 1.57378 -0.0835403 0
M  V30 1300 C 134.275 1.95025 0.577664 0
M  V30 1301 C 134.63 0.964049 1.66505 0
M  V30 1302 O 133.923 -0.0118235 1.91596 0
M  V30 1303 C 134.117 3.37063 1.1884 0
M  V30 1304 C 133.946 4.49409 0.16171 0
M  V30 1305 C 132.716 5.04642 -0.257756 0
M  V30 1306 C 134.914 5.10722 -0.605634 0
M  V30 1307 N 132.896 6.00537 -1.27393 0
M  V30 1308 C 134.267 6.02225 -1.47395 0
M  V30 1309 C 136.322 4.93501 -0.660418 0
M  V30 1310 C 135.025 6.78355 -2.39221 0
M  V30 1311 C 137.051 5.70283 -1.56623 0
M  V30 1312 C 136.413 6.61444 -2.4222 0
M  V30 1313 H 132.512 0.760512 0.182058 0
M  V30 1314 H 135.096 1.94013 -0.163419 0
M  V30 1315 H 133.267 3.3879 1.89936 0
M  V30 1316 H 134.999 3.61917 1.81103 0
M  V30 1317 H 131.754 4.73428 0.127702 0
M  V30 1318 H 132.178 6.53184 -1.77987 0
M  V30 1319 H 136.82 4.22798 -0.0128221 0
M  V30 1320 H 134.538 7.48327 -3.05011 0
M  V30 1321 H 138.124 5.58976 -1.61361 0
M  V30 1322 H 137.004 7.1982 -3.11174 0
M  V30 1323 N 134.507 -0.190092 1.56449 0
M  V30 1324 C 135.732 -0.929864 1.85387 0
M  V30 1325 C 136.157 -1.7585 0.667704 0
M  V30 1326 O 135.515 -1.77198 -0.383459 0
M  V30 1327 C 135.563 -1.79773 3.12593 0
M  V30 1328 O 134.667 -2.89713 2.93496 0
M  V30 1329 H 134.008 -0.261574 0.610307 0
M  V30 1330 H 136.538 -0.193896 2.03679 0
M  V30 1331 H 136.548 -2.20139 3.43515 0
M  V30 1332 H 135.223 -1.18892 3.98544 0
M  V30 1333 H 133.8 -2.53065 2.73884 0
M  V30 1334 N 135.985 -1.50799 -0.457987 0
M  V30 1335 C 137.231 -1.62683 -1.21088 0
M  V30 1336 C 137.564 -0.332268 -1.91336 0
M  V30 1337 O 136.839 0.667043 -1.82704 0
M  V30 1338 C 137.122 -2.81615 -2.24422 0
M  V30 1339 C 136.975 -4.20989 -1.58392 0
M  V30 1340 C 138.294 -2.96085 -3.2561 0
M  V30 1341 H 135.413 -0.592087 -0.438864 0
M  V30 1342 H 138.055 -1.83225 -0.50286 0
M  V30 1343 H 136.205 -2.64231 -2.84806 0
M  V30 1344 H 137.877 -4.49994 -1.01504 0
M  V30 1345 H 136.12 -4.24641 -0.886704 0
M  V30 1346 H 136.791 -5.0016 -2.33547 0
M  V30 1347 H 139.267 -3.12042 -2.75262 0
M  V30 1348 H 138.143 -3.80902 -3.95228 0
M  V30 1349 H 138.404 -2.0726 -3.90507 0
M  V30 1350 N 137.463 0.71206 -1.40597 0
M  V30 1351 C 138.395 1.83704 -1.37061 0
M  V30 1352 C 139.408 1.60453 -0.275426 0
M  V30 1353 O 140.597 1.70262 -0.53602 0
M  V30 1354 C 137.697 3.20172 -1.11099 0
M  V30 1355 C 136.87 3.7059 -2.3234 0
M  V30 1356 C 135.929 4.85681 -2.02485 0
M  V30 1357 O 134.955 4.9815 -2.75382 0
M  V30 1358 N 136.157 5.71735 -1.00497 0
M  V30 1359 H 138.922 1.87235 -2.34016 0
M  V30 1360 H 136.483 0.893739 -1.34996 0
M  V30 1361 H 138.475 3.94768 -0.891064 0
M  V30 1362 H 137.045 3.11767 -0.227989 0
M  V30 1363 H 136.265 2.87085 -2.7014 0
M  V30 1364 H 137.553 4.01011 -3.13157 0
M  V30 1365 H 136.951 5.64275 -0.401298 0
M  V30 1366 H 135.508 6.463 -0.844942 0
M  V30 1367 N 138.941 1.26152 0.944643 0
M  V30 1368 C 140.169 1.14259 1.72489 0
M  V30 1369 C 140.584 -0.302555 1.8636 0
M  V30 1370 O 139.941 -1.20741 1.36849 0
M  V30 1371 C 139.992 1.80266 3.13347 0
M  V30 1372 O 139.713 3.19133 3.00143 0
M  V30 1373 C 141.214 1.74283 4.07603 0
M  V30 1374 H 138.434 0.398051 0.540181 0
M  V30 1375 H 140.978 1.66706 1.18446 0
M  V30 1376 H 139.133 1.31766 3.64303 0
M  V30 1377 H 139.547 3.51744 3.89071 0
M  V30 1378 H 141.021 2.25111 5.04013 0
M  V30 1379 H 141.498 0.708631 4.33446 0
M  V30 1380 H 142.104 2.22319 3.62567 0
M  V30 1381 N 140.419 -1.14872 1.07899 0
M  V30 1382 C 141.382 -2.17986 0.708161 0
M  V30 1383 C 142.382 -1.58775 -0.25442 0
M  V30 1384 O 143.572 -1.74166 -0.034645 0
M  V30 1385 C 140.704 -3.40871 0.0446929 0
M  V30 1386 H 141.897 -2.52306 1.62116 0
M  V30 1387 H 139.45 -1.2943 0.876218 0
M  V30 1388 H 140.185 -3.12124 -0.880281 0
M  V30 1389 H 139.97 -3.8511 0.737091 0
M  V30 1390 H 141.46 -4.17121 -0.19991 0
M  V30 1391 N 141.898 -0.863906 -1.31812 0
M  V30 1392 C 142.861 -0.320212 -2.26952 0
M  V30 1393 C 143.861 0.525369 -1.51975 0
M  V30 1394 O 145.051 0.335547 -1.70938 0
M  V30 1395 C 142.183 0.545919 -3.365 0
M  V30 1396 H 143.376 -1.16004 -2.76556 0
M  V30 1397 H 140.929 -0.638995 -1.42641 0
M  V30 1398 H 141.664 1.40718 -2.92179 0
M  V30 1399 H 141.449 -0.0594674 -3.92055 0
M  V30 1400 H 142.939 0.918796 -4.07367 0
M  V30 1401 N 143.376 1.44774 -0.622745 0
M  V30 1402 C 144.306 2.33382 0.0741861 0
M  V30 1403 C 145.287 1.47719 0.843387 0
M  V30 1404 O 146.472 1.76458 0.810934 0
M  V30 1405 C 143.602 3.30663 1.06204 0
M  V30 1406 C 142.556 4.26079 0.405037 0
M  V30 1407 C 141.882 5.13165 1.5022 0
M  V30 1408 C 143.182 5.1781 -0.683414 0
M  V30 1409 H 144.876 2.91905 -0.665713 0
M  V30 1410 H 142.422 1.40363 -0.321587 0
M  V30 1411 H 144.375 3.9153 1.55827 0
M  V30 1412 H 143.099 2.70331 1.83272 0
M  V30 1413 H 141.758 3.66532 -0.0704683 0
M  V30 1414 H 141.406 4.49191 2.26355 0
M  V30 1415 H 141.106 5.77812 1.06803 0
M  V30 1416 H 142.63 5.76902 2.00041 0
M  V30 1417 H 144.044 5.72661 -0.270631 0
M  V30 1418 H 142.441 5.91015 -1.04023 0
M  V30 1419 H 143.511 4.59326 -1.55395 0
M  V30 1420 N 144.854 0.36279 1.53368 0
M  V30 1421 C 145.817 -0.472679 2.24273 0
M  V30 1422 C 146.817 -1.012 1.24961 0
M  V30 1423 O 148.007 -0.898194 1.49259 0
M  V30 1424 C 145.139 -1.66039 2.97731 0
M  V30 1425 H 146.332 0.14773 2.99536 0
M  V30 1426 H 143.885 0.114434 1.55881 0
M  V30 1427 H 144.62 -2.31896 2.26704 0
M  V30 1428 H 144.405 -1.28066 3.70596 0
M  V30 1429 H 145.895 -2.25252 3.51641 0
M  V30 1430 N 146.332 -1.57332 0.0918853 0
M  V30 1431 C 147.748 -1.57389 -0.264766 0
M  V30 1432 C 147.948 -1.10281 -1.68643 0
M  V30 1433 O 147.004 -0.777801 -2.40222 0
M  V30 1434 C 148.317 -3.00648 -0.0561195 0
M  V30 1435 C 149.865 -3.12754 -0.124116 0
M  V30 1436 C 150.34 -4.57965 0.0564972 0
M  V30 1437 N 151.831 -4.632 0.00155611 0
M  V30 1438 C 152.566 -5.73281 0.116598 0
M  V30 1439 N 152.062 -6.92208 0.286294 0
M  V30 1440 N 153.855 -5.6207 0.0580973 0
M  V30 1441 H 146.006 -1.86262 1.02079 0
M  V30 1442 H 148.269 -0.859579 0.399786 0
M  V30 1443 H 147.975 -3.393 0.925669 0
M  V30 1444 H 147.849 -3.68623 -0.799823 0
M  V30 1445 H 150.236 -2.73976 -1.09641 0
M  V30 1446 H 150.317 -2.47377 0.651024 0
M  V30 1447 H 149.961 -4.97436 1.02564 0
M  V30 1448 H 149.891 -5.21399 -0.738297 0
M  V30 1449 H 152.382 -3.77686 -0.127192 0
M  V30 1450 H 152.695 -7.71934 0.365676 0
M  V30 1451 H 151.04 -6.94254 0.32192 0
M  V30 1452 H 154.231 -4.68043 -0.0733204 0
M  V30 1453 H 154.404 -6.47824 0.151203 0
M  V30 1454 N 147.81 0.181792 -1.56548 0
M  V30 1455 C 148.72 1.24538 -1.98815 0
M  V30 1456 C 149.736 1.49045 -0.897861 0
M  V30 1457 O 150.912 1.61399 -1.20467 0
M  V30 1458 C 147.977 2.56683 -2.33055 0
M  V30 1459 C 147.038 2.40131 -3.55859 0
M  V30 1460 C 146.271 3.65975 -3.88456 0
M  V30 1461 O 146.494 4.70711 -3.22161 0
M  V30 1462 O 145.428 3.6071 -4.81842 0
M  V30 1463 H 149.254 0.916647 -2.89536 0
M  V30 1464 H 146.839 0.387842 -1.44278 0
M  V30 1465 H 148.721 3.34655 -2.56094 0
M  V30 1466 H 147.396 2.89157 -1.45498 0
M  V30 1467 H 146.303 1.60226 -3.38051 0
M  V30 1468 H 147.636 2.12585 -4.43924 0
M  V30 1469 N 149.288 1.51039 0.449983 0
M  V30 1470 C 150.238 1.67824 1.54335 0
M  V30 1471 C 151.222 0.5324 1.51836 0
M  V30 1472 O 152.414 0.787762 1.58503 0
M  V30 1473 C 149.543 1.7951 2.92628 0
M  V30 1474 C 148.629 2.99838 2.9993 0
M  V30 1475 N 149.02 4.23207 2.77001 0
M  V30 1476 C 147.318 2.98832 3.31082 0
M  V30 1477 C 148.019 5.04361 2.89818 0
M  V30 1478 N 146.995 4.38746 3.2094 0
M  V30 1479 H 150.797 2.60884 1.35339 0
M  V30 1480 H 148.311 1.48513 0.657085 0
M  V30 1481 H 150.308 1.89642 3.7127 0
M  V30 1482 H 148.968 0.876227 3.12654 0
M  V30 1483 H 149.979 4.5236 2.52172 0
M  V30 1484 H 146.656 2.16527 3.56963 0
M  V30 1485 H 148.046 6.12528 2.76151 0
M  V30 1486 N 150.766 -0.704594 1.40972 0
M  V30 1487 C 151.714 -1.83994 1.42299 0
M  V30 1488 C 152.708 -1.66684 0.302111 0
M  V30 1489 O 153.914 -1.73655 0.473697 0
M  V30 1490 H 150.289 -0.606171 0.44504 0
M  V30 1491 H 152.26 -1.79992 2.38003 0
M  V30 1492 C 151.009 -3.21946 1.31323 0
M  V30 1493 H 150.332 -3.35878 2.16855 0
M  V30 1494 H 151.772 -4.01491 1.36311 0
M  V30 1495 C 150.231 -3.36891 0.0245977 0
M  V30 1496 O 150.761 -3.90687 -0.934153 0
M  V30 1497 N 148.967 -2.90559 -0.0485243 0
M  V30 1498 H 148.514 -2.46968 0.732419 0
M  V30 1499 H 148.472 -3.00937 -0.910171 0
M  V30 1500 N 152.244 -1.26651 -0.937939 0
M  V30 1501 C 153.192 -1.08308 -2.05845 0
M  V30 1502 C 154.186 -0.0090757 -1.69398 0
M  V30 1503 O 155.392 -0.166007 -1.79233 0
M  V30 1504 H 151.767 -0.333416 -0.674046 0
M  V30 1505 H 153.738 -2.03261 -2.18467 0
M  V30 1506 C 152.487 -0.736229 -3.39816 0
M  V30 1507 H 151.81 -1.55453 -3.6834 0
M  V30 1508 H 153.25 -0.64769 -4.19024 0
M  V30 1509 C 151.709 0.558824 -3.32233 0
M  V30 1510 O 152.239 1.59621 -3.68624 0
M  V30 1511 N 150.445 0.550657 -2.85335 0
M  V30 1512 H 149.992 -0.293943 -2.55917 0
M  V30 1513 H 149.95 1.41726 -2.80644 0
M  V30 1514 N 153.722 1.14298 -1.08507 0
M  V30 1515 C 154.685 2.17607 -0.719711 0
M  V30 1516 C 155.685 1.58907 0.245997 0
M  V30 1517 O 156.875 1.74181 0.0254081 0
M  V30 1518 C 154.007 3.40842 -0.0627695 0
M  V30 1519 H 155.2 2.51443 -1.63452 0
M  V30 1520 H 152.753 1.28963 -0.88307 0
M  V30 1521 H 153.488 3.12587 0.863716 0
M  V30 1522 H 153.273 3.84713 -0.757504 0
M  V30 1523 H 154.763 4.17221 0.177786 0
M  V30 1524 N 155.201 0.870884 1.31352 0
M  V30 1525 C 156.133 0.28455 2.27427 0
M  V30 1526 C 157.146 -0.552927 1.53123 0
M  V30 1527 O 158.335 -0.374771 1.74521 0
M  V30 1528 C 155.435 -0.615164 3.3327 0
M  V30 1529 C 154.608 0.190079 4.36987 0
M  V30 1530 C 153.667 -0.637917 5.22319 0
M  V30 1531 O 152.693 -0.065626 5.69162 0
M  V30 1532 N 153.895 -1.94973 5.46778 0
M  V30 1533 H 156.66 1.11017 2.7838 0
M  V30 1534 H 154.221 0.732458 1.44384 0
M  V30 1535 H 156.213 -1.1748 3.87273 0
M  V30 1536 H 154.783 -1.34146 2.82354 0
M  V30 1537 H 154.003 0.931165 3.83044 0
M  V30 1538 H 155.291 0.742579 5.03352 0
M  V30 1539 H 154.689 -2.4378 5.10478 0
M  V30 1540 H 153.246 -2.45713 6.03712 0
M  V30 1541 N 156.679 -1.44442 0.630414 0
M  V30 1542 C 157.609 -2.33418 -0.0618083 0
M  V30 1543 C 158.59 -1.48165 -0.835541 0
M  V30 1544 O 159.775 -1.76886 -0.801564 0
M  V30 1545 C 156.905 -3.31222 -1.04449 0
M  V30 1546 C 155.859 -4.26288 -0.382436 0
M  V30 1547 C 155.185 -5.13954 -1.47497 0
M  V30 1548 C 156.485 -5.1744 0.710865 0
M  V30 1549 H 158.179 -2.91548 0.681184 0
M  V30 1550 H 155.725 -1.40191 0.329026 0
M  V30 1551 H 157.678 -3.92351 -1.53748 0
M  V30 1552 H 156.402 -2.71299 -1.81836 0
M  V30 1553 H 155.061 -3.6649 0.0899054 0
M  V30 1554 H 154.709 -4.50385 -2.2397 0
M  V30 1555 H 154.409 -5.7837 -1.03737 0
M  V30 1556 H 155.933 -5.77955 -1.96979 0
M  V30 1557 H 157.347 -5.72509 0.300996 0
M  V30 1558 H 155.744 -5.90455 1.07156 0
M  V30 1559 H 156.814 -4.58496 1.57829 0
M  V30 1560 N 158.157 -0.370918 -1.53173 0
M  V30 1561 C 159.406 0.218249 -2.00516 0
M  V30 1562 C 159.719 1.49429 -1.26215 0
M  V30 1563 O 160.925 2.16239 -1.64174 0
M  V30 1564 C 159.381 0.43948 -3.57207 0
M  V30 1565 C 158.989 -0.822244 -4.4039 0
M  V30 1566 C 160.733 0.986012 -4.1289 0
M  V30 1567 C 158.64 -0.570304 -5.88644 0
M  V30 1568 H 157.57 0.0853333 -0.749156 0
M  V30 1569 H 160.221 -0.490483 -1.76823 0
M  V30 1570 H 158.603 1.20961 -3.77074 0
M  V30 1571 H 159.777 -1.59557 -4.32294 0
M  V30 1572 H 158.092 -1.29238 -3.95836 0
M  V30 1573 H 160.689 1.18991 -5.21292 0
M  V30 1574 H 161.032 1.94972 -3.6782 0
M  V30 1575 H 161.565 0.27592 -3.96842 0
M  V30 1576 H 158.304 -1.50449 -6.38001 0
M  V30 1577 H 157.824 0.164427 -5.99575 0
M  V30 1578 H 159.503 -0.19784 -6.46697 0
M  V30 1579 N 159.635 1.57281 -0.100228 0
M  V30 1580 C 160.883 1.94153 0.561157 0
M  V30 1581 C 161.204 0.983157 1.68401 0
M  V30 1582 O 160.474 0.0361132 1.95867 0
M  V30 1583 H 159.054 0.716791 0.210283 0
M  V30 1584 H 161.716 1.94202 -0.164765 0
M  V30 1585 H 160.812 2.96709 0.968008 0
M  V30 1586 N 161.113 -0.173488 1.56642 0
M  V30 1587 C 162.362 -0.888758 1.81063 0
M  V30 1588 C 162.675 -1.83506 0.67712 0
M  V30 1589 O 163.881 -2.59254 0.806206 0
M  V30 1590 C 162.337 -1.63091 3.20826 0
M  V30 1591 C 161.945 -0.728357 4.4204 0
M  V30 1592 C 163.689 -2.33454 3.54541 0
M  V30 1593 C 161.596 -1.47062 5.72823 0
M  V30 1594 H 160.526 -0.335618 0.675186 0
M  V30 1595 H 163.177 -0.141712 1.82952 0
M  V30 1596 H 161.559 -2.42263 3.13248 0
M  V30 1597 H 162.733 0.0262449 4.60793 0
M  V30 1598 H 161.048 -0.134492 4.16183 0
M  V30 1599 H 163.645 -2.89578 4.49498 0
M  V30 1600 H 163.988 -3.08687 2.79317 0
M  V30 1601 H 164.521 -1.61227 3.63663 0
M  V30 1602 H 161.26 -0.760658 6.51072 0
M  V30 1603 H 160.78 -2.1986 5.58052 0
M  V30 1604 H 162.459 -2.01868 6.14702 0
M  V30 1605 N 162.591 -1.51276 -0.441967 0
M  V30 1606 C 163.839 -1.63392 -1.18943 0
M  V30 1607 C 164.16 -0.350159 -1.9183 0
M  V30 1608 O 163.43 0.633784 -1.85364 0
M  V30 1609 H 162.01 -0.602164 -0.442049 0
M  V30 1610 H 164.672 -1.88186 -0.507165 0
M  V30 1611 H 163.768 -2.45934 -1.92154 0
M  V30 1612 N 164.069 0.697108 -1.41344 0
M  V30 1613 C 165.317 1.45426 -1.40341 0
M  V30 1614 C 165.638 1.94996 -0.0128787 0
M  V30 1615 O 164.908 1.71599 0.945027 0
M  V30 1616 H 163.488 0.539594 -0.516573 0
M  V30 1617 H 166.15 0.825201 -1.76569 0
M  V30 1618 H 165.246 2.31817 -2.08967 0
M  V30 1619 N 165.547 1.27147 0.931209 0
M  V30 1620 C 166.963 1.04475 1.20653 0
M  V30 1621 C 167.163 -0.223885 2.00252 0
M  V30 1622 O 166.219 -0.930332 2.34736 0
M  V30 1623 C 167.532 2.28209 1.95809 0
M  V30 1624 C 169.08 2.33211 2.08762 0
M  V30 1625 C 169.555 3.56665 2.87323 0
M  V30 1626 N 171.046 3.57201 2.94892 0
M  V30 1627 C 171.781 4.49395 3.56134 0
M  V30 1628 N 171.277 5.51889 4.18796 0
M  V30 1629 N 173.07 4.37026 3.53504 0
M  V30 1630 H 165.221 2.08612 0.399333 0
M  V30 1631 H 167.484 0.917312 0.239253 0
M  V30 1632 H 167.19 3.20538 1.44736 0
M  V30 1633 H 167.064 2.33247 2.96438 0
M  V30 1634 H 169.451 1.41391 2.59023 0
M  V30 1635 H 169.532 2.32178 1.07364 0
M  V30 1636 H 169.176 4.4882 2.37746 0
M  V30 1637 H 169.106 3.54948 3.88998 0
M  V30 1638 H 171.597 2.83074 2.50354 0
M  V30 1639 H 171.91 6.18409 4.63454 0
M  V30 1640 H 170.255 5.55735 4.17353 0
M  V30 1641 H 173.446 3.56166 3.03749 0
M  V30 1642 H 173.619 5.09067 4.00942 0
M  V30 1643 N 167.025 -1.13721 1.09112 0
M  V30 1644 C 167.958 -2.18094 0.67158 0
M  V30 1645 C 168.936 -1.59414 -0.320299 0
M  V30 1646 O 170.12 -1.87183 -0.222444 0
M  V30 1647 C 167.247 -3.38698 -0.0111189 0
M  V30 1648 C 166.293 -4.15966 0.942055 0
M  V30 1649 S 167.126 -4.7604 2.45246 0
M  V30 1650 C 168.282 -5.99994 1.78208 0
M  V30 1651 H 168.515 -2.53344 1.55577 0
M  V30 1652 H 166.048 -1.24967 0.906789 0
M  V30 1653 H 168.006 -4.08559 -0.398716 0
M  V30 1654 H 166.667 -3.01756 -0.871905 0
M  V30 1655 H 165.86 -5.02318 0.411396 0
M  V30 1656 H 165.462 -3.51745 1.2709 0
M  V30 1657 H 167.754 -6.68441 1.10424 0
M  V30 1658 H 168.697 -6.57662 2.62463 0
M  V30 1659 H 169.105 -5.50432 1.25238 0
M  V30 1660 N 168.503 -0.877838 -1.30888 0
M  V30 1661 C 169.453 -0.310872 -2.25871 0
M  V30 1662 C 170.437 0.556596 -1.50966 0
M  V30 1663 O 171.629 0.402187 -1.7237 0
M  V30 1664 C 168.758 0.479821 -3.3993 0
M  V30 1665 C 167.844 -0.401333 -4.22197 0
M  V30 1666 N 168.235 -1.49848 -4.83093 0
M  V30 1667 C 166.533 -0.195167 -4.45573 0
M  V30 1668 C 167.234 -2.0425 -5.44662 0
M  V30 1669 N 166.21 -1.33843 -5.26865 0
M  V30 1670 H 170.012 -1.1493 -2.70496 0
M  V30 1671 H 167.526 -0.726458 -1.45246 0
M  V30 1672 H 169.523 0.902582 -4.07012 0
M  V30 1673 H 168.183 1.31577 -2.96846 0
M  V30 1674 H 169.194 -1.88137 -4.82519 0
M  V30 1675 H 165.871 0.604192 -4.13105 0
M  V30 1676 H 167.261 -2.96345 -6.03017 0
M  V30 1677 N 169.982 1.44106 -0.638065 0
M  V30 1678 C 171.21 2.06336 -0.152615 0
M  V30 1679 C 171.625 1.47731 1.17563 0
M  V30 1680 O 170.982 0.602806 1.72257 0
M  V30 1681 C 171.033 3.61479 -0.0391491 0
M  V30 1682 O 170.754 4.17903 -1.31487 0
M  V30 1683 C 172.255 4.40757 0.474176 0
M  V30 1684 H 169.475 0.665862 -0.0828776 0
M  V30 1685 H 172.019 1.84862 -0.87443 0
M  V30 1686 H 170.174 3.82191 0.633142 0
M  V30 1687 H 170.588 5.11416 -1.16421 0
M  V30 1688 H 172.062 5.49707 0.502562 0
M  V30 1689 H 172.539 4.12697 1.50258 0
M  V30 1690 H 173.145 4.24979 -0.165102 0
M  V30 1691 N 171.46 0.379036 1.52974 0
M  V30 1692 C 172.706 -0.206727 2.01744 0
M  V30 1693 C 173.039 -1.47314 1.26539 0
M  V30 1694 O 172.314 -1.91084 0.362903 0
M  V30 1695 C 172.597 -0.485066 3.56818 0
M  V30 1696 C 172.45 0.795919 4.42702 0
M  V30 1697 C 173.769 -1.28003 4.21074 0
M  V30 1698 H 170.888 -0.0736607 0.73331 0
M  V30 1699 H 173.53 0.506581 1.83122 0
M  V30 1700 H 171.68 -1.09272 3.72816 0
M  V30 1701 H 173.352 1.43307 4.38476 0
M  V30 1702 H 171.595 1.41344 4.10127 0
M  V30 1703 H 172.266 0.555947 5.49193 0
M  V30 1704 H 174.742 -0.765867 4.08991 0
M  V30 1705 H 173.618 -1.44352 5.29579 0
M  V30 1706 H 173.879 -2.29236 3.78026 0
M  V30 1707 N 172.938 -1.57226 0.108567 0
M  V30 1708 C 173.901 -2.13602 -0.831082 0
M  V30 1709 C 174.901 -1.06841 -1.20173 0
M  V30 1710 O 176.091 -1.32666 -1.12895 0
M  V30 1711 C 173.223 -2.66769 -2.12243 0
M  V30 1712 H 174.416 -2.97951 -0.341317 0
M  V30 1713 H 171.969 -1.55667 -0.14057 0
M  V30 1714 H 172.704 -1.85977 -2.65675 0
M  V30 1715 H 172.489 -3.44839 -1.86625 0
M  V30 1716 H 173.979 -3.10332 -2.79435 0
M  V30 1717 N 174.416 0.165178 -1.56732 0
M  V30 1718 C 175.326 1.22423 -2.00125 0
M  V30 1719 C 176.342 1.48084 -0.913619 0
M  V30 1720 O 177.518 1.60112 -1.22172 0
M  V30 1721 C 174.583 2.54197 -2.35764 0
M  V30 1722 C 173.644 2.36343 -3.58386 0
M  V30 1723 C 172.877 3.61834 -3.92316 0
M  V30 1724 O 173.1 4.67267 -3.27135 0
M  V30 1725 O 172.034 3.55579 -4.85641 0
M  V30 1726 H 175.86 0.885886 -2.90492 0
M  V30 1727 H 173.445 0.372518 -1.44681 0
M  V30 1728 H 175.327 3.3192 -2.59629 0
M  V30 1729 H 174.002 2.87598 -1.48557 0
M  V30 1730 H 172.909 1.56632 -3.39731 0
M  V30 1731 H 174.242 2.07865 -4.46154 0
M  V30 1732 N 175.894 1.51508 0.433938 0
M  V30 1733 C 176.857 1.72473 1.50949 0
M  V30 1734 C 177.857 0.594725 1.49398 0
M  V30 1735 O 179.047 0.862315 1.5136 0
M  V30 1736 C 176.179 1.78431 2.90474 0
M  V30 1737 H 177.372 2.68467 1.33662 0
M  V30 1738 H 174.925 1.41549 0.662836 0
M  V30 1739 H 175.66 0.842645 3.13161 0
M  V30 1740 H 175.445 2.60558 2.93005 0
M  V30 1741 H 176.935 1.96479 3.68491 0
M  V30 1742 N 177.372 -0.689602 1.41712 0
M  V30 1743 C 178.302 -1.81577 1.46806 0
M  V30 1744 C 179.283 -1.66945 0.326105 0
M  V30 1745 O 180.468 -1.86588 0.538377 0
M  V30 1746 C 177.598 -3.19762 1.35535 0
M  V30 1747 C 176.552 -3.49107 2.47605 0
M  V30 1748 C 175.878 -4.86711 2.21397 0
M  V30 1749 C 177.178 -3.47483 3.89939 0
M  V30 1750 H 178.872 -1.7757 2.41058 0
M  V30 1751 H 176.418 -0.852887 1.16025 0
M  V30 1752 H 178.371 -3.98263 1.3771 0
M  V30 1753 H 177.095 -3.24409 0.377708 0
M  V30 1754 H 175.754 -2.72959 2.44722 0
M  V30 1755 H 175.402 -4.8799 1.21961 0
M  V30 1756 H 175.102 -5.0731 2.96497 0
M  V30 1757 H 176.626 -5.67515 2.25297 0
M  V30 1758 H 178.04 -4.1598 3.94505 0
M  V30 1759 H 176.437 -3.79615 4.64771 0
M  V30 1760 H 177.507 -2.46341 4.17665 0
M  V30 1761 N 178.85 -1.27639 -0.924453 0
M  V30 1762 C 179.813 -1.10681 -2.00705 0
M  V30 1763 C 180.813 -0.0497823 -1.60723 0
M  V30 1764 O 182.003 -0.294654 -1.7169 0
M  V30 1765 C 179.135 -0.687164 -3.33902 0
M  V30 1766 H 180.328 -2.06817 -2.17179 0
M  V30 1767 H 177.881 -1.10473 -1.10569 0
M  V30 1768 H 178.616 0.275439 -3.23128 0
M  V30 1769 H 178.401 -1.45061 -3.6428 0
M  V30 1770 H 179.891 -0.590853 -4.13399 0
M  V30 1771 N 180.328 1.1314 -1.09713 0
M  V30 1772 C 181.577 1.83838 -0.829851 0
M  V30 1773 C 181.89 1.84599 0.646728 0
M  V30 1774 O 183.096 2.51218 1.02965 0
M  V30 1775 C 181.552 3.30069 -1.43466 0
M  V30 1776 C 181.16 3.37688 -2.94399 0
M  V30 1777 C 182.904 4.05788 -1.24645 0
M  V30 1778 C 180.811 4.78209 -3.47952 0
M  V30 1779 H 179.741 0.68877 -0.306777 0
M  V30 1780 H 182.392 1.27448 -1.3202 0
M  V30 1781 H 180.774 3.8628 -0.871996 0
M  V30 1782 H 181.948 2.91456 -3.56918 0
M  V30 1783 H 180.263 2.75436 -3.12289 0
M  V30 1784 H 182.86 5.09535 -1.62107 0
M  V30 1785 H 183.203 4.15878 -0.187357 0
M  V30 1786 H 183.736 3.55915 -1.77678 0
M  V30 1787 H 180.475 4.73311 -4.53495 0
M  V30 1788 H 179.995 5.24924 -2.90198 0
M  V30 1789 H 181.674 5.47133 -3.45332 0
M  V30 1790 N 181.806 0.884767 1.30421 0
M  V30 1791 C 183.052 0.503851 1.96441 0
M  V30 1792 C 183.385 -0.944518 1.69684 0
M  V30 1793 O 182.66 -1.66737 1.00145 0
M  V30 1794 C 182.943 0.779085 3.51571 0
M  V30 1795 C 182.796 2.27807 3.87846 0
M  V30 1796 C 184.115 0.255452 4.39358 0
M  V30 1797 H 181.234 0.184533 0.713524 0
M  V30 1798 H 183.876 1.10872 1.54297 0
M  V30 1799 H 182.026 0.264274 3.876 0
M  V30 1800 H 183.698 2.86127 3.61841 0
M  V30 1801 H 181.941 2.74479 3.35922 0
M  V30 1802 H 182.612 2.42125 4.96064 0
M  V30 1803 H 185.088 0.696079 4.10236 0
M  V30 1804 H 183.964 0.477361 5.4682 0
M  V30 1805 H 184.225 -0.843293 4.33983 0
M  V30 1806 N 183.284 -1.43765 0.645699 0
M  V30 1807 C 184.561 -1.9541 0.0862963 0
M  V30 1808 C 184.941 -1.58725 -1.39175 0
M  V30 1809 O 184.289 -0.868581 -2.11348 0
M  V30 1810 C 184.499 -3.47488 0.324565 0
M  V30 1811 C 185.847 -4.24001 0.225497 0
M  V30 1812 O 186.871 -3.55274 0.256715 0
M  V30 1813 O 185.73 -5.46313 0.142801 0
M  V30 1814 H 182.824 -0.826882 -0.0139483 0
M  V30 1815 H 185.37 -1.53743 0.718415 0
M  V30 1816 H 184.142 -3.67289 1.3496 0
M  V30 1817 H 183.765 -3.96135 -0.340987 0
M  V30 1818 N 184.763 -0.387143 -1.52771 0
M  V30 1819 C 185.726 0.436939 -2.24997 0
M  V30 1820 C 186.726 0.991991 -1.26555 0
M  V30 1821 O 187.916 0.874335 -1.50669 0
M  V30 1822 C 185.048 1.61281 -3.00335 0
M  V30 1823 H 186.241 -0.195365 -2.99263 0
M  V30 1824 H 183.794 -0.139218 -1.55679 0
M  V30 1825 H 184.529 2.2826 -2.30364 0
M  V30 1826 H 184.314 1.22154 -3.72587 0
M  V30 1827 H 185.804 2.19629 -3.5518 0
M  V30 1828 N 186.241 1.57166 -0.116904 0
M  V30 1829 C 187.488 1.95123 0.541603 0
M  V30 1830 C 187.816 1.00006 1.6682 0
M  V30 1831 O 187.071 0.0235658 1.95686 0
M  V30 1832 C 187.37 3.39508 1.11664 0
M  V30 1833 C 187.036 4.50762 0.111606 0
M  V30 1834 C 185.698 4.80918 -0.164758 0
M  V30 1835 C 188.05 5.18036 -0.573438 0
M  V30 1836 C 185.378 5.75666 -1.13249 0
M  V30 1837 C 187.73 6.13824 -1.52978 0
M  V30 1838 C 186.394 6.42374 -1.81415 0
M  V30 1839 H 185.664 0.714005 0.198187 0
M  V30 1840 H 188.311 1.9048 -0.197365 0
M  V30 1841 H 186.616 3.40835 1.93232 0
M  V30 1842 H 188.313 3.66189 1.63422 0
M  V30 1843 H 184.903 4.27272 0.337192 0
M  V30 1844 H 189.087 4.94896 -0.373092 0
M  V30 1845 H 184.343 5.96092 -1.35958 0
M  V30 1846 H 188.517 6.65039 -2.06629 0
M  V30 1847 H 186.144 7.15599 -2.56557 0
M  V30 1848 N 187.719 -0.156864 1.56817 0
M  V30 1849 C 188.965 -0.872416 1.83076 0
M  V30 1850 C 189.298 -1.81261 0.697001 0
M  V30 1851 O 188.573 -1.92171 -0.30008 0
M  V30 1852 C 188.856 -1.65551 3.19789 0
M  V30 1853 C 188.709 -0.737467 4.43713 0
M  V30 1854 C 190.028 -2.62012 3.53606 0
M  V30 1855 H 187.147 -0.315715 0.665953 0
M  V30 1856 H 189.789 -0.138004 1.89498 0
M  V30 1857 H 187.939 -2.28159 3.14445 0
M  V30 1858 H 189.611 -0.123143 4.61136 0
M  V30 1859 H 187.854 -0.0464067 4.33775 0
M  V30 1860 H 188.525 -1.32122 5.35955 0
M  V30 1861 H 191.001 -2.09525 3.59497 0
M  V30 1862 H 189.877 -3.13861 4.50314 0
M  V30 1863 H 190.138 -3.42902 2.79053 0
M  V30 1864 N 189.197 -1.51736 -0.425897 0
M  V30 1865 C 190.425 -1.68794 -1.1965 0
M  V30 1866 C 190.84 -0.390164 -1.84725 0
M  V30 1867 O 190.197 0.632376 -1.71194 0
M  V30 1868 C 190.248 -2.81174 -2.27208 0
M  V30 1869 O 189.969 -4.05925 -1.64793 0
M  V30 1870 C 191.47 -3.09599 -3.17275 0
M  V30 1871 H 188.69 -0.566128 -0.360194 0
M  V30 1872 H 191.234 -1.98211 -0.503249 0
M  V30 1873 H 189.389 -2.54324 -2.9223 0
M  V30 1874 H 189.803 -4.68423 -2.35967 0
M  V30 1875 H 191.277 -3.91786 -3.88854 0
M  V30 1876 H 191.754 -2.22468 -3.78688 0
M  V30 1877 H 192.36 -3.38151 -2.57941 0
M  V30 1878 N 190.675 0.682077 -1.42076 0
M  V30 1879 C 191.903 1.47057 -1.4554 0
M  V30 1880 C 192.318 1.8869 -0.0645779 0
M  V30 1881 O 191.675 1.57666 0.919115 0
M  V30 1882 C 191.726 2.72442 -2.37609 0
M  V30 1883 O 191.447 2.32559 -3.71279 0
M  V30 1884 C 192.948 3.66069 -2.50017 0
M  V30 1885 H 190.168 0.452737 -0.495248 0
M  V30 1886 H 192.712 0.838695 -1.8651 0
M  V30 1887 H 190.867 3.31835 -1.9991 0
M  V30 1888 H 191.281 3.13475 -4.20516 0
M  V30 1889 H 192.755 4.50792 -3.18576 0
M  V30 1890 H 193.232 4.11476 -1.53572 0
M  V30 1891 H 193.838 3.12572 -2.88407 0
M  V30 1892 N 192.153 1.28127 0.917671 0
M  V30 1893 C 193.564 1.13622 1.48145 0
M  V30 1894 C 193.915 -0.275207 1.9426 0
M  V30 1895 O 193.04 -1.1691 1.82102 0
M  V30 1896 C 193.635 2.05648 2.69248 0
M  V30 1897 C 192.194 1.95219 3.21818 0
M  V30 1898 C 191.341 1.97618 1.94532 0
M  V30 1899 H 194.292 1.40874 0.730772 0
M  V30 1900 H 194.313 1.61818 3.44377 0
M  V30 1901 H 193.825 3.08365 2.35653 0
M  V30 1902 H 191.926 0.955244 3.60147 0
M  V30 1903 H 192.039 2.81976 3.87333 0
M  V30 1904 H 190.403 1.41973 2.11461 0
M  V30 1905 H 191.186 3.02007 1.63238 0
M  V30 1906 N 193.631 -1.12557 1.10312 0
M  V30 1907 C 194.877 -1.84515 0.855901 0
M  V30 1908 C 195.232 -1.82409 -0.611936 0
M  V30 1909 O 194.525 -1.25778 -1.44535 0
M  V30 1910 C 194.719 -3.31462 1.33669 0
M  V30 1911 C 194.548 -3.47879 2.84974 0
M  V30 1912 C 193.318 -3.61589 3.52961 0
M  V30 1913 C 195.516 -3.43152 3.83081 0
M  V30 1914 N 193.498 -3.66359 4.926 0
M  V30 1915 C 194.869 -3.54401 5.08724 0
M  V30 1916 C 196.924 -3.2661 3.75807 0
M  V30 1917 C 195.627 -3.50815 6.2795 0
M  V30 1918 C 197.653 -3.24335 4.94531 0
M  V30 1919 C 197.015 -3.36144 6.19021 0
M  V30 1920 H 193.114 -0.690967 0.366182 0
M  V30 1921 H 195.698 -1.34763 1.40524 0
M  V30 1922 H 193.869 -3.7976 0.814686 0
M  V30 1923 H 195.601 -3.91272 1.03385 0
M  V30 1924 H 192.356 -3.63652 3.03404 0
M  V30 1925 H 192.78 -3.72411 5.65366 0
M  V30 1926 H 197.422 -3.16375 2.80476 0
M  V30 1927 H 195.14 -3.5982 7.23571 0
M  V30 1928 H 198.726 -3.12719 4.9061 0
M  V30 1929 H 197.606 -3.34357 7.09348 0
M  V30 1930 N 195.109 -0.891671 -1.2995 0
M  V30 1931 C 196.334 -0.527932 -2.00568 0
M  V30 1932 C 196.759 0.877969 -1.66353 0
M  V30 1933 O 196.117 1.58301 -0.883762 0
M  V30 1934 C 196.165 -0.717745 -3.53385 0
M  V30 1935 O 195.269 0.233376 -4.11739 0
M  V30 1936 H 194.61 -0.20722 -0.630837 0
M  V30 1937 H 197.14 -1.20105 -1.65638 0
M  V30 1938 H 197.15 -0.619307 -4.03272 0
M  V30 1939 H 195.825 -1.74276 -3.77625 0
M  V30 1940 H 194.402 0.0880706 -3.72796 0
M  V30 1941 N 196.587 1.43421 -0.653314 0
M  V30 1942 C 197.534 2.30768 0.0382271 0
M  V30 1943 C 198.504 1.44755 0.814576 0
M  V30 1944 O 199.689 1.73624 0.791162 0
M  V30 1945 C 196.829 3.30336 0.998599 0
M  V30 1946 C 195.942 4.31448 0.218342 0
M  V30 1947 C 195.077 5.18098 1.17252 0
M  V30 1948 C 194.116 6.10902 0.382702 0
M  V30 1949 N 193.253 6.90176 1.28848 0
M  V30 1950 H 198.093 2.89357 -0.712511 0
M  V30 1951 H 195.63 1.42548 -0.363128 0
M  V30 1952 H 197.588 3.86572 1.56901 0
M  V30 1953 H 196.218 2.73397 1.71621 0
M  V30 1954 H 195.27 3.77506 -0.46836 0
M  V30 1955 H 196.582 4.97227 -0.395812 0
M  V30 1956 H 195.736 5.7896 1.81356 0
M  V30 1957 H 194.475 4.52444 1.82058 0
M  V30 1958 H 193.48 5.49128 -0.27169 0
M  V30 1959 H 194.705 6.78598 -0.260957 0
M  V30 1960 H 192.651 6.27171 1.92334 0
M  V30 1961 H 192.568 7.52478 0.728887 0
M  V30 1962 H 193.836 7.55543 1.91766 0
M  V30 1963 N 198.065 0.39524 1.52563 0
M  V30 1964 C 199.028 -0.425001 2.25225 0
M  V30 1965 C 200.028 -0.985266 1.27079 0
M  V30 1966 O 201.218 -0.866332 1.5113 0
M  V30 1967 C 198.35 -1.59686 3.01186 0
M  V30 1968 H 199.543 0.211233 2.99155 0
M  V30 1969 H 197.096 0.147472 1.55603 0
M  V30 1970 H 197.831 -2.27035 2.31572 0
M  V30 1971 H 197.616 -1.20176 3.73229 0
M  V30 1972 H 199.106 -2.17743 3.5634 0
M  V30 1973 N 199.544 -1.57102 0.125237 0
M  V30 1974 C 200.476 -2.12726 -0.853237 0
M  V30 1975 C 201.489 -1.07145 -1.22571 0
M  V30 1976 O 202.678 -1.34497 -1.17358 0
M  V30 1977 C 199.778 -2.61709 -2.15317 0
M  V30 1978 C 198.951 -3.91456 -1.95143 0
M  V30 1979 C 198.01 -4.25973 -3.08923 0
M  V30 1980 O 197.036 -4.94682 -2.81564 0
M  V30 1981 N 198.238 -3.83795 -4.35524 0
M  V30 1982 H 201.003 -2.97307 -0.377964 0
M  V30 1983 H 198.564 -1.61792 -0.0590011 0
M  V30 1984 H 200.556 -2.81826 -2.90441 0
M  V30 1985 H 199.126 -1.81974 -2.54174 0
M  V30 1986 H 198.346 -3.80185 -1.04177 0
M  V30 1987 H 199.634 -4.76283 -1.78976 0
M  V30 1988 H 199.032 -3.2839 -4.60626 0
M  V30 1989 H 197.589 -4.09008 -5.07499 0
M  V30 1990 N 201.022 0.148545 -1.56898 0
M  V30 1991 C 202.438 0.501131 -1.51528 0
M  V30 1992 C 202.638 1.83458 -0.833399 0
M  V30 1993 O 201.694 2.49259 -0.40328 0
M  V30 1994 C 203.007 0.512864 -2.96294 0
M  V30 1995 C 204.555 0.598487 -3.07225 0
M  V30 1996 C 205.03 0.640897 -4.53494 0
M  V30 1997 N 206.521 0.703163 -4.57832 0
M  V30 1998 C 207.256 0.756935 -5.68382 0
M  V30 1999 N 206.752 0.770147 -6.88506 0
M  V30 2000 N 208.545 0.797698 -5.56411 0
M  V30 2001 H 200.696 -0.725532 -1.99624 0
M  V30 2002 H 202.959 -0.264358 -0.910395 0
M  V30 2003 H 202.665 -0.398691 -3.49433 0
M  V30 2004 H 202.539 1.35133 -3.52163 0
M  V30 2005 H 204.926 1.50046 -2.54106 0
M  V30 2006 H 205.007 -0.267093 -2.54402 0
M  V30 2007 H 204.651 -0.256915 -5.0725 0
M  V30 2008 H 204.581 1.52295 -5.04097 0
M  V30 2009 H 207.072 0.700314 -3.71354 0
M  V30 2010 H 207.385 0.812983 -7.68512 0
M  V30 2011 H 205.73 0.738049 -6.9107 0
M  V30 2012 H 208.921 0.784535 -4.61479 0
M  V30 2013 H 209.094 0.83614 -6.42583 0
M  V30 2014 N 202.5 1.5196 0.417844 0
M  V30 2015 C 203.45 1.7106 1.5074 0
M  V30 2016 C 204.434 0.564487 1.50673 0
M  V30 2017 O 205.626 0.821206 1.56797 0
M  V30 2018 C 202.755 1.85677 2.88754 0
M  V30 2019 C 201.841 3.06133 2.93502 0
M  V30 2020 N 202.232 4.28987 2.67962 0
M  V30 2021 C 200.53 3.05787 3.24669 0
M  V30 2022 C 201.231 5.10395 2.79055 0
M  V30 2023 N 200.207 4.45455 3.11561 0
M  V30 2024 H 204.009 2.63696 1.29775 0
M  V30 2025 H 201.523 1.49873 0.625436 0
M  V30 2026 H 203.52 1.97475 3.67164 0
M  V30 2027 H 202.18 0.942348 3.10725 0
M  V30 2028 H 203.191 4.57607 2.4252 0
M  V30 2029 H 199.868 2.2405 3.52289 0
M  V30 2030 H 201.258 6.18247 2.63097 0
M  V30 2031 N 203.978 -0.674533 1.42435 0
M  V30 2032 C 204.91 -1.80005 1.41883 0
M  V30 2033 C 205.923 -1.59667 0.31787 0
M  V30 2034 O 207.112 -1.68781 0.580973 0
M  V30 2035 C 204.212 -3.17114 1.19549 0
M  V30 2036 C 203.385 -3.64299 2.42084 0
M  V30 2037 C 202.444 -4.80142 2.15291 0
M  V30 2038 O 201.47 -4.90673 2.88493 0
M  V30 2039 N 202.672 -5.68869 1.1562 0
M  V30 2040 H 205.437 -1.80964 2.38898 0
M  V30 2041 H 202.998 -0.857633 1.37318 0
M  V30 2042 H 204.99 -3.92267 0.995417 0
M  V30 2043 H 203.56 -3.11053 0.310569 0
M  V30 2044 H 202.78 -2.79822 2.77657 0
M  V30 2045 H 204.068 -3.92567 3.23679 0
M  V30 2046 H 203.466 -5.63012 0.550765 0
M  V30 2047 H 202.023 -6.43833 1.016 0
M  V30 2048 N 205.456 -1.28612 -0.910864 0
M  V30 2049 C 206.872 -1.06381 -1.18976 0
M  V30 2050 C 207.072 0.191998 -2.00583 0
M  V30 2051 O 206.128 0.892869 -2.36187 0
M  V30 2052 C 207.441 -2.31295 -1.92154 0
M  V30 2053 C 208.989 -2.36503 -2.05025 0
M  V30 2054 C 209.464 -3.61191 -2.81612 0
M  V30 2055 N 210.955 -3.61847 -2.89172 0
M  V30 2056 C 211.69 -4.55004 -3.4894 0
M  V30 2057 N 211.186 -5.58482 -4.09963 0
M  V30 2058 N 212.979 -4.42594 -3.46506 0
M  V30 2059 H 205.13 -2.09221 -0.366094 0
M  V30 2060 H 207.393 -0.921003 -0.224629 0
M  V30 2061 H 207.099 -3.228 -1.39618 0
M  V30 2062 H 206.973 -2.37934 -2.9269 0
M  V30 2063 H 209.36 -1.45494 -2.5674 0
M  V30 2064 H 209.441 -2.33857 -1.03657 0
M  V30 2065 H 209.085 -4.52545 -2.30576 0
M  V30 2066 H 209.015 -3.61092 -3.83302 0
M  V30 2067 H 211.506 -2.87022 -2.45819 0
M  V30 2068 H 211.819 -6.25704 -4.53557 0
M  V30 2069 H 210.164 -5.62305 -4.08459 0
M  V30 2070 H 213.355 -3.60953 -2.98045 0
M  V30 2071 H 213.528 -5.15381 -3.92793 0
M  V30 2072 N 206.934 1.1197 -1.10907 0
M  V30 2073 C 208.35 1.35591 -0.841852 0
M  V30 2074 C 208.55 1.94233 0.536246 0
M  V30 2075 O 207.606 2.1717 1.28816 0
M  V30 2076 C 208.919 2.29284 -1.94549 0
M  V30 2077 C 210.467 2.42862 -1.97451 0
M  V30 2078 C 210.942 3.39873 -3.07002 0
M  V30 2079 N 212.433 3.47433 -3.06341 0
M  V30 2080 C 213.168 4.22421 -3.87748 0
M  V30 2081 N 212.664 5.00432 -4.79103 0
M  V30 2082 N 214.457 4.17876 -3.75946 0
M  V30 2083 H 206.608 0.722664 -1.99728 0
M  V30 2084 H 208.871 0.380635 -0.868229 0
M  V30 2085 H 208.577 1.93378 -2.93765 0
M  V30 2086 H 208.451 3.29452 -1.83688 0
M  V30 2087 H 210.838 2.78046 -0.988645 0
M  V30 2088 H 210.919 1.42566 -2.12388 0
M  V30 2089 H 210.563 3.05417 -4.05811 0
M  V30 2090 H 210.493 4.40011 -2.89306 0
M  V30 2091 H 212.984 2.91784 -2.40147 0
M  V30 2092 H 213.297 5.55002 -5.37766 0
M  V30 2093 H 211.642 4.99612 -4.83128 0
M  V30 2094 H 214.833 3.56016 -3.03924 0
M  V30 2095 H 215.006 4.76061 -4.39624 0
M  V30 2096 N 208.412 0.89855 1.29475 0
M  V30 2097 C 209.661 0.519863 1.94885 0
M  V30 2098 C 209.974 -0.9383 1.71625 0
M  V30 2099 O 211.18 -1.42445 2.31131 0
M  V30 2100 C 209.636 0.878836 3.49005 0
M  V30 2101 C 209.244 2.35569 3.81066 0
M  V30 2102 C 210.988 0.570004 4.20656 0
M  V30 2103 C 208.895 2.65558 5.28425 0
M  V30 2104 H 207.825 0.190692 0.729488 0
M  V30 2105 H 210.476 1.09539 1.47219 0
M  V30 2106 H 208.858 0.232253 3.95318 0
M  V30 2107 H 210.032 3.04773 3.45616 0
M  V30 2108 H 208.347 2.63343 3.22552 0
M  V30 2109 H 210.944 0.770925 5.29113 0
M  V30 2110 H 211.287 -0.491404 4.1339 0
M  V30 2111 H 211.82 1.17438 3.8007 0
M  V30 2112 H 208.559 3.70493 5.40754 0
M  V30 2113 H 208.079 2.00977 5.65127 0
M  V30 2114 H 209.758 2.51765 5.96006 0
M  V30 2115 N 209.89 -1.43072 0.660911 0
M  V30 2116 C 211.167 -1.95307 0.107017 0
M  V30 2117 C 211.547 -1.60192 -1.37484 0
M  V30 2118 O 210.895 -0.890949 -2.10415 0
M  V30 2119 C 211.105 -3.47124 0.361402 0
M  V30 2120 C 212.453 -4.23738 0.270455 0
M  V30 2121 O 213.477 -3.54981 0.294382 0
M  V30 2122 O 212.336 -5.46131 0.200737 0
M  V30 2123 H 209.43 -0.826984 -0.00517729 0
M  V30 2124 H 211.976 -1.52972 0.734681 0
M  V30 2125 H 210.748 -3.65837 1.38848 0
M  V30 2126 H 210.371 -3.96475 -0.298953 0
M  V30 2127 N 211.368 -0.403325 -1.52352 0
M  V30 2128 C 212.617 0.175668 -2.00934 0
M  V30 2129 C 212.93 1.46718 -1.29356 0
M  V30 2130 O 214.136 2.12708 -1.68724 0
M  V30 2131 C 212.592 0.363612 -3.58058 0
M  V30 2132 C 212.2 -0.915472 -4.38547 0
M  V30 2133 C 213.944 0.89821 -4.14888 0
M  V30 2134 C 211.851 -0.695035 -5.87302 0
M  V30 2135 H 210.781 0.0694234 -0.750797 0
M  V30 2136 H 213.432 -0.527879 -1.75743 0
M  V30 2137 H 211.814 1.12935 -3.79555 0
M  V30 2138 H 212.988 -1.68691 -4.28812 0
M  V30 2139 H 211.303 -1.37606 -3.93006 0
M  V30 2140 H 213.9 1.07907 -5.23699 0
M  V30 2141 H 214.243 1.87126 -3.71873 0
M  V30 2142 H 214.776 0.191681 -3.97338 0
M  V30 2143 H 211.515 -1.63948 -6.34666 0
M  V30 2144 H 211.035 0.0372116 -5.99788 0
M  V30 2145 H 212.714 -0.33497 -6.46132 0
M  V30 2146 N 212.846 1.57033 -0.133567 0
M  V30 2147 C 213.776 2.1909 0.807567 0
M  V30 2148 C 214.757 1.13517 1.26681 0
M  V30 2149 O 215.942 1.41809 1.32679 0
M  V30 2150 C 213.072 2.80188 2.05212 0
M  V30 2151 C 212.026 3.91471 1.73015 0
M  V30 2152 C 211.352 4.39443 3.04622 0
M  V30 2153 C 212.652 5.12886 0.987168 0
M  V30 2154 H 214.346 2.97988 0.290403 0
M  V30 2155 H 211.892 1.43335 0.138239 0
M  V30 2156 H 213.845 3.22264 2.71521 0
M  V30 2157 H 212.569 1.98601 2.59278 0
M  V30 2158 H 211.228 3.49993 1.0909 0
M  V30 2159 H 210.876 3.54695 3.56651 0
M  V30 2160 H 210.576 5.14495 2.83847 0
M  V30 2161 H 212.1 4.8418 3.72024 0
M  V30 2162 H 213.514 5.51891 1.55208 0
M  V30 2163 H 211.911 5.93615 0.87985 0
M  V30 2164 H 212.981 4.84894 -0.0235286 0
M  V30 2165 N 214.325 -0.140222 1.56975 0
M  V30 2166 C 215.288 -1.15689 1.97861 0
M  V30 2167 C 216.288 -1.3549 0.865974 0
M  V30 2168 O 217.478 -1.32367 1.13246 0
M  V30 2169 C 214.61 -2.51582 2.30042 0
M  V30 2170 H 215.803 -0.805971 2.88867 0
M  V30 2171 H 213.356 -0.383801 1.51515 0
M  V30 2172 H 214.091 -2.91632 1.41849 0
M  V30 2173 H 213.876 -2.38569 3.11171 0
M  V30 2174 H 215.366 -3.24792 2.62488 0
M  V30 2175 N 215.803 -1.52179 -0.40978 0
M  V30 2176 C 216.713 -1.78364 -1.52392 0
M  V30 2177 C 217.729 -0.669183 -1.60617 0
M  V30 2178 O 218.905 -0.954518 -1.77344 0
M  V30 2179 C 215.97 -1.92822 -2.88133 0
M  V30 2180 C 215.031 -3.16725 -2.898 0
M  V30 2181 C 214.264 -3.30483 -4.19067 0
M  V30 2182 O 214.487 -2.49522 -5.12928 0
M  V30 2183 O 213.421 -4.2363 -4.27576 0
M  V30 2184 H 217.247 -2.72931 -1.33201 0
M  V30 2185 H 214.832 -1.37016 -0.59557 0
M  V30 2186 H 216.714 -2.04157 -3.68643 0
M  V30 2187 H 215.389 -1.01444 -3.07393 0
M  V30 2188 H 214.296 -3.10848 -2.08146 0
M  V30 2189 H 215.629 -4.07881 -2.75489 0
M  V30 2190 N 217.281 0.66697 -1.42791 0
M  V30 2191 C 218.511 1.45294 -1.46878 0
M  V30 2192 C 218.919 1.89027 -0.0809861 0
M  V30 2193 O 218.262 1.59219 0.916246 0
M  V30 2194 C 218.324 2.72908 -2.34012 0
M  V30 2195 C 217.988 2.51203 -3.81767 0
M  V30 2196 C 218.985 2.15302 -4.73224 0
M  V30 2197 C 216.67 2.65954 -4.26115 0
M  V30 2198 C 218.664 1.94431 -6.07022 0
M  V30 2199 C 216.351 2.44699 -5.59969 0
M  V30 2200 C 217.349 2.08992 -6.5024 0
M  V30 2201 O 217.037 1.87948 -7.81621 0
M  V30 2202 H 216.769 0.453306 -0.501487 0
M  V30 2203 H 219.323 0.826232 -1.88049 0
M  V30 2204 H 217.553 3.38089 -1.87703 0
M  V30 2205 H 219.242 3.34816 -2.29462 0
M  V30 2206 H 220.008 2.03495 -4.40244 0
M  V30 2207 H 215.887 2.92724 -3.56137 0
M  V30 2208 H 219.431 1.66484 -6.77443 0
M  V30 2209 H 215.328 2.56105 -5.9252 0
M  V30 2210 H 216.096 2.02483 -7.93059 0
M  V30 2211 N 218.759 1.29093 0.90403 0
M  V30 2212 C 219.669 1.15727 2.0407 0
M  V30 2213 C 220.685 0.0815308 1.73809 0
M  V30 2214 O 221.861 0.292749 1.99261 0
M  V30 2215 C 218.926 0.830424 3.36608 0
M  V30 2216 C 217.987 1.98955 3.80415 0
M  V30 2217 C 217.22 1.6782 5.06628 0
M  V30 2218 O 217.443 0.597105 5.67266 0
M  V30 2219 O 216.377 2.52486 5.46383 0
M  V30 2220 H 220.203 2.11171 2.18267 0
M  V30 2221 H 217.788 1.08504 1.027 0
M  V30 2222 H 219.67 0.662521 4.16159 0
M  V30 2223 H 218.345 -0.0942678 3.23563 0
M  V30 2224 H 217.252 2.21267 3.01648 0
M  V30 2225 H 218.585 2.89529 3.98037 0
M  V30 2226 N 220.237 -1.11381 1.11499 0
M  V30 2227 C 221.653 -1.35143 0.849031 0
M  V30 2228 C 221.853 -1.94515 -0.525938 0
M  V30 2229 O 220.909 -2.1785 -1.27662 0
M  V30 2230 C 222.222 -2.28249 1.95762 0
M  V30 2231 C 223.77 -2.41812 1.98736 0
M  V30 2232 C 224.245 -3.3824 3.088 0
M  V30 2233 N 225.736 -3.45803 3.08179 0
M  V30 2234 C 226.471 -4.20358 3.89982 0
M  V30 2235 N 225.967 -4.97884 4.8175 0
M  V30 2236 N 227.76 -4.15877 3.78157 0
M  V30 2237 H 219.911 -0.712062 2.00109 0
M  V30 2238 H 222.174 -0.376025 0.870235 0
M  V30 2239 H 221.88 -1.91817 2.94787 0
M  V30 2240 H 221.754 -3.28473 1.85433 0
M  V30 2241 H 224.141 -2.77518 1.00338 0
M  V30 2242 H 224.222 -1.41437 2.13141 0
M  V30 2243 H 223.866 -3.03261 4.07425 0
M  V30 2244 H 223.796 -4.38471 2.91635 0
M  V30 2245 H 226.287 -2.90506 2.41691 0
M  V30 2246 H 226.6 -5.52142 5.40702 0
M  V30 2247 H 224.945 -4.97043 4.85771 0
M  V30 2248 H 228.136 -3.544 3.05808 0
M  V30 2249 H 228.309 -4.73723 4.42143 0
M  V30 2250 N 221.715 -0.905404 -1.28997 0
M  V30 2251 C 222.943 -0.549846 -1.9946 0
M  V30 2252 C 223.358 0.866834 -1.67724 0
M  V30 2253 O 222.715 1.57298 -0.925404 0
M  V30 2254 C 222.766 -0.739387 -3.53858 0
M  V30 2255 O 222.487 -2.10031 -3.84472 0
M  V30 2256 C 223.988 -0.389541 -4.41585 0
M  V30 2257 H 221.208 -0.210429 -0.637151 0
M  V30 2258 H 223.752 -1.21632 -1.64396 0
M  V30 2259 H 221.907 -0.120023 -3.87214 0
M  V30 2260 H 222.321 -2.13385 -4.79132 0
M  V30 2261 H 223.795 -0.572972 -5.49018 0
M  V30 2262 H 224.272 0.673756 -4.34001 0
M  V30 2263 H 224.878 -0.986089 -4.1371 0
M  V30 2264 N 223.193 1.4272 -0.668489 0
M  V30 2265 C 224.143 2.27971 0.0363806 0
M  V30 2266 C 225.127 1.40741 0.779794 0
M  V30 2267 O 226.319 1.64245 0.659745 0
M  V30 2268 C 223.448 3.28673 0.991398 0
M  V30 2269 C 222.534 4.23388 0.245658 0
M  V30 2270 N 222.925 5.00267 -0.746069 0
M  V30 2271 C 221.223 4.43355 0.484988 0
M  V30 2272 C 221.924 5.69396 -1.19009 0
M  V30 2273 N 220.9 5.41095 -0.521287 0
M  V30 2274 H 224.702 2.84833 -0.724394 0
M  V30 2275 H 222.216 1.54607 -0.497028 0
M  V30 2276 H 224.213 3.88543 1.51129 0
M  V30 2277 H 222.873 2.73373 1.75207 0
M  V30 2278 H 223.884 5.05525 -1.12537 0
M  V30 2279 H 220.561 3.99104 1.22565 0
M  V30 2280 H 221.951 6.41083 -2.01153 0
M  V30 2281 N 224.671 0.411399 1.52136 0
M  V30 2282 C 225.581 -0.419774 2.30814 0
M  V30 2283 C 226.597 -1.0515 1.38634 0
M  V30 2284 O 227.773 -1.05252 1.71709 0
M  V30 2285 C 224.838 -1.52019 3.11594 0
M  V30 2286 C 223.899 -0.91129 4.19516 0
M  V30 2287 C 223.132 -1.95927 4.96436 0
M  V30 2288 O 223.355 -3.17775 4.73683 0
M  V30 2289 O 222.289 -1.56423 5.81219 0
M  V30 2290 H 226.115 0.221805 3.02889 0
M  V30 2291 H 223.7 0.174547 1.48377 0
M  V30 2292 H 225.582 -2.15898 3.61892 0
M  V30 2293 H 224.257 -2.14633 2.42311 0
M  V30 2294 H 223.164 -0.235157 3.7336 0
M  V30 2295 H 224.497 -0.32904 4.91099 0
M  V30 2296 N 226.149 -1.5696 0.141893 0
M  V30 2297 C 227.112 -2.15316 -0.785587 0
M  V30 2298 C 228.112 -1.09366 -1.1788 0
M  V30 2299 O 229.302 -1.35031 -1.10056 0
M  V30 2300 C 226.434 -2.71211 -2.06537 0
M  V30 2301 H 227.627 -2.98608 -0.278041 0
M  V30 2302 H 225.18 -1.5593 -0.107519 0
M  V30 2303 H 225.915 -1.91571 -2.6167 0
M  V30 2304 H 225.7 -3.4872 -1.79268 0
M  V30 2305 H 227.19 -3.16189 -2.72789 0
M  V30 2306 N 227.627 0.131896 -1.57047 0
M  V30 2307 C 229.038 0.690407 -1.73465 0
M  V30 2308 C 229.389 1.8094 -0.758629 0
M  V30 2309 O 228.514 2.16282 0.0713813 0
M  V30 2310 C 229.109 1.25916 -3.14532 0
M  V30 2311 C 227.668 1.76409 -3.32501 0
M  V30 2312 C 226.815 0.658579 -2.69366 0
M  V30 2313 H 229.766 -0.0939144 -1.58422 0
M  V30 2314 H 229.787 2.12892 -3.15369 0
M  V30 2315 H 229.299 0.444515 -3.85546 0
M  V30 2316 H 227.4 2.60391 -2.66509 0
M  V30 2317 H 227.513 1.88241 -4.4057 0
M  V30 2318 H 225.877 1.08899 -2.30246 0
M  V30 2319 H 226.66 -0.14487 -3.42994 0
M  V30 2320 N 229.106 1.52395 0.401703 0
M  V30 2321 C 230.517 1.58899 0.980202 0
M  V30 2322 C 230.868 0.434032 1.91339 0
M  V30 2323 O 229.993 -0.444619 2.11783 0
M  V30 2324 C 230.588 2.87994 1.78451 0
M  V30 2325 C 229.147 2.96953 2.31292 0
M  V30 2326 C 228.294 2.53903 1.11483 0
M  V30 2327 H 231.245 1.57657 0.18168 0
M  V30 2328 H 231.266 2.73765 2.64259 0
M  V30 2329 H 230.778 3.72035 1.10506 0
M  V30 2330 H 228.879 2.17422 3.02586 0
M  V30 2331 H 228.992 4.01344 2.61649 0
M  V30 2332 H 227.356 2.07925 1.47104 0
M  V30 2333 H 228.139 3.40326 0.450928 0
M  V30 2334 N 230.584 -0.659388 1.43143 0
M  V30 2335 C 231.83 -1.42145 1.44647 0
M  V30 2336 C 232.163 -1.9408 0.0681907 0
M  V30 2337 O 231.438 -1.71899 -0.910007 0
M  V30 2338 C 231.721 -2.60735 2.48373 0
M  V30 2339 C 231.574 -2.14332 3.95451 0
M  V30 2340 C 232.893 -3.62951 2.48906 0
M  V30 2341 H 230.012 -0.51552 0.526696 0
M  V30 2342 H 232.654 -0.748069 1.74654 0
M  V30 2343 H 230.804 -3.18184 2.22916 0
M  V30 2344 H 232.476 -1.61932 4.31944 0
M  V30 2345 H 230.719 -1.4576 4.08578 0
M  V30 2346 H 231.39 -2.99583 4.63631 0
M  V30 2347 H 233.866 -3.1525 2.71582 0
M  V30 2348 H 232.742 -4.43487 3.23435 0
M  V30 2349 H 233.003 -4.15126 1.52061 0
M  V30 2350 N 232.062 -1.29571 -0.897171 0
M  V30 2351 C 233.473 -1.15964 -1.46319 0
M  V30 2352 C 233.824 0.244267 -1.94674 0
M  V30 2353 O 232.949 1.13998 -1.83939 0
M  V30 2354 C 233.544 -2.09906 -2.65942 0
M  V30 2355 C 232.103 -2.00314 -3.18671 0
M  V30 2356 C 231.25 -2.00687 -1.91363 0
M  V30 2357 H 234.201 -1.42019 -0.708268 0
M  V30 2358 H 234.222 -1.67276 -3.41759 0
M  V30 2359 H 233.734 -3.12075 -2.30718 0
M  V30 2360 H 231.835 -1.01242 -3.58582 0
M  V30 2361 H 231.948 -2.88102 -3.82798 0
M  V30 2362 H 230.312 -1.45319 -2.09175 0
M  V30 2363 H 231.095 -3.04566 -1.58413 0
M  V30 2364 N 233.54 1.10788 -1.12088 0
M  V30 2365 C 234.788 1.8231 -0.872205 0
M  V30 2366 C 235.109 1.85419 0.603709 0
M  V30 2367 O 234.379 1.32963 1.43867 0
M  V30 2368 H 232.959 0.675137 -0.319686 0
M  V30 2369 H 235.621 1.34068 -1.41463 0
M  V30 2370 H 234.717 2.85955 -1.25045 0
M  V30 2371 N 235.018 0.912232 1.28515 0
M  V30 2372 C 235.981 0.404223 2.25607 0
M  V30 2373 C 236.981 -0.468602 1.53821 0
M  V30 2374 O 238.171 -0.271873 1.72065 0
M  V30 2375 C 235.303 -0.420653 3.38295 0
M  V30 2376 H 236.496 1.26188 2.7206 0
M  V30 2377 H 234.049 0.691495 1.40171 0
M  V30 2378 H 234.784 -1.29777 2.97201 0
M  V30 2379 H 234.569 0.204935 3.91564 0
M  V30 2380 H 236.059 -0.766971 4.10496 0
M  V30 2381 N 236.496 -1.42363 0.676048 0
M  V30 2382 C 237.907 -1.84649 0.275948 0
M  V30 2383 C 238.258 -1.56588 -1.18214 0
M  V30 2384 O 237.383 -1.02634 -1.90513 0
M  V30 2385 C 237.978 -3.35178 0.494053 0
M  V30 2386 C 236.537 -3.76109 0.148061 0
M  V30 2387 C 235.684 -2.65931 0.785891 0
M  V30 2388 H 238.635 -1.32192 0.878121 0
M  V30 2389 H 238.656 -3.79655 -0.25343 0
M  V30 2390 H 238.168 -3.55571 1.55535 0
M  V30 2391 H 236.269 -3.61323 -0.909742 0
M  V30 2392 H 236.382 -4.7546 0.589454 0
M  V30 2393 H 234.746 -2.53773 0.217113 0
M  V30 2394 H 235.529 -2.89146 1.85067 0
M  V30 2395 N 237.974 -0.419461 -1.51915 0
M  V30 2396 C 238.937 0.389116 -2.25873 0
M  V30 2397 C 239.937 0.964924 -1.28631 0
M  V30 2398 O 241.127 0.842179 -1.52489 0
M  V30 2399 C 238.259 1.54874 -3.03689 0
M  V30 2400 H 239.452 -0.258799 -2.98781 0
M  V30 2401 H 237.005 -0.172209 -1.55348 0
M  V30 2402 H 237.74 2.23323 -2.35154 0
M  V30 2403 H 237.525 1.14223 -3.75094 0
M  V30 2404 H 239.015 2.12046 -3.59759 0
M  V30 2405 O 239.491 1.58856 -0.291037 0
M  V30 2406 H 240.182 1.91728 0.275667 0
M  V30 END ATOM
M  V30 BEGIN BOND
M  V30 END BOND
M  V30 END CTAB
M  END
$$$$
