drugbank_target|P9WK19 Methionine aminopeptidase 2 (DB02909)
 OpenBabel12092120463D

  0  0  0     0  0            999 V3000
M  V30 BEGIN CTAB
M  V30 COUNTS 4310 4361 0 0 0
M  V30 BEGIN ATOM
M  V30 1 H -0.908 1.98254 -0.117106 0
M  V30 2 N 0 1.576 0 0
M  V30 3 C 0.933 2.03868 1.02534 0
M  V30 4 C 1.911 0.928543 1.3348 0
M  V30 5 O 3.095 1.19667 1.45644 0
M  V30 6 C 0.222 2.43627 2.35294 0
M  V30 7 C -0.732 3.65373 2.2001 0
M  V30 8 S 0.101 5.13292 1.52614 0
M  V30 9 C 1.257 5.56322 2.86805 0
M  V30 10 H 1.49 2.90518 0.631377 0
M  V30 11 H -0.977 1.52953 0.210867 0
M  V30 12 H 0.981 2.67203 3.11629 0
M  V30 13 H -0.358 1.57376 2.7183 0
M  V30 14 H -1.165 3.90944 3.18086 0
M  V30 15 H -1.563 3.418 1.51819 0
M  V30 16 H 0.729 5.58782 3.83104 0
M  V30 17 H 1.672 6.56266 2.65933 0
M  V30 18 H 2.08 4.83886 2.90714 0
M  V30 19 N 1.4781 -0.272755 1.55222 0
M  V30 20 C 2.8891 -0.84378 1.66545 0
M  V30 21 C 3.2401 -1.87035 0.592641 0
M  V30 22 O 2.3651 -2.14761 -0.265818 0
M  V30 23 C 2.9601 -1.53723 3.01918 0
M  V30 24 C 1.5191 -2.05628 3.15268 0
M  V30 25 C 0.6661 -0.898424 2.62343 0
M  V30 26 H 3.6171 -0.0490998 1.58624 0
M  V30 27 H 3.6381 -2.40421 2.94921 0
M  V30 28 H 3.1501 -0.78983 3.79978 0
M  V30 29 H 1.2511 -2.83329 2.41983 0
M  V30 30 H 1.3641 -2.27142 4.21833 0
M  V30 31 H -0.2719 -1.29186 2.19506 0
M  V30 32 H 0.5111 -0.164528 3.42906 0
M  V30 33 N 2.9562 -1.48159 -0.537278 0
M  V30 34 C 4.1812 -1.59707 -1.32319 0
M  V30 35 C 4.6062 -0.254859 -1.86365 0
M  V30 36 O 3.9642 0.772378 -1.64024 0
M  V30 37 C 4.0122 -2.6412 -2.45505 0
M  V30 38 O 3.1162 -2.20774 -3.48328 0
M  V30 39 H 2.4572 -0.535791 -0.392204 0
M  V30 40 H 4.9872 -1.94092 -0.647268 0
M  V30 41 H 4.9972 -2.85166 -2.91795 0
M  V30 42 H 3.6722 -3.61567 -2.05528 0
M  V30 43 H 2.2492 -2.09911 -3.08207 0
M  V30 44 N 4.4343 0.785586 -1.36625 0
M  V30 45 C 5.8503 1.08419 -1.17122 0
M  V30 46 C 6.0503 2.015 0.00208491 0
M  V30 47 O 5.1063 2.43551 0.666278 0
M  V30 48 C 6.4193 1.69498 -2.48377 0
M  V30 49 C 7.9673 1.81821 -2.54775 0
M  V30 50 C 8.4423 2.46315 -3.86126 0
M  V30 51 N 9.9333 2.53779 -3.87492 0
M  V30 52 C 10.6683 3.045 -4.85868 0
M  V30 53 N 10.1643 3.55499 -5.94637 0
M  V30 54 N 11.9573 3.03247 -4.73284 0
M  V30 55 H 4.1083 0.167264 -2.1174 0
M  V30 56 H 6.3713 0.13682 -0.938075 0
M  V30 57 H 6.0773 1.08571 -3.34522 0
M  V30 58 H 5.9513 2.6896 -2.64462 0
M  V30 59 H 8.3383 2.41884 -1.69045 0
M  V30 60 H 8.4193 0.811532 -2.42586 0
M  V30 61 H 8.0633 1.86895 -4.72263 0
M  V30 62 H 7.9933 3.47561 -3.95612 0
M  V30 63 H 10.4843 2.17672 -3.08913 0
M  V30 64 H 10.7973 3.92562 -6.65669 0
M  V30 65 H 9.1423 3.5364 -5.98301 0
M  V30 66 H 12.3333 2.62696 -3.87438 0
M  V30 67 H 12.5063 3.42467 -5.50109 0
M  V30 68 N 5.9124 1.20967 1.01018 0
M  V30 69 C 7.1404 1.04956 1.78303 0
M  V30 70 C 7.5554 -0.400915 1.84494 0
M  V30 71 O 6.9124 -1.27826 1.30257 0
M  V30 72 C 6.9634 1.63403 3.22462 0
M  V30 73 O 6.6844 3.02775 3.16637 0
M  V30 74 C 8.1854 1.52432 4.16268 0
M  V30 75 H 5.4054 0.368858 0.560522 0
M  V30 76 H 7.9494 1.60193 1.27116 0
M  V30 77 H 6.1044 1.1227 3.70775 0
M  V30 78 H 6.5184 3.30626 4.07169 0
M  V30 79 H 7.9924 1.98078 5.15237 0
M  V30 80 H 8.4694 0.477875 4.36592 0
M  V30 81 H 9.0754 2.02787 3.73841 0
M  V30 82 N 7.3905 -1.2043 1.01659 0
M  V30 83 C 8.3535 -2.21433 0.591616 0
M  V30 84 C 9.3535 -1.57203 -0.338226 0
M  V30 85 O 10.5435 -1.73737 -0.126918 0
M  V30 86 C 7.6755 -3.40628 -0.136058 0
M  V30 87 H 8.8685 -2.60545 1.48514 0
M  V30 88 H 6.4215 -1.33893 0.806379 0
M  V30 89 H 7.1565 -3.07019 -1.04449 0
M  V30 90 H 6.9415 -3.88475 0.531917 0
M  V30 91 H 8.4315 -4.15475 -0.420735 0
M  V30 92 N 8.8686 -0.792821 -1.36206 0
M  V30 93 C 9.7986 -0.207853 -2.32573 0
M  V30 94 C 10.7796 0.659055 -1.56813 0
M  V30 95 O 11.9646 0.592176 -1.84951 0
M  V30 96 C 9.0946 0.655449 -3.41059 0
M  V30 97 C 8.0486 -0.111842 -4.27854 0
M  V30 98 C 7.3746 0.872274 -5.27537 0
M  V30 99 C 8.6746 -1.30299 -5.05786 0
M  V30 100 H 10.3686 -1.01294 -2.81744 0
M  V30 101 H 7.9146 -0.48854 -1.3546 0
M  V30 102 H 9.8676 1.07464 -4.07467 0
M  V30 103 H 8.5916 1.49328 -2.90463 0
M  V30 104 H 7.2506 -0.512053 -3.63006 0
M  V30 105 H 6.8986 1.70523 -4.73214 0
M  V30 106 H 6.5986 0.363291 -5.86476 0
M  V30 107 H 8.1226 1.28996 -5.96818 0
M  V30 108 H 9.5366 -0.959379 -5.65216 0
M  V30 109 H 7.9336 -1.7455 -5.74154 0
M  V30 110 H 9.0036 -2.09663 -4.37229 0
M  V30 111 N 10.3467 1.47872 -0.545128 0
M  V30 112 C 11.5717 2.07391 -0.0190611 0
M  V30 113 C 11.9967 1.39688 1.25971 0
M  V30 114 O 11.3547 0.467816 1.7516 0
M  V30 115 C 11.4027 3.60188 0.172335 0
M  V30 116 O 10.5067 3.9339 1.23766 0
M  V30 117 H 9.8477 0.662411 -0.0459059 0
M  V30 118 H 12.3777 1.90066 -0.757365 0
M  V30 119 H 12.3877 4.06129 0.390305 0
M  V30 120 H 11.0627 4.08865 -0.761725 0
M  V30 121 H 9.6397 3.5921 1.00114 0
M  V30 122 N 11.8248 0.280983 1.55075 0
M  V30 123 C 13.2358 -0.215629 1.85451 0
M  V30 124 C 13.5868 -1.54991 1.203 0
M  V30 125 O 12.7118 -2.10699 0.493435 0
M  V30 126 C 13.3068 -0.398026 3.36454 0
M  V30 127 C 11.8658 -0.838866 3.66933 0
M  V30 128 C 11.0128 0.064458 2.77225 0
M  V30 129 H 13.9638 0.502601 1.50531 0
M  V30 130 H 13.9848 -1.23569 3.59876 0
M  V30 131 H 13.4968 0.573241 3.83843 0
M  V30 132 H 11.5978 -1.8214 3.25048 0
M  V30 133 H 11.7108 -0.672123 4.74362 0
M  V30 134 H 10.0748 -0.452863 2.50642 0
M  V30 135 H 10.8578 1.03172 3.2743 0
M  V30 136 N 13.3029 -1.57598 0.00835791 0
M  V30 137 C 14.5509 -1.90551 -0.6734 0
M  V30 138 C 14.8719 -0.883301 -1.73847 0
M  V30 139 O 14.1419 0.0781442 -1.95744 0
M  V30 140 H 12.7219 -0.703312 -0.251717 0
M  V30 141 H 15.3839 -1.94833 0.0512592 0
M  V30 142 H 14.4799 -2.9056 -1.13935 0
M  V30 143 N 14.781 0.264519 -1.55364 0
M  V30 144 C 16.027 0.99646 -1.76631 0
M  V30 145 C 16.36 1.85632 -0.570478 0
M  V30 146 O 15.635 1.89647 0.43175 0
M  V30 147 C 15.918 1.87187 -3.07625 0
M  V30 148 C 15.771 1.04138 -4.37579 0
M  V30 149 C 17.09 2.85749 -3.34717 0
M  V30 150 H 14.209 0.360841 -0.642622 0
M  V30 151 H 16.851 0.268218 -1.88097 0
M  V30 152 H 15.001 2.49279 -2.9798 0
M  V30 153 H 16.673 0.440517 -4.59192 0
M  V30 154 H 14.916 0.345115 -4.32425 0
M  V30 155 H 15.587 1.68729 -5.2558 0
M  V30 156 H 18.063 2.33793 -3.4421 0
M  V30 157 H 16.939 3.44136 -4.27623 0
M  V30 158 H 17.2 3.61311 -2.54768 0
M  V30 159 N 16.2591 1.48442 0.529413 0
M  V30 160 C 17.1891 1.65902 1.64313 0
M  V30 161 C 18.1701 0.507897 1.6234 0
M  V30 162 O 19.3551 0.740503 1.79528 0
M  V30 163 C 16.4851 1.69911 3.02898 0
M  V30 164 C 15.4391 2.8453 3.19729 0
M  V30 165 C 14.7651 2.73629 4.59381 0
M  V30 166 C 16.0651 4.25821 3.02447 0
M  V30 167 H 17.7591 2.5914 1.49955 0
M  V30 168 H 15.3051 1.24709 0.719982 0
M  V30 169 H 17.2581 1.80715 3.80684 0
M  V30 170 H 15.9821 0.732524 3.18279 0
M  V30 171 H 14.6411 2.73283 2.44361 0
M  V30 172 H 14.2891 1.74938 4.71599 0
M  V30 173 H 13.9891 3.50541 4.71588 0
M  V30 174 H 15.5131 2.86401 5.39265 0
M  V30 175 H 16.9271 4.37898 3.70024 0
M  V30 176 H 15.3241 5.03735 3.26146 0
M  V30 177 H 16.3941 4.42244 1.98867 0
M  V30 178 N 17.7372 -0.778329 1.37039 0
M  V30 179 C 18.9622 -1.57248 1.35233 0
M  V30 180 C 19.3872 -1.87999 -0.0615568 0
M  V30 181 O 18.7452 -1.48734 -1.03672 0
M  V30 182 C 18.7932 -2.86353 2.19167 0
M  V30 183 O 17.8972 -3.80442 1.59178 0
M  V30 184 H 17.2382 -0.476569 0.462362 0
M  V30 185 H 19.7682 -0.963853 1.80474 0
M  V30 186 H 19.7782 -3.35519 2.32145 0
M  V30 187 H 18.4532 -2.63299 3.21942 0
M  V30 188 H 17.0302 -3.39067 1.55203 0
M  V30 189 N 19.2153 -1.21501 -1.00376 0
M  V30 190 C 20.6263 -1.03146 -1.55621 0
M  V30 191 C 20.9773 0.408375 -1.91903 0
M  V30 192 O 20.1023 1.29177 -1.73616 0
M  V30 193 C 20.6973 -1.86612 -2.82775 0
M  V30 194 C 19.2563 -1.72586 -3.34501 0
M  V30 195 C 18.4033 -1.83747 -2.07683 0
M  V30 196 H 21.3543 -1.35505 -0.826081 0
M  V30 197 H 21.3753 -1.3771 -3.54706 0
M  V30 198 H 20.8873 -2.91399 -2.56336 0
M  V30 199 H 18.9883 -0.704877 -3.65872 0
M  V30 200 H 19.1013 -2.54623 -4.05837 0
M  V30 201 H 17.4653 -1.27069 -2.20739 0
M  V30 202 H 18.2483 -2.90044 -1.83655 0
M  V30 203 N 20.6934 1.19889 -1.02296 0
M  V30 204 C 21.9214 1.9339 -0.735399 0
M  V30 205 C 22.3364 1.75148 0.704887 0
M  V30 206 O 21.6934 1.06954 1.47875 0
M  V30 207 C 21.7444 3.45313 -1.06962 0
M  V30 208 O 21.4654 3.62964 -2.45334 0
M  V30 209 C 22.9664 4.35948 -0.804021 0
M  V30 210 H 20.1864 0.61448 -0.269546 0
M  V30 211 H 22.7304 1.522 -1.36585 0
M  V30 212 H 20.8854 3.84359 -0.484455 0
M  V30 213 H 21.2994 4.56886 -2.57595 0
M  V30 214 H 22.7734 5.41174 -1.0879 0
M  V30 215 H 23.2504 4.3842 0.261691 0
M  V30 216 H 23.8564 4.02574 -1.37164 0
M  V30 217 N 22.1715 0.800033 1.35784 0
M  V30 218 C 23.5875 0.482977 1.52117 0
M  V30 219 C 23.7875 -0.996948 1.75109 0
M  V30 220 O 22.8435 -1.78216 1.78872 0
M  V30 221 C 24.1565 1.32264 2.70049 0
M  V30 222 C 25.7045 1.31742 2.83924 0
M  V30 223 C 26.1795 2.14106 4.04874 0
M  V30 224 N 27.6705 2.11607 4.12039 0
M  V30 225 C 28.4055 2.72099 5.04727 0
M  V30 226 N 27.9015 3.41492 6.02789 0
M  V30 227 N 29.6945 2.61776 4.97423 0
M  V30 228 H 21.8455 1.75856 1.19115 0
M  V30 229 H 24.1085 0.748122 0.582252 0
M  V30 230 H 23.8145 2.37261 2.59616 0
M  V30 231 H 23.6885 0.971303 3.6448 0
M  V30 232 H 26.0755 0.275333 2.93813 0
M  V30 233 H 26.1565 1.70859 1.9037 0
M  V30 234 H 25.8005 3.18351 3.95746 0
M  V30 235 H 25.7305 1.72353 4.97596 0
M  V30 236 H 28.2215 1.61112 3.41835 0
M  V30 237 H 28.5345 3.84953 6.70098 0
M  V30 238 H 26.8795 3.45596 6.02983 0
M  V30 239 H 30.0705 2.07157 4.19766 0
M  V30 240 H 30.2435 3.0921 5.69468 0
M  V30 241 N 23.6496 -1.47581 0.552962 0
M  V30 242 C 25.0606 -1.86324 0.118463 0
M  V30 243 C 25.4116 -1.46006 -1.3106 0
M  V30 244 O 24.5366 -0.861182 -1.98526 0
M  V30 245 C 25.1316 -3.3816 0.20821 0
M  V30 246 C 23.6906 -3.7601 -0.171226 0
M  V30 247 C 22.8376 -2.71634 0.557686 0
M  V30 248 H 25.7886 -1.39159 0.762928 0
M  V30 249 H 25.8096 -3.76141 -0.574278 0
M  V30 250 H 25.3216 -3.67473 1.24841 0
M  V30 251 H 23.4226 -3.52313 -1.21269 0
M  V30 252 H 23.5356 -4.78745 0.184379 0
M  V30 253 H 21.8996 -2.547 0.00125792 0
M  V30 254 H 22.6826 -3.0379 1.59896 0
M  V30 255 N 25.1277 -0.289203 -1.54924 0
M  V30 256 C 26.3737 0.323998 -2.00195 0
M  V30 257 C 26.7067 1.54441 -1.17735 0
M  V30 258 O 25.9817 1.92875 -0.250878 0
M  V30 259 C 26.2647 0.692276 -3.53383 0
M  V30 260 C 26.1177 -0.536457 -4.46589 0
M  V30 261 C 27.4367 1.52335 -4.12895 0
M  V30 262 H 24.5557 0.116289 -0.727768 0
M  V30 263 H 27.1977 -0.398954 -1.85764 0
M  V30 264 H 25.3477 1.30822 -3.65811 0
M  V30 265 H 27.0197 -1.17499 -4.46085 0
M  V30 266 H 25.2627 -1.17192 -4.1767 0
M  V30 267 H 25.9337 -0.234806 -5.515 0
M  V30 268 H 28.4097 1.00302 -4.0383 0
M  V30 269 H 27.2857 1.74982 -5.20262 0
M  V30 270 H 27.5467 2.50886 -3.64018 0
M  V30 271 N 26.6058 1.57591 -0.0167156 0
M  V30 272 C 28.0168 1.79201 0.523834 0
M  V30 273 C 28.3678 0.925796 1.72984 0
M  V30 274 O 27.4928 0.132792 2.15992 0
M  V30 275 C 28.0878 3.25 0.957091 0
M  V30 276 C 26.6468 3.47648 1.44283 0
M  V30 277 C 25.7938 2.74374 0.401757 0
M  V30 278 H 28.7448 1.56831 -0.242816 0
M  V30 279 H 28.7658 3.34031 1.82219 0
M  V30 280 H 28.2778 3.88019 0.0791415 0
M  V30 281 H 26.3788 2.89866 2.34113 0
M  V30 282 H 26.4918 4.56352 1.45877 0
M  V30 283 H 24.8558 2.39485 0.867121 0
M  V30 284 H 25.6388 3.40102 -0.467513 0
M  V30 285 N 28.0839 -0.256276 1.55502 0
M  V30 286 C 29.0319 -1.33694 1.90338 0
M  V30 287 C 30.0259 -1.50299 0.781441 0
M  V30 288 O 31.2319 -1.51885 0.965966 0
M  V30 289 H 27.6069 -0.447483 0.60437 0
M  V30 290 H 29.5779 -1.01574 2.8058 0
M  V30 291 C 28.3269 -2.68724 2.20642 0
M  V30 292 H 27.6499 -2.56743 3.06469 0
M  V30 293 H 29.0899 -3.43237 2.48926 0
M  V30 294 C 27.5489 -3.21101 1.01959 0
M  V30 295 O 28.0789 -4.0084 0.262762 0
M  V30 296 N 26.2849 -2.79003 0.812746 0
M  V30 297 H 25.8319 -2.14271 1.42989 0
M  V30 298 H 25.7899 -3.14393 0.0203076 0
M  V30 299 N 29.562 -1.4872 -0.521534 0
M  V30 300 C 30.808 -1.58378 -1.27624 0
M  V30 301 C 31.163 -0.258028 -1.90662 0
M  V30 302 O 30.456 0.739917 -1.76736 0
M  V30 303 C 30.65 -2.66497 -2.38148 0
M  V30 304 C 30.479 -4.09456 -1.85945 0
M  V30 305 C 29.249 -4.76495 -1.68168 0
M  V30 306 C 31.447 -4.95353 -1.3831 0
M  V30 307 N 29.429 -6.0384 -1.1068 0
M  V30 308 C 30.8 -6.13012 -0.928238 0
M  V30 309 C 32.855 -4.81512 -1.26692 0
M  V30 310 C 31.558 -7.18354 -0.368701 0
M  V30 311 C 33.584 -5.86984 -0.721368 0
M  V30 312 C 32.946 -7.03857 -0.276623 0
M  V30 313 H 29.045 -0.634045 -0.457724 0
M  V30 314 H 31.629 -1.85639 -0.587049 0
M  V30 315 H 29.8 -2.41043 -3.04553 0
M  V30 316 H 31.532 -2.65791 -3.05184 0
M  V30 317 H 28.287 -4.32962 -1.91939 0
M  V30 318 H 28.711 -6.71778 -0.839217 0
M  V30 319 H 33.353 -3.91487 -1.5968 0
M  V30 320 H 31.071 -8.08096 -0.0265122 0
M  V30 321 H 34.657 -5.78329 -0.634531 0
M  V30 322 H 33.537 -7.84077 0.138947 0
M  V30 323 N 31.0401 0.771051 -1.3745 0
M  V30 324 C 32.2891 1.52491 -1.3202 0
M  V30 325 C 32.6021 1.9538 0.0927347 0
M  V30 326 O 33.8081 2.70159 0.269503 0
M  V30 327 C 32.2641 2.75366 -2.31736 0
M  V30 328 C 31.8721 2.39573 -3.78562 0
M  V30 329 C 33.6161 3.53307 -2.35318 0
M  V30 330 C 31.5231 3.58954 -4.70007 0
M  V30 331 H 30.4531 0.572506 -0.490666 0
M  V30 332 H 33.1041 0.844474 -1.62914 0
M  V30 333 H 31.4861 3.45303 -1.93861 0
M  V30 334 H 32.6601 1.77415 -4.25277 0
M  V30 335 H 30.9751 1.74805 -3.77932 0
M  V30 336 H 33.5721 4.42039 -3.00842 0
M  V30 337 H 33.9151 3.93217 -1.36698 0
M  V30 338 H 34.4481 2.90367 -2.71904 0
M  V30 339 H 31.1871 3.24125 -5.69757 0
M  V30 340 H 30.7071 4.20214 -4.27996 0
M  V30 341 H 32.3861 4.25758 -4.87175 0
M  V30 342 N 32.5182 1.22032 0.997298 0
M  V30 343 C 33.4812 0.987909 2.06816 0
M  V30 344 C 34.4812 -0.0440084 1.6074 0
M  V30 345 O 35.6712 0.194053 1.73116 0
M  V30 346 C 32.8032 0.49132 3.37341 0
M  V30 347 H 33.9962 1.93803 2.28868 0
M  V30 348 H 31.5492 1.03838 1.16822 0
M  V30 349 H 32.2842 -0.463364 3.20973 0
M  V30 350 H 32.0692 1.23575 3.72118 0
M  V30 351 H 33.5592 0.348824 4.16141 0
M  V30 352 N 33.9963 -1.19345 1.0293 0
M  V30 353 C 35.4123 -1.41069 0.746446 0
M  V30 354 C 35.6123 -1.90078 -0.668776 0
M  V30 355 O 34.6683 -2.0778 -1.4347 0
M  V30 356 C 35.9813 -2.42141 1.78292 0
M  V30 357 C 37.5293 -2.55887 1.80252 0
M  V30 358 C 38.0043 -3.60214 2.8286 0
M  V30 359 N 39.4953 -3.67711 2.81679 0
M  V30 360 C 40.2303 -4.48128 3.57727 0
M  V30 361 N 39.7263 -5.32248 4.43491 0
M  V30 362 N 41.5193 -4.42782 3.46267 0
M  V30 363 H 33.6703 -0.858536 1.94275 0
M  V30 364 H 35.9333 -0.439541 0.839945 0
M  V30 365 H 35.6393 -2.13155 2.79746 0
M  V30 366 H 35.5133 -3.41323 1.60557 0
M  V30 367 H 37.9003 -2.84196 0.794757 0
M  V30 368 H 37.9813 -1.56858 2.02062 0
M  V30 369 H 37.6253 -3.32647 3.83807 0
M  V30 370 H 37.5553 -4.58895 2.58307 0
M  V30 371 H 40.0463 -3.07634 2.19476 0
M  V30 372 H 40.3593 -5.90729 4.98256 0
M  V30 373 H 38.7043 -5.31707 4.47564 0
M  V30 374 H 41.8953 -3.76107 2.78677 0
M  V30 375 H 42.0683 -5.05215 4.05785 0
M  V30 376 N 35.4744 -0.807222 -1.35358 0
M  V30 377 C 36.8854 -0.44876 -1.81226 0
M  V30 378 C 37.2364 1.02929 -1.67033 0
M  V30 379 O 36.3614 1.79991 -1.20133 0
M  V30 380 C 36.9564 -0.807774 -3.2903 0
M  V30 381 C 35.5154 -0.501901 -3.73039 0
M  V30 382 C 34.6624 -1.03304 -2.57339 0
M  V30 383 H 37.6134 -0.998808 -1.23327 0
M  V30 384 H 37.6344 -0.10554 -3.80354 0
M  V30 385 H 37.1464 -1.88357 -3.39328 0
M  V30 386 H 35.2474 0.565128 -3.68289 0
M  V30 387 H 35.3604 -1.03497 -4.67787 0
M  V30 388 H 33.7244 -0.455339 -2.50597 0
M  V30 389 H 34.5074 -2.11496 -2.70415 0
M  V30 390 N 36.9525 1.47285 -0.560781 0
M  V30 391 C 37.8625 2.33846 0.187954 0
M  V30 392 C 38.8785 1.48412 0.908293 0
M  V30 393 O 40.0545 1.81332 0.876388 0
M  V30 394 C 37.1195 3.25178 1.2025 0
M  V30 395 C 36.1805 4.26504 0.489208 0
M  V30 396 C 35.4135 5.13472 1.45542 0
M  V30 397 O 35.6365 5.02959 2.6905 0
M  V30 398 O 34.5705 5.93902 0.977963 0
M  V30 399 H 38.3965 2.99177 -0.522177 0
M  V30 400 H 35.9815 1.45903 -0.321364 0
M  V30 401 H 37.8635 3.81584 1.78805 0
M  V30 402 H 36.5385 2.6247 1.89449 0
M  V30 403 H 35.4455 3.73847 -0.137627 0
M  V30 404 H 36.7785 4.91935 -0.161399 0
M  V30 405 N 38.4306 0.297415 1.54768 0
M  V30 406 C 39.6606 -0.315165 2.04182 0
M  V30 407 C 40.0686 -1.4834 1.17439 0
M  V30 408 O 39.4116 -1.82695 0.191891 0
M  V30 409 C 39.4736 -0.837583 3.49607 0
M  V30 410 C 39.1376 0.204912 4.5654 0
M  V30 411 C 40.1346 1.03214 5.09552 0
M  V30 412 C 37.8196 0.345578 5.0111 0
M  V30 413 C 39.8136 1.986 6.05671 0
M  V30 414 C 37.5006 1.30289 5.97049 0
M  V30 415 C 38.4986 2.12159 6.49213 0
M  V30 416 O 38.1866 3.06268 7.43273 0
M  V30 417 H 37.9186 -0.0729646 0.672051 0
M  V30 418 H 40.4726 0.433907 2.00765 0
M  V30 419 H 38.7026 -1.63712 3.50336 0
M  V30 420 H 40.3916 -1.36566 3.82236 0
M  V30 421 H 41.1576 0.934312 4.75916 0
M  V30 422 H 37.0366 -0.28171 4.60138 0
M  V30 423 H 40.5806 2.62542 6.46311 0
M  V30 424 H 36.4776 1.40145 6.30103 0
M  V30 425 H 37.2456 3.01205 7.61064 0
M  V30 426 N 39.9087 -1.5758 0.0250728 0
M  V30 427 C 41.1547 -1.91917 -0.655413 0
M  V30 428 C 41.4877 -0.901433 -1.72011 0
M  V30 429 O 40.7627 0.0764069 -1.9435 0
M  V30 430 C 41.0457 -3.36751 -1.27558 0
M  V30 431 C 40.8987 -4.49258 -0.220719 0
M  V30 432 C 42.2177 -3.81469 -2.19475 0
M  V30 433 H 39.3367 -0.697925 -0.23679 0
M  V30 434 H 41.9787 -1.89825 0.0815036 0
M  V30 435 H 40.1287 -3.38664 -1.90365 0
M  V30 436 H 41.8007 -4.59478 0.409601 0
M  V30 437 H 40.0437 -4.31415 0.454264 0
M  V30 438 H 40.7147 -5.47618 -0.694175 0
M  V30 439 H 43.1907 -3.81266 -1.66659 0
M  V30 440 H 42.0667 -4.83512 -2.59822 0
M  V30 441 H 42.3277 -3.16744 -3.08424 0
M  V30 442 N 41.3868 0.248026 -1.55636 0
M  V30 443 C 42.6348 0.974295 -1.77065 0
M  V30 444 C 42.9558 1.85897 -0.588849 0
M  V30 445 O 42.2258 1.91868 0.395407 0
M  V30 446 H 40.8058 0.362733 -0.653019 0
M  V30 447 H 43.4678 0.266244 -1.93073 0
M  V30 448 H 42.5638 1.59667 -2.68166 0
M  V30 449 N 42.8649 1.48995 0.513639 0
M  V30 450 C 43.8119 1.6473 1.61656 0
M  V30 451 C 44.7819 0.488984 1.58739 0
M  V30 452 O 45.9669 0.714478 1.76918 0
M  V30 453 C 43.1069 1.7082 2.99858 0
M  V30 454 C 42.2199 2.9787 3.12885 0
M  V30 455 C 41.3549 2.95017 4.41744 0
M  V30 456 C 40.3939 4.16702 4.48359 0
M  V30 457 N 39.5309 4.11832 5.68629 0
M  V30 458 H 44.3709 2.58909 1.47547 0
M  V30 459 H 41.9079 1.28382 0.71808 0
M  V30 460 H 43.8659 1.72331 3.79944 0
M  V30 461 H 42.4959 0.801181 3.12699 0
M  V30 462 H 41.5479 3.06029 2.25944 0
M  V30 463 H 42.8599 3.8786 3.13633 0
M  V30 464 H 42.0139 2.95021 5.30139 0
M  V30 465 H 40.7529 2.02784 4.43542 0
M  V30 466 H 39.7579 4.16955 3.58369 0
M  V30 467 H 40.9829 5.10113 4.48287 0
M  V30 468 H 38.9289 3.22428 5.71293 0
M  V30 469 H 38.8459 4.95543 5.7094 0
M  V30 470 H 40.1139 4.1592 6.59266 0
M  V30 471 N 44.343 -0.763751 1.37857 0
M  V30 472 C 45.754 -1.3405 1.29952 0
M  V30 473 C 46.105 -1.96138 -0.0492898 0
M  V30 474 O 45.23 -1.94372 -0.951239 0
M  V30 475 C 45.825 -2.43729 2.35333 0
M  V30 476 C 44.384 -2.97151 2.31037 0
M  V30 477 C 43.531 -1.70438 2.18738 0
M  V30 478 H 46.482 -0.563396 1.48363 0
M  V30 479 H 46.503 -3.23412 2.00462 0
M  V30 480 H 46.015 -1.9851 3.33489 0
M  V30 481 H 44.116 -3.46724 1.3643 0
M  V30 482 H 44.229 -3.52221 3.24772 0
M  V30 483 H 42.593 -1.93673 1.65418 0
M  V30 484 H 43.376 -1.27312 3.18821 0
M  V30 485 N 45.8211 -1.22559 -0.990812 0
M  V30 486 C 46.7841 -0.998863 -2.0629 0
M  V30 487 C 47.7841 0.0354834 -1.60761 0
M  V30 488 O 48.9741 -0.203231 -1.7301 0
M  V30 489 C 46.1061 -0.509203 -3.37076 0
M  V30 490 H 47.2991 -1.95014 -2.27837 0
M  V30 491 H 44.8521 -1.04456 -1.16269 0
M  V30 492 H 45.5871 0.446335 -3.21214 0
M  V30 493 H 45.3721 -1.25547 -3.71457 0
M  V30 494 H 46.8621 -0.370888 -4.1595 0
M  V30 495 N 47.2992 1.18797 -1.03562 0
M  V30 496 C 48.2622 2.20464 -0.626769 0
M  V30 497 C 49.2622 1.57721 0.313173 0
M  V30 498 O 50.4522 1.73917 0.0992615 0
M  V30 499 C 47.5842 3.40802 0.0818498 0
M  V30 500 H 48.7772 2.58149 -1.5264 0
M  V30 501 H 46.3302 1.32593 -0.827578 0
M  V30 502 H 47.0652 3.08642 0.995518 0
M  V30 503 H 46.8502 3.8758 -0.593652 0
M  V30 504 H 48.3402 4.16092 0.354584 0
M  V30 505 N 48.7773 0.814389 1.34928 0
M  V30 506 C 49.7093 0.187834 2.28429 0
M  V30 507 C 50.7223 -0.617374 1.5064 0
M  V30 508 O 51.9113 -0.448454 1.72775 0
M  V30 509 C 49.0113 -0.755962 3.30361 0
M  V30 510 C 48.1843 0.00456686 4.374 0
M  V30 511 C 47.2433 -0.858876 5.19143 0
M  V30 512 O 46.2693 -0.306968 5.68372 0
M  V30 513 N 47.4713 -2.17988 5.38016 0
M  V30 514 H 50.2363 0.991105 2.82838 0
M  V30 515 H 47.7973 0.670561 1.4736 0
M  V30 516 H 49.7893 -1.338 3.81942 0
M  V30 517 H 48.3593 -1.46001 2.7641 0
M  V30 518 H 47.5793 0.767865 3.86649 0
M  V30 519 H 48.8673 0.528422 5.06049 0
M  V30 520 H 48.2653 -2.65212 4.99679 0
M  V30 521 H 46.8223 -2.71098 5.92747 0
M  V30 522 N 50.2554 -1.46986 0.568584 0
M  V30 523 C 51.1654 -2.33942 -0.17555 0
M  V30 524 C 52.1814 -1.48891 -0.90041 0
M  V30 525 O 53.3574 -1.81794 -0.86676 0
M  V30 526 C 50.4224 -3.25811 -1.18524 0
M  V30 527 C 49.4834 -4.26757 -0.466582 0
M  V30 528 C 48.7164 -5.14236 -1.42817 0
M  V30 529 O 48.9394 -5.04379 -2.66379 0
M  V30 530 O 47.8734 -5.94412 -0.946453 0
M  V30 531 H 51.6994 -2.98896 0.538036 0
M  V30 532 H 49.2844 -1.4573 0.329097 0
M  V30 533 H 51.1664 -3.82527 -1.76779 0
M  V30 534 H 49.8414 -2.63471 -1.88055 0
M  V30 535 H 48.7484 -3.73769 0.157451 0
M  V30 536 H 50.0814 -4.91843 0.187485 0
M  V30 537 N 51.7335 -0.305618 -1.54608 0
M  V30 538 C 52.9815 0.301701 -1.99835 0
M  V30 539 C 53.3025 1.54054 -1.19551 0
M  V30 540 O 52.5725 1.93702 -0.292658 0
M  V30 541 H 51.1525 0.114468 -0.738178 0
M  V30 542 H 53.8145 -0.418016 -1.90364 0
M  V30 543 H 52.9105 0.570548 -3.06841 0
M  V30 544 N 53.2116 1.57565 -0.0334293 0
M  V30 545 C 54.4366 1.96689 0.657895 0
M  V30 546 C 54.8616 0.910057 1.64619 0
M  V30 547 O 54.2196 -0.128598 1.80843 0
M  V30 548 C 54.2676 3.34905 1.33683 0
M  V30 549 O 53.3716 3.31574 2.45219 0
M  V30 550 H 52.7126 0.641205 0.172489 0
M  V30 551 H 55.2426 2.04372 -0.0965621 0
M  V30 552 H 55.2526 3.71234 1.69262 0
M  V30 553 H 53.9276 4.11366 0.612411 0
M  V30 554 H 52.5046 3.06968 2.11719 0
M  V30 555 N 54.6897 -0.239769 1.55765 0
M  V30 556 C 55.5997 -1.31831 1.94056 0
M  V30 557 C 56.6157 -1.52275 0.841925 0
M  V30 558 O 57.7917 -1.65759 1.14394 0
M  V30 559 C 54.8567 -2.65156 2.23368 0
M  V30 560 C 53.9177 -2.53173 3.46701 0
M  V30 561 C 53.1507 -3.8014 3.74606 0
M  V30 562 O 53.3737 -4.82343 3.04469 0
M  V30 563 O 52.3077 -3.78344 4.68123 0
M  V30 564 H 56.1337 -1.02347 2.85935 0
M  V30 565 H 53.7187 -0.441123 1.42739 0
M  V30 566 H 55.6007 -3.43929 2.43497 0
M  V30 567 H 54.2757 -2.94358 1.34666 0
M  V30 568 H 53.1827 -1.72662 3.31871 0
M  V30 569 H 54.5157 -2.28915 4.35728 0
M  V30 570 N 56.1678 -1.49265 -0.50573 0
M  V30 571 C 57.5788 -1.51769 -1.08734 0
M  V30 572 C 57.9298 -0.301192 -1.93874 0
M  V30 573 O 57.0548 0.589456 -2.08217 0
M  V30 574 C 57.6498 -2.75017 -1.97867 0
M  V30 575 C 56.2088 -2.80314 -2.51199 0
M  V30 576 C 55.3558 -2.4562 -1.28709 0
M  V30 577 H 58.3068 -1.56031 -0.289855 0
M  V30 578 H 58.3278 -2.5491 -2.82491 0
M  V30 579 H 57.8398 -3.63539 -1.35873 0
M  V30 580 H 55.9408 -1.96061 -3.16845 0
M  V30 581 H 56.0538 -3.82366 -2.88675 0
M  V30 582 H 54.4178 -1.97297 -1.61078 0
M  V30 583 H 55.2008 -3.36411 -0.6843 0
M  V30 584 N 57.6459 0.756429 -1.3826 0
M  V30 585 C 58.8919 1.5168 -1.35517 0
M  V30 586 C 59.2469 1.9232 0.0554451 0
M  V30 587 O 58.5399 1.62352 1.01746 0
M  V30 588 C 58.7339 2.78313 -2.24224 0
M  V30 589 C 58.5629 2.50053 -3.7377 0
M  V30 590 C 57.3329 2.43414 -4.42807 0
M  V30 591 C 59.5309 2.1702 -4.66269 0
M  V30 592 N 57.5129 2.07398 -5.77805 0
M  V30 593 C 58.8839 1.91271 -5.89759 0
M  V30 594 C 60.9389 2.03305 -4.54501 0
M  V30 595 C 59.6419 1.53192 -7.02798 0
M  V30 596 C 61.6679 1.66627 -5.67441 0
M  V30 597 C 61.0299 1.4175 -6.8999 0
M  V30 598 H 57.1289 0.554735 -0.551174 0
M  V30 599 H 59.7129 0.881106 -1.73622 0
M  V30 600 H 57.8839 3.39696 -1.88311 0
M  V30 601 H 59.6159 3.44343 -2.12627 0
M  V30 602 H 56.3709 2.59789 -3.95988 0
M  V30 603 H 56.7949 1.92044 -6.4919 0
M  V30 604 H 61.4369 2.21215 -3.60311 0
M  V30 605 H 59.1549 1.34022 -7.96909 0
M  V30 606 H 62.7409 1.56652 -5.60314 0
M  V30 607 H 61.6209 1.1379 -7.759 0
M  V30 608 N 59.124 1.23083 0.984299 0
M  V30 609 C 60.37 1.06214 1.72761 0
M  V30 610 C 60.703 -0.400584 1.90024 0
M  V30 611 O 59.978 -1.29672 1.44967 0
M  V30 612 C 60.261 1.78375 3.12817 0
M  V30 613 C 60.114 3.32296 3.03149 0
M  V30 614 C 61.433 1.54309 4.12161 0
M  V30 615 H 58.552 0.387251 0.627061 0
M  V30 616 H 61.194 1.51536 1.14616 0
M  V30 617 H 59.344 1.39848 3.62457 0
M  V30 618 H 61.016 3.8032 2.61064 0
M  V30 619 H 59.259 3.6153 2.39747 0
M  V30 620 H 59.93 3.77972 4.02295 0
M  V30 621 H 62.406 1.87791 3.71314 0
M  V30 622 H 61.282 2.07281 5.08258 0
M  V30 623 H 61.543 0.477572 4.39513 0
M  V30 624 N 60.6021 -1.18246 1.0419 0
M  V30 625 C 61.5341 -2.2142 0.592088 0
M  V30 626 C 62.5471 -1.59233 -0.338909 0
M  V30 627 O 63.7361 -1.78002 -0.133231 0
M  V30 628 C 60.8361 -3.38546 -0.154854 0
M  V30 629 C 60.0091 -4.3031 0.784328 0
M  V30 630 C 59.0681 -5.26138 0.0804583 0
M  V30 631 O 58.0941 -5.64738 0.711292 0
M  V30 632 N 59.2961 -5.68261 -1.18574 0
M  V30 633 H 62.0611 -2.60636 1.47949 0
M  V30 634 H 59.6221 -1.33044 0.922544 0
M  V30 635 H 61.6141 -3.99678 -0.635606 0
M  V30 636 H 60.1841 -2.98012 -0.943811 0
M  V30 637 H 59.4041 -3.66764 1.44491 0
M  V30 638 H 60.6921 -4.8852 1.42218 0
M  V30 639 H 60.0901 -5.38957 -1.71876 0
M  V30 640 H 58.6471 -6.31584 -1.61074 0
M  V30 641 N 62.0802 -0.821533 -1.34494 0
M  V30 642 C 63.3082 -0.421884 -2.02553 0
M  V30 643 C 63.7232 0.971745 -1.61872 0
M  V30 644 O 63.0802 1.62864 -0.823496 0
M  V30 645 C 63.1312 -0.51285 -3.57844 0
M  V30 646 O 62.8522 -1.85155 -3.97051 0
M  V30 647 C 64.3532 -0.107921 -4.43169 0
M  V30 648 H 61.5732 -0.169482 -0.649243 0
M  V30 649 H 64.1172 -1.1093 -1.71798 0
M  V30 650 H 62.2722 0.126474 -3.87193 0
M  V30 651 H 62.6862 -1.82482 -4.91732 0
M  V30 652 H 64.1602 -0.222657 -5.51551 0
M  V30 653 H 64.6372 0.948401 -4.28838 0
M  V30 654 H 65.2432 -0.720989 -4.19144 0
M  V30 655 N 63.5583 1.46682 -0.576371 0
M  V30 656 C 64.9693 1.86112 -0.148091 0
M  V30 657 C 65.3203 1.48073 1.2872 0
M  V30 658 O 64.4453 0.892656 1.97131 0
M  V30 659 C 65.0403 3.37786 -0.261982 0
M  V30 660 C 63.5993 3.76235 0.111384 0
M  V30 661 C 62.7463 2.70713 -0.60083 0
M  V30 662 H 65.6973 1.37927 -0.78497 0
M  V30 663 H 65.7183 3.77007 0.514364 0
M  V30 664 H 65.2303 3.6544 -1.30671 0
M  V30 665 H 63.3313 3.54198 1.15649 0
M  V30 666 H 63.4443 4.78391 -0.26052 0
M  V30 667 H 61.8083 2.54666 -0.0417783 0
M  V30 668 H 62.5913 3.01208 -1.64708 0
M  V30 669 N 65.0364 0.313813 1.54444 0
M  V30 670 C 65.9464 -0.565714 2.27677 0
M  V30 671 C 66.9624 -1.13754 1.31666 0
M  V30 672 O 68.1384 -1.15959 1.64668 0
M  V30 673 C 65.2034 -1.71528 3.01296 0
M  V30 674 C 64.2644 -1.17624 4.12872 0
M  V30 675 C 63.4974 -2.27102 4.8297 0
M  V30 676 O 63.7204 -3.47256 4.52514 0
M  V30 677 O 62.6544 -1.9307 5.70094 0
M  V30 678 H 66.4804 0.0287296 3.03686 0
M  V30 679 H 64.0654 0.0798312 1.49187 0
M  V30 680 H 65.9474 -2.38476 3.4743 0
M  V30 681 H 64.6224 -2.29608 2.2817 0
M  V30 682 H 63.5294 -0.472124 3.71109 0
M  V30 683 H 64.8624 -0.640695 4.88012 0
M  V30 684 N 66.5145 -1.57545 0.0417849 0
M  V30 685 C 67.7605 -1.92601 -0.635021 0
M  V30 686 C 68.0935 -0.919627 -1.71045 0
M  V30 687 O 67.3685 0.0557892 -1.9442 0
M  V30 688 C 67.6515 -3.38085 -1.23979 0
M  V30 689 C 67.5045 -4.49467 -0.173057 0
M  V30 690 C 68.8235 -3.83776 -2.15416 0
M  V30 691 H 65.9425 -0.700397 -0.229374 0
M  V30 692 H 68.5845 -1.89728 0.101633 0
M  V30 693 H 66.7345 -3.40664 -1.86762 0
M  V30 694 H 68.4065 -4.59018 0.458312 0
M  V30 695 H 66.6495 -4.30909 0.499996 0
M  V30 696 H 67.3205 -5.48323 -0.636054 0
M  V30 697 H 69.7965 -3.83013 -1.62605 0
M  V30 698 H 68.6725 -4.8624 -2.54679 0
M  V30 699 H 68.9335 -3.19998 -3.05047 0
M  V30 700 N 67.9926 0.231505 -1.5589 0
M  V30 701 C 69.2416 0.955346 -1.7764 0
M  V30 702 C 69.5546 1.85893 -0.608546 0
M  V30 703 O 70.7606 2.62067 -0.70943 0
M  V30 704 C 69.2166 1.74886 -3.14552 0
M  V30 705 C 68.8246 0.891915 -4.39032 0
M  V30 706 C 70.5686 2.46452 -3.45633 0
M  V30 707 C 68.4756 1.68221 -5.66971 0
M  V30 708 H 67.4056 0.360446 -0.662265 0
M  V30 709 H 70.0566 0.209516 -1.823 0
M  V30 710 H 68.4386 2.53723 -3.04041 0
M  V30 711 H 69.6126 0.144793 -4.60572 0
M  V30 712 H 67.9276 0.288863 -4.15397 0
M  V30 713 H 70.5246 3.06061 -4.38441 0
M  V30 714 H 70.8676 3.18841 -2.67668 0
M  V30 715 H 71.4006 1.74613 -3.57428 0
M  V30 716 H 68.1396 1.00178 -6.478 0
M  V30 717 H 67.6596 2.4042 -5.49507 0
M  V30 718 H 69.3386 2.24544 -6.06786 0
M  V30 719 N 69.4707 1.49531 0.497807 0
M  V30 720 C 70.3807 1.69176 1.62532 0
M  V30 721 C 71.3967 0.5744 1.64246 0
M  V30 722 O 72.5727 0.849497 1.82608 0
M  V30 723 C 69.6377 1.75695 2.98885 0
M  V30 724 C 68.6987 2.9929 3.07773 0
M  V30 725 C 67.9317 3.05488 4.37622 0
M  V30 726 O 68.1547 2.19192 5.26603 0
M  V30 727 O 67.0887 3.9798 4.51548 0
M  V30 728 H 70.9147 2.647 1.48887 0
M  V30 729 H 68.4997 1.3331 0.674441 0
M  V30 730 H 70.3817 1.82317 3.79919 0
M  V30 731 H 69.0567 0.8335 3.12785 0
M  V30 732 H 67.9637 2.98183 2.25915 0
M  V30 733 H 69.2967 3.91125 2.98801 0
M  V30 734 N 70.9488 -0.749086 1.3866 0
M  V30 735 C 71.8958 -1.86291 1.36251 0
M  V30 736 C 72.8658 -1.64578 0.224347 0
M  V30 737 O 74.0508 -1.86181 0.417279 0
M  V30 738 C 71.1908 -3.23644 1.19786 0
M  V30 739 C 70.3038 -3.57158 2.43027 0
M  V30 740 C 69.4388 -4.83838 2.19258 0
M  V30 741 C 68.4778 -5.10152 3.38247 0
M  V30 742 N 67.6148 -6.28029 3.13884 0
M  V30 743 H 72.4548 -1.87685 2.3147 0
M  V30 744 H 69.9918 -0.917287 1.14997 0
M  V30 745 H 71.9498 -4.0291 1.08254 0
M  V30 746 H 70.5798 -3.21566 0.282031 0
M  V30 747 H 69.6318 -2.72701 2.65214 0
M  V30 748 H 70.9438 -3.7253 3.31697 0
M  V30 749 H 70.0978 -5.71057 2.04888 0
M  V30 750 H 68.8368 -4.70614 1.2796 0
M  V30 751 H 67.8418 -4.21401 3.53131 0
M  V30 752 H 69.0668 -5.25271 4.30427 0
M  V30 753 H 67.0128 -6.1612 2.25238 0
M  V30 754 H 66.9298 -6.43922 3.96106 0
M  V30 755 H 68.1978 -7.18124 3.03179 0
M  V30 756 N 72.4269 -1.23603 -0.977757 0
M  V30 757 C 73.3599 -0.962772 -2.06896 0
M  V30 758 C 74.3379 0.0998743 -1.62293 0
M  V30 759 O 75.5219 -0.0349421 -1.88468 0
M  V30 760 C 72.6489 -0.45095 -3.35685 0
M  V30 761 C 71.6949 -1.50061 -3.99229 0
M  V30 762 S 72.5279 -3.07884 -4.38142 0
M  V30 763 C 73.6839 -2.58378 -5.7008 0
M  V30 764 H 73.9169 -1.88677 -2.29757 0
M  V30 765 H 71.4499 -1.06876 -1.11431 0
M  V30 766 H 73.4079 -0.162261 -4.10179 0
M  V30 767 H 72.0689 0.452179 -3.10828 0
M  V30 768 H 71.2619 -1.09269 -4.92013 0
M  V30 769 H 70.8639 -1.73878 -3.31123 0
M  V30 770 H 73.1559 -2.00563 -6.47133 0
M  V30 771 H 74.0989 -3.49711 -6.15717 0
M  V30 772 H 74.5069 -1.99143 -5.28207 0
M  V30 773 N 73.905 1.17692 -1.04816 0
M  V30 774 C 75.321 1.39863 -0.768794 0
M  V30 775 C 75.521 1.91118 0.638451 0
M  V30 776 O 74.577 2.10036 1.40146 0
M  V30 777 C 75.89 2.39274 -1.82122 0
M  V30 778 C 77.438 2.52987 -1.843 0
M  V30 779 C 77.913 3.55669 -2.88555 0
M  V30 780 N 79.404 3.63183 -2.87493 0
M  V30 781 C 80.139 4.42381 -3.64811 0
M  V30 782 N 79.635 5.25125 -4.51903 0
M  V30 783 N 81.428 4.37217 -3.53267 0
M  V30 784 H 73.579 0.82752 -1.95617 0
M  V30 785 H 75.842 0.426123 -0.846831 0
M  V30 786 H 75.548 2.08678 -2.83102 0
M  V30 787 H 75.422 3.38725 -1.65967 0
M  V30 788 H 77.809 2.82896 -0.839869 0
M  V30 789 H 77.89 1.53623 -2.04532 0
M  V30 790 H 77.534 3.26499 -3.89051 0
M  V30 791 H 77.464 4.54728 -2.65575 0
M  V30 792 H 79.955 3.04103 -2.24343 0
M  V30 793 H 80.268 5.82728 -5.07591 0
M  V30 794 H 78.613 5.24519 -4.55966 0
M  V30 795 H 81.804 3.71626 -2.84625 0
M  V30 796 H 81.977 4.98696 -4.13771 0
M  V30 797 N 75.3831 0.828654 1.34056 0
M  V30 798 C 76.6291 0.42008 1.98402 0
M  V30 799 C 76.9621 -1.01564 1.65525 0
M  V30 800 O 76.2371 -1.70834 0.929831 0
M  V30 801 C 76.5201 0.62927 3.54559 0
M  V30 802 C 76.3731 2.11152 3.97159 0
M  V30 803 C 77.6921 0.0688756 4.40046 0
M  V30 804 H 74.8111 0.154104 0.720709 0
M  V30 805 H 77.4531 1.04228 1.5886 0
M  V30 806 H 75.6031 0.0996418 3.88372 0
M  V30 807 H 77.2751 2.70522 3.73651 0
M  V30 808 H 75.5181 2.59985 3.47261 0
M  V30 809 H 76.1891 2.20868 5.05887 0
M  V30 810 H 78.6651 0.521458 4.1282 0
M  V30 811 H 77.5411 0.245006 5.48353 0
M  V30 812 H 77.8021 -1.0266 4.30015 0
M  V30 813 N 76.8612 -1.46375 0.584142 0
M  V30 814 C 77.8242 -2.28784 -0.138108 0
M  V30 815 C 78.8242 -1.38471 -0.817462 0
M  V30 816 O 80.0142 -1.60833 -0.669199 0
M  V30 817 C 77.1462 -3.18892 -1.20503 0
M  V30 818 H 78.3392 -2.94117 0.586127 0
M  V30 819 H 75.8922 -1.52509 0.342171 0
M  V30 820 H 76.6272 -2.58309 -1.96079 0
M  V30 821 H 76.4122 -3.85388 -0.722384 0
M  V30 822 H 77.9022 -3.80914 -1.71155 0
M  V30 823 N 78.3393 -0.321999 -1.54275 0
M  V30 824 C 79.5873 0.280489 -2.00144 0
M  V30 825 C 79.9083 1.52777 -1.21178 0
M  V30 826 O 79.1783 1.9338 -0.313187 0
M  V30 827 H 77.7583 0.106632 -0.73935 0
M  V30 828 H 80.4203 -0.438184 -1.8991 0
M  V30 829 H 79.5163 0.537972 -3.07428 0
M  V30 830 N 79.8174 1.5752 -0.0501392 0
M  V30 831 C 81.2334 1.56631 0.306402 0
M  V30 832 C 81.4334 1.0577 1.71508 0
M  V30 833 O 80.4894 0.713837 2.422 0
M  V30 834 C 81.8024 3.00393 0.135811 0
M  V30 835 C 83.3504 3.12315 0.206993 0
M  V30 836 C 83.8254 4.57954 0.064944 0
M  V30 837 N 85.3164 4.63041 0.121254 0
M  V30 838 C 86.0514 5.73389 0.0354381 0
M  V30 839 N 85.5474 6.92724 -0.102666 0
M  V30 840 N 87.3404 5.62026 0.090946 0
M  V30 841 H 79.4914 1.88903 -0.971046 0
M  V30 842 H 81.7544 0.869876 -0.376855 0
M  V30 843 H 81.4604 3.41635 -0.835384 0
M  V30 844 H 81.3344 3.66373 0.897275 0
M  V30 845 H 83.7214 2.70973 1.16866 0
M  V30 846 H 83.8024 2.49016 -0.585208 0
M  V30 847 H 83.4464 4.99981 -0.893394 0
M  V30 848 H 83.3764 5.19258 0.876277 0
M  V30 849 H 85.8674 3.77216 0.227284 0
M  V30 850 H 86.1804 7.72633 -0.160882 0
M  V30 851 H 84.5254 6.94864 -0.137737 0
M  V30 852 H 87.7164 4.67684 0.197388 0
M  V30 853 H 87.8894 6.47997 0.0206089 0
M  V30 854 N 81.2955 -0.223234 1.56011 0
M  V30 855 C 82.5445 -0.945912 1.78144 0
M  V30 856 C 82.8575 -1.85567 0.618396 0
M  V30 857 O 84.0635 -2.61688 0.723318 0
M  V30 858 C 82.5195 -1.73216 3.15475 0
M  V30 859 C 82.1275 -0.868619 4.39499 0
M  V30 860 C 83.8715 -2.44615 3.46935 0
M  V30 861 C 81.7785 -1.65212 5.67855 0
M  V30 862 H 80.7085 -0.356929 0.664167 0
M  V30 863 H 83.3595 -0.199845 1.82409 0
M  V30 864 H 81.7415 -2.52107 3.05382 0
M  V30 865 H 82.9155 -0.120366 4.60643 0
M  V30 866 H 81.2305 -0.26683 4.15544 0
M  V30 867 H 83.8275 -3.03732 4.40058 0
M  V30 868 H 84.1705 -3.17417 2.69355 0
M  V30 869 H 84.7035 -1.72715 3.58349 0
M  V30 870 H 81.4425 -0.967407 6.48322 0
M  V30 871 H 80.9625 -2.37503 5.50774 0
M  V30 872 H 82.6415 -2.21322 6.07968 0
M  V30 873 N 82.7736 -1.49793 -0.48987 0
M  V30 874 C 83.7366 -1.66752 -1.57246 0
M  V30 875 C 84.7366 -0.538867 -1.51502 0
M  V30 876 O 85.9266 -0.805545 -1.54456 0
M  V30 877 C 83.0586 -1.67528 -2.96896 0
M  V30 878 H 84.2516 -2.63321 -1.43534 0
M  V30 879 H 81.8046 -1.38992 -0.714914 0
M  V30 880 H 82.5396 -0.725837 -3.16073 0
M  V30 881 H 82.3246 -2.49504 -3.02473 0
M  V30 882 H 83.8146 -1.82667 -3.7553 0
M  V30 883 N 84.2517 0.741722 -1.39055 0
M  V30 884 C 85.2147 1.83733 -1.37021 0
M  V30 885 C 86.2147 1.58542 -0.268534 0
M  V30 886 O 87.4047 1.66067 -0.526076 0
M  V30 887 C 84.5367 3.2141 -1.13617 0
M  V30 888 H 85.7297 1.86941 -2.34506 0
M  V30 889 H 83.2827 0.944676 -1.24521 0
M  V30 890 H 84.0177 3.23865 -0.167863 0
M  V30 891 H 83.8027 3.4109 -1.93391 0
M  V30 892 H 85.2927 4.01477 -1.14918 0
M  V30 893 N 85.7298 1.2412 0.971189 0
M  V30 894 C 86.9778 1.07668 1.71032 0
M  V30 895 C 87.2988 -0.385797 1.91146 0
M  V30 896 O 86.5688 -1.27569 1.4867 0
M  V30 897 H 85.1488 0.395429 0.633755 0
M  V30 898 H 87.8108 1.55984 1.16855 0
M  V30 899 H 86.9068 1.57195 2.69622 0
M  V30 900 N 87.2079 -1.17134 1.05439 0
M  V30 901 C 88.1709 -2.19439 0.661764 0
M  V30 902 C 89.1709 -1.58199 -0.288042 0
M  V30 903 O 90.3609 -1.74053 -0.0715803 0
M  V30 904 C 87.4929 -3.40889 -0.0276209 0
M  V30 905 H 88.6859 -2.55688 1.56728 0
M  V30 906 H 86.2389 -1.31259 0.848567 0
M  V30 907 H 86.9739 -3.10187 -0.94629 0
M  V30 908 H 86.7589 -3.86586 0.655238 0
M  V30 909 H 88.2489 -4.16603 -0.288342 0
M  V30 910 N 88.686 -0.835752 -1.33615 0
M  V30 911 C 89.616 -0.281739 -2.31794 0
M  V30 912 C 90.597 0.608833 -1.58831 0
M  V30 913 O 91.782 0.533035 -1.86741 0
M  V30 914 C 88.912 0.546612 -3.42971 0
M  V30 915 C 87.866 -0.247904 -4.27281 0
M  V30 916 C 87.192 0.704001 -5.30045 0
M  V30 917 C 88.492 -1.46324 -5.01385 0
M  V30 918 H 90.186 -1.10206 -2.78379 0
M  V30 919 H 87.732 -0.531388 -1.33837 0
M  V30 920 H 89.685 0.944467 -4.1068 0
M  V30 921 H 88.409 1.40011 -2.95067 0
M  V30 922 H 87.068 -0.627281 -3.61194 0
M  V30 923 H 86.716 1.55381 -4.78399 0
M  V30 924 H 86.416 0.176524 -5.87335 0
M  V30 925 H 87.94 1.09944 -6.0062 0
M  V30 926 H 89.354 -1.13871 -5.61877 0
M  V30 927 H 87.751 -1.92728 -5.6831 0
M  V30 928 H 88.821 -2.23467 -4.30338 0
M  V30 929 N 90.1641 1.46063 -0.591896 0
M  V30 930 C 91.1271 2.28854 0.125973 0
M  V30 931 C 92.1271 1.38903 0.810107 0
M  V30 932 O 93.3171 1.61186 0.66066 0
M  V30 933 C 90.4491 3.19526 1.1881 0
M  V30 934 H 91.6421 2.93802 -0.601717 0
M  V30 935 H 89.1951 1.52325 -0.350254 0
M  V30 936 H 89.9301 2.59345 1.94707 0
M  V30 937 H 89.7151 3.85766 0.701936 0
M  V30 938 H 91.2051 3.81817 1.69132 0
M  V30 939 N 91.6422 0.330177 1.54103 0
M  V30 940 C 92.5522 -0.541534 2.28264 0
M  V30 941 C 93.5682 -1.12351 1.32866 0
M  V30 942 O 94.7442 -1.14206 1.65888 0
M  V30 943 C 91.8092 -1.68322 3.03098 0
M  V30 944 C 90.8702 -1.13238 4.14096 0
M  V30 945 C 90.1032 -2.21966 4.85352 0
M  V30 946 O 90.3262 -3.42437 4.56172 0
M  V30 947 O 89.2602 -1.87013 5.7211 0
M  V30 948 H 93.0862 0.060938 3.03639 0
M  V30 949 H 90.6712 0.09565 1.49093 0
M  V30 950 H 92.5532 -2.34777 3.49939 0
M  V30 951 H 91.2282 -2.27176 2.30593 0
M  V30 952 H 90.1352 -0.432736 3.71589 0
M  V30 953 H 91.4682 -0.588898 4.88664 0
M  V30 954 N 93.1203 -1.57491 0.0584922 0
M  V30 955 C 94.0833 -2.1085 -0.898617 0
M  V30 956 C 95.0833 -1.02964 -1.23511 0
M  V30 957 O 96.2733 -1.29007 -1.17059 0
M  V30 958 C 93.4053 -2.59881 -2.20623 0
M  V30 959 H 94.5983 -2.96715 -0.435936 0
M  V30 960 H 92.1513 -1.55141 -0.190023 0
M  V30 961 H 92.8863 -1.77431 -2.71457 0
M  V30 962 H 92.6713 -3.38727 -1.97501 0
M  V30 963 H 94.1613 -3.01285 -2.89166 0
M  V30 964 N 94.5984 0.214957 -1.56127 0
M  V30 965 C 95.8464 0.936518 -1.79091 0
M  V30 966 C 96.1674 1.84606 -0.628148 0
M  V30 967 O 95.4374 1.92664 0.35462 0
M  V30 968 H 94.0174 0.3488 -0.660566 0
M  V30 969 H 96.6794 0.22523 -1.93594 0
M  V30 970 H 95.7754 1.53943 -2.71492 0
M  V30 971 N 96.0765 1.50051 0.48192 0
M  V30 972 C 97.0235 1.68122 1.58125 0
M  V30 973 C 97.9935 0.522545 1.57666 0
M  V30 974 O 99.1785 0.751844 1.75362 0
M  V30 975 C 96.3185 1.77142 2.96167 0
M  V30 976 C 95.4315 3.0444 3.06497 0
M  V30 977 C 94.5665 3.04321 4.35387 0
M  V30 978 C 93.6055 4.26118 4.3942 0
M  V30 979 N 92.7425 4.238 5.59766 0
M  V30 980 H 97.5825 2.6198 1.42022 0
M  V30 981 H 95.1195 1.29877 0.690687 0
M  V30 982 H 97.0775 1.80352 3.76203 0
M  V30 983 H 95.7075 0.867329 3.1093 0
M  V30 984 H 94.7595 3.10752 2.19402 0
M  V30 985 H 96.0715 3.94426 3.05336 0
M  V30 986 H 95.2255 3.062 5.23762 0
M  V30 987 H 93.9645 2.12147 4.39141 0
M  V30 988 H 92.9695 4.24463 3.49444 0
M  V30 989 H 94.1945 5.19507 4.37366 0
M  V30 990 H 92.1405 3.34474 5.64326 0
M  V30 991 H 92.0575 5.07542 5.60301 0
M  V30 992 H 93.3255 4.2981 6.50295 0
M  V30 993 N 97.5546 -0.734337 1.39446 0
M  V30 994 C 98.5176 -1.83004 1.37994 0
M  V30 995 C 99.5176 -1.58397 0.276938 0
M  V30 996 O 100.708 -1.65785 0.534875 0
M  V30 997 C 97.8396 -3.20802 1.1532 0
M  V30 998 H 99.0326 -1.85694 2.35494 0
M  V30 999 H 96.5856 -0.938059 1.25021 0
M  V30 1000 H 97.3206 -3.23772 0.185036 0
M  V30 1001 H 97.1056 -3.4006 1.95197 0
M  V30 1002 H 98.5956 -4.00862 1.17046 0
M  V30 1003 N 99.0327 -1.24633 -0.964593 0
M  V30 1004 C 100.279 -1.08949 -1.71049 0
M  V30 1005 C 100.612 0.370302 -1.90637 0
M  V30 1006 O 99.8867 1.27349 -1.47011 0
M  V30 1007 C 100.17 -1.83329 -3.0994 0
M  V30 1008 C 100.023 -3.37077 -2.97824 0
M  V30 1009 C 101.342 -1.60846 -4.09654 0
M  V30 1010 H 98.4607 -0.397178 -0.620821 0
M  V30 1011 H 101.103 -1.5334 -1.12191 0
M  V30 1012 H 99.2527 -1.45597 -3.60186 0
M  V30 1013 H 100.925 -3.84425 -2.5498 0
M  V30 1014 H 99.1677 -3.65298 -2.33965 0
M  V30 1015 H 99.8387 -3.84324 -3.96231 0
M  V30 1016 H 102.315 -1.93674 -3.68279 0
M  V30 1017 H 101.191 -2.1534 -5.04896 0
M  V30 1018 H 101.452 -0.547434 -4.38698 0
M  V30 1019 N 100.511 1.16574 -1.06058 0
M  V30 1020 C 101.474 2.19085 -0.673392 0
M  V30 1021 C 102.474 1.5835 0.279648 0
M  V30 1022 O 103.664 1.74088 0.0623488 0
M  V30 1023 C 100.796 3.40899 0.00954234 0
M  V30 1024 H 101.989 2.54853 -1.58081 0
M  V30 1025 H 99.5418 1.30808 -0.855516 0
M  V30 1026 H 100.277 3.10684 0.929826 0
M  V30 1027 H 100.062 3.86233 -0.67573 0
M  V30 1028 H 101.552 4.1675 0.266245 0
M  V30 1029 N 101.989 0.842826 1.3317 0
M  V30 1030 C 103.4 0.496651 1.79973 0
M  V30 1031 C 103.751 -0.984641 1.69703 0
M  V30 1032 O 102.876 -1.76743 1.24863 0
M  V30 1033 C 103.471 0.894727 3.26772 0
M  V30 1034 C 102.03 0.600629 3.71577 0
M  V30 1035 C 101.177 1.10091 2.5451 0
M  V30 1036 H 104.128 1.03116 1.20635 0
M  V30 1037 H 104.149 0.206347 3.7994 0
M  V30 1038 H 103.661 1.97287 3.34215 0
M  V30 1039 H 101.762 -0.467284 3.69658 0
M  V30 1040 H 101.875 1.15863 4.64879 0
M  V30 1041 H 100.239 0.52162 2.49301 0
M  V30 1042 H 101.022 2.18591 2.64713 0
M  V30 1043 N 103.467 -1.45747 0.599634 0
M  V30 1044 C 104.715 -2.01893 0.0915472 0
M  V30 1045 C 105.036 -1.47155 -1.27946 0
M  V30 1046 O 104.306 -0.66273 -1.84349 0
M  V30 1047 H 102.886 -0.746363 0.0308524 0
M  V30 1048 H 105.548 -1.78645 0.779237 0
M  V30 1049 H 104.644 -3.1208 0.0353086 0
M  V30 1050 N 104.945 -0.338344 -1.53925 0
M  V30 1051 C 106.191 0.260143 -2.01125 0
M  V30 1052 C 106.524 1.50617 -1.22589 0
M  V30 1053 O 105.799 1.91979 -0.312113 0
M  V30 1054 C 106.082 0.579499 -3.55407 0
M  V30 1055 C 105.935 -0.678264 -4.44657 0
M  V30 1056 C 107.254 1.39122 -4.17532 0
M  V30 1057 H 104.373 0.0930772 -0.731099 0
M  V30 1058 H 107.015 -0.457852 -1.84401 0
M  V30 1059 H 105.165 1.19118 -3.69788 0
M  V30 1060 H 106.837 -1.31631 -4.42121 0
M  V30 1061 H 105.08 -1.3042 -4.13731 0
M  V30 1062 H 105.751 -0.410143 -5.50474 0
M  V30 1063 H 108.227 0.874035 -4.06817 0
M  V30 1064 H 107.103 1.58342 -5.25565 0
M  V30 1065 H 107.364 2.39178 -3.71815 0
M  V30 1066 N 106.423 1.57458 -0.0668435 0
M  V30 1067 C 107.651 1.97624 0.612565 0
M  V30 1068 C 108.066 0.94502 1.63447 0
M  V30 1069 O 107.423 -0.0689276 1.8237 0
M  V30 1070 C 107.474 3.37869 1.28555 0
M  V30 1071 O 107.195 4.3704 0.304557 0
M  V30 1072 C 108.696 3.92882 2.05325 0
M  V30 1073 H 105.916 0.650045 0.166381 0
M  V30 1074 H 108.46 2.04035 -0.137782 0
M  V30 1075 H 106.615 3.3256 1.98702 0
M  V30 1076 H 107.029 5.18565 0.786779 0
M  V30 1077 H 108.503 4.93247 2.47812 0
M  V30 1078 H 108.98 3.29156 2.9078 0
M  V30 1079 H 109.586 4.01577 1.40056 0
M  V30 1080 N 107.901 -0.206675 1.56239 0
M  V30 1081 C 109.129 -0.945345 1.8404 0
M  V30 1082 C 109.544 -1.77336 0.647885 0
M  V30 1083 O 108.901 -1.78425 -0.383511 0
M  V30 1084 C 108.952 -1.8509 3.10522 0
M  V30 1085 O 108.673 -1.05634 4.25174 0
M  V30 1086 C 110.174 -2.70222 3.51418 0
M  V30 1087 H 107.394 -0.276372 0.61144 0
M  V30 1088 H 109.938 -0.217417 2.03341 0
M  V30 1089 H 108.093 -2.53259 2.93153 0
M  V30 1090 H 108.507 -1.67238 4.97124 0
M  V30 1091 H 109.981 -3.29438 4.42916 0
M  V30 1092 H 110.458 -3.43358 2.73864 0
M  V30 1093 H 111.064 -2.07443 3.71278 0
M  V30 1094 N 109.379 -1.50304 -0.473955 0
M  V30 1095 C 110.656 -1.51667 -1.23518 0
M  V30 1096 C 111.036 -0.259701 -2.09496 0
M  V30 1097 O 110.384 0.756986 -2.15597 0
M  V30 1098 C 110.594 -2.81082 -2.06868 0
M  V30 1099 C 111.942 -3.31631 -2.65153 0
M  V30 1100 O 112.966 -2.82384 -2.17113 0
M  V30 1101 O 111.825 -4.17471 -3.52675 0
M  V30 1102 H 108.919 -0.60822 -0.560355 0
M  V30 1103 H 111.465 -1.62592 -0.486011 0
M  V30 1104 H 110.237 -3.64041 -1.4349 0
M  V30 1105 H 109.86 -2.73146 -2.88924 0
M  V30 1106 N 110.857 0.726932 -1.39834 0
M  V30 1107 C 111.767 1.87131 -1.41489 0
M  V30 1108 C 112.783 1.71239 -0.308757 0
M  V30 1109 O 113.959 1.93701 -0.551529 0
M  V30 1110 C 111.024 3.22811 -1.26468 0
M  V30 1111 C 110.085 3.51039 -2.47124 0
M  V30 1112 C 109.318 4.80245 -2.3281 0
M  V30 1113 O 109.541 5.54537 -1.33585 0
M  V30 1114 O 108.475 5.08554 -3.21957 0
M  V30 1115 H 112.301 1.8869 -2.3797 0
M  V30 1116 H 109.886 0.875837 -1.21035 0
M  V30 1117 H 111.768 4.03877 -1.20255 0
M  V30 1118 H 110.443 3.22005 -0.330862 0
M  V30 1119 H 109.35 2.70027 -2.58914 0
M  V30 1120 H 110.683 3.56632 -3.39227 0
M  V30 1121 N 112.336 1.25143 0.95797 0
M  V30 1122 C 113.266 1.07711 2.07173 0
M  V30 1123 C 114.247 -0.0128462 1.70095 0
M  V30 1124 O 115.432 0.156061 1.93572 0
M  V30 1125 C 112.562 0.691503 3.40346 0
M  V30 1126 C 111.516 1.73132 3.9142 0
M  V30 1127 C 110.842 1.20049 5.21049 0
M  V30 1128 C 112.142 3.1294 4.1817 0
M  V30 1129 H 113.836 2.00873 2.22014 0
M  V30 1130 H 111.382 0.967191 1.06684 0
M  V30 1131 H 113.335 0.556505 4.17709 0
M  V30 1132 H 112.059 -0.275819 3.25433 0
M  V30 1133 H 110.718 1.8547 3.16222 0
M  V30 1134 H 110.366 0.223499 5.02503 0
M  V30 1135 H 110.066 1.89545 5.56189 0
M  V30 1136 H 111.59 1.07782 6.01012 0
M  V30 1137 H 113.004 3.03775 4.86203 0
M  V30 1138 H 111.401 3.79875 4.64559 0
M  V30 1139 H 112.471 3.6025 3.24573 0
M  V30 1140 N 113.814 -1.1601 1.06675 0
M  V30 1141 C 115.091 -1.82679 0.699114 0
M  V30 1142 C 115.471 -1.94559 -0.819137 0
M  V30 1143 O 114.819 -1.49169 -1.73092 0
M  V30 1144 C 115.029 -3.19445 1.40555 0
M  V30 1145 C 116.377 -3.95171 1.55323 0
M  V30 1146 O 117.401 -3.28976 1.36577 0
M  V30 1147 O 116.26 -5.13833 1.86112 0
M  V30 1148 H 113.354 -0.788954 0.247951 0
M  V30 1149 H 115.9 -1.23179 1.16726 0
M  V30 1150 H 114.672 -3.05856 2.44065 0
M  V30 1151 H 114.295 -3.86625 0.927733 0
M  V30 1152 N 115.292 -0.849877 -1.32721 0
M  V30 1153 C 116.708 -0.539102 -1.50219 0
M  V30 1154 C 116.908 0.931271 -1.78689 0
M  V30 1155 O 115.964 1.71455 -1.85363 0
M  V30 1156 C 117.277 -1.42196 -2.64954 0
M  V30 1157 C 118.825 -1.42189 -2.78839 0
M  V30 1158 C 119.3 -2.28985 -3.96648 0
M  V30 1159 N 120.791 -2.26754 -4.03902 0
M  V30 1160 C 121.526 -2.90644 -4.94281 0
M  V30 1161 N 121.022 -3.63629 -5.897 0
M  V30 1162 N 122.815 -2.80057 -4.87365 0
M  V30 1163 H 114.966 -1.80156 -1.12506 0
M  V30 1164 H 117.229 -0.769217 -0.554085 0
M  V30 1165 H 116.935 -2.46733 -2.50631 0
M  V30 1166 H 116.809 -1.10591 -3.60624 0
M  V30 1167 H 119.196 -0.38419 -2.92588 0
M  V30 1168 H 119.277 -1.77807 -1.83898 0
M  V30 1169 H 118.921 -3.32819 -3.83658 0
M  V30 1170 H 118.851 -1.90702 -4.90857 0
M  V30 1171 H 121.342 -1.73688 -3.3562 0
M  V30 1172 H 121.655 -4.09558 -6.55349 0
M  V30 1173 H 120 -3.67737 -5.89741 0
M  V30 1174 H 123.191 -2.22593 -4.11789 0
M  V30 1175 H 123.364 -3.30132 -5.57599 0
M  V30 1176 N 116.77 1.45427 -0.607355 0
M  V30 1177 C 118.019 2.01452 -0.100036 0
M  V30 1178 C 118.332 1.48159 1.27704 0
M  V30 1179 O 119.538 1.96159 1.87707 0
M  V30 1180 C 117.994 3.59672 -0.128158 0
M  V30 1181 C 117.602 4.21962 -1.50507 0
M  V30 1182 C 119.346 4.23262 0.323932 0
M  V30 1183 C 117.253 5.72333 -1.48959 0
M  V30 1184 H 116.183 0.75325 -0.0336299 0
M  V30 1185 H 118.834 1.66901 -0.76265 0
M  V30 1186 H 117.216 3.91411 0.601105 0
M  V30 1187 H 118.39 4.01796 -2.25602 0
M  V30 1188 H 116.705 3.70565 -1.89923 0
M  V30 1189 H 119.302 5.33522 0.354691 0
M  V30 1190 H 119.645 3.93921 1.34656 0
M  V30 1191 H 120.178 3.96239 -0.352056 0
M  V30 1192 H 116.917 6.06373 -2.48981 0
M  V30 1193 H 116.437 5.94691 -0.781214 0
M  V30 1194 H 118.116 6.35525 -1.21313 0
M  V30 1195 N 118.248 0.346503 1.53744 0
M  V30 1196 C 119.211 -0.496439 2.23759 0
M  V30 1197 C 120.211 -1.0252 1.2388 0
M  V30 1198 O 121.401 -0.913974 1.48297 0
M  V30 1199 C 118.533 -1.69187 2.95954 0
M  V30 1200 H 119.726 0.115952 2.99676 0
M  V30 1201 H 117.279 0.0978939 1.55993 0
M  V30 1202 H 118.014 -2.34288 2.24231 0
M  V30 1203 H 117.799 -1.31989 3.69217 0
M  V30 1204 H 119.289 -2.28969 3.49232 0
M  V30 1205 N 119.726 -1.57421 0.075193 0
M  V30 1206 C 120.676 -2.09441 -0.901025 0
M  V30 1207 C 121.66 -1.00486 -1.25663 0
M  V30 1208 O 122.852 -1.2679 -1.23504 0
M  V30 1209 C 119.981 -2.66233 -2.16737 0
M  V30 1210 C 119.067 -3.82198 -1.83808 0
M  V30 1211 N 119.458 -4.91028 -1.21345 0
M  V30 1212 C 117.756 -3.91558 -2.13538 0
M  V30 1213 C 118.457 -5.71852 -1.06585 0
M  V30 1214 N 117.433 -5.20233 -1.57667 0
M  V30 1215 H 121.235 -2.90972 -0.413815 0
M  V30 1216 H 118.749 -1.6189 -0.128601 0
M  V30 1217 H 120.746 -3.01819 -2.87595 0
M  V30 1218 H 119.406 -1.8615 -2.66042 0
M  V30 1219 H 120.417 -5.10323 -0.88268 0
M  V30 1220 H 117.094 -3.22454 -2.65197 0
M  V30 1221 H 118.484 -6.69401 -0.578933 0
M  V30 1222 N 121.204 0.198386 -1.56346 0
M  V30 1223 C 122.114 1.2664 -1.97483 0
M  V30 1224 C 123.13 1.49989 -0.882002 0
M  V30 1225 O 124.306 1.62668 -1.18748 0
M  V30 1226 C 121.371 2.59141 -2.30319 0
M  V30 1227 C 120.432 2.43892 -3.53292 0
M  V30 1228 C 119.665 3.70074 -3.84553 0
M  V30 1229 O 119.888 4.74101 -3.1715 0
M  V30 1230 O 118.822 3.658 -4.7799 0
M  V30 1231 H 122.648 0.947304 -2.88548 0
M  V30 1232 H 120.233 0.403123 -1.43859 0
M  V30 1233 H 122.115 3.37352 -2.5253 0
M  V30 1234 H 120.79 2.90684 -1.42423 0
M  V30 1235 H 119.697 1.63803 -3.36332 0
M  V30 1236 H 121.03 2.17282 -4.41644 0
M  V30 1237 N 122.682 1.50554 0.465978 0
M  V30 1238 C 123.912 1.65323 1.23903 0
M  V30 1239 C 124.32 0.338051 1.86155 0
M  V30 1240 O 123.663 -0.690518 1.70228 0
M  V30 1241 C 123.725 2.69048 2.3844 0
M  V30 1242 C 123.389 4.12462 1.96784 0
M  V30 1243 C 124.386 4.98168 1.48745 0
M  V30 1244 C 122.071 4.58407 2.05349 0
M  V30 1245 C 124.065 6.27868 1.0982 0
M  V30 1246 C 121.752 5.88112 1.66035 0
M  V30 1247 C 122.75 6.72668 1.18349 0
M  V30 1248 O 122.438 7.99951 0.795825 0
M  V30 1249 H 122.17 0.558629 0.38067 0
M  V30 1250 H 124.724 1.97561 0.562022 0
M  V30 1251 H 122.954 2.32062 3.09328 0
M  V30 1252 H 124.643 2.72985 3.0039 0
M  V30 1253 H 125.409 4.63885 1.41546 0
M  V30 1254 H 121.288 3.92735 2.41414 0
M  V30 1255 H 124.832 6.93819 0.725293 0
M  V30 1256 H 120.729 6.21914 1.72895 0
M  V30 1257 H 121.497 8.13265 0.924222 0
M  V30 1258 N 124.16 -0.719506 1.40217 0
M  V30 1259 C 125.09 -1.8465 1.42922 0
M  V30 1260 C 126.071 -1.67599 0.29062 0
M  V30 1261 O 127.256 -1.87688 0.498677 0
M  V30 1262 C 124.386 -3.22565 1.28722 0
M  V30 1263 C 123.34 -3.54281 2.40144 0
M  V30 1264 C 122.666 -4.91298 2.11023 0
M  V30 1265 C 123.966 -3.55676 3.82481 0
M  V30 1266 H 125.66 -1.82644 2.37237 0
M  V30 1267 H 123.206 -0.877305 1.1419 0
M  V30 1268 H 125.159 -4.01095 1.29232 0
M  V30 1269 H 123.883 -3.25137 0.308811 0
M  V30 1270 H 122.542 -2.78088 2.38877 0
M  V30 1271 H 122.19 -4.90468 1.11582 0
M  V30 1272 H 121.89 -5.13485 2.8567 0
M  V30 1273 H 123.414 -5.72166 2.13209 0
M  V30 1274 H 124.828 -4.24254 3.85592 0
M  V30 1275 H 123.225 -3.89388 4.56614 0
M  V30 1276 H 124.295 -2.55144 4.12346 0
M  V30 1277 N 125.638 -1.25649 -0.95132 0
M  V30 1278 C 126.884 -1.10757 -1.69884 0
M  V30 1279 C 127.217 0.350061 -1.91019 0
M  V30 1280 O 126.492 1.25783 -1.48354 0
M  V30 1281 C 126.775 -1.86606 -3.07978 0
M  V30 1282 C 126.628 -3.40217 -2.94232 0
M  V30 1283 C 127.947 -1.65182 -4.07925 0
M  V30 1284 H 125.066 -0.40374 -0.616574 0
M  V30 1285 H 127.708 -1.54521 -1.10558 0
M  V30 1286 H 125.858 -1.49409 -3.58621 0
M  V30 1287 H 127.53 -3.87108 -2.50889 0
M  V30 1288 H 125.773 -3.67759 -2.30078 0
M  V30 1289 H 126.444 -3.88505 -3.92133 0
M  V30 1290 H 128.92 -1.9757 -3.66204 0
M  V30 1291 H 127.796 -2.20683 -5.02583 0
M  V30 1292 H 128.057 -0.593933 -4.38092 0
M  V30 1293 N 127.117 1.15442 -1.07289 0
M  V30 1294 C 128.394 1.82306 -0.708792 0
M  V30 1295 C 128.774 1.94991 0.808807 0
M  V30 1296 O 128.122 1.50085 1.72298 0
M  V30 1297 C 128.332 3.18695 -1.42247 0
M  V30 1298 C 129.68 3.94341 -1.57417 0
M  V30 1299 O 130.704 3.28247 -1.38319 0
M  V30 1300 O 129.563 5.12839 -1.88834 0
M  V30 1301 H 126.657 0.787628 -0.252132 0
M  V30 1302 H 129.203 1.22559 -1.17377 0
M  V30 1303 H 127.975 3.04557 -2.45684 0
M  V30 1304 H 127.598 3.86128 -0.948223 0
M  V30 1305 N 128.595 0.856903 1.32268 0
M  V30 1306 C 129.543 0.291987 2.3076 0
M  V30 1307 C 130.537 -0.585857 1.58947 0
M  V30 1308 O 131.743 -0.47341 1.73663 0
M  V30 1309 H 128.118 0.075721 0.748178 0
M  V30 1310 H 130.089 1.13687 2.75895 0
M  V30 1311 C 128.838 -0.502869 3.44044 0
M  V30 1312 H 128.161 0.163328 3.99466 0
M  V30 1313 H 129.601 -0.863691 4.1511 0
M  V30 1314 C 128.06 -1.68898 2.91505 0
M  V30 1315 O 128.59 -2.78811 2.89184 0
M  V30 1316 N 126.796 -1.51679 2.47875 0
M  V30 1317 H 126.343 -0.622666 2.49961 0
M  V30 1318 H 126.301 -2.31184 2.13076 0
M  V30 1319 N 130.073 -1.45103 0.615059 0
M  V30 1320 C 131.321 -2.01784 0.112955 0
M  V30 1321 C 131.642 -1.48504 -1.26378 0
M  V30 1322 O 130.912 -0.682245 -1.83636 0
M  V30 1323 H 129.492 -0.745993 0.0387668 0
M  V30 1324 H 132.154 -1.77808 0.798141 0
M  V30 1325 H 131.25 -3.12025 0.0684069 0
M  V30 1326 N 131.551 -0.354651 -1.53558 0
M  V30 1327 C 132.514 0.484566 -2.24019 0
M  V30 1328 C 133.514 1.01861 -1.24422 0
M  V30 1329 O 134.704 0.906097 -1.4878 0
M  V30 1330 C 131.836 1.67615 -2.96847 0
M  V30 1331 H 133.029 -0.131843 -2.9961 0
M  V30 1332 H 130.582 -0.106165 -1.55939 0
M  V30 1333 H 131.317 2.33095 -2.25471 0
M  V30 1334 H 131.102 1.30029 -3.69912 0
M  V30 1335 H 132.592 2.27114 -3.50441 0
M  V30 1336 N 133.029 1.57378 -0.0835403 0
M  V30 1337 C 134.259 1.97975 0.590713 0
M  V30 1338 C 134.667 0.961083 1.62972 0
M  V30 1339 O 134.01 -0.0590879 1.83605 0
M  V30 1340 C 134.072 3.34915 1.3066 0
M  V30 1341 C 133.736 4.55069 0.419698 0
M  V30 1342 C 134.733 5.18868 -0.32749 0
M  V30 1343 C 132.418 5.0114 0.341137 0
M  V30 1344 C 134.412 6.27098 -1.14134 0
M  V30 1345 C 132.099 6.0924 -0.476374 0
M  V30 1346 C 133.097 6.72083 -1.21627 0
M  V30 1347 O 132.785 7.781 -2.02028 0
M  V30 1348 H 132.517 0.655818 0.163947 0
M  V30 1349 H 135.071 2.04807 -0.156021 0
M  V30 1350 H 133.301 3.24733 2.09966 0
M  V30 1351 H 134.99 3.60037 1.87424 0
M  V30 1352 H 135.756 4.84211 -0.276459 0
M  V30 1353 H 131.635 4.51996 0.90668 0
M  V30 1354 H 135.179 6.7608 -1.71935 0
M  V30 1355 H 131.076 6.43329 -0.528927 0
M  V30 1356 H 131.844 7.95034 -1.94586 0
M  V30 1357 N 134.507 -0.190092 1.56449 0
M  V30 1358 C 135.918 -0.754312 1.70784 0
M  V30 1359 C 136.269 -1.83631 0.690951 0
M  V30 1360 O 135.394 -2.15868 -0.151604 0
M  V30 1361 C 135.989 -1.37503 3.09642 0
M  V30 1362 C 134.548 -1.88628 3.25725 0
M  V30 1363 C 133.695 -0.758098 2.66736 0
M  V30 1364 H 136.646 0.0350524 1.58661 0
M  V30 1365 H 136.667 -2.2445 3.0725 0
M  V30 1366 H 136.179 -0.587302 3.83631 0
M  V30 1367 H 134.28 -2.70103 2.56661 0
M  V30 1368 H 134.393 -2.04462 4.3328 0
M  V30 1369 H 132.757 -1.17369 2.26046 0
M  V30 1370 H 133.54 0.0174705 3.43296 0
M  V30 1371 N 135.985 -1.50799 -0.457987 0
M  V30 1372 C 137.21 -1.66496 -1.23668 0
M  V30 1373 C 137.635 -0.353288 -1.84752 0
M  V30 1374 O 136.993 0.684346 -1.67888 0
M  V30 1375 C 137.041 -2.76763 -2.3116 0
M  V30 1376 O 136.145 -2.38928 -3.36136 0
M  V30 1377 H 135.486 -0.555828 -0.363252 0
M  V30 1378 H 138.016 -1.9725 -0.543474 0
M  V30 1379 H 138.026 -3.00232 -2.76269 0
M  V30 1380 H 136.701 -3.71954 -1.86073 0
M  V30 1381 H 135.278 -2.25953 -2.96647 0
M  V30 1382 N 137.463 0.71206 -1.40597 0
M  V30 1383 C 138.691 1.50111 -1.42388 0
M  V30 1384 C 139.106 1.88784 -0.0245395 0
M  V30 1385 O 138.463 1.55681 0.952351 0
M  V30 1386 C 138.514 2.7742 -2.31776 0
M  V30 1387 O 138.235 2.40382 -3.66262 0
M  V30 1388 C 139.736 3.7129 -2.42196 0
M  V30 1389 H 136.956 0.46314 -0.485533 0
M  V30 1390 H 139.5 0.878068 -1.8469 0
M  V30 1391 H 137.655 3.36001 -1.92827 0
M  V30 1392 H 138.069 3.22324 -4.13772 0
M  V30 1393 H 139.543 4.57448 -3.08943 0
M  V30 1394 H 140.02 4.14641 -1.44809 0
M  V30 1395 H 140.626 3.18619 -2.81712 0
M  V30 1396 N 138.941 1.26152 0.944643 0
M  V30 1397 C 139.871 1.09902 2.06019 0
M  V30 1398 C 140.852 0.00519538 1.70099 0
M  V30 1399 O 142.037 0.176583 1.93396 0
M  V30 1400 C 139.167 0.727562 3.39594 0
M  V30 1401 C 138.121 1.77274 3.89561 0
M  V30 1402 C 137.447 1.25569 5.19747 0
M  V30 1403 C 138.747 3.17357 4.14827 0
M  V30 1404 H 140.441 2.03217 2.19871 0
M  V30 1405 H 137.987 0.978452 1.05652 0
M  V30 1406 H 139.94 0.600777 4.17095 0
M  V30 1407 H 138.664 -0.241287 3.25707 0
M  V30 1408 H 137.323 1.88814 3.14237 0
M  V30 1409 H 136.971 0.276783 5.02238 0
M  V30 1410 H 136.671 1.95433 5.54148 0
M  V30 1411 H 138.195 1.1415 5.99835 0
M  V30 1412 H 139.609 3.08914 4.82954 0
M  V30 1413 H 138.006 3.84781 4.60504 0
M  V30 1414 H 139.076 3.63673 3.20734 0
M  V30 1415 N 140.419 -1.14872 1.07899 0
M  V30 1416 C 141.667 -1.85422 0.803941 0
M  V30 1417 C 141.988 -1.83051 -0.67211 0
M  V30 1418 O 141.258 -1.27532 -1.48703 0
M  V30 1419 H 139.838 -0.686537 0.294408 0
M  V30 1420 H 142.5 -1.39226 1.3639 0
M  V30 1421 H 141.596 -2.90399 1.14346 0
M  V30 1422 N 141.898 -0.863906 -1.31812 0
M  V30 1423 C 143.128 -0.485406 -2.00817 0
M  V30 1424 C 143.536 0.925007 -1.65046 0
M  V30 1425 O 142.879 1.61653 -0.872574 0
M  V30 1426 C 142.941 -0.555589 -3.55181 0
M  V30 1427 C 142.605 -1.92654 -4.14407 0
M  V30 1428 C 143.602 -2.89324 -4.31958 0
M  V30 1429 C 141.287 -2.2262 -4.50273 0
M  V30 1430 C 143.281 -4.14108 -4.84555 0
M  V30 1431 C 140.968 -3.47654 -5.02573 0
M  V30 1432 C 141.966 -4.43214 -5.19664 0
M  V30 1433 O 141.654 -5.66033 -5.70843 0
M  V30 1434 H 141.386 -0.188224 -0.649267 0
M  V30 1435 H 143.94 -1.16514 -1.69156 0
M  V30 1436 H 142.17 0.181037 -3.86276 0
M  V30 1437 H 143.859 -0.19138 -4.05449 0
M  V30 1438 H 144.625 -2.6748 -4.04573 0
M  V30 1439 H 140.504 -1.4902 -4.3625 0
M  V30 1440 H 144.048 -4.88703 -4.9781 0
M  V30 1441 H 139.945 -3.69345 -5.29391 0
M  V30 1442 H 140.713 -5.6812 -5.89222 0
M  V30 1443 N 143.376 1.44774 -0.622745 0
M  V30 1444 C 144.323 2.30635 0.0871679 0
M  V30 1445 C 145.293 1.42994 0.845097 0
M  V30 1446 O 146.478 1.71907 0.827812 0
M  V30 1447 C 143.618 3.28144 1.06844 0
M  V30 1448 C 142.731 4.30888 0.309809 0
M  V30 1449 C 141.866 5.15494 1.28215 0
M  V30 1450 C 140.905 6.09953 0.512198 0
M  V30 1451 N 140.042 6.87287 1.43458 0
M  V30 1452 H 144.882 2.90803 -0.650974 0
M  V30 1453 H 142.419 1.43286 -0.33281 0
M  V30 1454 H 144.377 3.83157 1.65066 0
M  V30 1455 H 143.007 2.69695 1.77382 0
M  V30 1456 H 142.059 3.78414 -0.388181 0
M  V30 1457 H 143.371 4.97955 -0.290254 0
M  V30 1458 H 142.525 5.74983 1.93596 0
M  V30 1459 H 141.264 4.48481 1.91614 0
M  V30 1460 H 140.269 5.49581 -0.155151 0
M  V30 1461 H 141.494 6.78999 -0.116958 0
M  V30 1462 H 139.44 6.2295 2.05594 0
M  V30 1463 H 139.357 7.50763 0.888335 0
M  V30 1464 H 140.625 7.51306 2.07749 0
M  V30 1465 N 144.854 0.36279 1.53368 0
M  V30 1466 C 146.102 -0.227326 2.00817 0
M  V30 1467 C 146.423 -1.49511 1.25186 0
M  V30 1468 O 145.693 -1.92482 0.364348 0
M  V30 1469 H 144.273 -0.0869923 0.741917 0
M  V30 1470 H 146.935 0.488381 1.88682 0
M  V30 1471 H 146.031 -0.456273 3.08747 0
M  V30 1472 N 146.332 -1.57332 0.0918853 0
M  V30 1473 C 147.579 -1.94236 -0.572577 0
M  V30 1474 C 147.907 -0.973398 -1.6839 0
M  V30 1475 O 147.162 0.00756912 -1.95699 0
M  V30 1476 C 147.461 -3.37689 -1.17051 0
M  V30 1477 C 147.127 -4.50527 -0.183304 0
M  V30 1478 C 145.789 -4.81119 0.0882276 0
M  V30 1479 C 148.141 -5.18883 0.49095 0
M  V30 1480 C 145.469 -5.77395 1.04076 0
M  V30 1481 C 147.821 -6.1618 1.43193 0
M  V30 1482 C 146.485 -6.45179 1.71173 0
M  V30 1483 H 145.755 -0.710762 -0.209521 0
M  V30 1484 H 148.402 -1.9077 0.167036 0
M  V30 1485 H 146.707 -3.37718 -1.9863 0
M  V30 1486 H 148.404 -3.63543 -1.69227 0
M  V30 1487 H 144.994 -4.26681 -0.405124 0
M  V30 1488 H 149.178 -4.95427 0.294312 0
M  V30 1489 H 144.434 -5.98179 1.26457 0
M  V30 1490 H 148.608 -6.68243 1.96023 0
M  V30 1491 H 146.235 -7.1959 2.4514 0
M  V30 1492 N 147.81 0.181792 -1.56548 0
M  V30 1493 C 149.221 0.745244 -1.71181 0
M  V30 1494 C 149.572 1.83262 -0.70068 0
M  V30 1495 O 148.697 2.15946 0.140154 0
M  V30 1496 C 149.292 1.35859 -3.10367 0
M  V30 1497 C 147.851 1.86898 -3.2672 0
M  V30 1498 C 146.998 0.743942 -2.67134 0
M  V30 1499 H 149.949 -0.0434661 -1.5864 0
M  V30 1500 H 149.97 2.22817 -3.08436 0
M  V30 1501 H 149.482 0.566948 -3.83937 0
M  V30 1502 H 147.583 2.68738 -2.5809 0
M  V30 1503 H 147.696 2.02162 -4.34359 0
M  V30 1504 H 146.06 1.16169 -2.26665 0
M  V30 1505 H 146.843 -0.035676 -3.43281 0
M  V30 1506 N 149.288 1.51039 0.449983 0
M  V30 1507 C 150.235 1.71439 1.54523 0
M  V30 1508 C 151.205 0.555871 1.56522 0
M  V30 1509 O 152.39 0.788871 1.73728 0
M  V30 1510 C 149.53 1.83384 2.92343 0
M  V30 1511 C 148.643 3.10873 2.9997 0
M  V30 1512 C 147.778 3.13488 4.28834 0
M  V30 1513 C 146.817 4.35343 4.30282 0
M  V30 1514 N 145.954 4.35579 5.5065 0
M  V30 1515 H 150.794 2.64934 1.36433 0
M  V30 1516 H 148.331 1.31312 0.662982 0
M  V30 1517 H 150.289 1.88291 3.72293 0
M  V30 1518 H 148.919 0.933086 3.0902 0
M  V30 1519 H 147.971 3.15336 2.12761 0
M  V30 1520 H 149.283 4.00814 2.96901 0
M  V30 1521 H 148.437 3.17241 5.17149 0
M  V30 1522 H 147.176 2.21414 4.34543 0
M  V30 1523 H 146.181 4.3178 3.40362 0
M  V30 1524 H 147.406 5.28668 4.26248 0
M  V30 1525 H 145.352 3.46369 5.57104 0
M  V30 1526 H 145.269 5.19313 5.49409 0
M  V30 1527 H 146.537 4.43507 6.41032 0
M  V30 1528 N 150.766 -0.704594 1.40972 0
M  V30 1529 C 151.991 -1.49858 1.43378 0
M  V30 1530 C 152.416 -1.88061 0.038184 0
M  V30 1531 O 151.774 -1.5402 -0.956425 0
M  V30 1532 C 151.822 -2.74333 2.34038 0
M  V30 1533 O 150.926 -3.7147 1.7912 0
M  V30 1534 H 150.267 -0.45139 0.486974 0
M  V30 1535 H 152.797 -0.866832 1.8533 0
M  V30 1536 H 152.807 -3.22741 2.49604 0
M  V30 1537 H 151.482 -2.45863 3.35446 0
M  V30 1538 H 150.059 -3.30363 1.72958 0
M  V30 1539 N 152.244 -1.26651 -0.937939 0
M  V30 1540 C 153.484 -1.13611 -1.69917 0
M  V30 1541 C 153.848 0.314687 -1.89404 0
M  V30 1542 O 155.049 0.567285 -2.62746 0
M  V30 1543 C 153.32 -1.88742 -3.03498 0
M  V30 1544 S 154.879 -1.91794 -3.94665 0
M  V30 1545 H 151.697 -0.405767 -0.583844 0
M  V30 1546 H 154.299 -1.60416 -1.11745 0
M  V30 1547 H 153.003 -2.9336 -2.86999 0
M  V30 1548 H 152.534 -1.42391 -3.66727 0
M  V30 1549 H 154.549 -1.00698 -4.85875 0
M  V30 1550 N 153.722 1.14298 -1.08507 0
M  V30 1551 C 154.962 1.87016 -0.824894 0
M  V30 1552 C 155.326 1.81099 0.637735 0
M  V30 1553 O 156.527 2.48963 1.01345 0
M  V30 1554 C 154.798 3.31584 -1.33368 0
M  V30 1555 S 156.357 4.21903 -1.20596 0
M  V30 1556 H 153.175 0.645259 -0.2986 0
M  V30 1557 H 155.777 1.37822 -1.38656 0
M  V30 1558 H 154.481 3.33439 -2.39262 0
M  V30 1559 H 154.012 3.85836 -0.767734 0
M  V30 1560 H 156.027 4.95971 -0.150891 0
M  V30 1561 N 155.201 0.870884 1.31352 0
M  V30 1562 C 156.429 0.49677 2.00848 0
M  V30 1563 C 156.844 -0.910998 1.65367 0
M  V30 1564 O 156.201 -1.59696 0.883374 0
M  V30 1565 C 156.252 0.645308 3.55694 0
M  V30 1566 O 155.973 1.99764 3.89905 0
M  V30 1567 C 157.474 0.272326 4.42463 0
M  V30 1568 H 154.694 0.193462 0.642506 0
M  V30 1569 H 157.238 1.1723 1.67563 0
M  V30 1570 H 155.393 0.0173176 3.87396 0
M  V30 1571 H 155.807 2.00607 4.84621 0
M  V30 1572 H 157.281 0.427208 5.50344 0
M  V30 1573 H 157.758 -0.788587 4.32062 0
M  V30 1574 H 158.364 0.876054 4.1618 0
M  V30 1575 N 156.679 -1.44442 0.630414 0
M  V30 1576 C 157.904 -2.06927 0.139944 0
M  V30 1577 C 158.329 -1.46795 -1.17613 0
M  V30 1578 O 157.687 -0.569144 -1.72135 0
M  V30 1579 C 157.735 -3.6058 0.0379581 0
M  V30 1580 O 156.839 -3.99937 -1.0062 0
M  V30 1581 H 156.18 -0.658608 0.0844483 0
M  V30 1582 H 158.71 -1.85327 0.866891 0
M  V30 1583 H 158.72 -4.07714 -0.152856 0
M  V30 1584 H 157.395 -4.03728 0.998809 0
M  V30 1585 H 155.972 -3.64436 -0.79001 0
M  V30 1586 N 158.157 -0.370918 -1.53173 0
M  V30 1587 C 159.087 0.464847 -2.28826 0
M  V30 1588 C 160.068 1.07936 -1.31468 0
M  V30 1589 O 161.253 1.0956 -1.60344 0
M  V30 1590 C 158.383 1.60196 -3.08147 0
M  V30 1591 C 157.337 1.11443 -4.13237 0
M  V30 1592 C 156.663 2.3422 -4.80672 0
M  V30 1593 C 157.963 0.195384 -5.21934 0
M  V30 1594 H 159.657 -0.166329 -2.98938 0
M  V30 1595 H 157.203 -0.0814359 -1.4377 0
M  V30 1596 H 159.156 2.19332 -3.59822 0
M  V30 1597 H 157.88 2.26045 -2.35735 0
M  V30 1598 H 156.539 0.545727 -3.62515 0
M  V30 1599 H 156.187 2.98537 -4.04827 0
M  V30 1600 H 155.887 2.02269 -5.51689 0
M  V30 1601 H 157.411 2.94032 -5.35143 0
M  V30 1602 H 158.825 0.694375 -5.69079 0
M  V30 1603 H 157.222 -0.0335027 -6.00091 0
M  V30 1604 H 158.292 -0.760961 -4.78892 0
M  V30 1605 N 159.635 1.57281 -0.100228 0
M  V30 1606 C 160.583 2.15542 0.874328 0
M  V30 1607 C 161.577 1.09962 1.28859 0
M  V30 1608 O 162.783 1.28298 1.26252 0
M  V30 1609 H 159.158 0.689567 0.300003 0
M  V30 1610 H 161.129 2.96241 0.35829 0
M  V30 1611 C 159.878 2.75454 2.1218 0
M  V30 1612 H 159.201 3.56384 1.81193 0
M  V30 1613 H 160.641 3.19781 2.78417 0
M  V30 1614 C 159.1 1.71602 2.89921 0
M  V30 1615 O 159.63 1.15804 3.84646 0
M  V30 1616 N 157.836 1.41975 2.53558 0
M  V30 1617 H 157.383 1.87539 1.76598 0
M  V30 1618 H 157.341 0.727274 3.05873 0
M  V30 1619 N 161.113 -0.173488 1.56642 0
M  V30 1620 C 162.023 -1.23482 1.99473 0
M  V30 1621 C 163.039 -1.48567 0.905752 0
M  V30 1622 O 164.215 -1.60758 1.21321 0
M  V30 1623 C 161.28 -2.55444 2.34413 0
M  V30 1624 C 160.341 -2.38241 3.57127 0
M  V30 1625 C 159.574 -3.63909 3.90392 0
M  V30 1626 O 159.797 -4.68996 3.24653 0
M  V30 1627 O 158.731 -3.58149 4.83749 0
M  V30 1628 H 162.557 -0.901279 2.90018 0
M  V30 1629 H 160.142 -0.380185 1.44482 0
M  V30 1630 H 162.024 -3.33292 2.57865 0
M  V30 1631 H 160.699 -2.88382 1.4703 0
M  V30 1632 H 159.606 -1.58431 3.38896 0
M  V30 1633 H 160.939 -2.10228 4.45045 0
M  V30 1634 N 162.591 -1.51276 -0.441967 0
M  V30 1635 C 163.837 -1.63958 -1.19355 0
M  V30 1636 C 164.17 -0.352543 -1.90973 0
M  V30 1637 O 163.445 0.647627 -1.83401 0
M  V30 1638 C 163.728 -2.83979 -2.21422 0
M  V30 1639 C 163.581 -4.22646 -1.53918 0
M  V30 1640 C 164.9 -2.99521 -3.22451 0
M  V30 1641 H 162.019 -0.596709 -0.432559 0
M  V30 1642 H 164.661 -1.83748 -0.483398 0
M  V30 1643 H 162.811 -2.67237 -2.81987 0
M  V30 1644 H 164.483 -4.51045 -0.967256 0
M  V30 1645 H 162.726 -4.25558 -0.841615 0
M  V30 1646 H 163.397 -5.02609 -2.28229 0
M  V30 1647 H 165.873 -3.14944 -2.71937 0
M  V30 1648 H 164.749 -3.85072 -3.91166 0
M  V30 1649 H 165.01 -2.11391 -3.88287 0
M  V30 1650 N 164.069 0.697108 -1.41344 0
M  V30 1651 C 165.318 1.45279 -1.39918 0
M  V30 1652 C 165.631 1.95597 -0.0109624 0
M  V30 1653 O 166.837 2.71208 0.125919 0
M  V30 1654 C 165.293 2.62695 -2.46007 0
M  V30 1655 C 164.901 2.19169 -3.90729 0
M  V30 1656 C 166.645 3.40336 -2.53715 0
M  V30 1657 C 164.552 3.33535 -4.88373 0
M  V30 1658 H 163.482 0.545692 -0.520323 0
M  V30 1659 H 166.133 0.756929 -1.67161 0
M  V30 1660 H 164.515 3.34541 -2.11892 0
M  V30 1661 H 165.689 1.54623 -4.34083 0
M  V30 1662 H 164.004 1.54525 -3.86666 0
M  V30 1663 H 166.601 4.2547 -3.2385 0
M  V30 1664 H 166.944 3.85418 -1.5735 0
M  V30 1665 H 167.477 2.75546 -2.86913 0
M  V30 1666 H 164.216 2.93468 -5.86137 0
M  V30 1667 H 163.736 3.96936 -4.49668 0
M  V30 1668 H 165.415 3.99335 -5.09059 0
M  V30 1669 N 165.547 1.27147 0.931209 0
M  V30 1670 C 166.787 1.14511 1.69312 0
M  V30 1671 C 167.151 -0.304638 1.89568 0
M  V30 1672 O 168.352 -0.553343 2.63043 0
M  V30 1673 C 166.623 1.90349 3.02493 0
M  V30 1674 S 168.182 1.93884 3.93642 0
M  V30 1675 H 165 0.408858 0.581684 0
M  V30 1676 H 167.602 1.61006 1.10893 0
M  V30 1677 H 166.306 2.94877 2.85439 0
M  V30 1678 H 165.837 1.44333 3.65966 0
M  V30 1679 H 167.852 1.03273 4.85334 0
M  V30 1680 N 167.025 -1.13721 1.09112 0
M  V30 1681 C 167.975 -2.17082 0.697091 0
M  V30 1682 C 168.959 -1.58321 -0.286923 0
M  V30 1683 O 170.151 -1.7673 -0.0978008 0
M  V30 1684 C 167.28 -3.43105 0.115729 0
M  V30 1685 C 166.366 -4.0888 1.12596 0
M  V30 1686 N 166.757 -4.4987 2.31195 0
M  V30 1687 C 165.055 -4.35471 0.963366 0
M  V30 1688 C 165.756 -5.01094 2.95431 0
M  V30 1689 N 164.732 -4.95751 2.23006 0
M  V30 1690 H 168.534 -2.46524 1.6001 0
M  V30 1691 H 166.048 -1.30481 0.966869 0
M  V30 1692 H 168.045 -4.16491 -0.184555 0
M  V30 1693 H 166.705 -3.15138 -0.78217 0
M  V30 1694 H 167.716 -4.42678 2.68806 0
M  V30 1695 H 164.393 -4.17328 0.119878 0
M  V30 1696 H 165.783 -5.4263 3.96236 0
M  V30 1697 N 168.503 -0.877838 -1.30888 0
M  V30 1698 C 169.751 -0.491723 -1.96027 0
M  V30 1699 C 170.072 0.960827 -1.69685 0
M  V30 1700 O 169.342 1.67462 -1.01654 0
M  V30 1701 H 167.922 -0.17885 -0.725273 0
M  V30 1702 H 170.584 -1.11935 -1.59551 0
M  V30 1703 H 169.68 -0.656016 -3.05128 0
M  V30 1704 N 169.982 1.44106 -0.638065 0
M  V30 1705 C 171.231 2.01194 -0.142744 0
M  V30 1706 C 171.544 1.50835 1.24532 0
M  V30 1707 O 172.75 2.00096 1.83504 0
M  V30 1708 C 171.206 3.59319 -0.20442 0
M  V30 1709 C 170.814 4.18674 -1.59423 0
M  V30 1710 C 172.558 4.23854 0.234079 0
M  V30 1711 C 170.465 5.69045 -1.61065 0
M  V30 1712 H 169.395 0.752367 -0.0495998 0
M  V30 1713 H 172.046 1.65246 -0.797881 0
M  V30 1714 H 170.428 3.92598 0.517946 0
M  V30 1715 H 171.602 3.96921 -2.34074 0
M  V30 1716 H 169.917 3.66453 -1.97741 0
M  V30 1717 H 172.514 5.34155 0.241443 0
M  V30 1718 H 172.857 3.96688 1.2627 0
M  V30 1719 H 173.39 3.95403 -0.436025 0
M  V30 1720 H 170.129 6.00956 -2.61787 0
M  V30 1721 H 169.649 5.929 -0.90718 0
M  V30 1722 H 171.328 6.32809 -1.34766 0
M  V30 1723 N 171.46 0.379036 1.52974 0
M  V30 1724 C 172.871 -0.0972525 1.86447 0
M  V30 1725 C 173.222 -1.47027 1.29914 0
M  V30 1726 O 172.347 -2.07135 0.626433 0
M  V30 1727 C 172.942 -0.183248 3.38304 0
M  V30 1728 C 171.501 -0.603812 3.71525 0
M  V30 1729 C 170.648 0.240632 2.76254 0
M  V30 1730 H 173.599 0.597316 1.4703 0
M  V30 1731 H 173.62 -1.00432 3.67006 0
M  V30 1732 H 173.132 0.816191 3.79421 0
M  V30 1733 H 171.233 -1.61099 3.35973 0
M  V30 1734 H 171.346 -0.369086 4.77676 0
M  V30 1735 H 169.71 -0.292548 2.53014 0
M  V30 1736 H 170.493 1.23786 3.20206 0
M  V30 1737 N 172.938 -1.57226 0.108567 0
M  V30 1738 C 174.215 -1.86333 -0.594939 0
M  V30 1739 C 174.595 -1.00788 -1.85486 0
M  V30 1740 O 173.943 -0.0839293 -2.28346 0
M  V30 1741 C 174.153 -3.37265 -0.897405 0
M  V30 1742 C 175.501 -4.05629 -1.25501 0
M  V30 1743 O 176.525 -3.42224 -0.987998 0
M  V30 1744 O 175.384 -5.17531 -1.75567 0
M  V30 1745 H 172.478 -0.771018 -0.2991 0
M  V30 1746 H 175.024 -1.69102 0.142283 0
M  V30 1747 H 173.796 -3.913 -0.00413806 0
M  V30 1748 H 173.419 -3.59889 -1.69014 0
M  V30 1749 N 174.416 0.165178 -1.56732 0
M  V30 1750 C 175.641 0.900253 -1.86843 0
M  V30 1751 C 176.066 1.74766 -0.695596 0
M  V30 1752 O 175.424 1.77786 0.35522 0
M  V30 1753 C 175.472 1.74777 -3.15413 0
M  V30 1754 O 174.576 2.85007 -2.98068 0
M  V30 1755 H 173.917 0.251832 -0.614391 0
M  V30 1756 H 176.447 0.161468 -2.03962 0
M  V30 1757 H 176.457 2.14646 -3.46974 0
M  V30 1758 H 175.132 1.12537 -4.00385 0
M  V30 1759 H 173.709 2.48676 -2.77875 0
M  V30 1760 N 175.894 1.51508 0.433938 0
M  V30 1761 C 177.122 1.68157 1.20543 0
M  V30 1762 C 177.537 0.380362 1.84929 0
M  V30 1763 O 176.894 -0.641446 1.70856 0
M  V30 1764 C 176.945 2.79965 2.28696 0
M  V30 1765 O 176.666 4.05045 1.66943 0
M  V30 1766 C 178.167 3.07912 3.18912 0
M  V30 1767 H 175.387 0.56421 0.363191 0
M  V30 1768 H 177.931 1.97941 0.513754 0
M  V30 1769 H 176.086 2.5277 2.93574 0
M  V30 1770 H 176.5 4.67165 2.38448 0
M  V30 1771 H 177.974 3.89719 3.90926 0
M  V30 1772 H 178.451 2.20456 3.79863 0
M  V30 1773 H 179.057 3.36779 2.59731 0
M  V30 1774 N 177.372 -0.689602 1.41712 0
M  V30 1775 C 178.618 -1.45181 1.41599 0
M  V30 1776 C 178.951 -1.94181 0.0270081 0
M  V30 1777 O 178.226 -1.6993 -0.946265 0
M  V30 1778 C 178.509 -2.65945 2.42787 0
M  V30 1779 C 178.362 -2.22672 3.90816 0
M  V30 1780 C 179.681 -3.68149 2.41151 0
M  V30 1781 H 176.8 -0.526576 0.515642 0
M  V30 1782 H 179.442 -0.784947 1.73028 0
M  V30 1783 H 177.592 -3.2284 2.16116 0
M  V30 1784 H 179.264 -1.71058 4.28412 0
M  V30 1785 H 177.507 -1.54394 4.05395 0
M  V30 1786 H 178.178 -3.0935 4.57172 0
M  V30 1787 H 180.654 -3.2094 2.64834 0
M  V30 1788 H 179.53 -4.50248 3.13955 0
M  V30 1789 H 179.791 -4.18259 1.43221 0
M  V30 1790 N 178.85 -1.27639 -0.924453 0
M  V30 1791 C 180.099 -1.13549 -1.66702 0
M  V30 1792 C 180.412 0.317487 -1.93006 0
M  V30 1793 O 181.618 0.579333 -2.65247 0
M  V30 1794 C 180.074 -1.98426 -3.00259 0
M  V30 1795 C 179.682 -3.484 -2.81641 0
M  V30 1796 C 181.426 -1.92993 -3.78092 0
M  V30 1797 C 179.333 -4.25464 -4.10773 0
M  V30 1798 H 178.263 -0.421351 -0.625283 0
M  V30 1799 H 180.914 -1.52085 -1.02676 0
M  V30 1800 H 179.296 -1.52736 -3.6536 0
M  V30 1801 H 180.47 -4.01973 -2.25287 0
M  V30 1802 H 178.785 -3.55245 -2.17232 0
M  V30 1803 H 181.382 -2.47844 -4.7379 0
M  V30 1804 H 181.725 -0.904281 -4.0636 0
M  V30 1805 H 182.258 -2.36595 -3.19793 0
M  V30 1806 H 178.997 -5.28566 -3.87683 0
M  V30 1807 H 178.517 -3.76667 -4.66779 0
M  V30 1808 H 180.196 -4.34812 -4.79111 0
M  V30 1809 N 180.328 1.1314 -1.09713 0
M  V30 1810 C 181.556 1.88321 -0.856898 0
M  V30 1811 C 181.971 1.79276 0.592073 0
M  V30 1812 O 181.328 1.16142 1.40774 0
M  V30 1813 C 181.379 3.37812 -1.28706 0
M  V30 1814 O 181.1 3.46627 -2.67921 0
M  V30 1815 C 182.601 4.29952 -1.07964 0
M  V30 1816 H 179.821 0.596094 -0.308079 0
M  V30 1817 H 182.365 1.43205 -1.45988 0
M  V30 1818 H 180.52 3.805 -0.727912 0
M  V30 1819 H 180.934 4.39579 -2.8613 0
M  V30 1820 H 182.408 5.33159 -1.42986 0
M  V30 1821 H 182.885 4.39196 -0.0176577 0
M  V30 1822 H 183.491 3.93036 -1.62489 0
M  V30 1823 N 181.806 0.884767 1.30421 0
M  V30 1824 C 183.083 0.423185 1.90967 0
M  V30 1825 C 183.463 -1.09605 1.80416 0
M  V30 1826 O 182.811 -1.93126 1.22125 0
M  V30 1827 C 183.021 0.921056 3.36627 0
M  V30 1828 C 184.369 0.955903 4.137 0
M  V30 1829 O 185.393 0.867706 3.4547 0
M  V30 1830 O 184.252 1.08614 5.35598 0
M  V30 1831 H 181.346 0.129369 0.816819 0
M  V30 1832 H 183.892 0.973653 1.3899 0
M  V30 1833 H 182.664 1.96489 3.3839 0
M  V30 1834 H 182.287 0.349741 3.96059 0
M  V30 1835 N 183.284 -1.43765 0.645699 0
M  V30 1836 C 184.532 -2.01499 0.155731 0
M  V30 1837 C 184.853 -1.51151 -1.232 0
M  V30 1838 O 184.123 -0.721044 -1.82148 0
M  V30 1839 H 182.703 -0.745003 0.0545817 0
M  V30 1840 H 185.365 -1.76075 0.835677 0
M  V30 1841 H 184.461 -3.1181 0.134577 0
M  V30 1842 N 184.763 -0.387143 -1.52771 0
M  V30 1843 C 186.04 0.253197 -1.93954 0
M  V30 1844 C 186.42 1.64545 -1.32243 0
M  V30 1845 O 185.768 2.23191 -0.489699 0
M  V30 1846 C 185.978 0.281722 -3.47861 0
M  V30 1847 C 187.326 0.511715 -4.21505 0
M  V30 1848 O 188.35 0.362023 -3.54356 0
M  V30 1849 O 187.209 0.804847 -5.40541 0
M  V30 1850 H 184.303 0.156845 -0.811991 0
M  V30 1851 H 186.849 -0.441494 -1.63856 0
M  V30 1852 H 185.621 -0.693571 -3.85104 0
M  V30 1853 H 185.244 1.02142 -3.84256 0
M  V30 1854 N 186.241 1.57166 -0.116904 0
M  V30 1855 C 187.49 1.94298 0.541407 0
M  V30 1856 C 187.803 1.00236 1.67964 0
M  V30 1857 O 189.009 1.26826 2.40057 0
M  V30 1858 C 187.465 3.45306 1.01449 0
M  V30 1859 C 187.073 4.47899 -0.0951738 0
M  V30 1860 C 188.817 3.91361 1.6443 0
M  V30 1861 C 186.724 5.90083 0.394491 0
M  V30 1862 H 185.654 0.725308 0.206019 0
M  V30 1863 H 188.305 1.82446 -0.196419 0
M  V30 1864 H 186.687 3.52385 1.80667 0
M  V30 1865 H 187.861 4.52486 -0.871374 0
M  V30 1866 H 186.176 4.11583 -0.631505 0
M  V30 1867 H 188.773 4.95004 2.02176 0
M  V30 1868 H 189.116 3.3122 2.52189 0
M  V30 1869 H 189.649 3.87073 0.917559 0
M  V30 1870 H 186.388 6.53974 -0.447004 0
M  V30 1871 H 185.908 5.88921 1.13722 0
M  V30 1872 H 187.587 6.41307 0.856399 0
M  V30 1873 N 187.719 -0.156864 1.56817 0
M  V30 1874 C 188.965 -0.872416 1.83076 0
M  V30 1875 C 189.298 -1.81261 0.697001 0
M  V30 1876 O 188.573 -1.92171 -0.30008 0
M  V30 1877 C 188.856 -1.65551 3.19789 0
M  V30 1878 C 188.709 -0.737467 4.43713 0
M  V30 1879 C 190.028 -2.62012 3.53606 0
M  V30 1880 H 187.147 -0.315715 0.665953 0
M  V30 1881 H 189.789 -0.138004 1.89498 0
M  V30 1882 H 187.939 -2.28159 3.14445 0
M  V30 1883 H 189.611 -0.123143 4.61136 0
M  V30 1884 H 187.854 -0.0464067 4.33775 0
M  V30 1885 H 188.525 -1.32122 5.35955 0
M  V30 1886 H 191.001 -2.09525 3.59497 0
M  V30 1887 H 189.877 -3.13861 4.50314 0
M  V30 1888 H 190.138 -3.42902 2.79053 0
M  V30 1889 N 189.197 -1.51736 -0.425897 0
M  V30 1890 C 190.145 -1.74464 -1.53834 0
M  V30 1891 C 191.139 -0.611241 -1.57988 0
M  V30 1892 O 192.345 -0.792899 -1.61596 0
M  V30 1893 H 188.72 -0.551437 -0.511293 0
M  V30 1894 H 190.691 -2.67694 -1.31843 0
M  V30 1895 C 189.44 -1.8972 -2.91379 0
M  V30 1896 H 188.763 -2.76344 -2.88919 0
M  V30 1897 H 190.203 -2.09629 -3.68553 0
M  V30 1898 C 188.662 -0.65992 -3.30374 0
M  V30 1899 O 189.192 0.180083 -4.01296 0
M  V30 1900 N 187.398 -0.500677 -2.86254 0
M  V30 1901 H 186.945 -1.18532 -2.28709 0
M  V30 1902 H 186.903 0.325903 -3.12706 0
M  V30 1903 N 190.675 0.682077 -1.42076 0
M  V30 1904 C 191.924 1.43786 -1.41451 0
M  V30 1905 C 192.237 1.95574 -0.0317074 0
M  V30 1906 O 193.443 2.71326 0.0971462 0
M  V30 1907 C 191.899 2.60071 -2.48779 0
M  V30 1908 C 191.507 2.15013 -3.93031 0
M  V30 1909 C 193.251 3.37626 -2.57311 0
M  V30 1910 C 191.158 3.28336 -4.91883 0
M  V30 1911 H 190.088 0.540143 -0.526082 0
M  V30 1912 H 192.739 0.739157 -1.67955 0
M  V30 1913 H 191.121 3.32275 -2.15429 0
M  V30 1914 H 192.295 1.5001 -4.35699 0
M  V30 1915 H 190.61 1.50416 -3.88284 0
M  V30 1916 H 193.207 4.22012 -3.28345 0
M  V30 1917 H 193.55 3.83727 -1.61429 0
M  V30 1918 H 194.083 2.72488 -2.89819 0
M  V30 1919 H 190.822 2.87234 -5.89217 0
M  V30 1920 H 190.342 3.92145 -4.53853 0
M  V30 1921 H 192.021 3.93913 -5.13265 0
M  V30 1922 N 192.153 1.28127 0.917671 0
M  V30 1923 C 193.43 1.05761 1.64542 0
M  V30 1924 C 193.81 -0.404344 2.07191 0
M  V30 1925 O 193.158 -1.38963 1.81388 0
M  V30 1926 C 193.368 2.02857 2.83989 0
M  V30 1927 C 194.716 2.32786 3.551 0
M  V30 1928 O 195.74 2.0091 2.94132 0
M  V30 1929 O 194.599 2.87169 4.64969 0
M  V30 1930 H 191.693 0.403916 0.721652 0
M  V30 1931 H 194.239 1.39431 0.967322 0
M  V30 1932 H 193.011 3.01407 2.49538 0
M  V30 1933 H 192.634 1.69809 3.59514 0
M  V30 1934 N 193.631 -1.12557 1.10312 0
M  V30 1935 C 194.877 -1.84311 0.846011 0
M  V30 1936 C 195.21 -1.83805 -0.626859 0
M  V30 1937 O 194.485 -1.28268 -1.46211 0
M  V30 1938 C 194.768 -3.32048 1.39341 0
M  V30 1939 C 194.621 -3.41016 2.93305 0
M  V30 1940 C 195.94 -4.27764 1.03468 0
M  V30 1941 H 193.059 -0.669192 0.30879 0
M  V30 1942 H 195.701 -1.32057 1.36605 0
M  V30 1943 H 193.851 -3.76678 0.951087 0
M  V30 1944 H 195.523 -3.05031 3.46055 0
M  V30 1945 H 193.766 -2.81603 3.29973 0
M  V30 1946 H 194.437 -4.44948 3.26689 0
M  V30 1947 H 196.913 -3.91253 1.41633 0
M  V30 1948 H 195.789 -5.29549 1.44463 0
M  V30 1949 H 196.05 -4.42064 -0.0560404 0
M  V30 1950 N 195.109 -0.891671 -1.2995 0
M  V30 1951 C 196.337 -0.52866 -2.00032 0
M  V30 1952 C 196.752 0.884574 -1.66795 0
M  V30 1953 O 196.109 1.5827 -0.908669 0
M  V30 1954 C 196.16 -0.701814 -3.54622 0
M  V30 1955 O 195.881 -2.05942 -3.86678 0
M  V30 1956 C 197.382 -0.342683 -4.41973 0
M  V30 1957 H 194.602 -0.203659 -0.639347 0
M  V30 1958 H 197.146 -1.19881 -1.65677 0
M  V30 1959 H 195.301 -0.0789468 -3.8732 0
M  V30 1960 H 195.715 -2.08291 -4.81368 0
M  V30 1961 H 197.189 -0.514709 -5.49595 0
M  V30 1962 H 197.666 0.71975 -4.33262 0
M  V30 1963 H 198.272 -0.942154 -4.14733 0
M  V30 1964 N 196.587 1.43421 -0.653314 0
M  V30 1965 C 197.55 2.29182 0.0287951 0
M  V30 1966 C 198.55 1.42213 0.750465 0
M  V30 1967 O 199.74 1.63843 0.591701 0
M  V30 1968 C 196.872 3.24278 1.05151 0
M  V30 1969 H 198.065 2.90985 -0.725786 0
M  V30 1970 H 195.618 1.50702 -0.414545 0
M  V30 1971 H 196.353 2.6737 1.83532 0
M  V30 1972 H 196.138 3.88396 0.537687 0
M  V30 1973 H 197.628 3.88647 1.52786 0
M  V30 1974 N 198.065 0.39524 1.52563 0
M  V30 1975 C 199.295 -0.184675 2.05773 0
M  V30 1976 C 199.703 -1.40571 1.26635 0
M  V30 1977 O 199.046 -1.81105 0.30769 0
M  V30 1978 C 199.108 -0.613551 3.54226 0
M  V30 1979 C 198.772 0.49484 4.54313 0
M  V30 1980 C 199.769 1.3541 5.01956 0
M  V30 1981 C 197.454 0.663565 4.97898 0
M  V30 1982 C 199.448 2.36716 5.91814 0
M  V30 1983 C 197.135 1.67996 5.87555 0
M  V30 1984 C 198.133 2.53017 6.34406 0
M  V30 1985 O 197.821 3.52917 7.22291 0
M  V30 1986 H 197.553 -0.030077 0.675331 0
M  V30 1987 H 200.107 0.560708 1.97599 0
M  V30 1988 H 198.337 -1.411 3.60038 0
M  V30 1989 H 200.026 -1.11981 3.90148 0
M  V30 1990 H 200.792 1.23509 4.6901 0
M  V30 1991 H 196.671 0.0114913 4.60999 0
M  V30 1992 H 200.215 3.03113 6.28306 0
M  V30 1993 H 196.112 1.79933 6.19915 0
M  V30 1994 H 196.88 3.48996 7.40367 0
M  V30 1995 N 199.544 -1.57102 0.125237 0
M  V30 1996 C 200.793 -1.94582 -0.531095 0
M  V30 1997 C 201.106 -1.01126 -1.6743 0
M  V30 1998 O 202.312 -1.28097 -2.39381 0
M  V30 1999 C 200.768 -3.45839 -0.996164 0
M  V30 2000 C 200.376 -4.47842 0.118926 0
M  V30 2001 C 202.12 -3.92227 -1.62352 0
M  V30 2002 C 200.027 -5.90284 -0.363192 0
M  V30 2003 H 198.957 -0.726391 -0.20217 0
M  V30 2004 H 201.608 -1.82339 0.206092 0
M  V30 2005 H 199.99 -3.53338 -1.78796 0
M  V30 2006 H 201.164 -4.52018 0.895358 0
M  V30 2007 H 199.479 -4.11243 0.653324 0
M  V30 2008 H 202.076 -4.96069 -1.99548 0
M  V30 2009 H 202.419 -3.32552 -2.50429 0
M  V30 2010 H 202.952 -3.87554 -0.897019 0
M  V30 2011 H 199.691 -6.53728 0.481679 0
M  V30 2012 H 199.211 -5.89515 -1.10597 0
M  V30 2013 H 200.89 -6.41752 -0.822377 0
M  V30 2014 N 201.022 0.148545 -1.56898 0
M  V30 2015 C 202.27 0.859717 -1.82902 0
M  V30 2016 C 202.591 1.81775 -0.70588 0
M  V30 2017 O 201.861 1.93994 0.272586 0
M  V30 2018 H 200.441 0.320469 -0.674766 0
M  V30 2019 H 203.103 0.142918 -1.94375 0
M  V30 2020 H 202.199 1.4229 -2.77777 0
M  V30 2021 N 202.5 1.5196 0.417844 0
M  V30 2022 C 203.748 1.65263 1.16329 0
M  V30 2023 C 204.069 0.380634 1.91249 0
M  V30 2024 O 203.339 -0.604214 1.86349 0
M  V30 2025 H 201.919 0.60912 0.432414 0
M  V30 2026 H 204.581 1.88969 0.477162 0
M  V30 2027 H 203.677 2.4896 1.88217 0
M  V30 2028 N 203.978 -0.674533 1.42435 0
M  V30 2029 C 205.224 -1.43671 1.43131 0
M  V30 2030 C 205.557 -1.94142 0.0476021 0
M  V30 2031 O 204.832 -1.70924 -0.928188 0
M  V30 2032 C 205.115 -2.63355 2.45594 0
M  V30 2033 C 204.968 -2.18514 3.93156 0
M  V30 2034 C 206.287 -3.65571 2.45043 0
M  V30 2035 H 203.406 -0.521077 0.521198 0
M  V30 2036 H 206.048 -0.766551 1.7385 0
M  V30 2037 H 204.198 -3.2053 2.19528 0
M  V30 2038 H 205.87 -1.66504 4.30202 0
M  V30 2039 H 204.113 -1.50086 4.07009 0
M  V30 2040 H 204.784 -3.04484 4.60428 0
M  V30 2041 H 207.26 -3.18113 2.68223 0
M  V30 2042 H 206.136 -4.46893 3.18713 0
M  V30 2043 H 206.397 -4.16716 1.47649 0
M  V30 2044 N 205.456 -1.28612 -0.910864 0
M  V30 2045 C 206.406 -1.09423 -2.00026 0
M  V30 2046 C 207.39 -0.0170079 -1.60891 0
M  V30 2047 O 208.582 -0.237472 -1.754 0
M  V30 2048 C 205.711 -0.76114 -3.34756 0
M  V30 2049 C 204.797 -1.87735 -3.80285 0
M  V30 2050 N 205.188 -3.11938 -3.98156 0
M  V30 2051 C 203.486 -1.76786 -4.09467 0
M  V30 2052 C 204.187 -3.84687 -4.36338 0
M  V30 2053 N 203.163 -3.12555 -4.44759 0
M  V30 2054 H 206.965 -2.03658 -2.11898 0
M  V30 2055 H 204.479 -1.19573 -1.09891 0
M  V30 2056 H 206.476 -0.604743 -4.12491 0
M  V30 2057 H 205.136 0.173403 -3.24237 0
M  V30 2058 H 206.147 -3.47516 -3.83996 0
M  V30 2059 H 202.824 -0.905284 -4.07567 0
M  V30 2060 H 204.214 -4.91518 -4.58104 0
M  V30 2061 N 206.934 1.1197 -1.10907 0
M  V30 2062 C 208.182 1.83225 -0.852819 0
M  V30 2063 C 208.503 1.84769 0.623341 0
M  V30 2064 O 207.773 1.3143 1.45269 0
M  V30 2065 H 206.353 0.67849 -0.312507 0
M  V30 2066 H 209.015 1.3556 -1.40033 0
M  V30 2067 H 208.111 2.87265 -1.22005 0
M  V30 2068 N 208.412 0.89855 1.29475 0
M  V30 2069 C 209.689 0.443416 1.90508 0
M  V30 2070 C 210.069 -1.07685 1.81569 0
M  V30 2071 O 209.417 -1.9182 1.24166 0
M  V30 2072 C 209.627 0.956708 3.35631 0
M  V30 2073 C 210.975 0.999728 4.12663 0
M  V30 2074 O 211.999 0.904299 3.4453 0
M  V30 2075 O 210.858 1.14289 5.34416 0
M  V30 2076 H 207.952 0.138025 0.815401 0
M  V30 2077 H 210.498 0.98834 1.37949 0
M  V30 2078 H 209.27 2.00067 3.36287 0
M  V30 2079 H 208.893 0.391728 3.95666 0
M  V30 2080 N 209.89 -1.43072 0.660911 0
M  V30 2081 C 211.118 -2.06067 0.185422 0
M  V30 2082 C 211.533 -1.49582 -1.15198 0
M  V30 2083 O 210.89 -0.630134 -1.71276 0
M  V30 2084 C 210.941 -3.61371 0.0966523 0
M  V30 2085 O 210.662 -4.15758 1.38119 0
M  V30 2086 C 212.163 -4.41455 -0.403996 0
M  V30 2087 H 209.383 -0.664459 0.0934604 0
M  V30 2088 H 211.927 -1.83447 0.90373 0
M  V30 2089 H 210.082 -3.8315 -0.572259 0
M  V30 2090 H 210.496 -5.09499 1.24542 0
M  V30 2091 H 211.97 -5.50437 -0.415045 0
M  V30 2092 H 212.447 -4.15036 -1.43674 0
M  V30 2093 H 213.053 -4.24663 0.232691 0
M  V30 2094 N 211.368 -0.403325 -1.52352 0
M  V30 2095 C 212.316 0.439752 -2.28405 0
M  V30 2096 C 213.31 1.05089 -1.32863 0
M  V30 2097 O 214.516 0.989759 -1.50345 0
M  V30 2098 H 210.891 0.160587 -0.734653 0
M  V30 2099 H 212.862 -0.222983 -2.97566 0
M  V30 2100 C 211.611 1.54736 -3.11371 0
M  V30 2101 H 210.934 1.08643 -3.84755 0
M  V30 2102 H 212.374 2.1112 -3.67701 0
M  V30 2103 C 210.833 2.51141 -2.24566 0
M  V30 2104 O 211.363 3.54887 -1.88196 0
M  V30 2105 N 209.569 2.21213 -1.8845 0
M  V30 2106 H 209.116 1.36878 -2.18225 0
M  V30 2107 H 209.074 2.85963 -1.30662 0
M  V30 2108 N 212.846 1.57033 -0.133567 0
M  V30 2109 C 213.809 2.14897 0.796995 0
M  V30 2110 C 214.809 1.0874 1.18458 0
M  V30 2111 O 215.999 1.34446 1.1077 0
M  V30 2112 C 213.131 2.70112 2.07973 0
M  V30 2113 H 214.324 2.98457 0.293873 0
M  V30 2114 H 211.877 1.55871 0.115787 0
M  V30 2115 H 212.612 1.9018 2.62682 0
M  V30 2116 H 212.397 3.47764 1.81115 0
M  V30 2117 H 213.887 3.14738 2.74462 0
M  V30 2118 N 214.325 -0.140222 1.56975 0
M  V30 2119 C 215.553 -0.866437 1.87884 0
M  V30 2120 C 215.968 -1.74428 0.722517 0
M  V30 2121 O 215.325 -1.79891 -0.30749 0
M  V30 2122 C 215.376 -1.71753 3.18093 0
M  V30 2123 O 215.097 -0.875056 4.29272 0
M  V30 2124 C 216.598 -2.55074 3.62563 0
M  V30 2125 H 213.818 -0.25019 0.622612 0
M  V30 2126 H 216.362 -0.130977 2.0408 0
M  V30 2127 H 214.517 -2.40598 3.03631 0
M  V30 2128 H 214.931 -1.46002 5.03769 0
M  V30 2129 H 216.405 -3.10356 4.5649 0
M  V30 2130 H 216.882 -3.31434 2.88181 0
M  V30 2131 H 217.488 -1.91509 3.79743 0
M  V30 2132 N 215.803 -1.52179 -0.40978 0
M  V30 2133 C 217.05 -1.66206 -1.15679 0
M  V30 2134 C 217.378 -0.391674 -1.90516 0
M  V30 2135 O 216.633 0.62533 -1.8544 0
M  V30 2136 C 216.932 -2.83428 -2.17723 0
M  V30 2137 C 216.598 -4.21672 -1.59699 0
M  V30 2138 C 215.26 -4.59274 -1.43599 0
M  V30 2139 C 217.612 -5.07825 -1.17317 0
M  V30 2140 C 214.94 -5.80709 -0.836328 0
M  V30 2141 C 217.292 -6.29864 -0.587691 0
M  V30 2142 C 215.956 -6.66216 -0.413818 0
M  V30 2143 H 215.226 -0.608192 -0.423301 0
M  V30 2144 H 217.873 -1.86279 -0.444097 0
M  V30 2145 H 216.178 -2.57687 -2.95135 0
M  V30 2146 H 217.875 -2.91477 -2.75394 0
M  V30 2147 H 214.465 -3.9204 -1.73213 0
M  V30 2148 H 218.649 -4.79359 -1.28565 0
M  V30 2149 H 213.905 -6.07498 -0.689626 0
M  V30 2150 H 218.079 -6.95948 -0.250894 0
M  V30 2151 H 215.706 -7.60182 0.0529471 0
M  V30 2152 N 217.281 0.66697 -1.42791 0
M  V30 2153 C 218.692 1.2478 -1.38877 0
M  V30 2154 C 219.043 1.96012 -0.0859426 0
M  V30 2155 O 218.168 2.00463 0.815081 0
M  V30 2156 C 218.763 2.26938 -2.51564 0
M  V30 2157 C 217.322 2.80529 -2.50959 0
M  V30 2158 C 216.469 1.54965 -2.29959 0
M  V30 2159 H 219.42 0.459853 -1.51892 0
M  V30 2160 H 219.441 3.08834 -2.22265 0
M  V30 2161 H 218.953 1.75065 -3.46372 0
M  V30 2162 H 217.054 3.36502 -1.59991 0
M  V30 2163 H 217.167 3.29012 -3.48265 0
M  V30 2164 H 215.531 1.81817 -1.78366 0
M  V30 2165 H 216.314 1.05047 -3.26833 0
M  V30 2166 N 218.759 1.29093 0.90403 0
M  V30 2167 C 219.722 1.1386 1.98919 0
M  V30 2168 C 220.722 0.0753457 1.60623 0
M  V30 2169 O 221.912 0.321931 1.71199 0
M  V30 2170 C 219.044 0.740198 3.32767 0
M  V30 2171 H 220.237 2.10246 2.13861 0
M  V30 2172 H 217.79 1.12218 1.08797 0
M  V30 2173 H 218.525 -0.223997 3.23525 0
M  V30 2174 H 218.31 1.50838 3.61926 0
M  V30 2175 H 219.8 0.656546 4.12407 0
M  V30 2176 N 220.237 -1.11381 1.11499 0
M  V30 2177 C 221.485 -1.8277 0.862524 0
M  V30 2178 C 221.806 -1.85097 -0.613534 0
M  V30 2179 O 221.076 -1.32198 -1.4457 0
M  V30 2180 H 219.656 -0.676823 0.316101 0
M  V30 2181 H 222.318 -1.34816 1.4075 0
M  V30 2182 H 221.414 -2.86614 1.23527 0
M  V30 2183 N 221.715 -0.905404 -1.28997 0
M  V30 2184 C 222.992 -0.453513 -1.9027 0
M  V30 2185 C 223.372 1.06721 -1.82137 0
M  V30 2186 O 222.72 1.91159 -1.25182 0
M  V30 2187 C 222.93 -0.974494 -3.35119 0
M  V30 2188 C 224.278 -1.0216 -4.12127 0
M  V30 2189 O 225.302 -0.922557 -3.44046 0
M  V30 2190 O 224.161 -1.17121 -5.33802 0
M  V30 2191 H 221.255 -0.142347 -0.814657 0
M  V30 2192 H 223.801 -0.995642 -1.37423 0
M  V30 2193 H 222.573 -2.01848 -3.35221 0
M  V30 2194 H 222.196 -0.412706 -3.95452 0
M  V30 2195 N 223.193 1.4272 -0.668489 0
M  V30 2196 C 224.439 2.01923 -0.188419 0
M  V30 2197 C 224.772 1.52704 1.19979 0
M  V30 2198 O 224.047 0.726566 1.8042 0
M  V30 2199 C 224.33 3.59451 -0.216085 0
M  V30 2200 C 224.183 4.18864 -1.6393 0
M  V30 2201 C 225.502 4.37903 0.439179 0
M  V30 2202 H 222.621 0.733674 -0.0699412 0
M  V30 2203 H 225.263 1.69822 -0.852076 0
M  V30 2204 H 223.413 3.86929 0.349012 0
M  V30 2205 H 225.085 4.02362 -2.25616 0
M  V30 2206 H 223.328 3.74933 -2.18193 0
M  V30 2207 H 223.999 5.27987 -1.61039 0
M  V30 2208 H 226.475 4.16079 -0.0417878 0
M  V30 2209 H 225.351 5.47519 0.389157 0
M  V30 2210 H 225.612 4.15303 1.51577 0
M  V30 2211 N 224.671 0.411399 1.52136 0
M  V30 2212 C 225.634 -0.401089 2.25663 0
M  V30 2213 C 226.634 -0.971732 1.28117 0
M  V30 2214 O 227.824 -0.850254 1.52041 0
M  V30 2215 C 224.956 -1.56483 3.02863 0
M  V30 2216 H 226.149 0.24295 2.98914 0
M  V30 2217 H 223.702 0.163968 1.55438 0
M  V30 2218 H 224.437 -2.24567 2.33967 0
M  V30 2219 H 224.222 -1.16211 3.74483 0
M  V30 2220 H 225.712 -2.13951 3.58629 0
M  V30 2221 N 226.149 -1.5696 0.141893 0
M  V30 2222 C 227.426 -1.87553 -0.555281 0
M  V30 2223 C 227.806 -1.04699 -1.83306 0
M  V30 2224 O 227.154 -0.132346 -2.28116 0
M  V30 2225 C 227.364 -3.39093 -0.825664 0
M  V30 2226 C 228.712 -4.08199 -1.16869 0
M  V30 2227 O 229.736 -3.44242 -0.915185 0
M  V30 2228 O 228.595 -5.21139 -1.6455 0
M  V30 2229 H 225.689 -0.777188 -0.282679 0
M  V30 2230 H 228.235 -1.68763 0.17812 0
M  V30 2231 H 227.007 -3.91221 0.0788633 0
M  V30 2232 H 226.63 -3.63393 -1.61343 0
M  V30 2233 N 227.627 0.131896 -1.57047 0
M  V30 2234 C 228.537 1.1815 -2.02676 0
M  V30 2235 C 229.553 1.46113 -0.944824 0
M  V30 2236 O 230.729 1.57485 -1.25541 0
M  V30 2237 C 227.794 2.49139 -2.41103 0
M  V30 2238 C 226.855 2.28688 -3.63318 0
M  V30 2239 C 226.088 3.53431 -3.99903 0
M  V30 2240 O 226.311 4.60223 -3.36973 0
M  V30 2241 O 225.245 3.45198 -4.93074 0
M  V30 2242 H 229.071 0.824069 -2.92306 0
M  V30 2243 H 226.656 0.341745 -1.45439 0
M  V30 2244 H 228.538 3.26338 -2.66611 0
M  V30 2245 H 227.213 2.84382 -1.54624 0
M  V30 2246 H 226.12 1.4939 -3.42977 0
M  V30 2247 H 227.453 1.98355 -4.50462 0
M  V30 2248 N 229.106 1.52395 0.401703 0
M  V30 2249 C 230.056 1.72649 1.48917 0
M  V30 2250 C 231.04 0.580436 1.50066 0
M  V30 2251 O 232.232 0.83779 1.55917 0
M  V30 2252 C 229.361 1.88729 2.86769 0
M  V30 2253 C 228.447 3.09228 2.90239 0
M  V30 2254 N 228.838 4.31805 2.63396 0
M  V30 2255 C 227.136 3.09214 3.21408 0
M  V30 2256 C 227.837 5.13326 2.73625 0
M  V30 2257 N 226.813 4.48735 3.06819 0
M  V30 2258 H 230.615 2.65058 1.26971 0
M  V30 2259 H 228.129 1.50528 0.609504 0
M  V30 2260 H 230.126 2.01358 3.65049 0
M  V30 2261 H 228.786 0.975252 3.09708 0
M  V30 2262 H 229.797 4.60154 2.37653 0
M  V30 2263 H 226.474 2.27774 3.49893 0
M  V30 2264 H 227.864 6.21003 2.56524 0
M  V30 2265 N 230.584 -0.659388 1.43143 0
M  V30 2266 C 232 -0.974337 1.26407 0
M  V30 2267 C 232.2 -2.007 0.179341 0
M  V30 2268 O 231.256 -2.4856 -0.444295 0
M  V30 2269 C 232.569 -1.46447 2.62628 0
M  V30 2270 C 234.117 -1.58144 2.7011 0
M  V30 2271 C 234.592 -2.1055 4.06734 0
M  V30 2272 N 236.083 -2.17861 4.08767 0
M  V30 2273 C 236.818 -2.59519 5.1131 0
M  V30 2274 N 236.314 -3.00518 6.24228 0
M  V30 2275 N 238.107 -2.59404 4.98664 0
M  V30 2276 H 230.258 0.0240528 2.12386 0
M  V30 2277 H 232.521 -0.0518065 0.946583 0
M  V30 2278 H 232.227 -0.780123 3.42939 0
M  V30 2279 H 232.101 -2.44058 2.87603 0
M  V30 2280 H 234.488 -2.25682 1.90136 0
M  V30 2281 H 234.569 -0.589828 2.48907 0
M  V30 2282 H 234.213 -1.43616 4.87172 0
M  V30 2283 H 234.143 -3.10531 4.25298 0
M  V30 2284 H 236.634 -1.88975 3.27257 0
M  V30 2285 H 236.947 -3.31036 6.98309 0
M  V30 2286 H 235.292 -2.98337 6.2771 0
M  V30 2287 H 238.483 -2.26747 4.09516 0
M  V30 2288 H 238.656 -2.91548 5.78709 0
M  V30 2289 N 232.062 -1.29571 -0.897171 0
M  V30 2290 C 232.992 -1.17473 -2.01798 0
M  V30 2291 C 233.973 -0.068323 -1.69963 0
M  V30 2292 O 235.158 -0.248239 -1.92607 0
M  V30 2293 C 232.288 -0.853099 -3.36659 0
M  V30 2294 C 231.242 -1.9161 -3.82713 0
M  V30 2295 C 230.568 -1.44773 -5.14728 0
M  V30 2296 C 231.868 -3.32535 -4.02763 0
M  V30 2297 H 233.562 -2.11237 -2.12177 0
M  V30 2298 H 231.108 -1.01699 -1.01948 0
M  V30 2299 H 233.061 -0.755165 -4.14578 0
M  V30 2300 H 231.785 0.120236 -3.26379 0
M  V30 2301 H 230.444 -2.00346 -3.07013 0
M  V30 2302 H 230.092 -0.462995 -5.00865 0
M  V30 2303 H 229.792 -2.15865 -5.46513 0
M  V30 2304 H 231.316 -1.36334 -5.95185 0
M  V30 2305 H 232.73 -3.26626 -4.71156 0
M  V30 2306 H 231.127 -4.01607 -4.45905 0
M  V30 2307 H 232.197 -3.75326 -3.07016 0
M  V30 2308 N 233.54 1.10788 -1.12088 0
M  V30 2309 C 234.47 2.19083 -0.807755 0
M  V30 2310 C 235.451 1.6858 0.226859 0
M  V30 2311 O 236.636 1.93997 0.0888475 0
M  V30 2312 C 233.766 3.46344 -0.257576 0
M  V30 2313 C 232.72 4.101 -1.22483 0
M  V30 2314 C 232.046 5.32016 -0.535052 0
M  V30 2315 C 233.346 4.54236 -2.57811 0
M  V30 2316 H 235.04 2.45534 -1.71328 0
M  V30 2317 H 232.586 1.1801 -0.825205 0
M  V30 2318 H 234.539 4.21392 -0.0262679 0
M  V30 2319 H 233.263 3.19373 0.683278 0
M  V30 2320 H 231.922 3.37054 -1.44189 0
M  V30 2321 H 231.57 5.01319 0.410827 0
M  V30 2322 H 231.27 5.75625 -1.18024 0
M  V30 2323 H 232.794 6.09799 -0.312695 0
M  V30 2324 H 234.208 5.20575 -2.40155 0
M  V30 2325 H 232.605 5.08682 -3.18375 0
M  V30 2326 H 233.675 3.6734 -3.16528 0
M  V30 2327 N 235.018 0.912232 1.28515 0
M  V30 2328 C 236.264 0.545405 1.95328 0
M  V30 2329 C 236.597 -0.908313 1.71649 0
M  V30 2330 O 235.872 -1.64575 1.03659 0
M  V30 2331 C 236.155 0.853483 3.4984 0
M  V30 2332 C 236.008 2.35982 3.82926 0
M  V30 2333 C 237.327 0.348589 4.38717 0
M  V30 2334 H 234.446 0.199626 0.709449 0
M  V30 2335 H 237.088 1.1412 1.5191 0
M  V30 2336 H 235.238 0.34643 3.86952 0
M  V30 2337 H 236.91 2.93738 3.55691 0
M  V30 2338 H 235.153 2.81543 3.30024 0
M  V30 2339 H 235.824 2.52593 4.90816 0
M  V30 2340 H 238.3 0.78294 4.08668 0
M  V30 2341 H 237.176 0.593242 5.45685 0
M  V30 2342 H 237.437 -0.751049 4.35674 0
M  V30 2343 N 236.496 -1.42363 0.676048 0
M  V30 2344 C 237.773 -1.95183 0.127726 0
M  V30 2345 C 238.153 -1.61641 -1.35777 0
M  V30 2346 O 237.501 -0.913216 -2.09458 0
M  V30 2347 C 237.711 -3.46721 0.398199 0
M  V30 2348 C 239.059 -4.23427 0.315383 0
M  V30 2349 O 240.083 -3.54649 0.332016 0
M  V30 2350 O 238.942 -5.45888 0.25865 0
M  V30 2351 H 236.036 -0.826992 0.00359427 0
M  V30 2352 H 238.582 -1.52184 0.750864 0
M  V30 2353 H 237.354 -3.64344 1.4272 0
M  V30 2354 H 236.977 -3.96769 -0.256885 0
M  V30 2355 N 237.974 -0.419461 -1.51915 0
M  V30 2356 C 239.39 -0.0708431 -1.59443 0
M  V30 2357 C 239.59 1.41796 -1.43164 0
M  V30 2358 O 238.646 2.18596 -1.26381 0
M  V30 2359 C 239.959 -0.574991 -2.95151 0
M  V30 2360 C 241.507 -0.533867 -3.08413 0
M  V30 2361 C 241.982 -1.01469 -4.46618 0
M  V30 2362 N 243.473 -0.971939 -4.52888 0
M  V30 2363 C 244.208 -1.31505 -5.58116 0
M  V30 2364 N 243.704 -1.73014 -6.70849 0
M  V30 2365 N 245.497 -1.23436 -5.48379 0
M  V30 2366 H 237.648 -1.38836 -1.60743 0
M  V30 2367 H 239.911 -0.570998 -0.756747 0
M  V30 2368 H 239.617 -1.61597 -3.12377 0
M  V30 2369 H 239.491 0.00979777 -3.77199 0
M  V30 2370 H 241.878 0.498086 -2.90866 0
M  V30 2371 H 241.959 -1.15484 -2.28248 0
M  V30 2372 H 241.603 -2.04502 -4.6491 0
M  V30 2373 H 241.533 -0.370433 -5.25295 0
M  V30 2374 H 244.024 -0.666893 -3.71969 0
M  V30 2375 H 244.337 -1.97479 -7.47143 0
M  V30 2376 H 242.682 -1.76926 -6.72103 0
M  V30 2377 H 245.873 -0.908869 -4.59192 0
M  V30 2378 H 246.046 -1.50506 -6.30279 0
M  V30 2379 N 239.452 1.56882 -0.150215 0
M  V30 2380 C 240.68 2.00593 0.506948 0
M  V30 2381 C 241.095 1.03033 1.58208 0
M  V30 2382 O 240.452 0.0278396 1.82479 0
M  V30 2383 C 240.503 3.44209 1.10465 0
M  V30 2384 O 240.224 4.3804 0.0724636 0
M  V30 2385 C 241.725 4.03214 1.84211 0
M  V30 2386 H 238.945 0.65795 0.13169 0
M  V30 2387 H 241.489 2.03018 -0.245743 0
M  V30 2388 H 239.644 3.42625 1.80795 0
M  V30 2389 H 240.058 5.22007 0.510793 0
M  V30 2390 H 241.532 5.0569 2.21318 0
M  V30 2391 H 242.009 3.44107 2.72923 0
M  V30 2392 H 242.615 4.08437 1.18572 0
M  V30 2393 N 240.93 -0.123565 1.57115 0
M  V30 2394 C 242.346 -0.476961 1.52306 0
M  V30 2395 C 242.546 -1.82109 0.86248 0
M  V30 2396 O 241.602 -2.48586 0.442884 0
M  V30 2397 C 242.915 -0.465661 2.97073 0
M  V30 2398 C 244.463 -0.549534 3.08138 0
M  V30 2399 C 244.938 -0.568669 4.54456 0
M  V30 2400 N 246.429 -0.630237 4.58892 0
M  V30 2401 C 247.164 -0.666415 5.69514 0
M  V30 2402 N 246.66 -0.660514 6.89644 0
M  V30 2403 N 248.453 -0.709077 5.5761 0
M  V30 2404 H 240.604 0.757198 1.98445 0
M  V30 2405 H 242.867 0.278808 0.906074 0
M  V30 2406 H 242.573 0.454232 3.48754 0
M  V30 2407 H 242.447 -1.29513 3.54269 0
M  V30 2408 H 244.834 -1.45985 2.56461 0
M  V30 2409 H 244.915 0.307532 2.53945 0
M  V30 2410 H 244.559 0.337581 5.06777 0
M  V30 2411 H 244.489 -1.44256 5.06456 0
M  V30 2412 H 246.98 -0.641146 3.72421 0
M  V30 2413 H 247.293 -0.690616 7.69708 0
M  V30 2414 H 245.638 -0.628012 6.92157 0
M  V30 2415 H 248.829 -0.711019 4.62668 0
M  V30 2416 H 249.002 -0.733804 6.43832 0
M  V30 2417 N 242.408 -1.52605 -0.393616 0
M  V30 2418 C 243.318 -1.79971 -1.50492 0
M  V30 2419 C 244.334 -0.686181 -1.59899 0
M  V30 2420 O 245.51 -0.973274 -1.76322 0
M  V30 2421 C 242.575 -1.95867 -2.86072 0
M  V30 2422 C 241.636 -3.19781 -2.86424 0
M  V30 2423 C 240.869 -3.34909 -4.15538 0
M  V30 2424 O 241.092 -2.54948 -5.10253 0
M  V30 2425 O 240.026 -4.28141 -4.23059 0
M  V30 2426 H 243.852 -2.74328 -1.30299 0
M  V30 2427 H 241.437 -1.3764 -0.581005 0
M  V30 2428 H 243.319 -2.08056 -3.66457 0
M  V30 2429 H 241.994 -1.04699 -3.063 0
M  V30 2430 H 240.901 -3.13038 -2.04837 0
M  V30 2431 H 242.234 -4.1078 -2.71147 0
M  V30 2432 N 243.887 0.651787 -1.4349 0
M  V30 2433 C 244.85 1.74647 -1.48429 0
M  V30 2434 C 245.85 1.56513 -0.368817 0
M  V30 2435 O 247.04 1.62385 -0.630623 0
M  V30 2436 C 244.172 3.13533 -1.33827 0
M  V30 2437 H 245.365 1.71649 -2.4592 0
M  V30 2438 H 242.918 0.863573 -1.30277 0
M  V30 2439 H 243.653 3.22142 -0.37349 0
M  V30 2440 H 243.438 3.28101 -2.14691 0
M  V30 2441 H 244.928 3.93356 -1.40218 0
M  V30 2442 N 245.365 1.30045 0.890287 0
M  V30 2443 C 246.593 1.21472 1.67487 0
M  V30 2444 C 247.008 -0.223241 1.87476 0
M  V30 2445 O 246.365 -1.14828 1.41847 0
M  V30 2446 C 246.416 1.93394 3.05419 0
M  V30 2447 O 246.137 3.31576 2.86337 0
M  V30 2448 C 247.638 1.91414 3.99844 0
M  V30 2449 H 244.858 0.420604 0.522813 0
M  V30 2450 H 247.402 1.7158 1.11268 0
M  V30 2451 H 245.557 1.47099 3.58386 0
M  V30 2452 H 245.971 3.67929 3.73802 0
M  V30 2453 H 247.445 2.46285 4.94012 0
M  V30 2454 H 247.922 0.891833 4.3005 0
M  V30 2455 H 248.528 2.37496 3.52811 0
M  V30 2456 N 246.843 -1.10192 1.12674 0
M  V30 2457 C 247.776 -2.15847 0.740625 0
M  V30 2458 C 248.754 -1.60352 -0.269421 0
M  V30 2459 O 249.938 -1.87796 -0.16278 0
M  V30 2460 C 247.065 -3.38562 0.096641 0
M  V30 2461 C 246.111 -4.12758 1.07391 0
M  V30 2462 S 246.944 -4.67997 2.60267 0
M  V30 2463 C 248.1 -5.94021 1.97206 0
M  V30 2464 H 248.333 -2.48266 1.63558 0
M  V30 2465 H 245.866 -1.22019 0.946087 0
M  V30 2466 H 247.824 -4.09621 -0.268535 0
M  V30 2467 H 246.485 -3.04377 -0.775462 0
M  V30 2468 H 245.678 -5.00755 0.570997 0
M  V30 2469 H 245.28 -3.47523 1.38216 0
M  V30 2470 H 247.572 -6.64589 1.31634 0
M  V30 2471 H 248.515 -6.48979 2.83253 0
M  V30 2472 H 248.923 -5.46169 1.42686 0
M  V30 2473 N 248.321 -0.919034 -1.28029 0
M  V30 2474 C 249.737 -0.617972 -1.4715 0
M  V30 2475 C 249.937 0.835242 -1.83374 0
M  V30 2476 O 248.993 1.61388 -1.94191 0
M  V30 2477 C 250.306 -1.56041 -2.57044 0
M  V30 2478 C 251.854 -1.56769 -2.7091 0
M  V30 2479 C 252.329 -2.49688 -3.83953 0
M  V30 2480 N 253.82 -2.47845 -3.91314 0
M  V30 2481 C 254.555 -3.16437 -4.78179 0
M  V30 2482 N 254.051 -3.94376 -5.69596 0
M  V30 2483 N 255.844 -3.05498 -4.71834 0
M  V30 2484 H 247.995 -1.85866 -1.02798 0
M  V30 2485 H 250.258 -0.797506 -0.512531 0
M  V30 2486 H 249.964 -2.59671 -2.372 0
M  V30 2487 H 249.838 -1.29551 -3.54255 0
M  V30 2488 H 252.225 -0.538745 -2.90141 0
M  V30 2489 H 252.306 -1.87305 -1.74214 0
M  V30 2490 H 251.95 -3.52688 -3.65477 0
M  V30 2491 H 251.88 -2.16453 -4.80058 0
M  V30 2492 H 254.371 -1.91234 -3.25941 0
M  V30 2493 H 254.684 -4.43721 -6.32718 0
M  V30 2494 H 253.029 -3.98481 -5.69419 0
M  V30 2495 H 256.22 -2.44108 -3.99411 0
M  V30 2496 H 256.393 -3.59225 -5.39316 0
M  V30 2497 N 249.799 1.42003 -0.683588 0
M  V30 2498 C 250.762 2.29191 -0.0198243 0
M  V30 2499 C 251.762 1.43773 0.72013 0
M  V30 2500 O 252.952 1.65061 0.556815 0
M  V30 2501 C 250.084 3.26435 0.982487 0
M  V30 2502 H 251.277 2.8938 -0.787345 0
M  V30 2503 H 248.83 1.49789 -0.446418 0
M  V30 2504 H 249.565 2.71203 1.77819 0
M  V30 2505 H 249.35 3.89449 0.455182 0
M  V30 2506 H 250.84 3.918 1.44508 0
M  V30 2507 N 251.277 0.427512 1.51691 0
M  V30 2508 C 252.526 -0.143679 2.01188 0
M  V30 2509 C 252.839 -1.44642 1.31674 0
M  V30 2510 O 254.045 -2.09997 1.72086 0
M  V30 2511 C 252.501 -0.306602 3.58592 0
M  V30 2512 C 252.109 0.985125 4.37035 0
M  V30 2513 C 253.853 -0.832091 4.16265 0
M  V30 2514 C 251.76 0.788382 5.86122 0
M  V30 2515 H 250.69 -0.0574701 0.751807 0
M  V30 2516 H 253.341 0.555772 1.74881 0
M  V30 2517 H 251.723 -1.06882 3.81303 0
M  V30 2518 H 252.897 1.75492 4.26074 0
M  V30 2519 H 251.212 1.4384 3.90767 0
M  V30 2520 H 253.809 -0.995617 5.25349 0
M  V30 2521 H 254.152 -1.81186 3.74803 0
M  V30 2522 H 254.685 -0.128444 3.97593 0
M  V30 2523 H 251.424 1.74025 6.31978 0
M  V30 2524 H 250.944 0.0582143 5.99772 0
M  V30 2525 H 252.623 0.437722 6.45518 0
M  V30 2526 N 252.755 -1.56801 0.158532 0
M  V30 2527 C 253.703 -2.18638 -0.793729 0
M  V30 2528 C 254.697 -1.14669 -1.24689 0
M  V30 2529 O 255.903 -1.32895 -1.21403 0
M  V30 2530 H 252.278 -0.700226 -0.274204 0
M  V30 2531 H 254.249 -2.97367 -0.248095 0
M  V30 2532 C 252.998 -2.83139 -2.0181 0
M  V30 2533 H 252.321 -3.62863 -1.67841 0
M  V30 2534 H 253.761 -3.29894 -2.66357 0
M  V30 2535 C 252.22 -1.82244 -2.83353 0
M  V30 2536 O 252.75 -1.3 -3.80083 0
M  V30 2537 N 250.956 -1.51288 -2.48114 0
M  V30 2538 H 250.503 -1.93964 -1.69516 0
M  V30 2539 H 250.461 -0.840296 -3.02963 0
M  V30 2540 N 254.233 0.115231 -1.57178 0
M  V30 2541 C 255.461 0.836437 -1.89239 0
M  V30 2542 C 255.876 1.73256 -0.750175 0
M  V30 2543 O 255.233 1.80357 0.278832 0
M  V30 2544 C 255.284 1.66671 -3.20785 0
M  V30 2545 O 255.005 0.806652 -4.3061 0
M  V30 2546 C 256.506 2.49274 -3.66575 0
M  V30 2547 H 253.726 0.240253 -0.626514 0
M  V30 2548 H 256.27 0.0984932 -2.04263 0
M  V30 2549 H 254.425 2.35737 -3.0742 0
M  V30 2550 H 254.839 1.37969 -5.06028 0
M  V30 2551 H 256.313 3.03055 -4.6137 0
M  V30 2552 H 256.79 3.26807 -2.93417 0
M  V30 2553 H 257.396 1.85443 -3.82741 0
M  V30 2554 N 255.711 1.52812 0.385517 0
M  V30 2555 C 256.957 1.68275 1.13188 0
M  V30 2556 C 257.29 0.423179 1.89533 0
M  V30 2557 O 256.565 -0.579113 1.85679 0
M  V30 2558 C 256.848 2.92001 2.1073 0
M  V30 2559 C 256.701 4.28067 1.38125 0
M  V30 2560 C 258.02 3.11283 3.11113 0
M  V30 2561 H 255.139 0.612352 0.410115 0
M  V30 2562 H 257.781 1.85415 0.414869 0
M  V30 2563 H 255.931 2.77519 2.71874 0
M  V30 2564 H 257.603 4.54324 0.799187 0
M  V30 2565 H 255.846 4.28388 0.683092 0
M  V30 2566 H 256.517 5.10733 2.09417 0
M  V30 2567 H 258.993 3.2482 2.6006 0
M  V30 2568 H 257.869 3.99325 3.76605 0
M  V30 2569 H 258.13 2.25656 3.80173 0
M  V30 2570 N 257.189 -0.644168 1.43834 0
M  V30 2571 C 258.136 -1.75671 1.49694 0
M  V30 2572 C 259.106 -1.6246 0.345809 0
M  V30 2573 O 260.291 -1.82573 0.554234 0
M  V30 2574 C 257.431 -3.13867 1.43463 0
M  V30 2575 C 256.544 -3.38147 2.6885 0
M  V30 2576 C 255.679 -4.66241 2.54544 0
M  V30 2577 C 254.718 -4.83657 3.75157 0
M  V30 2578 N 253.855 -6.03016 3.59605 0
M  V30 2579 H 258.695 -1.69998 2.44754 0
M  V30 2580 H 256.232 -0.829458 1.21484 0
M  V30 2581 H 258.19 -3.9377 1.37843 0
M  V30 2582 H 256.82 -3.18588 0.519783 0
M  V30 2583 H 255.872 -2.52276 2.84712 0
M  V30 2584 H 257.184 -3.46899 3.58417 0
M  V30 2585 H 256.338 -5.54285 2.46683 0
M  V30 2586 H 255.077 -4.59826 1.62516 0
M  V30 2587 H 254.082 -3.94046 3.83416 0
M  V30 2588 H 255.307 -4.91896 4.68204 0
M  V30 2589 H 253.253 -5.97715 2.7032 0
M  V30 2590 H 253.17 -6.12766 4.42779 0
M  V30 2591 H 254.438 -6.93657 3.55613 0
M  V30 2592 N 258.668 -1.30515 -0.883378 0
M  V30 2593 C 260.079 -1.17509 -1.45081 0
M  V30 2594 C 260.43 0.223605 -1.94922 0
M  V30 2595 O 259.555 1.12041 -1.85137 0
M  V30 2596 C 260.15 -2.12715 -2.63701 0
M  V30 2597 C 258.709 -2.03682 -3.16529 0
M  V30 2598 C 257.856 -2.02706 -1.89224 0
M  V30 2599 H 260.807 -1.42762 -0.693165 0
M  V30 2600 H 260.828 -1.70891 -3.39965 0
M  V30 2601 H 260.34 -3.14505 -2.27395 0
M  V30 2602 H 258.441 -1.05039 -3.57488 0
M  V30 2603 H 258.554 -2.92146 -3.7972 0
M  V30 2604 H 256.918 -1.4753 -2.07622 0
M  V30 2605 H 257.701 -3.06229 -1.55174 0
M  V30 2606 N 260.146 1.09593 -1.13257 0
M  V30 2607 C 261.394 1.81375 -0.891492 0
M  V30 2608 C 261.715 1.86049 0.584009 0
M  V30 2609 O 260.985 1.34481 1.42449 0
M  V30 2610 H 259.565 0.671708 -0.326828 0
M  V30 2611 H 262.227 1.3256 -1.42877 0
M  V30 2612 H 261.323 2.84612 -1.28071 0
M  V30 2613 N 261.624 0.925811 1.2754 0
M  V30 2614 C 263.04 0.625767 1.46821 0
M  V30 2615 C 263.24 -0.825506 1.83814 0
M  V30 2616 O 262.296 -1.60356 1.95044 0
M  V30 2617 C 263.609 1.57402 2.56213 0
M  V30 2618 C 265.157 1.58204 2.70075 0
M  V30 2619 C 265.632 2.51721 3.82623 0
M  V30 2620 N 267.123 2.49917 3.89994 0
M  V30 2621 C 267.858 3.18968 4.76494 0
M  V30 2622 N 267.354 3.97391 5.67496 0
M  V30 2623 N 269.147 3.07996 4.70208 0
M  V30 2624 H 261.298 1.86409 1.01811 0
M  V30 2625 H 263.561 0.800213 0.508295 0
M  V30 2626 H 263.267 2.60925 2.35819 0
M  V30 2627 H 263.141 1.31428 3.53563 0
M  V30 2628 H 265.528 0.554124 2.89851 0
M  V30 2629 H 265.609 1.88226 1.73218 0
M  V30 2630 H 265.253 3.54622 3.63601 0
M  V30 2631 H 265.183 2.18996 4.78903 0
M  V30 2632 H 267.674 1.9296 3.24923 0
M  V30 2633 H 267.987 4.4707 6.30356 0
M  V30 2634 H 266.332 4.01495 5.67298 0
M  V30 2635 H 269.523 2.46223 3.9811 0
M  V30 2636 H 269.696 3.6208 5.37403 0
M  V30 2637 N 263.102 -1.41638 0.69111 0
M  V30 2638 C 264.065 -2.29178 0.0319786 0
M  V30 2639 C 265.065 -1.44153 -0.712496 0
M  V30 2640 O 266.255 -1.65354 -0.548053 0
M  V30 2641 C 263.387 -3.26952 -0.965161 0
M  V30 2642 H 264.58 -2.88959 0.802681 0
M  V30 2643 H 262.133 -1.4955 0.454356 0
M  V30 2644 H 262.868 -2.72142 -1.76378 0
M  V30 2645 H 262.653 -3.89685 -0.434522 0
M  V30 2646 H 264.143 -3.92561 -1.42428 0
M  V30 2647 N 264.58 -0.43555 -1.51462 0
M  V30 2648 C 265.51 0.367376 -2.30592 0
M  V30 2649 C 266.491 1.02263 -1.35928 0
M  V30 2650 O 267.676 1.02661 -1.64847 0
M  V30 2651 C 264.806 1.46983 -3.14664 0
M  V30 2652 C 263.76 0.938161 -4.17591 0
M  V30 2653 C 263.086 2.13622 -4.90173 0
M  V30 2654 C 264.386 -0.0261621 -5.22293 0
M  V30 2655 H 266.08 -0.292969 -2.97963 0
M  V30 2656 H 263.626 -0.14234 -1.43295 0
M  V30 2657 H 265.579 2.03873 -3.688 0
M  V30 2658 H 264.303 2.15843 -2.4511 0
M  V30 2659 H 262.962 0.391481 -3.64504 0
M  V30 2660 H 262.61 2.81098 -4.17124 0
M  V30 2661 H 262.31 1.78688 -5.59772 0
M  V30 2662 H 263.834 2.7107 -5.47132 0
M  V30 2663 H 265.248 0.452384 -5.71512 0
M  V30 2664 H 263.645 -0.287992 -5.99409 0
M  V30 2665 H 264.715 -0.963391 -4.75233 0
M  V30 2666 N 266.058 1.56714 -0.166846 0
M  V30 2667 C 267.283 2.01557 0.488833 0
M  V30 2668 C 267.708 1.0463 1.56314 0
M  V30 2669 O 267.066 0.0251304 1.81283 0
M  V30 2670 C 267.114 3.4503 1.04818 0
M  V30 2671 O 266.218 3.51163 2.16236 0
M  V30 2672 H 265.559 0.653516 0.117526 0
M  V30 2673 H 268.089 2.02818 -0.269421 0
M  V30 2674 H 268.099 3.84243 1.37191 0
M  V30 2675 H 266.774 4.15077 0.261572 0
M  V30 2676 H 265.351 3.23807 1.84942 0
M  V30 2677 N 267.536 -0.106894 1.57237 0
M  V30 2678 C 268.782 -0.81373 1.85759 0
M  V30 2679 C 269.115 -1.78952 0.754315 0
M  V30 2680 O 268.39 -1.93029 -0.23879 0
M  V30 2681 C 268.673 -1.55293 3.24894 0
M  V30 2682 C 268.526 -0.595929 4.45835 0
M  V30 2683 C 269.845 -2.5063 3.61763 0
M  V30 2684 H 266.964 -0.294369 0.67566 0
M  V30 2685 H 269.606 -0.0776472 1.89841 0
M  V30 2686 H 267.756 -2.1804 3.21544 0
M  V30 2687 H 269.428 0.0236262 4.61294 0
M  V30 2688 H 267.671 0.0916191 4.33703 0
M  V30 2689 H 268.342 -1.15004 5.39887 0
M  V30 2690 H 270.818 -1.97982 3.65981 0
M  V30 2691 H 269.694 -2.99376 4.60071 0
M  V30 2692 H 269.955 -3.3385 2.89821 0
M  V30 2693 N 269.014 -1.53014 -0.377408 0
M  V30 2694 C 270.263 -1.67845 -1.11853 0
M  V30 2695 C 270.576 -0.430625 -1.90801 0
M  V30 2696 O 271.782 -0.459261 -2.67587 0
M  V30 2697 C 270.238 -2.96668 -2.03756 0
M  V30 2698 C 269.846 -4.28671 -1.30175 0
M  V30 2699 C 271.59 -3.20865 -2.77932 0
M  V30 2700 C 269.497 -5.48591 -2.20911 0
M  V30 2701 H 268.427 -0.625343 -0.421263 0
M  V30 2702 H 271.078 -1.79514 -0.380409 0
M  V30 2703 H 269.46 -2.78773 -2.8125 0
M  V30 2704 H 270.634 -4.57157 -0.578259 0
M  V30 2705 H 268.949 -4.10825 -0.679108 0
M  V30 2706 H 271.546 -4.07642 -3.46024 0
M  V30 2707 H 271.889 -2.36424 -3.4265 0
M  V30 2708 H 272.422 -3.39379 -2.07525 0
M  V30 2709 H 269.161 -6.35474 -1.6079 0
M  V30 2710 H 268.681 -5.244 -2.91144 0
M  V30 2711 H 270.36 -5.8292 -2.80736 0
M  V30 2712 N 270.492 0.636531 -1.44174 0
M  V30 2713 C 271.74 1.39343 -1.46383 0
M  V30 2714 C 272.061 1.94766 -0.0955715 0
M  V30 2715 O 271.331 1.75452 0.871395 0
M  V30 2716 H 269.911 0.517199 -0.538994 0
M  V30 2717 H 272.573 0.74957 -1.7991 0
M  V30 2718 H 271.669 2.22746 -2.18611 0
M  V30 2719 N 271.97 1.30982 0.876444 0
M  V30 2720 C 273.386 1.09498 1.16113 0
M  V30 2721 C 273.586 -0.13875 2.01022 0
M  V30 2722 O 272.642 -0.829935 2.38471 0
M  V30 2723 C 273.955 2.36308 1.85954 0
M  V30 2724 C 275.503 2.41856 1.98683 0
M  V30 2725 C 275.978 3.6853 2.71937 0
M  V30 2726 N 277.469 3.69387 2.79477 0
M  V30 2727 C 278.204 4.64096 3.36753 0
M  V30 2728 N 277.7 5.69155 3.95012 0
M  V30 2729 N 279.493 4.51626 3.3465 0
M  V30 2730 H 271.644 2.10118 0.310494 0
M  V30 2731 H 273.907 0.926634 0.200131 0
M  V30 2732 H 273.613 3.26388 1.31011 0
M  V30 2733 H 273.487 2.4561 2.86278 0
M  V30 2734 H 275.874 1.52249 2.52793 0
M  V30 2735 H 275.955 2.36523 0.9742 0
M  V30 2736 H 275.599 4.58499 2.18496 0
M  V30 2737 H 275.529 3.71127 3.73593 0
M  V30 2738 H 278.02 2.93438 2.38123 0
M  V30 2739 H 278.333 6.3751 4.36808 0
M  V30 2740 H 276.678 5.72937 3.93406 0
M  V30 2741 H 279.869 3.68728 2.8837 0
M  V30 2742 H 280.042 5.25614 3.7899 0
M  V30 2743 N 273.449 -1.08991 1.13837 0
M  V30 2744 C 274.695 -1.81526 0.90422 0
M  V30 2745 C 275.028 -1.85706 -0.568066 0
M  V30 2746 O 274.303 -1.32855 -1.42056 0
M  V30 2747 C 274.586 -3.27447 1.49835 0
M  V30 2748 C 274.439 -3.31512 3.04006 0
M  V30 2749 C 275.758 -4.24256 1.17025 0
M  V30 2750 H 272.877 -0.659029 0.329923 0
M  V30 2751 H 275.519 -1.27644 1.40737 0
M  V30 2752 H 273.669 -3.73462 1.07044 0
M  V30 2753 H 275.341 -2.93867 3.55584 0
M  V30 2754 H 273.584 -2.70963 3.38765 0
M  V30 2755 H 274.255 -4.34329 3.40679 0
M  V30 2756 H 276.731 -3.86549 1.54009 0
M  V30 2757 H 275.607 -5.24684 1.61237 0
M  V30 2758 H 275.868 -4.42019 0.0846274 0
M  V30 2759 N 274.927 -0.932562 -1.27047 0
M  V30 2760 C 276.176 -0.571351 -1.93439 0
M  V30 2761 C 276.489 0.892467 -1.74053 0
M  V30 2762 O 277.695 1.36267 -2.34826 0
M  V30 2763 C 276.151 -0.97106 -3.46552 0
M  V30 2764 C 275.759 -2.4559 -3.74686 0
M  V30 2765 C 277.503 -0.681333 -4.18997 0
M  V30 2766 C 275.41 -2.79475 -5.21198 0
M  V30 2767 H 274.34 -0.209966 -0.724176 0
M  V30 2768 H 276.991 -1.13403 -1.44263 0
M  V30 2769 H 275.373 -0.336983 -3.94564 0
M  V30 2770 H 276.547 -3.13829 -3.37414 0
M  V30 2771 H 274.862 -2.71802 -3.15456 0
M  V30 2772 H 277.459 -0.910939 -5.26883 0
M  V30 2773 H 277.802 0.381628 -4.14547 0
M  V30 2774 H 278.335 -1.27473 -3.76823 0
M  V30 2775 H 275.074 -3.847 -5.30741 0
M  V30 2776 H 274.594 -2.1589 -5.596 0
M  V30 2777 H 276.273 -2.67478 -5.89122 0
M  V30 2778 N 276.405 1.4127 -0.698611 0
M  V30 2779 C 277.315 2.34573 -0.0357891 0
M  V30 2780 C 278.331 1.56393 0.762701 0
M  V30 2781 O 279.507 1.8886 0.699564 0
M  V30 2782 C 276.572 3.35159 0.887089 0
M  V30 2783 C 275.633 4.29225 0.0804634 0
M  V30 2784 C 274.866 5.25006 0.959387 0
M  V30 2785 O 275.089 5.26314 2.19886 0
M  V30 2786 O 274.023 6.00519 0.407439 0
M  V30 2787 H 277.849 2.92838 -0.804957 0
M  V30 2788 H 275.434 1.42175 -0.458966 0
M  V30 2789 H 277.316 3.9689 1.41621 0
M  V30 2790 H 275.991 2.79333 1.6357 0
M  V30 2791 H 274.898 3.70833 -0.493328 0
M  V30 2792 H 276.231 4.88157 -0.629547 0
M  V30 2793 N 277.883 0.443576 1.51229 0
M  V30 2794 C 279.108 -0.121648 2.07043 0
M  V30 2795 C 279.533 -1.35156 1.30823 0
M  V30 2796 O 278.891 -1.7793 0.347934 0
M  V30 2797 C 278.939 -0.41624 3.5819 0
M  V30 2798 O 278.043 -1.50163 3.8409 0
M  V30 2799 H 277.384 0.000871367 0.663999 0
M  V30 2800 H 279.914 0.626706 1.94765 0
M  V30 2801 H 279.924 -0.664867 4.02546 0
M  V30 2802 H 278.599 0.482653 4.1309 0
M  V30 2803 H 277.176 -1.24248 3.51592 0
M  V30 2804 N 279.361 -1.56624 0.175154 0
M  V30 2805 C 280.591 -2.01082 -0.474283 0
M  V30 2806 C 280.999 -1.05447 -1.57091 0
M  V30 2807 O 280.342 -0.0480595 -1.83637 0
M  V30 2808 C 280.404 -3.41963 -1.10911 0
M  V30 2809 C 280.068 -4.56742 -0.153666 0
M  V30 2810 C 281.065 -5.16076 0.629448 0
M  V30 2811 C 278.75 -5.02277 -0.0483776 0
M  V30 2812 C 280.744 -6.19377 1.50501 0
M  V30 2813 C 278.431 -6.05427 0.830768 0
M  V30 2814 C 279.429 -6.63849 1.60605 0
M  V30 2815 O 279.117 -7.64998 2.47049 0
M  V30 2816 H 278.849 -0.664261 -0.125432 0
M  V30 2817 H 281.403 -2.03549 0.275163 0
M  V30 2818 H 279.633 -3.36422 -1.90676 0
M  V30 2819 H 281.322 -3.70352 -1.66114 0
M  V30 2820 H 282.088 -4.81776 0.558297 0
M  V30 2821 H 277.967 -4.56513 -0.641611 0
M  V30 2822 H 281.511 -6.64906 2.1106 0
M  V30 2823 H 277.408 -6.39151 0.903107 0
M  V30 2824 H 278.176 -7.82336 2.40607 0
M  V30 2825 N 280.839 0.0985539 -1.57292 0
M  V30 2826 C 281.802 1.10402 -2.00858 0
M  V30 2827 C 282.802 1.33146 -0.901593 0
M  V30 2828 O 283.992 1.29318 -1.16716 0
M  V30 2829 C 281.124 2.45394 -2.36632 0
M  V30 2830 H 282.317 0.729099 -2.90902 0
M  V30 2831 H 279.87 0.343495 -1.52479 0
M  V30 2832 H 280.605 2.87769 -1.49531 0
M  V30 2833 H 280.39 2.30235 -3.17387 0
M  V30 2834 H 281.88 3.17718 -2.71007 0
M  V30 2835 N 282.317 1.53212 0.369288 0
M  V30 2836 C 283.265 1.80054 1.47253 0
M  V30 2837 C 284.259 0.669456 1.55611 0
M  V30 2838 O 285.465 0.852328 1.58541 0
M  V30 2839 H 281.84 0.570034 0.490475 0
M  V30 2840 H 283.811 2.72403 1.21817 0
M  V30 2841 C 282.56 2.00403 2.84137 0
M  V30 2842 H 281.883 2.86876 2.78464 0
M  V30 2843 H 283.323 2.23164 3.60519 0
M  V30 2844 C 281.782 0.782081 3.27697 0
M  V30 2845 O 282.312 -0.0310205 4.01688 0
M  V30 2846 N 280.518 0.606573 2.84199 0
M  V30 2847 H 280.065 1.26939 2.24152 0
M  V30 2848 H 280.023 -0.20962 3.137 0
M  V30 2849 N 283.795 -0.628877 1.44509 0
M  V30 2850 C 285.211 -0.947305 1.28446 0
M  V30 2851 C 285.411 -2.00275 0.221872 0
M  V30 2852 O 284.467 -2.49447 -0.391471 0
M  V30 2853 C 285.78 -1.40843 2.65676 0
M  V30 2854 C 287.328 -1.52379 2.73404 0
M  V30 2855 C 287.803 -2.01875 4.11109 0
M  V30 2856 N 289.294 -2.09142 4.13296 0
M  V30 2857 C 290.029 -2.48615 5.16699 0
M  V30 2858 N 289.525 -2.87209 6.30462 0
M  V30 2859 N 291.318 -2.48768 5.04054 0
M  V30 2860 H 283.469 0.0690977 2.12288 0
M  V30 2861 H 285.732 -0.0317164 0.947469 0
M  V30 2862 H 285.438 -0.707206 3.44516 0
M  V30 2863 H 285.312 -2.37902 2.92716 0
M  V30 2864 H 287.699 -2.21598 1.9488 0
M  V30 2865 H 287.78 -0.536898 2.50102 0
M  V30 2866 H 287.424 -1.3325 4.90109 0
M  V30 2867 H 287.354 -3.0144 4.31789 0
M  V30 2868 H 289.845 -1.81991 3.31191 0
M  V30 2869 H 290.158 -3.16149 7.05174 0
M  V30 2870 H 288.503 -2.84955 6.33897 0
M  V30 2871 H 291.694 -2.18009 4.14234 0
M  V30 2872 H 291.867 -2.79207 5.84763 0
M  V30 2873 N 285.273 -1.31445 -0.869486 0
M  V30 2874 C 286.52 -1.21158 -1.62256 0
M  V30 2875 C 286.848 0.230155 -1.93133 0
M  V30 2876 O 286.103 1.17906 -1.56194 0
M  V30 2877 C 286.402 -2.00145 -2.96102 0
M  V30 2878 C 286.068 -3.4964 -2.84715 0
M  V30 2879 C 284.73 -3.90403 -2.81317 0
M  V30 2880 C 287.082 -4.44769 -2.71716 0
M  V30 2881 C 284.41 -5.24561 -2.62778 0
M  V30 2882 C 286.762 -5.79054 -2.54714 0
M  V30 2883 C 285.426 -6.19037 -2.49699 0
M  V30 2884 H 284.696 -0.443348 -0.593737 0
M  V30 2885 H 287.343 -1.62715 -1.00976 0
M  V30 2886 H 285.648 -1.5127 -3.6142 0
M  V30 2887 H 287.345 -1.89566 -3.53363 0
M  V30 2888 H 283.935 -3.17256 -2.88178 0
M  V30 2889 H 288.119 -4.14208 -2.73397 0
M  V30 2890 H 283.375 -5.54613 -2.57321 0
M  V30 2891 H 287.549 -6.52393 -2.43632 0
M  V30 2892 H 285.176 -7.22935 -2.35093 0
M  V30 2893 N 286.751 1.08385 -1.14413 0
M  V30 2894 C 287.999 1.80419 -0.910679 0
M  V30 2895 C 288.32 1.86658 0.564243 0
M  V30 2896 O 287.59 1.35985 1.41014 0
M  V30 2897 H 286.17 0.668204 -0.333934 0
M  V30 2898 H 288.832 1.31037 -1.44275 0
M  V30 2899 H 287.928 2.83238 -1.31082 0
M  V30 2900 N 288.23 0.939286 1.26551 0
M  V30 2901 C 289.46 0.601663 1.97645 0
M  V30 2902 C 289.868 -0.827206 1.70159 0
M  V30 2903 O 289.211 -1.56291 0.965338 0
M  V30 2904 C 289.273 0.761725 3.51337 0
M  V30 2905 C 288.937 2.16487 4.0247 0
M  V30 2906 C 289.934 3.14016 4.14355 0
M  V30 2907 C 287.619 2.48494 4.36527 0
M  V30 2908 C 289.613 4.41654 4.59587 0
M  V30 2909 C 287.3 3.76364 4.81449 0
M  V30 2910 C 288.298 4.72758 4.92939 0
M  V30 2911 O 287.986 5.98352 5.36871 0
M  V30 2912 H 287.718 0.225758 0.637189 0
M  V30 2913 H 290.272 1.26178 1.62075 0
M  V30 2914 H 288.502 0.0444808 3.86674 0
M  V30 2915 H 290.191 0.427442 4.03643 0
M  V30 2916 H 290.957 2.90613 3.8829 0
M  V30 2917 H 286.836 1.74202 4.26819 0
M  V30 2918 H 290.38 5.16896 4.68471 0
M  V30 2919 H 286.277 3.99582 5.06956 0
M  V30 2920 H 287.045 6.01507 5.55096 0
M  V30 2921 N 289.708 -1.40897 0.706093 0
M  V30 2922 C 290.656 -2.32572 0.0361893 0
M  V30 2923 C 291.65 -1.51532 -0.757266 0
M  V30 2924 O 292.856 -1.67396 -0.661703 0
M  V30 2925 H 289.231 -0.751966 -0.00709935 0
M  V30 2926 H 291.202 -2.86733 0.826249 0
M  V30 2927 C 289.951 -3.36418 -0.87854 0
M  V30 2928 H 289.274 -3.98836 -0.277401 0
M  V30 2929 H 290.714 -4.0308 -1.3154 0
M  V30 2930 C 289.173 -2.71141 -1.99961 0
M  V30 2931 O 289.703 -2.56735 -3.0895 0
M  V30 2932 N 287.909 -2.29671 -1.78043 0
M  V30 2933 H 287.456 -2.41588 -0.894042 0
M  V30 2934 H 287.414 -1.86332 -2.53235 0
M  V30 2935 N 291.186 -0.45159 -1.50991 0
M  V30 2936 C 292.432 0.110237 -2.025 0
M  V30 2937 C 292.765 1.41109 -1.33424 0
M  V30 2938 O 292.04 1.89135 -0.453659 0
M  V30 2939 C 292.323 0.314271 -3.58726 0
M  V30 2940 C 292.176 -1.00623 -4.38401 0
M  V30 2941 C 293.495 1.07767 -4.26702 0
M  V30 2942 H 290.614 0.0385897 -0.735989 0
M  V30 2943 H 293.256 -0.593374 -1.80497 0
M  V30 2944 H 291.406 0.913601 -3.77605 0
M  V30 2945 H 293.078 -1.64064 -4.31139 0
M  V30 2946 H 291.321 -1.6075 -4.02917 0
M  V30 2947 H 291.992 -0.817341 -5.45915 0
M  V30 2948 H 294.468 0.56986 -4.12179 0
M  V30 2949 H 293.344 1.18921 -5.35863 0
M  V30 2950 H 293.605 2.10939 -3.88532 0
M  V30 2951 N 292.664 1.56529 -0.183458 0
M  V30 2952 C 293.91 1.97537 0.459036 0
M  V30 2953 C 294.243 1.06989 1.62071 0
M  V30 2954 O 293.518 0.11948 1.94133 0
M  V30 2955 C 293.801 3.47874 0.930368 0
M  V30 2956 C 293.654 4.492 -0.232317 0
M  V30 2957 C 294.973 4.01612 1.79989 0
M  V30 2958 H 292.092 0.718204 0.165383 0
M  V30 2959 H 294.734 1.88042 -0.272038 0
M  V30 2960 H 292.884 3.56095 1.55333 0
M  V30 2961 H 294.556 4.53027 -0.86972 0
M  V30 2962 H 292.799 4.24657 -0.885928 0
M  V30 2963 H 293.47 5.51823 0.139796 0
M  V30 2964 H 295.946 3.96097 1.27461 0
M  V30 2965 H 294.822 5.07195 2.09867 0
M  V30 2966 H 295.083 3.46163 2.74998 0
M  V30 2967 N 294.142 -0.090211 1.57342 0
M  V30 2968 C 295.558 -0.444547 1.53284 0
M  V30 2969 C 295.758 -1.80238 0.900914 0
M  V30 2970 O 294.814 -2.4759 0.495513 0
M  V30 2971 C 296.127 -0.402543 2.97993 0
M  V30 2972 C 297.675 -0.48405 3.09234 0
M  V30 2973 C 298.15 -0.472144 4.5556 0
M  V30 2974 N 299.641 -0.532757 4.60126 0
M  V30 2975 C 300.376 -0.545462 5.708 0
M  V30 2976 N 299.872 -0.514082 6.9089 0
M  V30 2977 N 301.665 -0.59064 5.58988 0
M  V30 2978 H 293.816 0.799121 1.96794 0
M  V30 2979 H 296.079 0.297965 0.899956 0
M  V30 2980 H 295.785 0.528106 3.47712 0
M  V30 2981 H 295.659 -1.21969 3.56936 0
M  V30 2982 H 298.046 -1.40512 2.595 0
M  V30 2983 H 298.127 0.361328 2.53235 0
M  V30 2984 H 297.771 0.445 5.05947 0
M  V30 2985 H 297.701 -1.3348 5.09402 0
M  V30 2986 H 300.192 -0.562006 3.73698 0
M  V30 2987 H 300.505 -0.527195 7.71 0
M  V30 2988 H 298.85 -0.481054 6.93333 0
M  V30 2989 H 302.041 -0.61272 4.64073 0
M  V30 2990 H 302.214 -0.597073 6.45243 0
M  V30 2991 N 295.62 -1.53406 -0.361157 0
M  V30 2992 C 296.897 -1.60411 -1.11927 0
M  V30 2993 C 297.277 -0.414385 -2.06993 0
M  V30 2994 O 296.625 0.594976 -2.20618 0
M  V30 2995 C 296.835 -2.95652 -1.85448 0
M  V30 2996 C 298.183 -3.50386 -2.39823 0
M  V30 2997 O 299.207 -2.97711 -1.95568 0
M  V30 2998 O 298.066 -4.42482 -3.20737 0
M  V30 2999 H 295.16 -0.64811 -0.513695 0
M  V30 3000 H 297.706 -1.65749 -0.364065 0
M  V30 3001 H 296.478 -3.73682 -1.16091 0
M  V30 3002 H 296.101 -2.93825 -2.67866 0
M  V30 3003 N 297.098 0.621204 -1.44841 0
M  V30 3004 C 298.345 1.38055 -1.48145 0
M  V30 3005 C 298.673 1.94143 -0.117867 0
M  V30 3006 O 297.928 1.74713 0.881694 0
M  V30 3007 C 298.227 2.55675 -2.4973 0
M  V30 3008 C 297.893 2.17817 -3.94799 0
M  V30 3009 C 296.555 2.07205 -4.34303 0
M  V30 3010 C 298.907 1.88065 -4.86087 0
M  V30 3011 C 296.235 1.65045 -5.63007 0
M  V30 3012 C 298.587 1.47394 -6.15189 0
M  V30 3013 C 297.251 1.35331 -6.53637 0
M  V30 3014 H 296.521 0.505181 -0.542101 0
M  V30 3015 H 299.168 0.703477 -1.78111 0
M  V30 3016 H 297.473 3.2866 -2.13284 0
M  V30 3017 H 299.17 3.13904 -2.4953 0
M  V30 3018 H 295.76 2.26998 -3.63552 0
M  V30 3019 H 299.944 1.95168 -4.56315 0
M  V30 3020 H 295.2 1.54317 -5.91605 0
M  V30 3021 H 299.374 1.23415 -6.85377 0
M  V30 3022 H 297.001 1.02435 -7.53267 0
M  V30 3023 N 298.576 1.31904 0.862503 0
M  V30 3024 C 299.804 1.24998 1.64873 0
M  V30 3025 C 300.219 -0.183425 1.87907 0
M  V30 3026 O 299.576 -1.11794 1.44251 0
M  V30 3027 C 299.627 1.99829 3.01248 0
M  V30 3028 O 299.348 3.37575 2.79239 0
M  V30 3029 C 300.849 1.99852 3.95694 0
M  V30 3030 H 298.069 0.431599 0.513773 0
M  V30 3031 H 300.613 1.73901 1.07604 0
M  V30 3032 H 298.768 1.54668 3.55185 0
M  V30 3033 H 299.182 3.75776 3.65914 0
M  V30 3034 H 300.656 2.56709 4.88676 0
M  V30 3035 H 301.133 0.982852 4.28062 0
M  V30 3036 H 301.739 2.44926 3.47694 0
M  V30 3037 N 300.054 -1.07777 1.14986 0
M  V30 3038 C 301.302 -1.79934 0.920235 0
M  V30 3039 C 301.623 -1.86955 -0.554336 0
M  V30 3040 O 300.893 -1.36731 -1.40291 0
M  V30 3041 H 299.473 -0.666424 0.337473 0
M  V30 3042 H 302.135 -1.3027 1.44968 0
M  V30 3043 H 301.231 -2.82539 1.32583 0
M  V30 3044 N 301.532 -0.945985 -1.26051 0
M  V30 3045 C 302.482 -0.430164 -2.23905 0
M  V30 3046 C 303.466 0.47579 -1.53704 0
M  V30 3047 O 304.658 0.310252 -1.7426 0
M  V30 3048 C 301.787 0.298957 -3.41996 0
M  V30 3049 C 300.873 -0.624566 -4.19476 0
M  V30 3050 N 301.264 -1.75245 -4.74471 0
M  V30 3051 C 299.562 -0.431082 -4.43912 0
M  V30 3052 C 300.263 -2.32834 -5.3307 0
M  V30 3053 N 299.239 -1.61583 -5.1903 0
M  V30 3054 H 303.041 -1.29107 -2.64024 0
M  V30 3055 H 300.555 -0.802428 -1.41191 0
M  V30 3056 H 302.552 0.685565 -4.11225 0
M  V30 3057 H 301.212 1.15657 -3.03403 0
M  V30 3058 H 302.223 -2.13449 -4.71868 0
M  V30 3059 H 298.9 0.384364 -4.15727 0
M  V30 3060 H 300.29 -3.27893 -5.86461 0
M  V30 3061 N 303.011 1.40521 -0.713556 0
M  V30 3062 C 304.259 2.00527 -0.251692 0
M  V30 3063 C 304.58 1.56857 1.15848 0
M  V30 3064 O 303.85 0.807127 1.785 0
M  V30 3065 H 302.43 0.741551 -0.0900646 0
M  V30 3066 H 305.092 1.71887 -0.918733 0
M  V30 3067 H 304.188 3.10813 -0.283192 0
M  V30 3068 N 304.489 0.459591 1.5075 0
M  V30 3069 C 305.738 -0.100971 2.01447 0
M  V30 3070 C 306.051 -1.41816 1.34713 0
M  V30 3071 O 307.257 -2.06299 1.76502 0
M  V30 3072 C 305.713 -0.23047 3.59161 0
M  V30 3073 C 305.321 1.0776 4.34847 0
M  V30 3074 C 307.065 -0.743608 4.17936 0
M  V30 3075 C 304.972 0.91253 5.84317 0
M  V30 3076 H 303.902 -0.0415102 0.752856 0
M  V30 3077 H 306.553 0.592742 1.73663 0
M  V30 3078 H 304.935 -0.987703 3.83485 0
M  V30 3079 H 306.109 1.8449 4.22256 0
M  V30 3080 H 304.424 1.52097 3.87628 0
M  V30 3081 H 307.021 -0.883959 5.27343 0
M  V30 3082 H 307.364 -1.73196 3.78562 0
M  V30 3083 H 307.897 -0.04408 3.97776 0
M  V30 3084 H 304.636 1.87391 6.28144 0
M  V30 3085 H 304.156 0.185422 5.99513 0
M  V30 3086 H 305.835 0.574547 6.44444 0
M  V30 3087 N 305.967 -1.56429 0.191757 0
M  V30 3088 C 307.215 -1.97095 -0.447006 0
M  V30 3089 C 307.536 -1.07967 -1.62383 0
M  V30 3090 O 306.806 -0.150248 -1.95323 0
M  V30 3091 H 305.386 -0.727832 -0.168135 0
M  V30 3092 H 308.048 -1.92911 0.27771 0
M  V30 3093 H 307.144 -3.01848 -0.793371 0
M  V30 3094 N 307.445 0.0818655 -1.57387 0
M  V30 3095 C 308.673 0.796108 -1.9097 0
M  V30 3096 C 309.088 1.71626 -0.786757 0
M  V30 3097 O 308.445 1.80908 0.240513 0
M  V30 3098 C 308.496 1.59829 -3.24248 0
M  V30 3099 O 308.217 0.715131 -4.32224 0
M  V30 3100 C 309.718 2.41442 -3.7178 0
M  V30 3101 H 306.938 0.22691 -0.631469 0
M  V30 3102 H 309.482 0.0551439 -2.04426 0
M  V30 3103 H 307.637 2.29163 -3.12351 0
M  V30 3104 H 308.051 1.27205 -5.08841 0
M  V30 3105 H 309.525 2.932 -4.67694 0
M  V30 3106 H 310.002 3.2051 -3.00283 0
M  V30 3107 H 310.608 1.77283 -3.86589 0
M  V30 3108 N 308.923 1.53595 0.353017 0
M  V30 3109 C 310.151 1.74311 1.1146 0
M  V30 3110 C 310.566 0.477854 1.82653 0
M  V30 3111 O 309.923 -0.549977 1.74016 0
M  V30 3112 C 309.974 2.91694 2.13534 0
M  V30 3113 O 309.695 4.13325 1.45238 0
M  V30 3114 C 311.196 3.24384 3.02142 0
M  V30 3115 H 308.416 0.582669 0.332773 0
M  V30 3116 H 310.96 2.00386 0.408107 0
M  V30 3117 H 309.115 2.67977 2.79763 0
M  V30 3118 H 309.529 4.79148 2.13349 0
M  V30 3119 H 311.003 4.09893 3.69718 0
M  V30 3120 H 311.48 2.40282 3.67643 0
M  V30 3121 H 312.086 3.50073 2.41514 0
M  V30 3122 N 310.401 -0.613514 1.45168 0
M  V30 3123 C 311.648 -1.37268 1.48875 0
M  V30 3124 C 311.976 -1.94077 0.128161 0
M  V30 3125 O 311.231 -1.75178 -0.872416 0
M  V30 3126 C 311.53 -2.54347 2.51083 0
M  V30 3127 C 311.196 -2.1572 3.95949 0
M  V30 3128 C 309.858 -2.04899 4.35396 0
M  V30 3129 C 312.21 -1.85485 4.87078 0
M  V30 3130 C 309.538 -1.62057 5.63875 0
M  V30 3131 C 311.89 -1.4413 6.15962 0
M  V30 3132 C 310.554 -1.31863 6.54346 0
M  V30 3133 H 309.824 -0.502299 0.544773 0
M  V30 3134 H 312.471 -0.694021 1.78481 0
M  V30 3135 H 310.776 -3.27524 2.15024 0
M  V30 3136 H 312.473 -3.12577 2.51191 0
M  V30 3137 H 309.063 -2.25066 3.64751 0
M  V30 3138 H 313.247 -1.92745 4.57343 0
M  V30 3139 H 308.503 -1.51177 5.92415 0
M  V30 3140 H 312.677 -1.19778 6.86022 0
M  V30 3141 H 310.304 -0.984392 7.538 0
M  V30 3142 N 311.879 -1.3236 -0.855495 0
M  V30 3143 C 312.829 -1.17809 -1.95205 0
M  V30 3144 C 313.813 -0.0852319 -1.60674 0
M  V30 3145 O 315.005 -0.311651 -1.74235 0
M  V30 3146 C 312.134 -0.902437 -3.31226 0
M  V30 3147 C 311.22 -2.03695 -3.7198 0
M  V30 3148 N 311.611 -3.28544 -3.84568 0
M  V30 3149 C 309.909 -1.93993 -4.016 0
M  V30 3150 C 310.61 -4.02847 -4.19629 0
M  V30 3151 N 309.586 -3.31138 -4.31102 0
M  V30 3152 H 313.388 -2.12462 -2.0307 0
M  V30 3153 H 310.902 -1.24127 -1.0472 0
M  V30 3154 H 312.899 -0.77915 -4.09554 0
M  V30 3155 H 311.559 0.0357267 -3.2468 0
M  V30 3156 H 312.57 -3.6349 -3.68911 0
M  V30 3157 H 309.247 -1.07733 -4.03361 0
M  V30 3158 H 310.637 -5.10506 -4.36845 0
M  V30 3159 N 313.357 1.07166 -1.15556 0
M  V30 3160 C 314.305 2.16517 -0.8499 0
M  V30 3161 C 315.299 1.68468 0.177454 0
M  V30 3162 O 316.505 1.79971 0.0323026 0
M  V30 3163 H 312.88 0.706652 -0.25719 0
M  V30 3164 H 314.851 2.39514 -1.77976 0
M  V30 3165 C 313.6 3.45855 -0.357682 0
M  V30 3166 H 312.923 3.83214 -1.13961 0
M  V30 3167 H 314.363 4.23607 -0.182489 0
M  V30 3168 C 312.822 3.24062 0.921152 0
M  V30 3169 O 313.352 3.48813 1.9923 0
M  V30 3170 N 311.558 2.77539 0.86141 0
M  V30 3171 H 311.105 2.57598 -0.0104408 0
M  V30 3172 H 311.063 2.63337 1.71758 0
M  V30 3173 N 314.835 0.952656 1.25548 0
M  V30 3174 C 316.083 0.605176 1.92826 0
M  V30 3175 C 316.404 -0.860261 1.74999 0
M  V30 3176 O 315.674 -1.6125 1.11244 0
M  V30 3177 H 314.254 0.220832 0.713612 0
M  V30 3178 H 316.916 1.21047 1.52754 0
M  V30 3179 H 316.012 0.832798 3.00784 0
M  V30 3180 N 316.313 -1.40141 0.720998 0
M  V30 3181 C 317.243 -2.33339 0.0867621 0
M  V30 3182 C 318.224 -1.53178 -0.739622 0
M  V30 3183 O 319.409 -1.81625 -0.687449 0
M  V30 3184 C 316.539 -3.37194 -0.831728 0
M  V30 3185 C 315.493 -4.27857 -0.110558 0
M  V30 3186 C 314.819 -5.22294 -1.14513 0
M  V30 3187 C 316.119 -5.11872 1.0385 0
M  V30 3188 H 317.813 -2.86626 0.865219 0
M  V30 3189 H 315.359 -1.37814 0.417516 0
M  V30 3190 H 317.312 -4.01335 -1.28485 0
M  V30 3191 H 316.036 -2.82314 -1.64214 0
M  V30 3192 H 314.695 -3.65176 0.322797 0
M  V30 3193 H 314.343 -4.63717 -1.94874 0
M  V30 3194 H 314.043 -5.83797 -0.667446 0
M  V30 3195 H 315.567 -5.89312 -1.59824 0
M  V30 3196 H 316.981 -5.69436 0.664482 0
M  V30 3197 H 315.378 -5.82445 1.4449 0
M  V30 3198 H 316.448 -4.4753 1.86668 0
M  V30 3199 N 317.792 -0.46758 -1.50504 0
M  V30 3200 C 319.038 0.0887532 -2.02606 0
M  V30 3201 C 319.371 1.39686 -1.34913 0
M  V30 3202 O 318.646 1.88644 -0.473694 0
M  V30 3203 C 318.929 0.276206 -3.59039 0
M  V30 3204 C 318.782 -1.05267 -4.37309 0
M  V30 3205 C 320.101 1.03235 -4.27821 0
M  V30 3206 H 317.22 0.0307814 -0.736357 0
M  V30 3207 H 319.862 -0.612485 -1.79857 0
M  V30 3208 H 318.012 0.8735 -3.78553 0
M  V30 3209 H 319.684 -1.68628 -4.29374 0
M  V30 3210 H 317.927 -1.65015 -4.01189 0
M  V30 3211 H 318.598 -0.875197 -5.45018 0
M  V30 3212 H 321.074 0.526111 -4.12761 0
M  V30 3213 H 319.95 1.1323 -5.37094 0
M  V30 3214 H 320.211 2.06806 -3.90748 0
M  V30 3215 N 319.27 1.56325 -0.20005 0
M  V30 3216 C 320.516 1.98012 0.438059 0
M  V30 3217 C 320.849 1.08702 1.60927 0
M  V30 3218 O 320.124 0.140064 1.93995 0
M  V30 3219 C 320.407 3.48841 0.893419 0
M  V30 3220 C 320.26 4.48928 -0.279947 0
M  V30 3221 C 321.579 4.03498 1.75719 0
M  V30 3222 H 318.698 0.719918 0.157757 0
M  V30 3223 H 321.34 1.87743 -0.291968 0
M  V30 3224 H 319.49 3.57723 1.51547 0
M  V30 3225 H 321.162 4.52079 -0.91772 0
M  V30 3226 H 319.405 4.23694 -0.930919 0
M  V30 3227 H 320.076 5.5194 0.0812601 0
M  V30 3228 H 322.552 3.97427 1.23253 0
M  V30 3229 H 321.428 5.09393 2.04476 0
M  V30 3230 H 321.689 3.4906 2.71311 0
M  V30 3231 N 320.748 -0.0735177 1.57428 0
M  V30 3232 C 321.678 -1.0879 2.06608 0
M  V30 3233 C 322.659 -1.40473 0.959237 0
M  V30 3234 O 323.844 -1.5013 1.23185 0
M  V30 3235 C 320.974 -2.40183 2.50857 0
M  V30 3236 C 319.928 -2.22858 3.65402 0
M  V30 3237 C 319.254 -3.59619 3.957 0
M  V30 3238 C 320.554 -1.65123 4.95511 0
M  V30 3239 H 322.248 -0.678673 2.91607 0
M  V30 3240 H 319.794 -0.325013 1.40284 0
M  V30 3241 H 321.747 -3.11437 2.83874 0
M  V30 3242 H 320.471 -2.83083 1.62885 0
M  V30 3243 H 319.13 -1.54045 3.32664 0
M  V30 3244 H 318.778 -4.00086 3.04861 0
M  V30 3245 H 318.478 -3.48866 4.72828 0
M  V30 3246 H 320.002 -4.32306 4.31212 0
M  V30 3247 H 321.416 -2.26241 5.26771 0
M  V30 3248 H 319.813 -1.65071 5.7695 0
M  V30 3249 H 320.883 -0.612559 4.81015 0
M  V30 3250 N 322.226 -1.5378 -0.344866 0
M  V30 3251 C 323.176 -1.78057 -1.42407 0
M  V30 3252 C 324.16 -0.635732 -1.47808 0
M  V30 3253 O 325.352 -0.89508 -1.527 0
M  V30 3254 C 322.481 -1.99242 -2.79566 0
M  V30 3255 C 321.567 -3.19787 -2.78562 0
M  V30 3256 N 321.958 -4.41284 -2.47189 0
M  V30 3257 C 320.256 -3.2093 -3.0971 0
M  V30 3258 C 320.957 -5.23128 -2.54385 0
M  V30 3259 N 319.933 -4.59813 -2.89953 0
M  V30 3260 H 323.735 -2.69588 -1.17046 0
M  V30 3261 H 321.249 -1.52687 -0.553217 0
M  V30 3262 H 323.246 -2.14768 -3.57324 0
M  V30 3263 H 321.906 -1.08953 -3.05875 0
M  V30 3264 H 322.917 -4.68657 -2.20411 0
M  V30 3265 H 319.594 -2.40603 -3.41199 0
M  V30 3266 H 320.984 -6.30096 -2.333 0
M  V30 3267 N 323.704 0.605807 -1.45491 0
M  V30 3268 C 324.934 1.38934 -1.52908 0
M  V30 3269 C 325.342 1.88513 -0.161086 0
M  V30 3270 O 324.685 1.62962 0.847891 0
M  V30 3271 C 324.747 2.62737 -2.45376 0
M  V30 3272 C 324.411 2.34785 -3.92078 0
M  V30 3273 C 325.408 1.95038 -4.8193 0
M  V30 3274 C 323.093 2.47642 -4.37011 0
M  V30 3275 C 325.087 1.68511 -6.14722 0
M  V30 3276 C 322.774 2.20728 -5.69844 0
M  V30 3277 C 323.772 1.81225 -6.58519 0
M  V30 3278 O 323.46 1.54627 -7.88889 0
M  V30 3279 H 323.192 0.431629 -0.520262 0
M  V30 3280 H 325.746 0.74573 -1.91384 0
M  V30 3281 H 323.976 3.29824 -2.01874 0
M  V30 3282 H 325.665 3.24783 -2.43456 0
M  V30 3283 H 326.431 1.84639 -4.48479 0
M  V30 3284 H 322.31 2.77356 -3.68232 0
M  V30 3285 H 325.854 1.37602 -6.83894 0
M  V30 3286 H 321.751 2.30744 -6.02849 0
M  V30 3287 H 322.519 1.68665 -8.00933 0
M  V30 3288 N 325.182 1.32811 0.848464 0
M  V30 3289 C 326.459 1.14334 1.58704 0
M  V30 3290 C 326.839 -0.293948 2.09043 0
M  V30 3291 O 326.187 -1.29153 1.88499 0
M  V30 3292 C 326.397 2.17626 2.72837 0
M  V30 3293 C 327.745 2.51282 3.42261 0
M  V30 3294 O 328.769 2.16219 2.83068 0
M  V30 3295 O 327.628 3.11413 4.49093 0
M  V30 3296 H 324.722 0.441601 0.699226 0
M  V30 3297 H 327.268 1.44362 0.892053 0
M  V30 3298 H 326.04 3.14211 2.3321 0
M  V30 3299 H 325.663 1.88628 3.50008 0
M  V30 3300 N 326.66 -1.06551 1.16123 0
M  V30 3301 C 327.592 -2.13908 0.823171 0
M  V30 3302 C 328.605 -1.61926 -0.16843 0
M  V30 3303 O 329.794 -1.78412 0.055962 0
M  V30 3304 C 326.894 -3.38283 0.204424 0
M  V30 3305 C 326.067 -4.19589 1.23548 0
M  V30 3306 C 325.126 -5.2233 0.637011 0
M  V30 3307 O 324.152 -5.54034 1.30516 0
M  V30 3308 N 325.354 -5.77621 -0.577474 0
M  V30 3309 H 328.119 -2.43508 1.74711 0
M  V30 3310 H 325.68 -1.2253 1.05821 0
M  V30 3311 H 327.672 -4.0416 -0.208909 0
M  V30 3312 H 326.242 -3.06329 -0.623012 0
M  V30 3313 H 325.462 -3.49406 1.82507 0
M  V30 3314 H 326.75 -4.70718 1.93137 0
M  V30 3315 H 326.148 -5.54125 -1.13853 0
M  V30 3316 H 324.705 -6.45087 -0.933053 0
M  V30 3317 N 328.138 -0.959301 -1.25041 0
M  V30 3318 C 329.549 -0.65667 -1.74771 0
M  V30 3319 C 329.9 0.827852 -1.77879 0
M  V30 3320 O 329.025 1.64783 -1.40269 0
M  V30 3321 C 329.62 -1.1853 -3.1739 0
M  V30 3322 C 328.179 -0.932734 -3.6466 0
M  V30 3323 C 327.326 -1.32558 -2.43564 0
M  V30 3324 H 330.277 -1.13558 -1.10862 0
M  V30 3325 H 330.298 -0.547582 -3.76539 0
M  V30 3326 H 329.81 -2.26576 -3.15095 0
M  V30 3327 H 327.911 0.13257 -3.72364 0
M  V30 3328 H 328.024 -1.57248 -4.52559 0
M  V30 3329 H 326.388 -0.743956 -2.43593 0
M  V30 3330 H 327.171 -2.41537 -2.43957 0
M  V30 3331 N 329.616 1.39756 -0.72842 0
M  V30 3332 C 330.579 2.29012 -0.0927297 0
M  V30 3333 C 331.579 1.45992 0.674025 0
M  V30 3334 O 332.769 1.66749 0.50402 0
M  V30 3335 C 329.901 3.29396 0.878137 0
M  V30 3336 H 331.094 2.86729 -0.879011 0
M  V30 3337 H 328.647 1.48293 -0.493847 0
M  V30 3338 H 329.382 2.76722 1.69101 0
M  V30 3339 H 329.167 3.907 0.331051 0
M  V30 3340 H 330.657 3.96199 1.3197 0
M  V30 3341 N 331.094 0.475555 1.50254 0
M  V30 3342 C 332.34 -0.0780073 2.0265 0
M  V30 3343 C 332.673 -1.38968 1.35652 0
M  V30 3344 O 331.948 -1.8839 0.483691 0
M  V30 3345 C 332.231 -0.257161 3.59181 0
M  V30 3346 C 332.084 1.07585 4.36744 0
M  V30 3347 C 333.403 -1.00965 4.28362 0
M  V30 3348 H 330.522 -0.0268758 0.73651 0
M  V30 3349 H 333.164 0.622015 1.7953 0
M  V30 3350 H 331.314 -0.853412 3.79011 0
M  V30 3351 H 332.986 1.70902 4.28474 0
M  V30 3352 H 331.229 1.6714 4.00308 0
M  V30 3353 H 331.9 0.904088 5.44546 0
M  V30 3354 H 334.376 -0.504214 4.13034 0
M  V30 3355 H 333.252 -1.10381 5.37687 0
M  V30 3356 H 333.513 -2.04731 3.91839 0
M  V30 3357 N 332.573 -1.56217 0.208337 0
M  V30 3358 C 333.483 -2.23316 -0.718836 0
M  V30 3359 C 334.499 -1.23648 -1.22422 0
M  V30 3360 O 335.675 -1.56423 -1.26861 0
M  V30 3361 C 332.74 -2.88968 -1.91568 0
M  V30 3362 C 331.801 -4.03943 -1.45357 0
M  V30 3363 C 331.034 -4.66455 -2.59337 0
M  V30 3364 O 331.257 -4.27919 -3.77149 0
M  V30 3365 O 330.191 -5.55686 -2.31293 0
M  V30 3366 H 334.017 -3.03182 -0.177315 0
M  V30 3367 H 331.602 -1.49384 -0.0215402 0
M  V30 3368 H 333.484 -3.30455 -2.61491 0
M  V30 3369 H 332.159 -2.12071 -2.44556 0
M  V30 3370 H 331.066 -3.67052 -0.722746 0
M  V30 3371 H 332.399 -4.82543 -0.970219 0
M  V30 3372 N 334.051 0.0651679 -1.57465 0
M  V30 3373 C 335.279 0.775808 -1.91804 0
M  V30 3374 C 335.694 1.70782 -0.804916 0
M  V30 3375 O 335.051 1.81153 0.221311 0
M  V30 3376 C 335.102 1.56381 -3.25925 0
M  V30 3377 O 334.823 0.669248 -4.32958 0
M  V30 3378 C 336.324 2.37485 -3.7432 0
M  V30 3379 H 333.544 0.2202 -0.63384 0
M  V30 3380 H 336.088 0.0334587 -2.04473 0
M  V30 3381 H 334.243 2.25837 -3.14764 0
M  V30 3382 H 334.657 1.21801 -5.10162 0
M  V30 3383 H 336.131 2.88223 -4.70778 0
M  V30 3384 H 336.608 3.17307 -3.03666 0
M  V30 3385 H 337.214 1.73173 -3.88447 0
M  V30 3386 N 335.529 1.53961 0.336706 0
M  V30 3387 C 336.778 1.70751 1.07363 0
M  V30 3388 C 337.091 0.481061 1.89592 0
M  V30 3389 O 338.297 0.530046 2.66276 0
M  V30 3390 C 336.753 3.01965 1.95818 0
M  V30 3391 C 336.361 4.31971 1.18764 0
M  V30 3392 C 338.105 3.28121 2.69327 0
M  V30 3393 C 336.012 5.54255 2.06289 0
M  V30 3394 H 334.942 0.636292 0.404535 0
M  V30 3395 H 337.593 1.80459 0.332681 0
M  V30 3396 H 335.975 2.86132 2.7376 0
M  V30 3397 H 337.149 4.5853 0.456849 0
M  V30 3398 H 335.464 4.12481 0.569946 0
M  V30 3399 H 338.061 4.16673 3.35094 0
M  V30 3400 H 338.404 2.45426 3.36261 0
M  V30 3401 H 338.937 3.44762 1.98454 0
M  V30 3402 H 335.676 6.39513 1.43885 0
M  V30 3403 H 335.196 5.31935 2.77138 0
M  V30 3404 H 336.875 5.90159 2.65182 0
M  V30 3405 N 337.007 -0.598083 1.45811 0
M  V30 3406 C 337.94 -1.7223 1.49706 0
M  V30 3407 C 338.918 -1.58732 0.352535 0
M  V30 3408 O 340.102 -1.80162 0.554438 0
M  V30 3409 C 337.229 -3.10148 1.3611 0
M  V30 3410 C 336.275 -3.42209 2.54549 0
M  V30 3411 S 337.108 -3.35989 4.16979 0
M  V30 3412 C 338.264 -4.76471 4.05865 0
M  V30 3413 H 338.497 -1.68665 2.44826 0
M  V30 3414 H 336.03 -0.775541 1.33509 0
M  V30 3415 H 337.988 -3.8972 1.28953 0
M  V30 3416 H 336.649 -3.11219 0.424451 0
M  V30 3417 H 335.842 -4.42652 2.40988 0
M  V30 3418 H 335.444 -2.70173 2.58617 0
M  V30 3419 H 337.736 -5.665 3.71596 0
M  V30 3420 H 338.679 -4.95089 5.06253 0
M  V30 3421 H 339.087 -4.52599 3.37364 0
M  V30 3422 N 338.485 -1.33259 -0.841409 0
M  V30 3423 C 339.417 -1.19136 -1.95804 0
M  V30 3424 C 340.43 -0.122965 -1.62335 0
M  V30 3425 O 341.619 -0.373154 -1.74556 0
M  V30 3426 C 338.719 -0.804268 -3.29218 0
M  V30 3427 C 337.892 -1.96376 -3.90839 0
M  V30 3428 C 336.951 -1.55806 -5.02604 0
M  V30 3429 O 335.977 -2.27203 -5.21888 0
M  V30 3430 N 337.179 -0.461609 -5.78662 0
M  V30 3431 H 339.944 -2.15326 -2.08458 0
M  V30 3432 H 337.505 -1.25971 -1.017 0
M  V30 3433 H 339.497 -0.51501 -4.0141 0
M  V30 3434 H 338.067 0.0668809 -3.12528 0
M  V30 3435 H 337.287 -2.41879 -3.11269 0
M  V30 3436 H 338.575 -2.73966 -4.28742 0
M  V30 3437 H 337.973 0.132343 -5.65545 0
M  V30 3438 H 336.53 -0.232013 -6.51387 0
M  V30 3439 N 339.963 1.05934 -1.16686 0
M  V30 3440 C 341.374 1.60263 -0.957745 0
M  V30 3441 C 341.725 1.89789 0.49745 0
M  V30 3442 O 340.85 1.67401 1.37135 0
M  V30 3443 C 341.445 2.91172 -1.73218 0
M  V30 3444 C 340.004 3.42188 -1.56794 0
M  V30 3445 C 339.151 2.16028 -1.73859 0
M  V30 3446 H 342.102 0.888392 -1.31504 0
M  V30 3447 H 342.123 3.60744 -1.21014 0
M  V30 3448 H 341.635 2.6965 -2.79124 0
M  V30 3449 H 339.736 3.68762 -0.533437 0
M  V30 3450 H 339.849 4.17273 -2.35414 0
M  V30 3451 H 338.213 2.26426 -1.16633 0
M  V30 3452 H 338.996 1.96985 -2.81161 0
M  V30 3453 N 341.441 0.965919 1.2453 0
M  V30 3454 C 342.689 0.625593 1.92174 0
M  V30 3455 C 343.01 -0.841652 1.75901 0
M  V30 3456 O 342.28 -1.60061 1.12948 0
M  V30 3457 H 340.86 0.228388 0.71123 0
M  V30 3458 H 343.522 1.2266 1.51461 0
M  V30 3459 H 342.618 0.864653 2.99884 0
M  V30 3460 N 342.919 -1.39368 0.735821 0
M  V30 3461 C 343.852 -2.28155 0.0451175 0
M  V30 3462 C 344.83 -1.44433 -0.746852 0
M  V30 3463 O 346.014 -1.73823 -0.729237 0
M  V30 3464 C 343.141 -3.253 -0.943266 0
M  V30 3465 C 342.187 -4.25826 -0.239685 0
M  V30 3466 S 343.02 -5.25166 1.04693 0
M  V30 3467 C 344.176 -6.2587 0.0611639 0
M  V30 3468 H 344.409 -2.86388 0.79807 0
M  V30 3469 H 341.942 -1.45104 0.527653 0
M  V30 3470 H 343.9 -3.81789 -1.50824 0
M  V30 3471 H 342.561 -2.66085 -1.66906 0
M  V30 3472 H 341.754 -4.94229 -0.987596 0
M  V30 3473 H 341.356 -3.73141 0.253274 0
M  V30 3474 H 343.648 -6.73007 -0.778941 0
M  V30 3475 H 344.591 -7.04508 0.712362 0
M  V30 3476 H 344.999 -5.63639 -0.311602 0
M  V30 3477 N 344.397 -0.483516 -1.5 0
M  V30 3478 C 345.625 0.0644831 -2.06799 0
M  V30 3479 C 346.04 1.32399 -1.34596 0
M  V30 3480 O 345.397 1.77626 -0.418946 0
M  V30 3481 C 345.448 0.339927 -3.59898 0
M  V30 3482 O 345.169 -0.869635 -4.29382 0
M  V30 3483 C 346.67 0.933515 -4.33359 0
M  V30 3484 H 343.89 -0.0126333 -0.670881 0
M  V30 3485 H 346.434 -0.675864 -1.93009 0
M  V30 3486 H 344.589 1.03022 -3.7345 0
M  V30 3487 H 345.003 -0.62179 -5.20801 0
M  V30 3488 H 346.477 1.07593 -5.41413 0
M  V30 3489 H 346.954 1.92685 -3.94676 0
M  V30 3490 H 347.56 0.281221 -4.24369 0
M  V30 3491 N 345.875 1.56104 -0.216619 0
M  V30 3492 C 347.122 1.98172 0.416416 0
M  V30 3493 C 347.45 1.10413 1.60122 0
M  V30 3494 O 346.705 0.147967 1.9514 0
M  V30 3495 C 347.004 3.45923 0.898464 0
M  V30 3496 C 346.67 4.50559 -0.175288 0
M  V30 3497 C 345.332 4.78897 -0.470271 0
M  V30 3498 C 347.684 5.1334 -0.901728 0
M  V30 3499 C 345.012 5.67299 -1.4963 0
M  V30 3500 C 347.364 6.02853 -1.91705 0
M  V30 3501 C 346.028 6.29537 -2.21901 0
M  V30 3502 H 345.298 0.725164 0.152377 0
M  V30 3503 H 347.945 1.88839 -0.318103 0
M  V30 3504 H 346.25 3.52434 1.71165 0
M  V30 3505 H 347.947 3.75841 1.39803 0
M  V30 3506 H 344.537 4.28551 0.0647806 0
M  V30 3507 H 348.721 4.91521 -0.687072 0
M  V30 3508 H 343.977 5.86239 -1.73592 0
M  V30 3509 H 348.151 6.50552 -2.48505 0
M  V30 3510 H 345.778 6.97835 -3.01548 0
M  V30 3511 N 347.353 -0.0568162 1.57498 0
M  V30 3512 C 348.581 -0.765626 1.92213 0
M  V30 3513 C 348.996 -1.70353 0.813961 0
M  V30 3514 O 348.353 -1.81268 -0.211701 0
M  V30 3515 C 348.404 -1.5465 3.2675 0
M  V30 3516 O 348.125 -0.646278 4.33307 0
M  V30 3517 C 349.626 -2.35497 3.75574 0
M  V30 3518 H 346.846 -0.216835 0.634999 0
M  V30 3519 H 349.39 -0.0226146 2.04487 0
M  V30 3520 H 347.545 -2.24165 3.15957 0
M  V30 3521 H 347.959 -1.19093 5.108 0
M  V30 3522 H 349.433 -2.85722 4.72299 0
M  V30 3523 H 349.91 -3.15692 3.05344 0
M  V30 3524 H 350.516 -1.7111 3.8936 0
M  V30 3525 N 348.832 -1.54138 -0.328536 0
M  V30 3526 C 350.081 -1.71318 -1.06456 0
M  V30 3527 C 350.394 -0.491109 -1.89334 0
M  V30 3528 O 351.6 -0.54416 -2.65991 0
M  V30 3529 C 350.056 -3.03 -1.94214 0
M  V30 3530 C 349.664 -4.32595 -1.16471 0
M  V30 3531 C 351.408 -3.29544 -2.67583 0
M  V30 3532 C 349.315 -5.55341 -2.03347 0
M  V30 3533 H 348.245 -0.638429 -0.401155 0
M  V30 3534 H 350.896 -1.80633 -0.323106 0
M  V30 3535 H 349.278 -2.87579 -2.72239 0
M  V30 3536 H 350.452 -4.58766 -0.432525 0
M  V30 3537 H 348.767 -4.12777 -0.548063 0
M  V30 3538 H 351.364 -4.18444 -3.3288 0
M  V30 3539 H 351.707 -2.47206 -3.34955 0
M  V30 3540 H 352.24 -3.45809 -1.96623 0
M  V30 3541 H 348.979 -6.40268 -1.40491 0
M  V30 3542 H 348.499 -5.33397 -2.74313 0
M  V30 3543 H 350.178 -5.91557 -2.62049 0
M  V30 3544 N 350.31 0.590341 -1.46126 0
M  V30 3545 C 351.22 1.72793 -1.58681 0
M  V30 3546 C 352.236 1.67516 -0.470566 0
M  V30 3547 O 353.412 1.87562 -0.733642 0
M  V30 3548 C 350.477 3.09287 -1.5666 0
M  V30 3549 C 349.538 3.25886 -2.79458 0
M  V30 3550 C 348.771 4.55869 -2.77524 0
M  V30 3551 O 348.994 5.3928 -1.85832 0
M  V30 3552 O 347.928 4.75552 -3.68964 0
M  V30 3553 H 351.754 1.65149 -2.54872 0
M  V30 3554 H 349.339 0.756486 -1.28832 0
M  V30 3555 H 351.221 3.90577 -1.58202 0
M  V30 3556 H 349.896 3.17385 -0.636271 0
M  V30 3557 H 348.803 2.44119 -2.83472 0
M  V30 3558 H 350.136 3.22675 -3.71674 0
M  V30 3559 N 351.788 1.33704 0.83433 0
M  V30 3560 C 353.199 1.22813 1.4062 0
M  V30 3561 C 353.55 -0.151107 1.95617 0
M  V30 3562 O 352.675 -1.05092 1.89168 0
M  V30 3563 C 353.27 2.22355 2.55624 0
M  V30 3564 C 351.829 2.1529 3.08751 0
M  V30 3565 C 350.976 2.09589 1.8157 0
M  V30 3566 H 353.927 1.45236 0.639702 0
M  V30 3567 H 353.948 1.83391 3.33389 0
M  V30 3568 H 353.46 3.22728 2.15566 0
M  V30 3569 H 351.561 1.18235 3.53343 0
M  V30 3570 H 351.674 3.06038 3.68616 0
M  V30 3571 H 350.038 1.55134 2.02004 0
M  V30 3572 H 350.821 3.11777 1.43701 0
M  V30 3573 N 353.266 -1.05314 1.17247 0
M  V30 3574 C 354.199 -2.12512 0.831507 0
M  V30 3575 C 355.177 -1.61351 -0.201168 0
M  V30 3576 O 356.361 -1.88317 -0.0829831 0
M  V30 3577 C 353.488 -3.37848 0.24015 0
M  V30 3578 C 352.534 -4.07832 1.24801 0
M  V30 3579 S 353.367 -4.56537 2.79882 0
M  V30 3580 C 354.523 -5.85122 2.22223 0
M  V30 3581 H 354.756 -2.41106 1.7394 0
M  V30 3582 H 352.289 -1.17896 0.996988 0
M  V30 3583 H 354.247 -4.10391 -0.0945588 0
M  V30 3584 H 352.908 -3.07392 -0.645668 0
M  V30 3585 H 352.101 -4.97883 0.78287 0
M  V30 3586 H 351.703 -3.41348 1.52831 0
M  V30 3587 H 353.995 -6.58408 1.59703 0
M  V30 3588 H 354.938 -6.36381 3.10523 0
M  V30 3589 H 355.346 -5.39626 1.65722 0
M  V30 3590 N 354.744 -0.972509 -1.24016 0
M  V30 3591 C 355.993 -0.632603 -1.91523 0
M  V30 3592 C 356.306 0.836641 -1.76804 0
M  V30 3593 O 357.512 1.28728 -2.39043 0
M  V30 3594 C 355.968 -1.08082 -3.43287 0
M  V30 3595 C 355.576 -2.57386 -3.66683 0
M  V30 3596 C 357.32 -0.814288 -4.16617 0
M  V30 3597 C 355.227 -2.95915 -5.12043 0
M  V30 3598 H 354.157 -0.232898 -0.717129 0
M  V30 3599 H 356.808 -1.17936 -1.40582 0
M  V30 3600 H 355.19 -0.462339 -3.93292 0
M  V30 3601 H 356.364 -3.24405 -3.27258 0
M  V30 3602 H 354.679 -2.81701 -3.06649 0
M  V30 3603 H 357.276 -1.0781 -5.23718 0
M  V30 3604 H 357.619 0.24955 -4.15551 0
M  V30 3605 H 358.152 -1.39397 -3.72577 0
M  V30 3606 H 354.891 -4.0139 -5.18234 0
M  V30 3607 H 354.411 -2.33584 -5.52448 0
M  V30 3608 H 356.09 -2.86086 -5.80314 0
M  V30 3609 N 356.222 1.38976 -0.743202 0
M  V30 3610 C 357.17 2.32394 -0.0978389 0
M  V30 3611 C 358.164 1.53486 0.716824 0
M  V30 3612 O 359.37 1.69092 0.617088 0
M  V30 3613 H 355.745 0.75189 -0.0128402 0
M  V30 3614 H 357.716 2.84441 -0.901981 0
M  V30 3615 C 356.465 3.38629 0.789036 0
M  V30 3616 H 355.788 3.99432 0.171559 0
M  V30 3617 H 357.228 4.06426 1.20807 0
M  V30 3618 C 355.687 2.76347 1.92702 0
M  V30 3619 O 356.217 2.64836 3.02034 0
M  V30 3620 N 354.423 2.34311 1.71891 0
M  V30 3621 H 353.97 2.43873 0.829675 0
M  V30 3622 H 353.928 1.9298 2.48205 0
M  V30 3623 N 357.7 0.491464 1.49741 0
M  V30 3624 C 358.63 -0.28154 2.31796 0
M  V30 3625 C 359.611 -0.971473 1.3963 0
M  V30 3626 O 360.796 -0.964719 1.68543 0
M  V30 3627 C 357.926 -1.35203 3.19902 0
M  V30 3628 C 356.88 -0.782529 4.20786 0
M  V30 3629 C 356.206 -1.95283 4.97764 0
M  V30 3630 C 357.506 0.21999 5.21837 0
M  V30 3631 H 359.2 0.403355 2.96671 0
M  V30 3632 H 356.746 0.195425 1.42668 0
M  V30 3633 H 358.699 -1.90045 3.76113 0
M  V30 3634 H 357.423 -2.06598 2.52953 0
M  V30 3635 H 356.082 -0.255928 3.65706 0
M  V30 3636 H 355.73 -2.65423 4.2727 0
M  V30 3637 H 355.43 -1.57789 5.66018 0
M  V30 3638 H 356.954 -2.50577 5.56816 0
M  V30 3639 H 358.368 -0.23996 5.72798 0
M  V30 3640 H 356.765 0.51026 5.97927 0
M  V30 3641 H 357.835 1.13911 4.7133 0
M  V30 3642 N 359.178 -1.55987 0.224894 0
M  V30 3643 C 360.426 -1.97998 -0.405099 0
M  V30 3644 C 360.747 -1.11387 -1.60056 0
M  V30 3645 O 360.017 -0.191645 -1.9496 0
M  V30 3646 H 358.597 -0.731235 -0.152658 0
M  V30 3647 H 361.259 -1.92279 0.318567 0
M  V30 3648 H 360.355 -3.03463 -0.729167 0
M  V30 3649 N 360.656 0.0484629 -1.57525 0
M  V30 3650 C 361.619 1.03956 -2.04269 0
M  V30 3651 C 362.619 1.30211 -0.943496 0
M  V30 3652 O 363.809 1.25539 -1.20771 0
M  V30 3653 C 360.941 2.37742 -2.44319 0
M  V30 3654 H 362.134 0.636182 -2.93075 0
M  V30 3655 H 359.687 0.294811 -1.53494 0
M  V30 3656 H 360.422 2.82866 -1.5861 0
M  V30 3657 H 360.207 2.20021 -3.24551 0
M  V30 3658 H 361.697 3.08936 -2.80978 0
M  V30 3659 N 362.134 1.5431 0.320358 0
M  V30 3660 C 363.064 1.86912 1.3995 0
M  V30 3661 C 364.045 0.726211 1.53819 0
M  V30 3662 O 365.23 0.980233 1.67646 0
M  V30 3663 C 362.36 2.09932 2.7667 0
M  V30 3664 C 361.314 3.25776 2.77586 0
M  V30 3665 C 360.64 3.34173 4.17412 0
M  V30 3666 C 361.94 4.6335 2.41048 0
M  V30 3667 H 363.634 2.77292 1.12914 0
M  V30 3668 H 361.18 1.33421 0.541738 0
M  V30 3669 H 363.133 2.31324 3.52232 0
M  V30 3670 H 361.857 1.16304 3.0519 0
M  V30 3671 H 360.516 3.04276 2.04479 0
M  V30 3672 H 360.164 2.38098 4.43078 0
M  V30 3673 H 359.864 4.12033 4.18931 0
M  V30 3674 H 361.388 3.57803 4.94782 0
M  V30 3675 H 362.802 4.84602 3.06324 0
M  V30 3676 H 361.199 5.43782 2.53813 0
M  V30 3677 H 362.269 4.65381 1.36193 0
M  V30 3678 N 363.613 -0.582584 1.46437 0
M  V30 3679 C 364.89 -1.34276 1.4223 0
M  V30 3680 C 365.27 -2.10835 0.10583 0
M  V30 3681 O 364.618 -2.09485 -0.912596 0
M  V30 3682 C 364.828 -2.26865 2.65204 0
M  V30 3683 C 366.176 -2.88691 3.11356 0
M  V30 3684 O 367.2 -2.37178 2.65753 0
M  V30 3685 O 366.059 -3.82255 3.90568 0
M  V30 3686 H 363.153 -0.603326 0.565621 0
M  V30 3687 H 365.699 -0.603591 1.58603 0
M  V30 3688 H 364.471 -1.69724 3.52576 0
M  V30 3689 H 364.094 -3.08122 2.5129 0
M  V30 3690 N 365.091 -1.34144 -0.827227 0
M  V30 3691 C 366.321 -1.29138 -1.61267 0
M  V30 3692 C 366.729 0.137597 -1.88699 0
M  V30 3693 O 366.072 1.09379 -1.47587 0
M  V30 3694 C 366.134 -2.0097 -2.9808 0
M  V30 3695 C 365.798 -3.50242 -2.93563 0
M  V30 3696 C 366.795 -4.4523 -2.68452 0
M  V30 3697 C 364.48 -3.92592 -3.13331 0
M  V30 3698 C 366.474 -5.80542 -2.63154 0
M  V30 3699 C 364.161 -5.28005 -3.07658 0
M  V30 3700 C 365.159 -6.21792 -2.82602 0
M  V30 3701 O 364.847 -7.54723 -2.76853 0
M  V30 3702 H 364.579 -0.445851 -0.508127 0
M  V30 3703 H 367.133 -1.77263 -1.03763 0
M  V30 3704 H 365.363 -1.47451 -3.57484 0
M  V30 3705 H 367.052 -1.89309 -3.5905 0
M  V30 3706 H 367.818 -4.13832 -2.52919 0
M  V30 3707 H 363.697 -3.19994 -3.31851 0
M  V30 3708 H 367.241 -6.53717 -2.43516 0
M  V30 3709 H 363.138 -5.59023 -3.22743 0
M  V30 3710 H 363.906 -7.64409 -2.92611 0
M  V30 3711 N 366.569 1.04691 -1.17803 0
M  V30 3712 C 367.479 2.16057 -0.914151 0
M  V30 3713 C 368.495 1.73589 0.119503 0
M  V30 3714 O 369.671 2.01308 -0.0609468 0
M  V30 3715 C 366.736 3.4394 -0.436603 0
M  V30 3716 C 365.797 4.00825 -1.53746 0
M  V30 3717 C 365.03 5.22604 -1.0826 0
M  V30 3718 O 365.253 5.70367 0.0612244 0
M  V30 3719 O 364.187 5.7186 -1.87775 0
M  V30 3720 H 368.013 2.41169 -1.84584 0
M  V30 3721 H 365.598 1.1453 -0.959334 0
M  V30 3722 H 367.48 4.21024 -0.178057 0
M  V30 3723 H 366.155 3.20316 0.466869 0
M  V30 3724 H 365.062 3.25158 -1.84995 0
M  V30 3725 H 366.395 4.28778 -2.41683 0
M  V30 3726 N 368.047 0.979072 1.23499 0
M  V30 3727 C 369.296 0.642751 1.91185 0
M  V30 3728 C 369.609 -0.827253 1.77245 0
M  V30 3729 O 370.815 -1.27458 2.39722 0
M  V30 3730 C 369.271 1.09901 3.42709 0
M  V30 3731 C 368.879 2.59327 3.65313 0
M  V30 3732 C 370.623 0.836371 4.16179 0
M  V30 3733 C 368.53 2.98627 5.10467 0
M  V30 3734 H 367.46 0.236698 0.715884 0
M  V30 3735 H 370.111 1.1868 1.39955 0
M  V30 3736 H 368.493 0.48319 3.93041 0
M  V30 3737 H 369.667 3.26136 3.25533 0
M  V30 3738 H 367.982 2.83323 3.05151 0
M  V30 3739 H 370.579 1.10586 5.23139 0
M  V30 3740 H 370.922 -0.227509 4.15678 0
M  V30 3741 H 371.455 1.41371 3.71832 0
M  V30 3742 H 368.194 4.04133 5.16098 0
M  V30 3743 H 367.714 2.3651 5.51201 0
M  V30 3744 H 369.393 2.89159 5.78788 0
M  V30 3745 N 369.525 -1.3858 0.750561 0
M  V30 3746 C 370.771 -2.0095 0.31477 0
M  V30 3747 C 371.126 -1.58509 -1.09053 0
M  V30 3748 O 370.419 -0.8112 -1.7358 0
M  V30 3749 C 370.613 -3.55455 0.372373 0
M  V30 3750 C 370.442 -4.12898 1.78173 0
M  V30 3751 C 369.212 -4.44797 2.39757 0
M  V30 3752 C 371.41 -4.35366 2.7379 0
M  V30 3753 N 369.392 -4.87831 3.72685 0
M  V30 3754 C 370.763 -4.80775 3.91478 0
M  V30 3755 C 372.818 -4.1746 2.71351 0
M  V30 3756 C 371.521 -5.10155 5.07084 0
M  V30 3757 C 373.547 -4.47963 3.86113 0
M  V30 3758 C 372.909 -4.93593 5.02539 0
M  V30 3759 H 369.008 -0.765083 0.161776 0
M  V30 3760 H 371.592 -1.68246 0.979867 0
M  V30 3761 H 369.763 -3.87512 -0.26244 0
M  V30 3762 H 371.495 -4.04614 -0.0834479 0
M  V30 3763 H 368.25 -4.33135 1.91548 0
M  V30 3764 H 368.674 -5.13685 4.40972 0
M  V30 3765 H 373.316 -3.81372 1.82524 0
M  V30 3766 H 371.034 -5.45141 5.96529 0
M  V30 3767 H 374.62 -4.35717 3.85542 0
M  V30 3768 H 373.5 -5.16746 5.89867 0
M  V30 3769 N 371.003 -0.499398 -1.49478 0
M  V30 3770 C 372.28 0.108629 -1.95298 0
M  V30 3771 C 372.66 1.54282 -1.44084 0
M  V30 3772 O 372.008 2.18944 -0.653908 0
M  V30 3773 C 372.218 0.0229111 -3.48992 0
M  V30 3774 C 373.566 0.197643 -4.2414 0
M  V30 3775 O 374.59 0.0981735 -3.56065 0
M  V30 3776 O 373.449 0.401669 -5.45022 0
M  V30 3777 H 370.543 0.096181 -0.821388 0
M  V30 3778 H 373.089 -0.561822 -1.6013 0
M  V30 3779 H 371.861 -0.977321 -3.78899 0
M  V30 3780 H 371.484 0.733579 -3.90774 0
M  V30 3781 N 372.481 1.55866 -0.233164 0
M  V30 3782 C 373.758 1.90471 0.444988 0
M  V30 3783 C 374.138 1.15209 1.7689 0
M  V30 3784 O 373.486 0.265119 2.26957 0
M  V30 3785 C 373.696 3.4333 0.626559 0
M  V30 3786 C 375.044 4.14319 0.92871 0
M  V30 3787 O 376.068 3.48993 0.712926 0
M  V30 3788 O 374.927 5.29846 1.33887 0
M  V30 3789 H 372.021 0.792347 0.236885 0
M  V30 3790 H 374.567 1.67437 -0.276211 0
M  V30 3791 H 373.339 3.90095 -0.306822 0
M  V30 3792 H 372.962 3.72181 1.39881 0
M  V30 3793 N 373.959 -0.0401083 1.57549 0
M  V30 3794 C 375.207 -0.731677 1.8839 0
M  V30 3795 C 375.528 -1.76481 0.829425 0
M  V30 3796 O 374.798 -1.95411 -0.1383 0
M  V30 3797 H 373.378 -0.273225 0.695239 0
M  V30 3798 H 376.04 -0.00867725 1.94898 0
M  V30 3799 H 375.136 -1.22816 2.86919 0
M  V30 3800 N 375.437 -1.54477 -0.31217 0
M  V30 3801 C 376.683 -1.74417 -1.04644 0
M  V30 3802 C 377.038 -0.517641 -1.85306 0
M  V30 3803 O 376.331 0.489973 -1.85229 0
M  V30 3804 C 376.525 -2.967 -1.99258 0
M  V30 3805 C 376.354 -4.31128 -1.27901 0
M  V30 3806 C 375.124 -4.95087 -1.01079 0
M  V30 3807 C 377.322 -5.09662 -0.689119 0
M  V30 3808 N 375.304 -6.13322 -0.266323 0
M  V30 3809 C 376.675 -6.19952 -0.0768523 0
M  V30 3810 C 378.73 -4.94355 -0.593061 0
M  V30 3811 C 377.433 -7.16604 0.622165 0
M  V30 3812 C 379.459 -5.91328 0.0922792 0
M  V30 3813 C 378.821 -7.00978 0.693443 0
M  V30 3814 H 374.92 -0.69094 -0.366231 0
M  V30 3815 H 377.504 -1.91946 -0.326319 0
M  V30 3816 H 375.675 -2.80616 -2.68532 0
M  V30 3817 H 377.407 -3.05216 -2.65755 0
M  V30 3818 H 374.162 -4.55235 -1.30607 0
M  V30 3819 H 374.586 -6.76937 0.0920973 0
M  V30 3820 H 379.228 -4.09719 -1.04355 0
M  V30 3821 H 376.946 -8.0079 1.08445 0
M  V30 3822 H 380.532 -5.81562 0.166396 0
M  V30 3823 H 379.412 -7.74725 1.21533 0
M  V30 3824 N 376.915 0.57481 -1.46744 0
M  V30 3825 C 378.143 1.35856 -1.56047 0
M  V30 3826 C 378.558 1.87691 -0.204365 0
M  V30 3827 O 377.915 1.64049 0.79963 0
M  V30 3828 C 377.966 2.54066 -2.57163 0
M  V30 3829 O 377.687 2.04377 -3.87507 0
M  V30 3830 C 379.188 3.46514 -2.76483 0
M  V30 3831 H 376.408 0.414754 -0.527466 0
M  V30 3832 H 378.952 0.698035 -1.92218 0
M  V30 3833 H 377.107 3.16092 -2.23974 0
M  V30 3834 H 377.521 2.81419 -4.4261 0
M  V30 3835 H 378.995 4.25919 -3.51137 0
M  V30 3836 H 379.472 3.98951 -1.83671 0
M  V30 3837 H 380.078 2.90318 -3.10799 0
M  V30 3838 N 378.394 1.34581 0.820102 0
M  V30 3839 C 379.64 1.27285 1.57881 0
M  V30 3840 C 379.973 -0.156137 1.93571 0
M  V30 3841 O 379.248 -1.10222 1.60254 0
M  V30 3842 C 379.531 2.16639 2.87645 0
M  V30 3843 C 379.384 3.68088 2.58517 0
M  V30 3844 C 380.703 2.05378 3.8924 0
M  V30 3845 H 377.822 0.463714 0.572833 0
M  V30 3846 H 380.464 1.64859 0.944539 0
M  V30 3847 H 378.614 1.84725 3.41773 0
M  V30 3848 H 380.286 4.10382 2.10676 0
M  V30 3849 H 378.529 3.89038 1.91917 0
M  V30 3850 H 379.2 4.2598 3.51063 0
M  V30 3851 H 381.676 2.33404 3.44473 0
M  V30 3852 H 380.552 2.7012 4.77835 0
M  V30 3853 H 380.813 1.0316 4.29896 0
M  V30 3854 N 379.872 -1.04064 1.18357 0
M  V30 3855 C 381.118 -1.77528 0.980397 0
M  V30 3856 C 381.451 -1.87948 -0.48879 0
M  V30 3857 O 380.726 -1.3876 -1.36293 0
M  V30 3858 C 381.009 -3.20797 1.63588 0
M  V30 3859 C 380.862 -3.1832 3.17793 0
M  V30 3860 C 382.181 -4.18911 1.34914 0
M  V30 3861 H 379.3 -0.644443 0.357578 0
M  V30 3862 H 381.942 -1.2156 1.46024 0
M  V30 3863 H 380.092 -3.68586 1.22788 0
M  V30 3864 H 381.764 -2.78521 3.67728 0
M  V30 3865 H 380.007 -2.56351 3.49952 0
M  V30 3866 H 380.678 -4.19489 3.58794 0
M  V30 3867 H 383.154 -3.7967 1.70265 0
M  V30 3868 H 382.03 -5.17374 1.83346 0
M  V30 3869 H 382.291 -4.41262 0.272027 0
M  V30 3870 N 381.35 -0.985608 -1.22978 0
M  V30 3871 C 382.578 -0.675582 -1.95559 0
M  V30 3872 C 382.993 0.758413 -1.72897 0
M  V30 3873 O 382.35 1.51094 -1.02357 0
M  V30 3874 C 382.401 -0.96293 -3.48439 0
M  V30 3875 O 382.122 -2.34057 -3.70336 0
M  V30 3876 C 383.623 -0.669585 -4.38214 0
M  V30 3877 H 380.843 -0.250523 -0.622478 0
M  V30 3878 H 383.387 -1.3184 -1.56328 0
M  V30 3879 H 381.542 -0.366033 -3.85667 0
M  V30 3880 H 381.956 -2.43424 -4.64591 0
M  V30 3881 H 383.43 -0.920967 -5.44263 0
M  V30 3882 H 383.907 0.396383 -4.37408 0
M  V30 3883 H 384.513 -1.2472 -4.06602 0
M  V30 3884 N 382.828 1.3818 -0.7579 0
M  V30 3885 C 383.775 2.30416 -0.133057 0
M  V30 3886 C 384.745 1.50398 0.704957 0
M  V30 3887 O 385.93 1.79014 0.660192 0
M  V30 3888 C 383.07 3.36834 0.750813 0
M  V30 3889 C 382.183 4.31879 -0.102297 0
M  V30 3890 C 381.318 5.25368 0.784979 0
M  V30 3891 C 380.357 6.12058 -0.0715046 0
M  V30 3892 N 379.494 6.97832 0.772972 0
M  V30 3893 H 384.334 2.83274 -0.925186 0
M  V30 3894 H 381.871 1.39461 -0.467866 0
M  V30 3895 H 383.829 3.97145 1.27794 0
M  V30 3896 H 382.459 2.85374 1.50868 0
M  V30 3897 H 381.511 3.72991 -0.747095 0
M  V30 3898 H 382.823 4.92921 -0.763552 0
M  V30 3899 H 381.977 5.90818 1.37911 0
M  V30 3900 H 380.716 4.64703 1.47996 0
M  V30 3901 H 379.721 5.456 -0.678272 0
M  V30 3902 H 380.946 6.74793 -0.763606 0
M  V30 3903 H 378.892 6.3971 1.45282 0
M  V30 3904 H 378.809 7.55812 0.168709 0
M  V30 3905 H 380.077 7.67687 1.35194 0
M  V30 3906 N 384.306 0.507319 1.49211 0
M  V30 3907 C 385.583 -0.0982702 1.95353 0
M  V30 3908 C 385.963 -1.53516 1.449 0
M  V30 3909 O 385.311 -2.18594 0.66551 0
M  V30 3910 C 385.521 -0.00440283 3.49 0
M  V30 3911 C 386.869 -0.175147 4.24239 0
M  V30 3912 O 387.893 -0.0792891 3.56112 0
M  V30 3913 O 386.752 -0.37276 5.45227 0
M  V30 3914 H 383.846 -0.0918236 0.821887 0
M  V30 3915 H 386.392 0.570307 1.5983 0
M  V30 3916 H 385.164 0.997402 3.78375 0
M  V30 3917 H 384.787 -0.712845 3.91158 0
M  V30 3918 N 385.784 -1.5574 0.241426 0
M  V30 3919 C 387.2 -1.59196 -0.113548 0
M  V30 3920 C 387.4 -1.25852 -1.57364 0
M  V30 3921 O 386.456 -1.00322 -2.31715 0
M  V30 3922 C 387.769 -2.99814 0.230695 0
M  V30 3923 C 389.317 -3.12513 0.174547 0
M  V30 3924 C 389.792 -4.55342 0.492744 0
M  V30 3925 N 391.283 -4.61076 0.443043 0
M  V30 3926 C 392.018 -5.6956 0.662484 0
M  V30 3927 N 391.514 -6.86328 0.944761 0
M  V30 3928 N 393.307 -5.58957 0.593564 0
M  V30 3929 H 385.458 -1.75685 1.19368 0
M  V30 3930 H 387.721 -0.81756 0.479896 0
M  V30 3931 H 387.427 -3.28932 1.24485 0
M  V30 3932 H 387.301 -3.74568 -0.444833 0
M  V30 3933 H 389.688 -2.83179 -0.830277 0
M  V30 3934 H 389.769 -2.40045 0.883845 0
M  V30 3935 H 389.413 -4.85396 1.4951 0
M  V30 3936 H 389.343 -5.26062 -0.23797 0
M  V30 3937 H 391.834 -3.77179 0.233374 0
M  V30 3938 H 392.147 -7.64935 1.09977 0
M  V30 3939 H 390.492 -6.88025 0.982175 0
M  V30 3940 H 393.683 -4.66611 0.373123 0
M  V30 3941 H 393.856 -6.43433 0.767981 0
M  V30 3942 N 387.262 0.0317525 -1.57568 0
M  V30 3943 C 388.209 1.0332 -2.06382 0
M  V30 3944 C 389.179 1.36082 -0.952414 0
M  V30 3945 O 390.364 1.46466 -1.2228 0
M  V30 3946 C 387.504 2.32989 -2.54578 0
M  V30 3947 C 386.617 2.0641 -3.79498 0
M  V30 3948 C 385.752 3.2993 -4.16317 0
M  V30 3949 C 384.791 2.98893 -5.34162 0
M  V30 3950 N 383.928 4.14857 -5.66426 0
M  V30 3951 H 388.768 0.609982 -2.9169 0
M  V30 3952 H 386.305 0.289573 -1.44222 0
M  V30 3953 H 388.263 3.0875 -2.80587 0
M  V30 3954 H 386.893 2.73039 -1.7219 0
M  V30 3955 H 385.945 1.21158 -3.6059 0
M  V30 3956 H 387.257 1.79513 -4.65378 0
M  V30 3957 H 386.411 4.1406 -4.4344 0
M  V30 3958 H 385.15 3.59938 -3.29083 0
M  V30 3959 H 384.155 2.13164 -5.06795 0
M  V30 3960 H 385.38 2.70165 -6.23047 0
M  V30 3961 H 383.326 4.44821 -4.82151 0
M  V30 3962 H 383.243 3.91374 -6.4681 0
M  V30 3963 H 384.511 4.99868 -5.98124 0
M  V30 3964 N 388.74 1.54641 0.303973 0
M  V30 3965 C 389.986 1.74969 1.03718 0
M  V30 3966 C 390.341 0.527461 1.85029 0
M  V30 3967 O 389.634 -0.480143 1.85486 0
M  V30 3968 C 389.828 2.97753 1.97681 0
M  V30 3969 C 389.657 4.318 1.25613 0
M  V30 3970 C 388.427 4.95616 0.984518 0
M  V30 3971 C 390.625 5.10021 0.662081 0
M  V30 3972 N 388.607 6.13455 0.233794 0
M  V30 3973 C 389.978 6.19984 0.0439736 0
M  V30 3974 C 392.033 4.94663 0.566835 0
M  V30 3975 C 390.736 7.16264 -0.66016 0
M  V30 3976 C 392.762 5.91271 -0.123637 0
M  V30 3977 C 392.124 7.00601 -0.730608 0
M  V30 3978 H 388.223 0.692873 0.362562 0
M  V30 3979 H 390.807 1.92116 0.316135 0
M  V30 3980 H 388.978 2.82036 2.6704 0
M  V30 3981 H 390.71 3.06621 2.64132 0
M  V30 3982 H 387.465 4.55921 1.28191 0
M  V30 3983 H 387.889 6.76879 -0.127996 0
M  V30 3984 H 392.531 4.10267 1.02181 0
M  V30 3985 H 390.249 8.00204 -1.12691 0
M  V30 3986 H 393.835 5.81466 -0.197236 0
M  V30 3987 H 392.715 7.7407 -1.2564 0
M  V30 3988 N 390.218 -0.567019 1.47046 0
M  V30 3989 C 391.446 -1.35027 1.56765 0
M  V30 3990 C 391.861 -1.8758 0.214316 0
M  V30 3991 O 391.218 -1.64471 -0.790919 0
M  V30 3992 C 391.269 -2.52698 2.58507 0
M  V30 3993 O 390.99 -2.0232 3.88585 0
M  V30 3994 C 392.491 -3.45043 2.78316 0
M  V30 3995 H 389.711 -0.41195 0.529658 0
M  V30 3996 H 392.255 -0.687832 1.92585 0
M  V30 3997 H 390.41 -3.149 2.25648 0
M  V30 3998 H 390.824 -2.79068 4.44096 0
M  V30 3999 H 392.298 -4.2405 3.53391 0
M  V30 4000 H 392.775 -3.97971 1.85784 0
M  V30 4001 H 393.381 -2.88665 3.12334 0
M  V30 4002 N 391.696 -1.35014 -0.812953 0
M  V30 4003 C 392.659 -1.27292 -1.90602 0
M  V30 4004 C 393.659 -0.185817 -1.59723 0
M  V30 4005 O 394.849 -0.439102 -1.68575 0
M  V30 4006 C 391.981 -0.967676 -3.26877 0
M  V30 4007 H 393.174 -2.24479 -1.9887 0
M  V30 4008 H 390.727 -1.19446 -1.00808 0
M  V30 4009 H 391.462 0.0005954 -3.243 0
M  V30 4010 H 391.247 -1.75412 -3.50675 0
M  V30 4011 H 392.737 -0.939085 -4.06904 0
M  V30 4012 N 393.175 1.03435 -1.18907 0
M  V30 4013 C 394.107 2.1165 -0.879595 0
M  V30 4014 C 395.12 1.62316 0.125439 0
M  V30 4015 O 396.309 1.78201 -0.103245 0
M  V30 4016 C 393.409 3.37622 -0.294042 0
M  V30 4017 C 392.582 4.16166 -1.34629 0
M  V30 4018 C 391.641 5.20457 -0.775274 0
M  V30 4019 O 390.667 5.50379 -1.4516 0
M  V30 4020 N 391.869 5.78949 0.424126 0
M  V30 4021 H 394.634 2.38791 -1.81105 0
M  V30 4022 H 392.195 1.19681 -1.09032 0
M  V30 4023 H 394.187 4.04572 0.101679 0
M  V30 4024 H 392.757 3.07873 0.541575 0
M  V30 4025 H 391.977 3.44444 -1.91707 0
M  V30 4026 H 393.265 4.65432 -2.05549 0
M  V30 4027 H 392.663 5.56948 0.991209 0
M  V30 4028 H 391.22 6.47334 0.761691 0
M  V30 4029 N 394.653 0.992116 1.22453 0
M  V30 4030 C 395.9 0.667534 1.91181 0
M  V30 4031 C 396.228 -0.800317 1.77271 0
M  V30 4032 O 395.483 -1.59421 1.13505 0
M  V30 4033 C 395.782 1.01832 3.42586 0
M  V30 4034 C 395.448 2.47831 3.76684 0
M  V30 4035 C 394.11 2.87729 3.85701 0
M  V30 4036 C 396.462 3.42466 3.92895 0
M  V30 4037 C 393.79 4.21252 4.08367 0
M  V30 4038 C 396.142 4.75648 4.17064 0
M  V30 4039 C 394.806 5.15288 4.24305 0
M  V30 4040 H 394.076 0.244268 0.699581 0
M  V30 4041 H 396.723 1.24816 1.45235 0
M  V30 4042 H 395.028 0.355769 3.90181 0
M  V30 4043 H 396.725 0.745228 3.94014 0
M  V30 4044 H 393.315 2.15905 3.70247 0
M  V30 4045 H 397.499 3.12814 3.85307 0
M  V30 4046 H 392.755 4.51554 4.122 0
M  V30 4047 H 396.929 5.48924 4.2855 0
M  V30 4048 H 394.556 6.18769 4.41621 0
M  V30 4049 N 396.131 -1.37776 0.765217 0
M  V30 4050 C 397.041 -2.34135 0.147666 0
M  V30 4051 C 398.057 -1.59854 -0.687215 0
M  V30 4052 O 399.233 -1.91983 -0.608659 0
M  V30 4053 C 396.298 -3.3901 -0.72617 0
M  V30 4054 C 395.359 -4.2912 0.124417 0
M  V30 4055 C 394.592 -5.28986 -0.707807 0
M  V30 4056 O 394.815 -5.36205 -1.94525 0
M  V30 4057 O 393.749 -6.01779 -0.12046 0
M  V30 4058 H 397.575 -2.88664 0.943758 0
M  V30 4059 H 395.16 -1.39824 0.526277 0
M  V30 4060 H 397.042 -4.03195 -1.22524 0
M  V30 4061 H 395.717 -2.86819 -1.50056 0
M  V30 4062 H 394.624 -3.68057 0.669696 0
M  V30 4063 H 395.957 -4.84598 0.861736 0
M  V30 4064 N 397.609 -0.515225 -1.4894 0
M  V30 4065 C 398.559 0.275113 -2.26334 0
M  V30 4066 C 399.543 0.923007 -1.31793 0
M  V30 4067 O 400.735 0.828254 -1.56426 0
M  V30 4068 C 397.864 1.33041 -3.16473 0
M  V30 4069 C 396.95 0.688051 -4.18481 0
M  V30 4070 N 397.341 -0.217638 -5.05332 0
M  V30 4071 C 395.639 0.94699 -4.3583 0
M  V30 4072 C 396.34 -0.58676 -5.78733 0
M  V30 4073 N 395.316 0.0486966 -5.43578 0
M  V30 4074 H 399.118 -0.421876 -2.90856 0
M  V30 4075 H 396.632 -0.332249 -1.58965 0
M  V30 4076 H 398.629 1.9102 -3.70563 0
M  V30 4077 H 397.289 2.02894 -2.53504 0
M  V30 4078 H 398.3 -0.589343 -5.14536 0
M  V30 4079 H 394.977 1.63719 -3.8406 0
M  V30 4080 H 396.367 -1.32855 -6.58634 0
M  V30 4081 N 399.087 1.5561 -0.249682 0
M  V30 4082 C 400.315 2.03411 0.378352 0
M  V30 4083 C 400.73 1.12886 1.51335 0
M  V30 4084 O 400.087 0.143833 1.81932 0
M  V30 4085 C 400.138 3.50537 0.88351 0
M  V30 4086 O 399.859 4.37614 -0.20626 0
M  V30 4087 C 401.36 4.14113 1.58195 0
M  V30 4088 H 398.58 0.664994 0.08958 0
M  V30 4089 H 401.124 2.01044 -0.374357 0
M  V30 4090 H 399.279 3.5343 1.58639 0
M  V30 4091 H 399.693 5.24199 0.177782 0
M  V30 4092 H 401.167 5.18741 1.8871 0
M  V30 4093 H 401.644 3.60767 2.50487 0
M  V30 4094 H 402.25 4.15151 0.923573 0
M  V30 4095 N 400.565 -0.0233959 1.57583 0
M  V30 4096 C 401.495 -1.02162 2.09965 0
M  V30 4097 C 402.476 -1.3735 1.00344 0
M  V30 4098 O 403.661 -1.46135 1.27899 0
M  V30 4099 C 400.791 -2.32081 2.58371 0
M  V30 4100 C 399.745 -2.1112 3.72307 0
M  V30 4101 C 399.071 -3.46848 4.06941 0
M  V30 4102 C 400.371 -1.49276 5.00514 0
M  V30 4103 H 402.065 -0.585557 2.93618 0
M  V30 4104 H 399.611 -0.280218 1.41247 0
M  V30 4105 H 401.564 -3.02249 2.93639 0
M  V30 4106 H 400.288 -2.77758 1.71808 0
M  V30 4107 H 398.947 -1.43384 3.37397 0
M  V30 4108 H 398.595 -3.90184 3.17436 0
M  V30 4109 H 398.295 -3.33646 4.83688 0
M  V30 4110 H 399.819 -4.18369 4.44747 0
M  V30 4111 H 401.233 -2.09368 5.33702 0
M  V30 4112 H 399.63 -1.46632 5.8191 0
M  V30 4113 H 400.7 -0.459217 4.82721 0
M  V30 4114 N 402.043 -1.548 -0.295768 0
M  V30 4115 C 402.973 -1.89115 -1.36959 0
M  V30 4116 C 403.954 -0.75059 -1.52644 0
M  V30 4117 O 405.139 -1.00678 -1.66065 0
M  V30 4118 C 402.269 -2.14307 -2.73295 0
M  V30 4119 C 401.223 -3.30151 -2.72368 0
M  V30 4120 C 400.549 -3.40772 -4.12042 0
M  V30 4121 C 401.849 -4.67126 -2.33646 0
M  V30 4122 H 403.543 -2.79053 -1.08488 0
M  V30 4123 H 401.089 -1.34266 -0.520443 0
M  V30 4124 H 403.042 -2.36898 -3.48507 0
M  V30 4125 H 401.766 -1.21145 -3.03301 0
M  V30 4126 H 400.425 -3.0749 -1.99613 0
M  V30 4127 H 400.073 -2.45117 -4.39234 0
M  V30 4128 H 399.773 -4.18645 -4.12322 0
M  V30 4129 H 401.297 -3.6563 -4.89027 0
M  V30 4130 H 402.711 -4.89414 -2.98575 0
M  V30 4131 H 401.108 -5.47751 -2.45129 0
M  V30 4132 H 402.178 -4.67489 -1.28772 0
M  V30 4133 N 403.521 0.559213 -1.47345 0
M  V30 4134 C 404.767 1.31843 -1.54095 0
M  V30 4135 C 405.1 1.93149 -0.201726 0
M  V30 4136 O 404.375 1.77759 0.789428 0
M  V30 4137 C 404.658 2.43006 -2.65744 0
M  V30 4138 C 404.511 1.86581 -4.09277 0
M  V30 4139 C 405.83 3.44943 -2.73318 0
M  V30 4140 H 402.949 0.478012 -0.560957 0
M  V30 4141 H 405.591 0.625977 -1.79392 0
M  V30 4142 H 403.741 3.02072 -2.44305 0
M  V30 4143 H 405.413 1.31792 -4.42073 0
M  V30 4144 H 403.656 1.17268 -4.17649 0
M  V30 4145 H 404.327 2.66933 -4.83168 0
M  V30 4146 H 406.803 2.95793 -2.92653 0
M  V30 4147 H 405.679 4.20153 -3.53218 0
M  V30 4148 H 405.94 4.03665 -1.80296 0
M  V30 4149 N 404.999 1.35443 0.805782 0
M  V30 4150 C 406.227 1.31878 1.59423 0
M  V30 4151 C 406.642 -0.103562 1.88516 0
M  V30 4152 O 405.999 -1.05575 1.48863 0
M  V30 4153 C 406.05 2.12426 2.92502 0
M  V30 4154 O 405.771 3.49115 2.6467 0
M  V30 4155 C 407.272 2.16455 3.86862 0
M  V30 4156 H 404.492 0.453002 0.495005 0
M  V30 4157 H 407.036 1.78309 1.00131 0
M  V30 4158 H 405.191 1.69593 3.48306 0
M  V30 4159 H 405.605 3.90957 3.49647 0
M  V30 4160 H 407.079 2.77204 4.77349 0
M  V30 4161 H 407.556 1.16352 4.23508 0
M  V30 4162 H 408.162 2.59453 3.36993 0
M  V30 4163 N 406.477 -1.02803 1.19454 0
M  V30 4164 C 407.754 -1.73299 0.907013 0
M  V30 4165 C 408.134 -2.02772 -0.587086 0
M  V30 4166 O 407.482 -1.68304 -1.54551 0
M  V30 4167 C 407.692 -3.00912 1.76785 0
M  V30 4168 C 409.04 -3.74403 2.00268 0
M  V30 4169 O 410.064 -3.10841 1.73943 0
M  V30 4170 O 408.923 -4.88675 2.4466 0
M  V30 4171 H 406.017 -0.754727 0.338106 0
M  V30 4172 H 408.563 -1.08754 1.30271 0
M  V30 4173 H 407.335 -2.75366 2.7801 0
M  V30 4174 H 406.958 -3.73197 1.37149 0
M  V30 4175 N 407.956 -0.998596 -1.21925 0
M  V30 4176 C 409.184 -0.696286 -1.94832 0
M  V30 4177 C 409.599 0.740032 -1.73692 0
M  V30 4178 O 408.956 1.5 -1.03953 0
M  V30 4179 C 409.007 -0.999833 -3.47398 0
M  V30 4180 O 408.728 -2.37972 -3.67833 0
M  V30 4181 C 410.229 -0.716025 -4.37479 0
M  V30 4182 H 407.449 -0.257111 -0.619786 0
M  V30 4183 H 409.993 -1.33491 -1.54921 0
M  V30 4184 H 408.148 -0.406918 -3.85257 0
M  V30 4185 H 408.562 -2.48338 -4.61983 0
M  V30 4186 H 410.036 -0.978642 -5.43256 0
M  V30 4187 H 410.513 0.349968 -4.37803 0
M  V30 4188 H 411.119 -1.29025 -4.05256 0
M  V30 4189 N 409.434 1.37368 -0.772513 0
M  V30 4190 C 410.682 1.99279 -0.336516 0
M  V30 4191 C 411.003 1.6163 1.09091 0
M  V30 4192 O 410.273 0.882109 1.74916 0
M  V30 4193 H 408.853 0.737063 -0.121435 0
M  V30 4194 H 411.515 1.67836 -0.990809 0
M  V30 4195 H 410.611 3.09332 -0.414763 0
M  V30 4196 N 410.912 0.523116 1.48665 0
M  V30 4197 C 412.158 -0.0134963 2.02796 0
M  V30 4198 C 412.491 -1.34582 1.40004 0
M  V30 4199 O 411.766 -1.86756 0.543381 0
M  V30 4200 C 412.049 -0.14276 3.59817 0
M  V30 4201 C 411.902 1.21425 4.331 0
M  V30 4202 C 413.221 -0.872856 4.31357 0
M  V30 4203 H 410.34 -0.00343074 0.736992 0
M  V30 4204 H 412.982 0.678816 1.7746 0
M  V30 4205 H 411.132 -0.732401 3.81534 0
M  V30 4206 H 412.804 1.84447 4.2282 0
M  V30 4207 H 411.047 1.79791 3.94788 0
M  V30 4208 H 411.718 1.07687 5.41394 0
M  V30 4209 H 414.194 -0.372555 4.14429 0
M  V30 4210 H 413.07 -0.932185 5.40927 0
M  V30 4211 H 413.331 -1.92161 3.98154 0
M  V30 4212 N 412.39 -1.55475 0.257931 0
M  V30 4213 C 413.3 -2.2549 -0.647425 0
M  V30 4214 C 414.316 -1.2748 -1.18427 0
M  V30 4215 O 415.492 -1.6038 -1.2182 0
M  V30 4216 C 412.557 -2.94916 -1.82278 0
M  V30 4217 C 411.618 -4.08363 -1.32432 0
M  V30 4218 C 410.851 -4.74469 -2.44366 0
M  V30 4219 O 411.074 -4.39701 -3.63344 0
M  V30 4220 O 410.008 -5.62763 -2.13497 0
M  V30 4221 H 413.834 -3.03593 -0.0807707 0
M  V30 4222 H 411.419 -1.49377 0.0259962 0
M  V30 4223 H 413.301 -3.38606 -2.50846 0
M  V30 4224 H 411.976 -2.19744 -2.37685 0
M  V30 4225 H 410.883 -3.69166 -0.605605 0
M  V30 4226 H 412.216 -4.85385 -0.816211 0
M  V30 4227 N 413.868 0.0150385 -1.57593 0
M  V30 4228 C 415.117 0.702115 -1.89085 0
M  V30 4229 C 415.43 1.75764 -0.858277 0
M  V30 4230 O 416.636 2.49829 -1.0629 0
M  V30 4231 C 415.092 1.29992 -3.35604 0
M  V30 4232 C 414.7 0.280007 -4.47124 0
M  V30 4233 C 416.444 1.96606 -3.76227 0
M  V30 4234 C 414.351 0.886949 -5.84711 0
M  V30 4235 H 413.281 0.265997 -0.705522 0
M  V30 4236 H 415.932 -0.0430408 -1.8345 0
M  V30 4237 H 414.314 2.09525 -3.36029 0
M  V30 4238 H 415.488 -0.489631 -4.58191 0
M  V30 4239 H 413.803 -0.284835 -4.15425 0
M  V30 4240 H 416.4 2.42893 -4.76347 0
M  V30 4241 H 416.743 2.79024 -3.08952 0
M  V30 4242 H 417.276 1.23828 -3.78036 0
M  V30 4243 H 414.015 0.101876 -6.55421 0
M  V30 4244 H 413.535 1.6261 -5.77337 0
M  V30 4245 H 415.214 1.39011 -6.3189 0
M  V30 4246 N 415.346 1.54954 0.287554 0
M  V30 4247 C 416.276 1.89839 1.35954 0
M  V30 4248 C 417.257 0.758675 1.52244 0
M  V30 4249 O 418.442 1.01557 1.65529 0
M  V30 4250 C 415.572 2.15753 2.72154 0
M  V30 4251 C 414.526 3.3159 2.70614 0
M  V30 4252 C 413.852 3.42952 4.10229 0
M  V30 4253 C 415.152 4.68359 2.31165 0
M  V30 4254 H 416.846 2.79625 1.07007 0
M  V30 4255 H 414.392 1.3454 0.513316 0
M  V30 4256 H 416.345 2.38743 3.47246 0
M  V30 4257 H 415.069 1.22752 3.02654 0
M  V30 4258 H 413.728 3.08545 1.97979 0
M  V30 4259 H 413.376 2.47443 4.37928 0
M  V30 4260 H 413.076 4.20826 4.10097 0
M  V30 4261 H 414.6 3.68218 4.87081 0
M  V30 4262 H 416.014 4.9099 2.95976 0
M  V30 4263 H 414.411 5.49044 2.42221 0
M  V30 4264 H 415.481 4.68165 1.26291 0
M  V30 4265 N 416.824 -0.551391 1.4764 0
M  V30 4266 C 418.052 -1.33357 1.58189 0
M  V30 4267 C 418.467 -1.87342 0.234199 0
M  V30 4268 O 417.824 -1.65301 -0.77343 0
M  V30 4269 C 417.875 -2.49942 2.61173 0
M  V30 4270 O 417.596 -1.98187 3.90709 0
M  V30 4271 C 419.097 -3.42072 2.8196 0
M  V30 4272 H 416.317 -0.40631 0.533998 0
M  V30 4273 H 418.861 -0.667367 1.93304 0
M  V30 4274 H 417.016 -3.12489 2.28975 0
M  V30 4275 H 417.43 -2.74342 4.47031 0
M  V30 4276 H 418.904 -4.20278 3.57869 0
M  V30 4277 H 419.381 -3.95978 1.89995 0
M  V30 4278 H 419.987 -2.85336 3.15378 0
M  V30 4279 N 418.302 -1.35869 -0.798587 0
M  V30 4280 C 419.542 -1.30961 -1.56935 0
M  V30 4281 C 419.906 0.112404 -1.91671 0
M  V30 4282 O 421.107 0.285937 -2.67275 0
M  V30 4283 C 419.378 -2.19811 -2.81811 0
M  V30 4284 S 420.937 -2.32498 -3.72143 0
M  V30 4285 H 417.755 -0.465297 -0.537606 0
M  V30 4286 H 420.357 -1.71344 -0.941346 0
M  V30 4287 H 419.061 -3.22095 -2.54329 0
M  V30 4288 H 418.592 -1.80415 -3.49591 0
M  V30 4289 H 420.607 -1.5157 -4.72484 0
M  V30 4290 N 419.78 1.02168 -1.19998 0
M  V30 4291 C 420.71 2.12488 -0.96804 0
M  V30 4292 C 421.691 1.69799 0.101185 0
M  V30 4293 O 422.876 1.94121 -0.0552993 0
M  V30 4294 C 420.006 3.43479 -0.513776 0
M  V30 4295 C 418.96 3.99884 -1.52566 0
M  V30 4296 C 418.286 5.26582 -0.928214 0
M  V30 4297 C 419.586 4.33861 -2.90795 0
M  V30 4298 H 421.28 2.32149 -1.89069 0
M  V30 4299 H 418.826 1.11564 -0.910468 0
M  V30 4300 H 420.779 4.20036 -0.338774 0
M  V30 4301 H 419.503 3.23561 0.444493 0
M  V30 4302 H 418.162 3.25429 -1.68794 0
M  V30 4303 H 417.81 5.02986 0.0378289 0
M  V30 4304 H 417.51 5.65284 -1.60397 0
M  V30 4305 H 419.034 6.05799 -0.764167 0
M  V30 4306 H 420.448 5.01327 -2.78109 0
M  V30 4307 H 418.845 4.83664 -3.55231 0
M  V30 4308 H 419.915 3.42848 -3.42904 0
M  V30 4309 O 421.297 1.13266 1.15122 0
M  V30 4310 H 421.988 0.848237 1.7414 0
M  V30 END ATOM
M  V30 BEGIN BOND
M  V30 END BOND
M  V30 END CTAB
M  END
$$$$
