drugbank_target|P9WK83 Octanoyltransferase (DB03600)
 OpenBabel12092120453D

  0  0  0     0  0            999 V3000
M  V30 BEGIN CTAB
M  V30 COUNTS 3429 3459 0 0 0
M  V30 BEGIN ATOM
M  V30 1 H -0.908 1.98254 -0.117106 0
M  V30 2 N 0 1.576 0 0
M  V30 3 C 0.933 2.03868 1.02534 0
M  V30 4 C 1.911 0.928543 1.3348 0
M  V30 5 O 3.095 1.19667 1.45644 0
M  V30 6 C 0.222 2.43627 2.35294 0
M  V30 7 C -0.732 3.65373 2.2001 0
M  V30 8 S 0.101 5.13292 1.52614 0
M  V30 9 C 1.257 5.56322 2.86805 0
M  V30 10 H 1.49 2.90518 0.631377 0
M  V30 11 H -0.977 1.52953 0.210867 0
M  V30 12 H 0.981 2.67203 3.11629 0
M  V30 13 H -0.358 1.57376 2.7183 0
M  V30 14 H -1.165 3.90944 3.18086 0
M  V30 15 H -1.563 3.418 1.51819 0
M  V30 16 H 0.729 5.58782 3.83104 0
M  V30 17 H 1.672 6.56266 2.65933 0
M  V30 18 H 2.08 4.83886 2.90714 0
M  V30 19 N 1.4781 -0.272755 1.55222 0
M  V30 20 C 2.7061 -1.02255 1.79865 0
M  V30 21 C 3.1211 -1.79924 0.572088 0
M  V30 22 O 2.4781 -1.76638 -0.458842 0
M  V30 23 C 2.5291 -1.98094 3.02392 0
M  V30 24 O 2.2501 -1.23572 4.20311 0
M  V30 25 C 3.7511 -2.84884 3.39641 0
M  V30 26 H 0.9711 -0.302057 0.599168 0
M  V30 27 H 3.5151 -0.303465 2.02236 0
M  V30 28 H 1.6701 -2.65465 2.82147 0
M  V30 29 H 2.0841 -1.88172 4.89583 0
M  V30 30 H 3.5581 -3.47927 4.28545 0
M  V30 31 H 4.0351 -3.54665 2.59055 0
M  V30 32 H 4.6411 -2.23003 3.62146 0
M  V30 33 N 2.9562 -1.48159 -0.537278 0
M  V30 34 C 4.2042 -1.55497 -1.29094 0
M  V30 35 C 4.5252 -0.227454 -1.93669 0
M  V30 36 O 3.7952 0.750386 -1.80959 0
M  V30 37 H 2.3752 -0.572832 -0.47945 0
M  V30 38 H 5.0372 -1.84579 -0.625818 0
M  V30 39 H 4.1332 -2.33216 -2.07405 0
M  V30 40 N 4.4343 0.785586 -1.36625 0
M  V30 41 C 5.6593 1.57963 -1.34397 0
M  V30 42 C 6.0843 1.87964 0.071526 0
M  V30 43 O 5.4423 1.48182 1.0446 0
M  V30 44 C 5.4903 2.87511 -2.17646 0
M  V30 45 O 4.5943 3.81281 -1.57158 0
M  V30 46 H 3.9353 0.479014 -0.459828 0
M  V30 47 H 6.4653 0.973411 -1.79961 0
M  V30 48 H 6.4753 3.36745 -2.30362 0
M  V30 49 H 5.1503 2.65002 -3.20541 0
M  V30 50 H 3.7273 3.39885 -1.53403 0
M  V30 51 N 5.9124 1.20967 1.01018 0
M  V30 52 C 7.1614 1.01796 1.74128 0
M  V30 53 C 7.4744 -0.449691 1.90361 0
M  V30 54 O 8.6804 -0.76068 2.60626 0
M  V30 55 C 7.1364 1.7727 3.13215 0
M  V30 56 C 6.7444 3.28171 3.04972 0
M  V30 57 C 8.4884 1.66489 3.90489 0
M  V30 58 C 6.3954 3.96156 4.39107 0
M  V30 59 H 5.3254 0.377276 0.652824 0
M  V30 60 H 7.9764 1.44651 1.12909 0
M  V30 61 H 6.3584 1.27205 3.75013 0
M  V30 62 H 7.5324 3.85499 2.52443 0
M  V30 63 H 5.8474 3.39437 2.41188 0
M  V30 64 H 8.4444 2.14617 4.89738 0
M  V30 65 H 8.7874 0.6222 4.11624 0
M  V30 66 H 9.3204 2.14003 3.35332 0
M  V30 67 H 6.0594 5.00604 4.23174 0
M  V30 68 H 5.5794 3.43617 4.91617 0
M  V30 69 H 7.2584 4.00774 5.07926 0
M  V30 70 N 7.3905 -1.2043 1.01659 0
M  V30 71 C 8.8065 -1.41852 0.731442 0
M  V30 72 C 9.0065 -1.89358 -0.688898 0
M  V30 73 O 8.0625 -2.06247 -1.45666 0
M  V30 74 C 9.3755 -2.44019 1.75714 0
M  V30 75 C 10.9235 -2.57785 1.77527 0
M  V30 76 C 11.3985 -3.63194 2.79023 0
M  V30 77 N 12.8895 -3.70678 2.77763 0
M  V30 78 C 13.6245 -4.51897 3.52954 0
M  V30 79 N 13.1205 -5.36921 4.37821 0
M  V30 80 N 14.9135 -4.4643 3.41551 0
M  V30 81 H 7.0645 -0.879093 1.93354 0
M  V30 82 H 9.3275 -0.448425 0.835236 0
M  V30 83 H 9.0335 -2.1611 2.77469 0
M  V30 84 H 8.9075 -3.43007 1.56927 0
M  V30 85 H 11.2945 -2.85023 0.764569 0
M  V30 86 H 11.3755 -1.58992 2.00387 0
M  V30 87 H 11.0195 -3.36699 3.80258 0
M  V30 88 H 10.9495 -4.61609 2.53425 0
M  V30 89 H 13.4405 -3.09944 2.16201 0
M  V30 90 H 13.7535 -5.95981 4.91962 0
M  V30 91 H 12.0985 -5.36424 4.41899 0
M  V30 92 H 15.2895 -3.79042 2.74672 0
M  V30 93 H 15.4625 -5.09491 4.00404 0
M  V30 94 N 8.8686 -0.792821 -1.36206 0
M  V30 95 C 10.0936 -0.377701 -2.03932 0
M  V30 96 C 10.5186 0.998947 -1.59382 0
M  V30 97 O 9.8766 1.64421 -0.763903 0
M  V30 98 C 9.9246 -0.453635 -3.57735 0
M  V30 99 O 9.0286 0.538151 -4.08874 0
M  V30 100 H 8.3696 -0.159855 -0.644471 0
M  V30 101 H 10.8996 -1.07488 -1.7409 0
M  V30 102 H 10.9096 -0.318464 -4.06755 0
M  V30 103 H 9.5846 -1.45784 -3.89512 0
M  V30 104 H 8.1616 0.364359 -3.71116 0
M  V30 105 N 10.3467 1.47872 -0.545128 0
M  V30 106 C 11.2937 2.29849 0.2093 0
M  V30 107 C 12.2637 1.38313 0.919707 0
M  V30 108 O 13.4487 1.67277 0.917772 0
M  V30 109 C 10.5887 3.22019 1.24088 0
M  V30 110 C 9.7017 4.2864 0.537778 0
M  V30 111 C 8.8367 5.07973 1.5536 0
M  V30 112 C 7.8757 6.06381 0.8348 0
M  V30 113 N 7.0127 6.78717 1.79688 0
M  V30 114 H 11.8527 2.93845 -0.49591 0
M  V30 115 H 9.3897 1.44848 -0.256389 0
M  V30 116 H 11.3477 3.73868 1.85144 0
M  V30 117 H 9.9777 2.59914 1.91428 0
M  V30 118 H 9.0297 3.7994 -0.187046 0
M  V30 119 H 10.3417 4.98793 -0.0258907 0
M  V30 120 H 9.4957 5.63912 2.23803 0
M  V30 121 H 8.2347 4.37693 2.15118 0
M  V30 122 H 7.2397 5.49631 0.136388 0
M  V30 123 H 8.4647 6.78665 0.24313 0
M  V30 124 H 6.4107 6.11177 2.38326 0
M  V30 125 H 6.3277 7.44998 1.28505 0
M  V30 126 H 7.5957 7.39237 2.47282 0
M  V30 127 N 11.8248 0.280983 1.55075 0
M  V30 128 C 12.7548 -0.597469 2.25727 0
M  V30 129 C 13.7358 -1.15417 1.24952 0
M  V30 130 O 14.9208 -1.18722 1.53684 0
M  V30 131 C 12.0508 -1.7789 2.98283 0
M  V30 132 C 11.0048 -1.35347 4.06036 0
M  V30 133 C 10.3308 -2.61846 4.66198 0
M  V30 134 C 11.6308 -0.499354 5.19907 0
M  V30 135 H 13.3248 -0.00824265 2.99399 0
M  V30 136 H 10.8708 -0.0025244 1.44 0
M  V30 137 H 12.8238 -2.39937 3.46422 0
M  V30 138 H 11.5478 -2.39405 2.22155 0
M  V30 139 H 10.2068 -0.756156 3.58717 0
M  V30 140 H 9.8548 -3.21632 3.86732 0
M  V30 141 H 9.5548 -2.3409 5.38958 0
M  V30 142 H 11.0788 -3.24732 5.1709 0
M  V30 143 H 12.4928 -1.02498 5.64063 0
M  V30 144 H 10.8898 -0.316424 5.99265 0
M  V30 145 H 11.9598 0.480459 4.82514 0
M  V30 146 N 13.3029 -1.57598 0.00835791 0
M  V30 147 C 14.5279 -1.95617 -0.689103 0
M  V30 148 C 14.9529 -0.883753 -1.66046 0
M  V30 149 O 14.3109 0.157352 -1.80616 0
M  V30 150 C 14.3589 -3.32736 -1.38994 0
M  V30 151 O 13.4629 -3.27631 -2.50463 0
M  V30 152 H 12.8039 -0.638379 -0.182668 0
M  V30 153 H 15.3339 -2.045 0.064036 0
M  V30 154 H 15.3439 -3.68494 -1.75147 0
M  V30 155 H 14.0189 -4.1034 -0.677778 0
M  V30 156 H 12.5959 -3.03561 -2.16576 0
M  V30 157 N 14.781 0.264519 -1.55364 0
M  V30 158 C 15.744 1.31046 -1.88042 0
M  V30 159 C 16.744 1.41943 -0.755569 0
M  V30 160 O 17.934 1.40947 -1.02369 0
M  V30 161 C 15.066 2.69067 -2.09323 0
M  V30 162 H 16.259 1.03297 -2.81549 0
M  V30 163 H 13.812 0.502989 -1.47986 0
M  V30 164 H 14.547 3.01982 -1.18226 0
M  V30 165 H 14.332 2.62542 -2.91229 0
M  V30 166 H 15.822 3.44623 -2.35848 0
M  V30 167 N 16.2591 1.48442 0.529413 0
M  V30 168 C 17.5081 1.55742 1.28169 0
M  V30 169 C 17.8211 0.236511 1.94165 0
M  V30 170 O 19.0271 0.187761 2.7085 0
M  V30 171 C 17.4831 2.74667 2.32564 0
M  V30 172 C 17.0911 4.13402 1.72636 0
M  V30 173 C 18.8351 2.9128 3.08798 0
M  V30 174 C 16.7421 5.23587 2.74975 0
M  V30 175 H 15.6721 0.579796 0.48203 0
M  V30 176 H 18.3231 1.74776 0.559056 0
M  V30 177 H 16.7051 2.49067 3.07866 0
M  V30 178 H 17.8791 4.49022 1.03519 0
M  V30 179 H 16.1941 4.0191 1.08892 0
M  V30 180 H 18.7911 3.70767 3.85274 0
M  V30 181 H 19.1341 2.00757 3.64695 0
M  V30 182 H 19.6671 3.16782 2.40611 0
M  V30 183 H 16.4061 6.16076 2.23897 0
M  V30 184 H 15.9261 4.92454 3.42417 0
M  V30 185 H 17.6051 5.51724 3.37949 0
M  V30 186 N 17.7372 -0.778329 1.37039 0
M  V30 187 C 19.0142 -1.52551 1.22424 0
M  V30 188 C 19.3942 -2.10288 -0.184964 0
M  V30 189 O 18.7422 -1.94953 -1.19187 0
M  V30 190 C 18.9522 -2.61164 2.31504 0
M  V30 191 C 20.3002 -3.28746 2.68721 0
M  V30 192 O 21.3242 -2.71455 2.30631 0
M  V30 193 O 20.1832 -4.3231 3.3432 0
M  V30 194 H 17.2772 -0.675343 0.477326 0
M  V30 195 H 19.8232 -0.815859 1.48801 0
M  V30 196 H 18.5952 -2.16574 3.25901 0
M  V30 197 H 18.2182 -3.39737 2.06554 0
M  V30 198 N 19.2153 -1.21501 -1.00376 0
M  V30 199 C 20.4613 -1.03452 -1.74429 0
M  V30 200 C 20.7943 0.430764 -1.89362 0
M  V30 201 O 20.0693 1.31962 -1.42886 0
M  V30 202 C 20.3523 -1.73375 -3.15615 0
M  V30 203 C 20.2053 -3.27431 -3.08397 0
M  V30 204 C 21.5243 -1.47732 -4.14564 0
M  V30 205 H 18.6433 -0.377226 -0.633143 0
M  V30 206 H 21.2853 -1.49693 -1.17013 0
M  V30 207 H 19.4353 -1.34064 -3.64636 0
M  V30 208 H 21.1073 -3.76119 -2.67081 0
M  V30 209 H 19.3503 -3.5767 -2.45468 0
M  V30 210 H 20.0213 -3.71524 -4.08258 0
M  V30 211 H 22.4973 -1.8186 -3.74254 0
M  V30 212 H 21.3733 -1.99169 -5.11491 0
M  V30 213 H 21.6343 -0.407589 -4.40217 0
M  V30 214 N 20.6934 1.19889 -1.02296 0
M  V30 215 C 22.1094 1.41462 -0.738954 0
M  V30 216 C 22.3094 1.89721 0.678846 0
M  V30 217 O 21.3654 2.07016 1.4457 0
M  V30 218 C 22.6784 2.43083 -1.77005 0
M  V30 219 C 24.2264 2.5684 -1.78892 0
M  V30 220 C 24.7014 3.61709 -2.80945 0
M  V30 221 N 26.1924 3.69199 -2.79725 0
M  V30 222 C 26.9274 4.50019 -3.55345 0
M  V30 223 N 26.4234 5.34592 -4.40662 0
M  V30 224 N 28.2164 4.44612 -3.43914 0
M  V30 225 H 20.3674 0.868827 -1.93817 0
M  V30 226 H 22.6304 0.44399 -0.837602 0
M  V30 227 H 22.3364 2.14636 -2.78612 0
M  V30 228 H 22.2104 3.4217 -1.58744 0
M  V30 229 H 24.5974 2.84614 -0.779674 0
M  V30 230 H 24.6784 1.57927 -2.01228 0
M  V30 231 H 24.3224 3.34678 -3.82038 0
M  V30 232 H 24.2524 4.60259 -2.5587 0
M  V30 233 H 26.7434 3.08794 -2.17842 0
M  V30 234 H 27.0564 5.93363 -4.95116 0
M  V30 235 H 25.4014 5.34073 -4.44737 0
M  V30 236 H 28.5924 3.7758 -2.76679 0
M  V30 237 H 28.7654 5.0736 -4.031 0
M  V30 238 N 22.1715 0.800033 1.35784 0
M  V30 239 C 23.1035 0.163596 2.28615 0
M  V30 240 C 24.1165 -0.633317 1.49976 0
M  V30 241 O 25.3055 -0.466754 1.72289 0
M  V30 242 C 22.4055 -0.790958 3.29541 0
M  V30 243 C 21.5785 -0.0418255 4.3738 0
M  V30 244 C 20.6375 -0.91389 5.18203 0
M  V30 245 O 19.6635 -0.367234 5.68014 0
M  V30 246 N 20.8655 -2.23682 5.35674 0
M  V30 247 H 23.6305 0.96105 2.83873 0
M  V30 248 H 21.1915 0.654894 1.48063 0
M  V30 249 H 23.1835 -1.37844 3.80501 0
M  V30 250 H 21.7535 -1.48925 2.74846 0
M  V30 251 H 20.9735 0.726813 3.87442 0
M  V30 252 H 22.2615 0.474719 5.06581 0
M  V30 253 H 21.6595 -2.70497 4.96838 0
M  V30 254 H 20.2165 -2.77369 5.89839 0
M  V30 255 N 23.6496 -1.47581 0.552962 0
M  V30 256 C 24.5796 -2.32762 -0.185451 0
M  V30 257 C 25.5606 -1.43527 -0.912905 0
M  V30 258 O 26.7456 -1.72388 -0.894201 0
M  V30 259 C 23.8756 -3.25219 -1.21859 0
M  V30 260 C 22.8296 -4.23661 -0.607864 0
M  V30 261 C 22.1556 -5.05413 -1.74533 0
M  V30 262 C 23.4556 -5.20481 0.435582 0
M  V30 263 H 25.1496 -2.94749 0.525684 0
M  V30 264 H 22.6956 -1.41738 0.254251 0
M  V30 265 H 24.6486 -3.8365 -1.7433 0
M  V30 266 H 23.3726 -2.61279 -1.95961 0
M  V30 267 H 22.0316 -3.66451 -0.104489 0
M  V30 268 H 21.6796 -4.3788 -2.47529 0
M  V30 269 H 21.3796 -5.72059 -1.34249 0
M  V30 270 H 22.9036 -5.66701 -2.27338 0
M  V30 271 H 24.3176 -5.733 -0.00290157 0
M  V30 272 H 22.7146 -5.95305 0.757067 0
M  V30 273 H 23.7846 -4.66217 1.33303 0
M  V30 274 N 25.1277 -0.289203 -1.54924 0
M  V30 275 C 26.3757 0.322879 -1.99504 0
M  V30 276 C 26.6967 1.55313 -1.1791 0
M  V30 277 O 25.9667 1.94001 -0.272097 0
M  V30 278 H 24.5467 0.122291 -0.736922 0
M  V30 279 H 27.2087 -0.397802 -1.90797 0
M  V30 280 H 26.3047 0.603061 -3.06218 0
M  V30 281 N 26.6058 1.57591 -0.0167156 0
M  V30 282 C 27.8338 1.95575 0.675128 0
M  V30 283 C 28.2488 0.892542 1.6637 0
M  V30 284 O 27.6058 -0.126912 1.82058 0
M  V30 285 C 27.6568 3.33608 1.39239 0
M  V30 286 O 27.3778 4.3585 0.443444 0
M  V30 287 C 28.8788 3.86151 2.17721 0
M  V30 288 H 26.0988 0.644423 0.186978 0
M  V30 289 H 28.6428 2.0437 -0.0728 0
M  V30 290 H 26.7978 3.2607 2.09182 0
M  V30 291 H 27.2118 5.158 0.951358 0
M  V30 292 H 28.6858 4.85114 2.63379 0
M  V30 293 H 29.1628 3.19738 3.01105 0
M  V30 294 H 29.7688 3.96918 1.52761 0
M  V30 295 N 28.0839 -0.256276 1.55502 0
M  V30 296 C 29.3299 -0.987079 1.77157 0
M  V30 297 C 29.6629 -1.85327 0.580315 0
M  V30 298 O 28.9379 -1.89874 -0.421686 0
M  V30 299 C 29.2209 -1.85553 3.08613 0
M  V30 300 C 29.0739 -1.01816 4.38125 0
M  V30 301 C 30.3929 -2.8397 3.36228 0
M  V30 302 H 27.5119 -0.357428 0.644526 0
M  V30 303 H 30.1539 -0.258239 1.88237 0
M  V30 304 H 28.3039 -2.47695 2.99298 0
M  V30 305 H 29.9759 -0.416159 4.59419 0
M  V30 306 H 28.2189 -0.322178 4.32602 0
M  V30 307 H 28.8899 -1.65939 5.26468 0
M  V30 308 H 31.3659 -2.31964 3.45445 0
M  V30 309 H 30.2419 -3.41864 4.29442 0
M  V30 310 H 30.5029 -3.59955 2.56681 0
M  V30 311 N 29.562 -1.4872 -0.521534 0
M  V30 312 C 30.839 -1.4766 -1.2828 0
M  V30 313 C 31.219 -0.19292 -2.10217 0
M  V30 314 O 30.567 0.825193 -2.13079 0
M  V30 315 C 30.777 -2.74358 -2.15705 0
M  V30 316 C 32.125 -3.23028 -2.75569 0
M  V30 317 O 33.149 -2.75333 -2.25987 0
M  V30 318 O 32.008 -4.0604 -3.65778 0
M  V30 319 H 29.102 -0.590085 -0.579421 0
M  V30 320 H 31.648 -1.60963 -0.537492 0
M  V30 321 H 30.42 -3.59292 -1.54999 0
M  V30 322 H 30.043 -2.63816 -2.97467 0
M  V30 323 N 31.0401 0.771051 -1.3745 0
M  V30 324 C 32.2701 1.55789 -1.35696 0
M  V30 325 C 32.6781 1.89107 0.0594523 0
M  V30 326 O 32.0211 1.51984 1.03183 0
M  V30 327 C 32.0831 2.89515 -2.13123 0
M  V30 328 C 31.7471 2.78829 -3.62082 0
M  V30 329 C 32.7441 2.49812 -4.5595 0
M  V30 330 C 30.4291 2.9683 -4.05213 0
M  V30 331 C 32.4231 2.38923 -5.90927 0
M  V30 332 C 30.1101 2.85562 -5.40276 0
M  V30 333 C 31.1081 2.56649 -6.32946 0
M  V30 334 O 30.7961 2.45408 -7.65526 0
M  V30 335 H 30.5281 0.489257 -0.466481 0
M  V30 336 H 33.0821 0.963446 -1.81403 0
M  V30 337 H 31.3121 3.51081 -1.62107 0
M  V30 338 H 33.0011 3.50915 -2.03994 0
M  V30 339 H 33.7671 2.3559 -4.23937 0
M  V30 340 H 29.6461 3.18335 -3.33442 0
M  V30 341 H 33.1901 2.16277 -6.63227 0
M  V30 342 H 29.0871 2.99351 -5.71891 0
M  V30 343 H 29.8551 2.60753 -7.75855 0
M  V30 344 N 32.5182 1.22032 0.997298 0
M  V30 345 C 33.9342 0.979326 1.26021 0
M  V30 346 C 34.1342 -0.32972 1.98784 0
M  V30 347 O 33.1902 -1.05345 2.29475 0
M  V30 348 C 34.5032 2.17509 2.07631 0
M  V30 349 C 36.0512 2.21817 2.2083 0
M  V30 350 C 36.5262 3.40933 3.05825 0
M  V30 351 N 38.0172 3.41067 3.13412 0
M  V30 352 C 38.7522 4.29885 3.79455 0
M  V30 353 N 38.2482 5.28914 4.47462 0
M  V30 354 N 40.0412 4.17673 3.76173 0
M  V30 355 H 32.1922 2.06202 0.509352 0
M  V30 356 H 34.4552 0.90334 0.287541 0
M  V30 357 H 34.1612 3.12415 1.61524 0
M  V30 358 H 34.0352 2.17206 3.08385 0
M  V30 359 H 36.4222 1.27462 2.66153 0
M  V30 360 H 36.5032 2.2616 1.1952 0
M  V30 361 H 36.1472 4.35586 2.61203 0
M  V30 362 H 36.0772 3.33829 4.07266 0
M  V30 363 H 38.5682 2.69406 2.65007 0
M  V30 364 H 38.8812 5.92973 4.95583 0
M  V30 365 H 37.2262 5.32831 4.46224 0
M  V30 366 H 40.4172 3.39564 3.22202 0
M  V30 367 H 40.5902 4.87098 4.27363 0
M  V30 368 N 33.9963 -1.19345 1.0293 0
M  V30 369 C 35.2243 -1.92997 0.745644 0
M  V30 370 C 35.6393 -1.75519 -0.695589 0
M  V30 371 O 34.9963 -1.07737 -1.47306 0
M  V30 372 C 35.0473 -3.44741 1.08792 0
M  V30 373 O 34.7683 -3.61658 2.47256 0
M  V30 374 C 36.2693 -4.35515 0.827129 0
M  V30 375 H 33.4893 -0.613042 0.272801 0
M  V30 376 H 36.0333 -1.51473 1.3739 0
M  V30 377 H 34.1883 -3.84097 0.504832 0
M  V30 378 H 34.6023 -4.55514 2.60015 0
M  V30 379 H 36.0763 -5.40589 1.11658 0
M  V30 380 H 36.5533 -4.38552 -0.238436 0
M  V30 381 H 37.1593 -4.01841 1.39297 0
M  V30 382 N 35.4744 -0.807222 -1.35358 0
M  V30 383 C 36.4374 -0.223665 -2.28106 0
M  V30 384 C 37.4374 0.589354 -1.4961 0
M  V30 385 O 38.6274 0.407745 -1.69361 0
M  V30 386 C 35.7594 0.688149 -3.33882 0
M  V30 387 H 36.9524 -1.04169 -2.81227 0
M  V30 388 H 34.5054 -0.577921 -1.45223 0
M  V30 389 H 35.2404 1.52984 -2.85948 0
M  V30 390 H 35.0254 0.10687 -3.91954 0
M  V30 391 H 36.5154 1.09075 -4.03104 0
M  V30 392 N 36.9525 1.47285 -0.560781 0
M  V30 393 C 38.1985 2.03347 -0.0463654 0
M  V30 394 C 38.5535 1.42702 1.2905 0
M  V30 395 O 37.8465 0.574619 1.8278 0
M  V30 396 C 38.0405 3.57258 0.100784 0
M  V30 397 C 37.8695 4.32827 -1.22027 0
M  V30 398 C 36.6395 4.72588 -1.78854 0
M  V30 399 C 38.8375 4.67739 -2.13834 0
M  V30 400 N 36.8195 5.32816 -3.04927 0
M  V30 401 C 38.1905 5.28307 -3.24487 0
M  V30 402 C 40.2455 4.49667 -2.13784 0
M  V30 403 C 38.9485 5.72711 -4.35194 0
M  V30 404 C 40.9745 4.95073 -3.23506 0
M  V30 405 C 40.3365 5.55693 -4.32879 0
M  V30 406 H 36.4355 0.779755 -0.0592166 0
M  V30 407 H 39.0195 1.79723 -0.748857 0
M  V30 408 H 37.1905 3.80642 0.772404 0
M  V30 409 H 38.9225 3.9996 0.617589 0
M  V30 410 H 35.6775 4.54656 -1.32609 0
M  V30 411 H 36.1015 5.67471 -3.69197 0
M  V30 412 H 40.7435 4.02154 -1.30507 0
M  V30 413 H 38.4615 6.19214 -5.1923 0
M  V30 414 H 42.0475 4.82859 -3.24559 0
M  V30 415 H 40.9275 5.90188 -5.1638 0
M  V30 416 N 38.4306 0.297415 1.54768 0
M  V30 417 C 39.3626 -0.613881 2.20826 0
M  V30 418 C 40.3756 -1.10032 1.19987 0
M  V30 419 O 41.5646 -1.01839 1.46598 0
M  V30 420 C 38.6646 -1.852 2.83821 0
M  V30 421 C 37.8376 -1.50865 4.10559 0
M  V30 422 C 36.8966 -2.60154 4.57391 0
M  V30 423 O 35.9226 -2.25398 5.2267 0
M  V30 424 N 37.1246 -3.90629 4.29406 0
M  V30 425 H 39.8896 -0.048389 2.99661 0
M  V30 426 H 37.4506 0.11946 1.61459 0
M  V30 427 H 39.4426 -2.57652 3.12086 0
M  V30 428 H 38.0126 -2.32597 2.08847 0
M  V30 429 H 37.2326 -0.616925 3.89343 0
M  V30 430 H 38.5206 -1.25458 4.9309 0
M  V30 431 H 37.9186 -4.21677 3.77101 0
M  V30 432 H 36.4756 -4.59391 4.62388 0
M  V30 433 N 39.9087 -1.5758 0.0250728 0
M  V30 434 C 40.8387 -2.13007 -0.956575 0
M  V30 435 C 41.8197 -1.0452 -1.342 0
M  V30 436 O 43.0047 -1.32332 -1.42133 0
M  V30 437 C 40.1347 -2.65386 -2.24026 0
M  V30 438 C 39.0887 -3.78623 -1.99571 0
M  V30 439 C 38.4147 -4.17414 -3.3417 0
M  V30 440 C 39.7147 -5.04867 -1.33814 0
M  V30 441 H 41.4087 -2.9528 -0.494991 0
M  V30 442 H 38.9547 -1.42042 -0.236651 0
M  V30 443 H 40.9077 -3.02794 -2.93076 0
M  V30 444 H 39.6317 -1.80268 -2.72343 0
M  V30 445 H 38.2907 -3.41646 -1.32941 0
M  V30 446 H 37.9387 -3.29284 -3.80238 0
M  V30 447 H 37.6387 -4.93719 -3.18615 0
M  V30 448 H 39.1627 -4.57402 -4.04495 0
M  V30 449 H 40.5767 -5.39888 -1.92857 0
M  V30 450 H 38.9737 -5.86144 -1.28669 0
M  V30 451 H 40.0437 -4.83904 -0.310561 0
M  V30 452 N 41.3868 0.248026 -1.55636 0
M  V30 453 C 42.3188 1.32993 -1.8667 0
M  V30 454 C 43.3318 1.44345 -0.752877 0
M  V30 455 O 44.5208 1.45715 -1.03098 0
M  V30 456 C 41.6208 2.70863 -2.03682 0
M  V30 457 C 40.7938 2.81792 -3.34532 0
M  V30 458 C 39.8528 4.005 -3.41301 0
M  V30 459 O 38.8788 3.9008 -4.14519 0
M  V30 460 N 40.0808 5.13618 -2.70512 0
M  V30 461 H 42.8458 1.06707 -2.8006 0
M  V30 462 H 40.4068 0.438129 -1.55859 0
M  V30 463 H 42.3988 3.48612 -2.05553 0
M  V30 464 H 40.9688 2.89862 -1.17041 0
M  V30 465 H 40.1888 1.90729 -3.44987 0
M  V30 466 H 41.4768 2.86043 -4.20781 0
M  V30 467 H 40.8748 5.24975 -2.10755 0
M  V30 468 H 39.4318 5.89505 -2.78077 0
M  V30 469 N 42.8649 1.48995 0.513639 0
M  V30 470 C 44.2809 1.35478 0.843682 0
M  V30 471 C 44.4809 0.378213 1.97919 0
M  V30 472 O 43.5369 -0.194689 2.51748 0
M  V30 473 C 44.8499 2.75901 1.1958 0
M  V30 474 C 46.3979 2.84509 1.30474 0
M  V30 475 C 46.8729 4.25671 1.69021 0
M  V30 476 N 48.3639 4.28422 1.76094 0
M  V30 477 C 49.0989 5.34601 2.07338 0
M  V30 478 N 48.5949 6.5104 2.36894 0
M  V30 479 N 50.3879 5.22007 2.08483 0
M  V30 480 H 42.5389 2.11092 -0.235328 0
M  V30 481 H 44.8019 0.947039 -0.0426669 0
M  V30 482 H 44.5079 3.49001 0.434913 0
M  V30 483 H 44.3819 3.10467 2.1422 0
M  V30 484 H 46.7689 2.11655 2.05637 0
M  V30 485 H 46.8499 2.53542 0.339155 0
M  V30 486 H 46.4939 4.99048 0.944135 0
M  V30 487 H 46.4239 4.54094 2.66658 0
M  V30 488 H 48.9149 3.44441 1.55464 0
M  V30 489 H 49.2279 7.2779 2.59887 0
M  V30 490 H 47.5729 6.54287 2.34378 0
M  V30 491 H 50.7639 4.30051 1.84861 0
M  V30 492 H 50.9369 6.04854 2.325 0
M  V30 493 N 44.343 -0.763751 1.37857 0
M  V30 494 C 45.253 -1.90817 1.36478 0
M  V30 495 C 46.269 -1.71997 0.263248 0
M  V30 496 O 47.445 -1.95095 0.499979 0
M  V30 497 C 44.51 -3.2605 1.17864 0
M  V30 498 C 43.571 -3.57467 2.3773 0
M  V30 499 C 42.804 -4.86249 2.19995 0
M  V30 500 O 43.027 -5.57884 1.18836 0
M  V30 501 O 41.961 -5.16911 3.08361 0
M  V30 502 H 45.787 -1.94933 2.32884 0
M  V30 503 H 43.372 -0.907619 1.1867 0
M  V30 504 H 45.254 -4.06924 1.09504 0
M  V30 505 H 43.929 -3.22769 0.245372 0
M  V30 506 H 42.836 -2.76796 2.51664 0
M  V30 507 H 44.169 -3.655 3.29652 0
M  V30 508 N 45.8211 -1.22559 -0.990812 0
M  V30 509 C 46.7511 -1.0218 -2.09956 0
M  V30 510 C 47.7321 0.0579394 -1.70001 0
M  V30 511 O 48.9171 -0.104684 -1.93918 0
M  V30 512 C 46.0471 -0.601023 -3.4206 0
M  V30 513 C 45.0011 -1.62694 -3.95872 0
M  V30 514 C 44.3271 -1.06193 -5.24049 0
M  V30 515 C 45.6271 -3.01743 -4.2632 0
M  V30 516 H 47.3211 -1.94916 -2.27262 0
M  V30 517 H 44.8671 -0.938566 -1.09211 0
M  V30 518 H 46.8201 -0.445561 -4.19038 0
M  V30 519 H 45.5441 0.362005 -3.24588 0
M  V30 520 H 44.2031 -1.77021 -3.21028 0
M  V30 521 H 43.8511 -0.0901903 -5.02919 0
M  V30 522 H 43.5511 -1.74732 -5.61019 0
M  V30 523 H 45.0751 -0.918092 -6.03658 0
M  V30 524 H 46.4891 -2.90777 -4.94087 0
M  V30 525 H 44.8861 -3.67425 -4.74467 0
M  V30 526 H 45.9561 -3.51518 -3.34011 0
M  V30 527 N 47.2992 1.18797 -1.03562 0
M  V30 528 C 48.2622 2.20464 -0.626769 0
M  V30 529 C 49.2622 1.57721 0.313173 0
M  V30 530 O 50.4522 1.73917 0.0992615 0
M  V30 531 C 47.5842 3.40802 0.0818498 0
M  V30 532 H 48.7772 2.58149 -1.5264 0
M  V30 533 H 46.3302 1.32593 -0.827578 0
M  V30 534 H 47.0652 3.08642 0.995518 0
M  V30 535 H 46.8502 3.8758 -0.593652 0
M  V30 536 H 48.3402 4.16092 0.354584 0
M  V30 537 N 48.7773 0.814389 1.34928 0
M  V30 538 C 50.0543 0.321363 1.92942 0
M  V30 539 C 50.4343 -1.19014 1.74353 0
M  V30 540 O 49.7823 -1.99328 1.11716 0
M  V30 541 C 49.9923 0.741323 3.41036 0
M  V30 542 C 51.3403 0.735266 4.18185 0
M  V30 543 O 52.3643 0.68336 3.49584 0
M  V30 544 O 51.2233 0.800703 5.40602 0
M  V30 545 H 48.3173 0.0858893 0.822528 0
M  V30 546 H 50.8633 0.898609 1.43955 0
M  V30 547 H 49.6353 1.78276 3.4833 0
M  V30 548 H 49.2583 0.139307 3.97356 0
M  V30 549 N 50.2554 -1.46986 0.568584 0
M  V30 550 C 51.2184 -2.28624 -0.162366 0
M  V30 551 C 52.2184 -1.37596 -0.832103 0
M  V30 552 O 53.4084 -1.60115 -0.68622 0
M  V30 553 C 50.5404 -3.17596 -1.23878 0
M  V30 554 H 51.7334 -2.94722 0.554899 0
M  V30 555 H 49.2864 -1.52863 0.325976 0
M  V30 556 H 50.0214 -2.56214 -1.98808 0
M  V30 557 H 49.8064 -3.846 -0.763219 0
M  V30 558 H 51.2964 -3.79078 -1.75185 0
M  V30 559 N 51.7335 -0.305618 -1.54608 0
M  V30 560 C 53.1495 0.0476228 -1.59529 0
M  V30 561 C 53.3495 1.52025 -1.32252 0
M  V30 562 O 52.4055 2.27368 -1.09818 0
M  V30 563 C 53.7185 -0.354471 -2.98603 0
M  V30 564 C 55.2665 -0.303622 -3.11524 0
M  V30 565 C 55.7415 -0.680608 -4.52915 0
M  V30 566 N 57.2325 -0.63332 -4.5885 0
M  V30 567 C 57.9675 -0.897432 -5.66334 0
M  V30 568 N 57.4635 -1.22775 -6.81834 0
M  V30 569 N 59.2565 -0.824186 -5.56025 0
M  V30 570 H 51.4075 -1.2653 -1.70599 0
M  V30 571 H 53.6705 -0.513291 -0.797017 0
M  V30 572 H 53.3765 -1.3798 -3.23503 0
M  V30 573 H 53.2505 0.289568 -3.76087 0
M  V30 574 H 55.6375 0.712472 -2.8637 0
M  V30 575 H 55.7185 -0.982348 -2.36185 0
M  V30 576 H 55.3625 -1.69453 -4.78799 0
M  V30 577 H 55.2925 0.0202385 -5.26596 0
M  V30 578 H 57.7835 -0.389138 -3.75891 0
M  V30 579 H 58.0965 -1.41513 -7.59733 0
M  V30 580 H 56.4415 -1.26583 -6.83375 0
M  V30 581 H 59.6325 -0.565748 -4.64669 0
M  V30 582 H 59.8055 -1.03338 -6.39707 0
M  V30 583 N 53.2116 1.57565 -0.0334293 0
M  V30 584 C 54.4576 1.92262 0.645226 0
M  V30 585 C 54.7906 0.910543 1.71531 0
M  V30 586 O 54.0656 -0.066099 1.94388 0
M  V30 587 C 54.3486 3.37422 1.2577 0
M  V30 588 C 54.2016 4.49369 0.196891 0
M  V30 589 C 55.5206 3.82628 2.17449 0
M  V30 590 H 52.6396 0.699171 0.233085 0
M  V30 591 H 55.2816 1.89779 -0.0915694 0
M  V30 592 H 53.4316 3.39669 1.88566 0
M  V30 593 H 55.1036 4.59254 -0.433962 0
M  V30 594 H 53.3466 4.31168 -0.477137 0
M  V30 595 H 54.0176 5.47978 0.665124 0
M  V30 596 H 56.4936 3.82145 1.64634 0
M  V30 597 H 55.3696 4.84883 2.57254 0
M  V30 598 H 55.6306 3.18376 3.0674 0
M  V30 599 N 54.6897 -0.239769 1.55765 0
M  V30 600 C 55.6527 -1.28038 1.90103 0
M  V30 601 C 56.6527 -1.40723 0.778055 0
M  V30 602 O 57.8427 -1.39301 1.04599 0
M  V30 603 C 54.9747 -2.65702 2.13577 0
M  V30 604 H 56.1677 -0.988048 2.83157 0
M  V30 605 H 53.7207 -0.479382 1.48767 0
M  V30 606 H 54.4557 -3.00063 1.23015 0
M  V30 607 H 54.2407 -2.57875 2.95369 0
M  V30 608 H 55.7307 -3.40828 2.41301 0
M  V30 609 N 56.1678 -1.49265 -0.50573 0
M  V30 610 C 57.4158 -1.582 -1.25766 0
M  V30 611 C 57.7368 -0.268482 -1.93143 0
M  V30 612 O 57.0068 0.711833 -1.8251 0
M  V30 613 H 55.5868 -0.582873 -0.467191 0
M  V30 614 H 58.2488 -1.85865 -0.586525 0
M  V30 615 H 57.3448 -2.37563 -2.02412 0
M  V30 616 N 57.6459 0.756429 -1.3826 0
M  V30 617 C 58.8939 1.51248 -1.34047 0
M  V30 618 C 59.2149 1.94875 0.0698372 0
M  V30 619 O 58.4849 1.67436 1.01696 0
M  V30 620 H 57.0649 0.561018 -0.493222 0
M  V30 621 H 59.7269 0.899347 -1.7291 0
M  V30 622 H 58.8229 2.40472 -1.98947 0
M  V30 623 N 59.124 1.23083 0.984299 0
M  V30 624 C 60.087 1.00979 2.05757 0
M  V30 625 C 61.087 -0.0269573 1.60777 0
M  V30 626 O 62.277 0.212403 1.729 0
M  V30 627 C 59.409 0.527072 3.36801 0
M  V30 628 H 60.602 1.9622 2.26799 0
M  V30 629 H 58.155 1.05072 1.15714 0
M  V30 630 H 58.89 -0.429294 3.21446 0
M  V30 631 H 58.675 1.27515 3.70786 0
M  V30 632 H 60.165 0.392942 4.15747 0
M  V30 633 N 60.6021 -1.18246 1.0419 0
M  V30 634 C 61.8791 -1.84121 0.660208 0
M  V30 635 C 62.2591 -1.92778 -0.860221 0
M  V30 636 O 61.6071 -1.45464 -1.76217 0
M  V30 637 C 61.8171 -3.22355 1.33747 0
M  V30 638 C 63.1651 -3.98376 1.46906 0
M  V30 639 O 64.1891 -3.31799 1.29568 0
M  V30 640 O 63.0481 -5.17665 1.75171 0
M  V30 641 H 60.1421 -0.794036 0.231161 0
M  V30 642 H 62.6881 -1.25628 1.14087 0
M  V30 643 H 61.4601 -3.10964 2.37522 0
M  V30 644 H 61.0831 -3.88506 0.845515 0
M  V30 645 N 62.0802 -0.821533 -1.34494 0
M  V30 646 C 63.3082 -0.421884 -2.02553 0
M  V30 647 C 63.7232 0.971745 -1.61872 0
M  V30 648 O 63.0802 1.62864 -0.823496 0
M  V30 649 C 63.1312 -0.51285 -3.57844 0
M  V30 650 O 62.8522 -1.85155 -3.97051 0
M  V30 651 C 64.3532 -0.107921 -4.43169 0
M  V30 652 H 61.5732 -0.169482 -0.649243 0
M  V30 653 H 64.1172 -1.1093 -1.71798 0
M  V30 654 H 62.2722 0.126474 -3.87193 0
M  V30 655 H 62.6862 -1.82482 -4.91732 0
M  V30 656 H 64.1602 -0.222657 -5.51551 0
M  V30 657 H 64.6372 0.948401 -4.28838 0
M  V30 658 H 65.2432 -0.720989 -4.19144 0
M  V30 659 N 63.5583 1.46682 -0.576371 0
M  V30 660 C 64.4883 2.33028 0.148397 0
M  V30 661 C 65.4693 1.44961 0.889956 0
M  V30 662 O 66.6543 1.73789 0.866662 0
M  V30 663 C 63.7843 3.27117 1.1667 0
M  V30 664 C 62.7383 4.24575 0.540386 0
M  V30 665 C 62.0643 5.08126 1.6647 0
M  V30 666 C 63.3643 5.19722 -0.518331 0
M  V30 667 H 65.0583 2.93875 -0.572509 0
M  V30 668 H 62.6043 1.41315 -0.276768 0
M  V30 669 H 64.5573 3.86374 1.68204 0
M  V30 670 H 63.2813 2.64364 1.9178 0
M  V30 671 H 61.9403 3.66571 0.0461769 0
M  V30 672 H 61.5883 4.41762 2.40531 0
M  V30 673 H 61.2883 5.74122 1.25131 0
M  V30 674 H 62.8123 5.70246 2.18293 0
M  V30 675 H 64.2263 5.73232 -0.0883058 0
M  V30 676 H 62.6233 5.94026 -0.851679 0
M  V30 677 H 63.6933 4.64037 -1.40703 0
M  V30 678 N 65.0364 0.313813 1.54444 0
M  V30 679 C 65.9664 -0.549454 2.26943 0
M  V30 680 C 66.9474 -1.12741 1.27372 0
M  V30 681 O 68.1324 -1.15436 1.56167 0
M  V30 682 C 65.2624 -1.71523 3.01989 0
M  V30 683 C 64.2164 -1.26703 4.08816 0
M  V30 684 C 63.5424 -2.51898 4.71647 0
M  V30 685 C 64.8424 -0.388962 5.2085 0
M  V30 686 H 66.5364 0.0552661 2.99349 0
M  V30 687 H 64.0824 0.0280207 1.43973 0
M  V30 688 H 66.0354 -2.32535 3.51433 0
M  V30 689 H 64.7594 -2.34639 2.27183 0
M  V30 690 H 63.4184 -0.679896 3.6024 0
M  V30 691 H 63.0664 -3.13356 3.93468 0
M  V30 692 H 62.7664 -2.22605 5.43802 0
M  V30 693 H 64.2904 -3.1369 5.23861 0
M  V30 694 H 65.7044 -0.905107 5.6611 0
M  V30 695 H 64.1014 -0.18924 5.99802 0
M  V30 696 H 65.1714 0.582699 4.81386 0
M  V30 697 N 66.5145 -1.57545 0.0417849 0
M  V30 698 C 67.4445 -2.14009 -0.933929 0
M  V30 699 C 68.4255 -1.05938 -1.33083 0
M  V30 700 O 69.6105 -1.33833 -1.40721 0
M  V30 701 C 66.7405 -2.67747 -2.21199 0
M  V30 702 C 65.6945 -3.80718 -1.95544 0
M  V30 703 C 65.0205 -4.20935 -3.29724 0
M  V30 704 C 66.3205 -5.06258 -1.28452 0
M  V30 705 H 68.0145 -2.95788 -0.463645 0
M  V30 706 H 65.5605 -1.42285 -0.221573 0
M  V30 707 H 67.5135 -3.05886 -2.89848 0
M  V30 708 H 66.2375 -1.83147 -2.70416 0
M  V30 709 H 64.8965 -3.43037 -1.2931 0
M  V30 710 H 64.5445 -3.33298 -3.76724 0
M  V30 711 H 64.2445 -4.9707 -3.13361 0
M  V30 712 H 65.7685 -4.61666 -3.9962 0
M  V30 713 H 67.1825 -5.41903 -1.8712 0
M  V30 714 H 65.5795 -5.87475 -1.22445 0
M  V30 715 H 66.6495 -4.84207 -0.259219 0
M  V30 716 N 67.9926 0.231505 -1.5589 0
M  V30 717 C 68.9226 1.29022 -1.94617 0
M  V30 718 C 69.9036 1.4941 -0.813067 0
M  V30 719 O 71.0886 1.6176 -1.07459 0
M  V30 720 C 68.2186 2.64199 -2.25424 0
M  V30 721 C 67.1726 2.58484 -3.41131 0
M  V30 722 C 66.4986 3.97599 -3.57518 0
M  V30 723 C 67.7986 2.1413 -4.76388 0
M  V30 724 H 69.4926 0.968563 -2.83301 0
M  V30 725 H 67.0386 0.464479 -1.36303 0
M  V30 726 H 68.9916 3.38413 -2.51107 0
M  V30 727 H 67.7156 2.98032 -1.33583 0
M  V30 728 H 66.3746 1.86727 -3.15481 0
M  V30 729 H 66.0226 4.28723 -2.6307 0
M  V30 730 H 65.7226 3.94659 -4.35337 0
M  V30 731 H 67.2466 4.7349 -3.85538 0
M  V30 732 H 68.6606 2.78083 -5.01341 0
M  V30 733 H 67.0576 2.2227 -5.57419 0
M  V30 734 H 68.1276 1.09331 -4.72414 0
M  V30 735 N 69.4707 1.49531 0.497807 0
M  V30 736 C 70.3807 1.69176 1.62532 0
M  V30 737 C 71.3967 0.5744 1.64246 0
M  V30 738 O 72.5727 0.849497 1.82608 0
M  V30 739 C 69.6377 1.75695 2.98885 0
M  V30 740 C 68.6987 2.9929 3.07773 0
M  V30 741 C 67.9317 3.05488 4.37622 0
M  V30 742 O 68.1547 2.19192 5.26603 0
M  V30 743 O 67.0887 3.9798 4.51548 0
M  V30 744 H 70.9147 2.647 1.48887 0
M  V30 745 H 68.4997 1.3331 0.674441 0
M  V30 746 H 70.3817 1.82317 3.79919 0
M  V30 747 H 69.0567 0.8335 3.12785 0
M  V30 748 H 67.9637 2.98183 2.25915 0
M  V30 749 H 69.2967 3.91125 2.98801 0
M  V30 750 N 70.9488 -0.749086 1.3866 0
M  V30 751 C 71.8988 -1.85368 1.32751 0
M  V30 752 C 72.8828 -1.59511 0.210945 0
M  V30 753 O 74.0748 -1.71255 0.447299 0
M  V30 754 C 71.2038 -3.23131 1.15935 0
M  V30 755 C 70.2898 -3.54864 2.32233 0
M  V30 756 N 70.6808 -3.57625 3.57684 0
M  V30 757 C 68.9788 -3.85154 2.24883 0
M  V30 758 C 69.6798 -3.86753 4.34508 0
M  V30 759 N 68.6558 -4.03812 3.63918 0
M  V30 760 H 72.4578 -1.85787 2.27729 0
M  V30 761 H 69.9718 -0.946658 1.31955 0
M  V30 762 H 71.9688 -4.02185 1.09786 0
M  V30 763 H 70.6288 -3.23961 0.218947 0
M  V30 764 H 71.6398 -3.39276 3.91295 0
M  V30 765 H 68.3168 -3.93672 1.39027 0
M  V30 766 H 69.7068 -3.95474 5.43185 0
M  V30 767 N 72.4269 -1.23603 -0.977757 0
M  V30 768 C 73.8379 -1.06424 -1.53398 0
M  V30 769 C 74.1889 0.367578 -1.92726 0
M  V30 770 O 73.3139 1.25465 -1.76316 0
M  V30 771 C 73.9089 -1.92568 -2.78753 0
M  V30 772 C 72.4679 -1.79642 -3.30765 0
M  V30 773 C 71.6149 -1.88111 -2.03739 0
M  V30 774 H 74.5659 -1.37227 -0.797152 0
M  V30 775 H 74.5869 -1.45203 -3.51705 0
M  V30 776 H 74.0989 -2.96771 -2.50098 0
M  V30 777 H 72.1999 -0.782325 -3.64294 0
M  V30 778 H 72.3129 -2.63174 -4.00345 0
M  V30 779 H 70.6769 -1.31723 -2.17994 0
M  V30 780 H 71.4599 -2.93875 -1.77461 0
M  V30 781 N 73.905 1.17692 -1.04816 0
M  V30 782 C 74.868 2.19787 -0.650117 0
M  V30 783 C 75.868 1.58044 0.296427 0
M  V30 784 O 77.058 1.74012 0.0808097 0
M  V30 785 C 74.19 3.40869 0.0456987 0
M  V30 786 H 75.383 2.56516 -1.5537 0
M  V30 787 H 72.936 1.31708 -0.841594 0
M  V30 788 H 73.671 3.09681 0.962726 0
M  V30 789 H 73.456 3.86928 -0.634727 0
M  V30 790 H 74.946 4.16445 0.310432 0
M  V30 791 N 75.3831 0.828654 1.34056 0
M  V30 792 C 76.6291 0.42008 1.98402 0
M  V30 793 C 76.9621 -1.01564 1.65525 0
M  V30 794 O 76.2371 -1.70834 0.929831 0
M  V30 795 C 76.5201 0.62927 3.54559 0
M  V30 796 C 76.3731 2.11152 3.97159 0
M  V30 797 C 77.6921 0.0688756 4.40046 0
M  V30 798 H 74.8111 0.154104 0.720709 0
M  V30 799 H 77.4531 1.04228 1.5886 0
M  V30 800 H 75.6031 0.0996418 3.88372 0
M  V30 801 H 77.2751 2.70522 3.73651 0
M  V30 802 H 75.5181 2.59985 3.47261 0
M  V30 803 H 76.1891 2.20868 5.05887 0
M  V30 804 H 78.6651 0.521458 4.1282 0
M  V30 805 H 77.5411 0.245006 5.48353 0
M  V30 806 H 77.8021 -1.0266 4.30015 0
M  V30 807 N 76.8612 -1.46375 0.584142 0
M  V30 808 C 78.0912 -2.06461 0.0758195 0
M  V30 809 C 78.4992 -1.43322 -1.23512 0
M  V30 810 O 77.8422 -0.533216 -1.75791 0
M  V30 811 C 77.9042 -3.59131 -0.162773 0
M  V30 812 C 77.5682 -4.4447 1.06279 0
M  V30 813 C 78.5652 -4.80918 1.97519 0
M  V30 814 C 76.2502 -4.85584 1.28504 0
M  V30 815 C 78.2442 -5.57309 3.09331 0
M  V30 816 C 75.9312 -5.61734 2.4062 0
M  V30 817 C 76.9292 -5.9751 3.30863 0
M  V30 818 O 76.6172 -6.72121 4.41032 0
M  V30 819 H 76.3492 -0.673745 0.0551725 0
M  V30 820 H 78.9032 -1.88969 0.804984 0
M  V30 821 H 77.1332 -3.74936 -0.946565 0
M  V30 822 H 78.8222 -4.0114 -0.619782 0
M  V30 823 H 79.5882 -4.49732 1.81565 0
M  V30 824 H 75.4672 -4.57187 0.591702 0
M  V30 825 H 79.0112 -5.85152 3.79793 0
M  V30 826 H 74.9082 -5.92334 2.56537 0
M  V30 827 H 75.6762 -6.90547 4.39417 0
M  V30 828 N 78.3393 -0.321999 -1.54275 0
M  V30 829 C 79.5673 0.283052 -2.04955 0
M  V30 830 C 79.9823 1.45904 -1.19823 0
M  V30 831 O 79.3393 1.81063 -0.228545 0
M  V30 832 C 79.3903 0.719028 -3.54277 0
M  V30 833 O 79.1113 -0.410175 -4.36176 0
M  V30 834 C 80.6123 1.38705 -4.21041 0
M  V30 835 H 77.8323 0.0584616 -0.668448 0
M  V30 836 H 80.3763 -0.467734 -1.99079 0
M  V30 837 H 78.5313 1.41979 -3.60445 0
M  V30 838 H 78.9453 -0.0669416 -5.24457 0
M  V30 839 H 80.4193 1.64306 -5.2698 0
M  V30 840 H 80.8963 2.33385 -3.72059 0
M  V30 841 H 81.5023 0.728906 -4.19007 0
M  V30 842 N 79.8174 1.5752 -0.0501392 0
M  V30 843 C 80.7804 2.1037 0.909786 0
M  V30 844 C 81.7804 1.02308 1.24056 0
M  V30 845 O 82.9704 1.28385 1.17741 0
M  V30 846 C 80.1024 2.58708 2.21998 0
M  V30 847 H 81.2954 2.96479 0.451665 0
M  V30 848 H 78.8484 1.55038 0.198248 0
M  V30 849 H 79.5834 1.75989 2.72394 0
M  V30 850 H 79.3684 3.37675 1.99295 0
M  V30 851 H 80.8584 2.99747 2.9076 0
M  V30 852 N 81.2955 -0.223234 1.56011 0
M  V30 853 C 82.5435 -0.946003 1.78592 0
M  V30 854 C 82.8645 -1.84936 0.618349 0
M  V30 855 O 82.1345 -1.92473 -0.364833 0
M  V30 856 H 80.7145 -0.352298 0.658707 0
M  V30 857 H 83.3765 -0.235494 1.93472 0
M  V30 858 H 82.4725 -1.55381 2.70672 0
M  V30 859 N 82.7736 -1.49793 -0.48987 0
M  V30 860 C 84.1896 -1.36803 -0.822022 0
M  V30 861 C 84.3896 -0.409652 -1.97292 0
M  V30 862 O 83.4456 0.154614 -2.52026 0
M  V30 863 C 84.7586 -2.77768 -1.15175 0
M  V30 864 C 86.3066 -2.86549 -1.25931 0
M  V30 865 C 86.7816 -4.28306 -1.62228 0
M  V30 866 N 88.2726 -4.31169 -1.69256 0
M  V30 867 C 89.0076 -5.37832 -1.98807 0
M  V30 868 N 88.5036 -6.54726 -2.26507 0
M  V30 869 N 90.2966 -5.25258 -2.00152 0
M  V30 870 H 82.4476 -2.10691 0.268881 0
M  V30 871 H 84.7106 -0.946241 0.057728 0
M  V30 872 H 84.4166 -3.49648 -0.379335 0
M  V30 873 H 84.2906 -3.13836 -2.09253 0
M  V30 874 H 86.6776 -2.14899 -2.02243 0
M  V30 875 H 86.7586 -2.54049 -0.298776 0
M  V30 876 H 86.4026 -5.00486 -0.864622 0
M  V30 877 H 86.3326 -4.58279 -2.594 0
M  V30 878 H 88.8236 -3.4687 -1.49965 0
M  V30 879 H 89.1366 -7.31833 -2.48276 0
M  V30 880 H 87.4816 -6.57933 -2.23939 0
M  V30 881 H 90.6726 -4.32938 -1.77996 0
M  V30 882 H 90.8456 -6.08476 -2.22848 0
M  V30 883 N 84.2517 0.741722 -1.39055 0
M  V30 884 C 85.6677 1.04638 -1.20512 0
M  V30 885 C 85.8677 2.01405 -0.0620218 0
M  V30 886 O 84.9237 2.45547 0.588457 0
M  V30 887 C 86.2367 1.6151 -2.53643 0
M  V30 888 C 87.7847 1.73623 -2.6043 0
M  V30 889 C 88.2597 2.33906 -3.93767 0
M  V30 890 N 89.7507 2.41323 -3.9537 0
M  V30 891 C 90.4857 2.88888 -4.95309 0
M  V30 892 N 89.9817 3.36401 -6.05645 0
M  V30 893 N 91.7747 2.88037 -4.82692 0
M  V30 894 H 83.9257 0.0998155 -2.12165 0
M  V30 895 H 86.1887 0.106907 -0.941953 0
M  V30 896 H 85.8947 0.978739 -3.37807 0
M  V30 897 H 85.7687 2.60411 -2.72885 0
M  V30 898 H 88.1557 2.36384 -1.76655 0
M  V30 899 H 88.2367 0.733945 -2.45045 0
M  V30 900 H 87.8807 1.71776 -4.7797 0
M  V30 901 H 87.8107 3.34799 -4.06469 0
M  V30 902 H 90.3017 2.07734 -3.15682 0
M  V30 903 H 90.6147 3.71186 -6.77821 0
M  V30 904 H 88.9597 3.34427 -6.09248 0
M  V30 905 H 92.1507 2.50237 -3.95599 0
M  V30 906 H 92.3237 3.24792 -5.60726 0
M  V30 907 N 85.7298 1.2412 0.971189 0
M  V30 908 C 86.9578 1.10575 1.74874 0
M  V30 909 C 87.3728 -0.342017 1.85676 0
M  V30 910 O 86.7298 -1.23617 1.34258 0
M  V30 911 C 86.7808 1.73579 3.171 0
M  V30 912 O 86.5018 3.12695 3.06844 0
M  V30 913 C 88.0028 1.65598 4.11208 0
M  V30 914 H 85.2228 0.386504 0.548503 0
M  V30 915 H 87.7668 1.64156 1.21955 0
M  V30 916 H 85.9218 1.24009 3.67016 0
M  V30 917 H 86.3358 3.43412 3.96445 0
M  V30 918 H 87.8098 2.1437 5.08674 0
M  V30 919 H 88.2868 0.616532 4.34851 0
M  V30 920 H 88.8928 2.14578 3.67201 0
M  V30 921 N 87.2079 -1.17134 1.05439 0
M  V30 922 C 88.1179 -2.24878 0.668365 0
M  V30 923 C 89.1339 -1.71186 -0.311687 0
M  V30 924 O 90.3099 -2.00738 -0.163161 0
M  V30 925 C 87.3749 -3.46662 0.051648 0
M  V30 926 C 86.4359 -4.15429 1.08246 0
M  V30 927 C 85.6689 -5.31399 0.495082 0
M  V30 928 O 85.8919 -5.66153 -0.694743 0
M  V30 929 O 84.8259 -5.89187 1.23056 0
M  V30 930 H 88.6519 -2.60189 1.56637 0
M  V30 931 H 86.2369 -1.24482 0.826104 0
M  V30 932 H 88.1189 -4.20394 -0.290966 0
M  V30 933 H 86.7939 -3.13142 -0.819971 0
M  V30 934 H 85.7009 -3.43704 1.47711 0
M  V30 935 H 87.0339 -4.52982 1.92532 0
M  V30 936 N 88.686 -0.835752 -1.33615 0
M  V30 937 C 89.914 -0.443344 -2.02094 0
M  V30 938 C 90.329 0.954522 -1.62894 0
M  V30 939 O 89.686 1.61982 -0.840723 0
M  V30 940 C 89.737 -0.550775 -3.5728 0
M  V30 941 O 89.458 -1.89356 -3.95065 0
M  V30 942 C 90.959 -0.154919 -4.43029 0
M  V30 943 H 88.179 -0.176359 -0.647409 0
M  V30 944 H 90.723 -1.12746 -1.70612 0
M  V30 945 H 88.878 0.0853997 -3.87306 0
M  V30 946 H 89.292 -1.87687 -4.89769 0
M  V30 947 H 90.766 -0.281144 -5.51284 0
M  V30 948 H 91.243 0.902863 -4.2982 0
M  V30 949 H 91.849 -0.765404 -4.18356 0
M  V30 950 N 90.1641 1.46063 -0.591896 0
M  V30 951 C 91.1141 2.27458 0.157172 0
M  V30 952 C 92.0981 1.3641 0.853301 0
M  V30 953 O 93.2901 1.60517 0.74588 0
M  V30 954 C 90.4191 3.22956 1.16423 0
M  V30 955 C 89.5051 4.2149 0.469742 0
M  V30 956 N 89.8961 5.03519 -0.479839 0
M  V30 957 C 88.1941 4.40161 0.719319 0
M  V30 958 C 88.8951 5.74904 -0.886591 0
M  V30 959 N 87.8711 5.43097 -0.233731 0
M  V30 960 H 91.6731 2.88272 -0.572392 0
M  V30 961 H 89.1871 1.57024 -0.414375 0
M  V30 962 H 91.1841 3.79986 1.71513 0
M  V30 963 H 89.8441 2.63701 1.89451 0
M  V30 964 H 90.8551 5.1078 -0.855823 0
M  V30 965 H 87.5321 3.92046 1.43548 0
M  V30 966 H 88.9221 6.50844 -1.66888 0
M  V30 967 N 91.6422 0.330177 1.54103 0
M  V30 968 C 92.5522 -0.541534 2.28264 0
M  V30 969 C 93.5682 -1.12351 1.32866 0
M  V30 970 O 94.7442 -1.14206 1.65888 0
M  V30 971 C 91.8092 -1.68322 3.03098 0
M  V30 972 C 90.8702 -1.13238 4.14096 0
M  V30 973 C 90.1032 -2.21966 4.85352 0
M  V30 974 O 90.3262 -3.42437 4.56172 0
M  V30 975 O 89.2602 -1.87013 5.7211 0
M  V30 976 H 93.0862 0.060938 3.03639 0
M  V30 977 H 90.6712 0.09565 1.49093 0
M  V30 978 H 92.5532 -2.34777 3.49939 0
M  V30 979 H 91.2282 -2.27176 2.30593 0
M  V30 980 H 90.1352 -0.432736 3.71589 0
M  V30 981 H 91.4682 -0.588898 4.88664 0
M  V30 982 N 93.1203 -1.57491 0.0584922 0
M  V30 983 C 94.5363 -1.56792 -0.298091 0
M  V30 984 C 94.7363 -1.06679 -1.70944 0
M  V30 985 O 93.7923 -0.726672 -2.41818 0
M  V30 986 C 95.1053 -3.00461 -0.119879 0
M  V30 987 C 96.6533 -3.1242 -0.190428 0
M  V30 988 C 97.1283 -4.57982 -0.0406567 0
M  V30 989 N 98.6193 -4.63099 -0.0966958 0
M  V30 990 C 99.3543 -5.734 -0.00502943 0
M  V30 991 N 98.8503 -6.9266 0.139402 0
M  V30 992 N 100.643 -5.62067 -0.0611391 0
M  V30 993 H 92.7943 -1.88386 0.98105 0
M  V30 994 H 95.0573 -0.867865 0.381463 0
M  V30 995 H 94.7633 -3.41187 0.85349 0
M  V30 996 H 94.6373 -3.66843 -0.877833 0
M  V30 997 H 97.0243 -2.71589 -1.15427 0
M  V30 998 H 97.1053 -2.48702 0.598405 0
M  V30 999 H 96.7493 -4.995 0.919897 0
M  V30 1000 H 96.6793 -5.19715 -0.848727 0
M  V30 1001 H 99.1703 -3.77331 -0.207277 0
M  V30 1002 H 99.4833 -7.72536 0.201855 0
M  V30 1003 H 97.8283 -6.94781 0.174586 0
M  V30 1004 H 101.019 -4.67782 -0.172583 0
M  V30 1005 H 101.192 -6.47999 0.0137562 0
M  V30 1006 N 94.5984 0.214957 -1.56127 0
M  V30 1007 C 96.0094 0.781386 -1.69562 0
M  V30 1008 C 96.3604 1.84707 -0.66165 0
M  V30 1009 O 95.4854 2.156 0.185927 0
M  V30 1010 C 96.0804 1.42411 -3.07416 0
M  V30 1011 C 94.6394 1.93786 -3.22683 0
M  V30 1012 C 93.7864 0.800438 -2.65496 0
M  V30 1013 H 96.7374 -0.00980633 -1.58697 0
M  V30 1014 H 96.7584 2.29309 -3.0364 0
M  V30 1015 H 96.2704 0.64826 -3.82648 0
M  V30 1016 H 94.3714 2.74152 -2.52332 0
M  V30 1017 H 94.4844 2.1133 -4.29973 0
M  V30 1018 H 92.8484 1.2095 -2.2415 0
M  V30 1019 H 93.6314 0.0371471 -3.4328 0
M  V30 1020 N 96.0765 1.50051 0.48192 0
M  V30 1021 C 97.3255 1.59741 1.23149 0
M  V30 1022 C 97.6385 0.298163 1.93314 0
M  V30 1023 O 98.8445 0.273835 2.70116 0
M  V30 1024 C 97.3005 2.81926 2.23708 0
M  V30 1025 C 96.9085 4.18685 1.59396 0
M  V30 1026 C 98.6525 3.00956 2.99375 0
M  V30 1027 C 96.5595 5.3207 2.58178 0
M  V30 1028 H 95.4895 0.594838 0.46334 0
M  V30 1029 H 98.1405 1.76467 0.503169 0
M  V30 1030 H 96.5225 2.58736 2.99786 0
M  V30 1031 H 97.6965 4.52088 0.891811 0
M  V30 1032 H 96.0115 4.05171 0.960503 0
M  V30 1033 H 98.6085 3.82836 3.73283 0
M  V30 1034 H 98.9515 2.12258 3.58123 0
M  V30 1035 H 99.4845 3.24277 2.30411 0
M  V30 1036 H 96.2235 6.22888 2.04184 0
M  V30 1037 H 95.7435 5.03098 3.26577 0
M  V30 1038 H 97.4225 5.62196 3.20225 0
M  V30 1039 N 97.5546 -0.734337 1.39446 0
M  V30 1040 C 98.8316 -1.48579 1.27215 0
M  V30 1041 C 99.2116 -2.1077 -0.117968 0
M  V30 1042 O 98.5596 -1.98646 -1.12924 0
M  V30 1043 C 98.7696 -2.53667 2.39696 0
M  V30 1044 C 100.118 -3.20031 2.79044 0
M  V30 1045 O 101.142 -2.6398 2.39151 0
M  V30 1046 O 100.001 -4.21455 3.47905 0
M  V30 1047 H 97.0946 -0.659816 0.49857 0
M  V30 1048 H 99.6406 -0.768106 1.51322 0
M  V30 1049 H 98.4126 -2.06096 3.32626 0
M  V30 1050 H 98.0356 -3.32994 2.17258 0
M  V30 1051 N 99.0327 -1.24633 -0.964593 0
M  V30 1052 C 100.281 -1.08573 -1.70459 0
M  V30 1053 C 100.602 0.375655 -1.91347 0
M  V30 1054 O 99.8717 1.26779 -1.49345 0
M  V30 1055 H 98.4517 -0.398784 -0.631649 0
M  V30 1056 H 101.114 -1.56601 -1.16026 0
M  V30 1057 H 100.21 -1.58623 -2.68785 0
M  V30 1058 N 100.511 1.16574 -1.06058 0
M  V30 1059 C 101.739 1.90952 -0.796552 0
M  V30 1060 C 102.154 1.77302 0.648808 0
M  V30 1061 O 101.511 1.11605 1.44397 0
M  V30 1062 C 101.562 3.41736 -1.17894 0
M  V30 1063 O 101.283 3.54975 -2.56758 0
M  V30 1064 C 102.784 4.33169 -0.942308 0
M  V30 1065 H 100.004 0.605594 -0.288959 0
M  V30 1066 H 102.548 1.47777 -1.41358 0
M  V30 1067 H 100.703 3.82623 -0.606491 0
M  V30 1068 H 101.117 4.4846 -2.72 0
M  V30 1069 H 102.591 5.37439 -1.25952 0
M  V30 1070 H 103.068 4.3903 0.122078 0
M  V30 1071 H 103.674 3.98007 -1.49902 0
M  V30 1072 N 101.989 0.842826 1.3317 0
M  V30 1073 C 103.4 0.496651 1.79973 0
M  V30 1074 C 103.751 -0.984641 1.69703 0
M  V30 1075 O 102.876 -1.76743 1.24863 0
M  V30 1076 C 103.471 0.894727 3.26772 0
M  V30 1077 C 102.03 0.600629 3.71577 0
M  V30 1078 C 101.177 1.10091 2.5451 0
M  V30 1079 H 104.128 1.03116 1.20635 0
M  V30 1080 H 104.149 0.206347 3.7994 0
M  V30 1081 H 103.661 1.97287 3.34215 0
M  V30 1082 H 101.762 -0.467284 3.69658 0
M  V30 1083 H 101.875 1.15863 4.64879 0
M  V30 1084 H 100.239 0.52162 2.49301 0
M  V30 1085 H 101.022 2.18591 2.64713 0
M  V30 1086 N 103.467 -1.45747 0.599634 0
M  V30 1087 C 104.713 -2.02592 0.0918643 0
M  V30 1088 C 105.046 -1.46806 -1.27128 0
M  V30 1089 O 104.321 -0.639658 -1.83681 0
M  V30 1090 C 104.604 -3.60073 0.0443398 0
M  V30 1091 C 104.457 -4.26208 1.43759 0
M  V30 1092 C 105.776 -4.35309 -0.647608 0
M  V30 1093 H 102.895 -0.736175 0.034857 0
M  V30 1094 H 105.537 -1.73694 0.770081 0
M  V30 1095 H 103.687 -3.84823 -0.533224 0
M  V30 1096 H 105.359 -4.12668 2.06162 0
M  V30 1097 H 103.602 -3.84916 2.00056 0
M  V30 1098 H 104.273 -5.35069 1.35665 0
M  V30 1099 H 106.749 -4.15805 -0.156776 0
M  V30 1100 H 105.625 -5.45038 -0.649942 0
M  V30 1101 H 105.886 -4.07598 -1.71219 0
M  V30 1102 N 104.945 -0.338344 -1.53925 0
M  V30 1103 C 106.191 0.260143 -2.01125 0
M  V30 1104 C 106.524 1.50617 -1.22589 0
M  V30 1105 O 105.799 1.91979 -0.312113 0
M  V30 1106 C 106.082 0.579499 -3.55407 0
M  V30 1107 C 105.935 -0.678264 -4.44657 0
M  V30 1108 C 107.254 1.39122 -4.17532 0
M  V30 1109 H 104.373 0.0930772 -0.731099 0
M  V30 1110 H 107.015 -0.457852 -1.84401 0
M  V30 1111 H 105.165 1.19118 -3.69788 0
M  V30 1112 H 106.837 -1.31631 -4.42121 0
M  V30 1113 H 105.08 -1.3042 -4.13731 0
M  V30 1114 H 105.751 -0.410143 -5.50474 0
M  V30 1115 H 108.227 0.874035 -4.06817 0
M  V30 1116 H 107.103 1.58342 -5.25565 0
M  V30 1117 H 107.364 2.39178 -3.71815 0
M  V30 1118 N 106.423 1.57458 -0.0668435 0
M  V30 1119 C 107.7 1.8469 0.644132 0
M  V30 1120 C 108.08 0.958343 1.88093 0
M  V30 1121 O 107.428 0.0233579 2.28488 0
M  V30 1122 C 107.638 3.34767 0.986509 0
M  V30 1123 C 108.986 4.02159 1.36212 0
M  V30 1124 O 110.01 3.39484 1.07839 0
M  V30 1125 O 108.869 5.12694 1.89227 0
M  V30 1126 H 105.963 0.762816 0.319437 0
M  V30 1127 H 108.509 1.6942 -0.0973986 0
M  V30 1128 H 107.281 3.91151 0.107883 0
M  V30 1129 H 106.904 3.55281 1.78497 0
M  V30 1130 N 107.901 -0.206675 1.56239 0
M  V30 1131 C 109.129 -0.945345 1.8404 0
M  V30 1132 C 109.544 -1.77336 0.647885 0
M  V30 1133 O 108.901 -1.78425 -0.383511 0
M  V30 1134 C 108.952 -1.8509 3.10522 0
M  V30 1135 O 108.673 -1.05634 4.25174 0
M  V30 1136 C 110.174 -2.70222 3.51418 0
M  V30 1137 H 107.394 -0.276372 0.61144 0
M  V30 1138 H 109.938 -0.217417 2.03341 0
M  V30 1139 H 108.093 -2.53259 2.93153 0
M  V30 1140 H 108.507 -1.67238 4.97124 0
M  V30 1141 H 109.981 -3.29438 4.42916 0
M  V30 1142 H 110.458 -3.43358 2.73864 0
M  V30 1143 H 111.064 -2.07443 3.71278 0
M  V30 1144 N 109.379 -1.50304 -0.473955 0
M  V30 1145 C 110.656 -1.51667 -1.23518 0
M  V30 1146 C 111.036 -0.259701 -2.09496 0
M  V30 1147 O 110.384 0.756986 -2.15597 0
M  V30 1148 C 110.594 -2.81082 -2.06868 0
M  V30 1149 C 111.942 -3.31631 -2.65153 0
M  V30 1150 O 112.966 -2.82384 -2.17113 0
M  V30 1151 O 111.825 -4.17471 -3.52675 0
M  V30 1152 H 108.919 -0.60822 -0.560355 0
M  V30 1153 H 111.465 -1.62592 -0.486011 0
M  V30 1154 H 110.237 -3.64041 -1.4349 0
M  V30 1155 H 109.86 -2.73146 -2.88924 0
M  V30 1156 N 110.857 0.726932 -1.39834 0
M  V30 1157 C 112.273 1.03354 -1.21615 0
M  V30 1158 C 112.473 2.01327 -0.08338 0
M  V30 1159 O 111.529 2.46158 0.56238 0
M  V30 1160 C 112.842 1.58811 -2.55342 0
M  V30 1161 C 114.39 1.70851 -2.62257 0
M  V30 1162 C 114.865 2.29716 -3.96225 0
M  V30 1163 N 116.356 2.37116 -3.97907 0
M  V30 1164 C 117.091 2.83619 -4.98345 0
M  V30 1165 N 116.587 3.29958 -6.09179 0
M  V30 1166 N 118.38 2.82901 -4.8572 0
M  V30 1167 H 110.531 0.0773069 -2.12259 0
M  V30 1168 H 112.794 0.0969102 -0.943034 0
M  V30 1169 H 112.5 0.942855 -3.38826 0
M  V30 1170 H 112.374 2.57502 -2.75632 0
M  V30 1171 H 114.761 2.34497 -1.79152 0
M  V30 1172 H 114.842 0.707913 -2.45809 0
M  V30 1173 H 114.486 1.66696 -4.79765 0
M  V30 1174 H 114.416 3.30469 -4.09997 0
M  V30 1175 H 116.907 2.04374 -3.17868 0
M  V30 1176 H 117.22 3.63976 -6.8172 0
M  V30 1177 H 115.565 3.27946 -6.12761 0
M  V30 1178 H 118.756 2.46027 -3.98231 0
M  V30 1179 H 118.929 3.18827 -5.6414 0
M  V30 1180 N 112.336 1.25143 0.95797 0
M  V30 1181 C 113.584 1.09476 1.69881 0
M  V30 1182 C 113.905 -0.365502 1.91544 0
M  V30 1183 O 113.175 -1.25985 1.50015 0
M  V30 1184 H 111.755 0.402128 0.629525 0
M  V30 1185 H 114.417 1.57214 1.15194 0
M  V30 1186 H 113.513 1.60046 2.6794 0
M  V30 1187 N 113.814 -1.1601 1.06675 0
M  V30 1188 C 115.062 -1.86264 0.784229 0
M  V30 1189 C 115.383 -1.82328 -0.691488 0
M  V30 1190 O 114.653 -1.25947 -1.50047 0
M  V30 1191 H 113.233 -0.689621 0.28711 0
M  V30 1192 H 115.895 -1.40664 1.34906 0
M  V30 1193 H 114.991 -2.91595 1.11259 0
M  V30 1194 N 115.292 -0.849877 -1.32721 0
M  V30 1195 C 116.239 -0.289033 -2.28983 0
M  V30 1196 C 117.209 0.601324 -1.54833 0
M  V30 1197 O 118.394 0.537253 -1.8308 0
M  V30 1198 C 115.534 0.520623 -3.4115 0
M  V30 1199 C 114.647 -0.394989 -4.3019 0
M  V30 1200 C 113.782 0.426834 -5.29482 0
M  V30 1201 C 112.821 -0.486476 -6.10164 0
M  V30 1202 N 111.958 0.297879 -7.01468 0
M  V30 1203 H 116.798 -1.11519 -2.76347 0
M  V30 1204 H 114.335 -0.56138 -1.35967 0
M  V30 1205 H 116.293 1.00563 -4.04899 0
M  V30 1206 H 114.923 1.31165 -2.9495 0
M  V30 1207 H 113.975 -0.99836 -3.67065 0
M  V30 1208 H 115.287 -1.09612 -4.86607 0
M  V30 1209 H 114.441 0.975205 -5.98811 0
M  V30 1210 H 113.18 1.16136 -4.73671 0
M  V30 1211 H 112.185 -1.04677 -5.39743 0
M  V30 1212 H 113.41 -1.21953 -6.6806 0
M  V30 1213 H 111.356 1.01558 -6.48091 0
M  V30 1214 H 111.273 -0.344318 -7.55216 0
M  V30 1215 H 112.541 0.828131 -7.75089 0
M  V30 1216 N 116.77 1.45427 -0.607355 0
M  V30 1217 C 118.019 2.01452 -0.100036 0
M  V30 1218 C 118.332 1.48159 1.27704 0
M  V30 1219 O 119.538 1.96159 1.87707 0
M  V30 1220 C 117.994 3.59672 -0.128158 0
M  V30 1221 C 117.602 4.21962 -1.50507 0
M  V30 1222 C 119.346 4.23262 0.323932 0
M  V30 1223 C 117.253 5.72333 -1.48959 0
M  V30 1224 H 116.183 0.75325 -0.0336299 0
M  V30 1225 H 118.834 1.66901 -0.76265 0
M  V30 1226 H 117.216 3.91411 0.601105 0
M  V30 1227 H 118.39 4.01796 -2.25602 0
M  V30 1228 H 116.705 3.70565 -1.89923 0
M  V30 1229 H 119.302 5.33522 0.354691 0
M  V30 1230 H 119.645 3.93921 1.34656 0
M  V30 1231 H 120.178 3.96239 -0.352056 0
M  V30 1232 H 116.917 6.06373 -2.48981 0
M  V30 1233 H 116.437 5.94691 -0.781214 0
M  V30 1234 H 118.116 6.35525 -1.21313 0
M  V30 1235 N 118.248 0.346503 1.53744 0
M  V30 1236 C 119.476 -0.25041 2.05379 0
M  V30 1237 C 119.891 -1.43979 1.22129 0
M  V30 1238 O 119.248 -1.80677 0.257321 0
M  V30 1239 C 119.299 -0.662575 3.55376 0
M  V30 1240 O 119.02 0.479515 4.35468 0
M  V30 1241 C 120.521 -1.31989 4.23195 0
M  V30 1242 H 117.741 -0.0478198 0.669294 0
M  V30 1243 H 120.285 0.499346 1.9831 0
M  V30 1244 H 118.44 -1.36227 3.62658 0
M  V30 1245 H 118.854 0.15037 5.24284 0
M  V30 1246 H 120.328 -1.55902 5.29527 0
M  V30 1247 H 120.805 -2.27436 3.75725 0
M  V30 1248 H 121.411 -0.662154 4.20114 0
M  V30 1249 N 119.726 -1.57421 0.075193 0
M  V30 1250 C 120.972 -1.94716 -0.587998 0
M  V30 1251 C 121.327 -0.955205 -1.67014 0
M  V30 1252 O 120.62 0.0219842 -1.91587 0
M  V30 1253 C 120.814 -3.36428 -1.20626 0
M  V30 1254 C 120.643 -4.49317 -0.185541 0
M  V30 1255 C 119.413 -5.04772 0.23099 0
M  V30 1256 C 121.611 -5.11036 0.57854 0
M  V30 1257 N 119.593 -6.01204 1.24206 0
M  V30 1258 C 120.964 -6.02998 1.44199 0
M  V30 1259 C 123.019 -4.93844 0.634237 0
M  V30 1260 C 121.722 -6.79614 2.3562 0
M  V30 1261 C 123.748 -5.71106 1.53597 0
M  V30 1262 C 123.11 -6.6272 2.38709 0
M  V30 1263 H 119.209 -0.759536 -0.186089 0
M  V30 1264 H 121.793 -1.94097 0.153128 0
M  V30 1265 H 119.964 -3.37778 -1.9173 0
M  V30 1266 H 121.696 -3.60951 -1.8302 0
M  V30 1267 H 118.451 -4.73353 -0.152807 0
M  V30 1268 H 118.875 -6.54119 1.74521 0
M  V30 1269 H 123.517 -4.22799 -0.00960004 0
M  V30 1270 H 121.235 -7.49934 3.01038 0
M  V30 1271 H 124.821 -5.59824 1.58394 0
M  V30 1272 H 123.701 -7.2146 3.07352 0
M  V30 1273 N 121.204 0.198386 -1.56346 0
M  V30 1274 C 122.154 1.2499 -1.90687 0
M  V30 1275 C 123.138 1.41158 -0.772217 0
M  V30 1276 O 124.33 1.43584 -1.03502 0
M  V30 1277 C 121.459 2.59542 -2.24706 0
M  V30 1278 C 120.545 2.47181 -3.44619 0
M  V30 1279 N 120.936 2.04495 -4.62618 0
M  V30 1280 C 119.234 2.78082 -3.48692 0
M  V30 1281 C 119.935 2.03945 -5.44776 0
M  V30 1282 N 118.911 2.45323 -4.85095 0
M  V30 1283 H 122.713 0.911149 -2.7942 0
M  V30 1284 H 120.227 0.40684 -1.57221 0
M  V30 1285 H 122.224 3.3549 -2.47491 0
M  V30 1286 H 120.884 2.94244 -1.37298 0
M  V30 1287 H 121.895 1.75256 -4.87345 0
M  V30 1288 H 118.572 3.17002 -2.71691 0
M  V30 1289 H 119.962 1.72872 -6.4928 0
M  V30 1290 N 122.682 1.50554 0.465978 0
M  V30 1291 C 123.93 1.61479 1.21528 0
M  V30 1292 C 124.251 0.319596 1.92363 0
M  V30 1293 O 123.521 -0.663194 1.84333 0
M  V30 1294 H 122.101 0.595055 0.451573 0
M  V30 1295 H 124.763 1.87355 0.53704 0
M  V30 1296 H 123.859 2.42846 1.96042 0
M  V30 1297 N 124.16 -0.719506 1.40217 0
M  V30 1298 C 125.571 -1.29848 1.34151 0
M  V30 1299 C 125.922 -1.96196 0.0131349 0
M  V30 1300 O 125.047 -1.973 -0.88892 0
M  V30 1301 C 125.642 -2.36118 2.42968 0
M  V30 1302 C 124.201 -2.8965 2.40374 0
M  V30 1303 C 123.348 -1.63393 2.24049 0
M  V30 1304 H 126.299 -0.51591 1.5008 0
M  V30 1305 H 126.32 -3.16871 2.10649 0
M  V30 1306 H 125.832 -1.878 3.39636 0
M  V30 1307 H 123.933 -3.42208 1.47392 0
M  V30 1308 H 124.046 -3.4171 3.35814 0
M  V30 1309 H 122.41 -1.88312 1.71495 0
M  V30 1310 H 123.193 -1.17104 3.2271 0
M  V30 1311 N 125.638 -1.25649 -0.95132 0
M  V30 1312 C 126.886 -1.10375 -1.69298 0
M  V30 1313 C 127.207 0.355339 -1.91735 0
M  V30 1314 O 126.477 1.25188 -1.50681 0
M  V30 1315 H 125.057 -0.405461 -0.627384 0
M  V30 1316 H 127.719 -1.57823 -1.14358 0
M  V30 1317 H 126.815 -1.61465 -2.67087 0
M  V30 1318 N 127.117 1.15442 -1.07289 0
M  V30 1319 C 128.049 2.19773 -0.650585 0
M  V30 1320 C 129.062 1.60076 0.296572 0
M  V30 1321 O 130.251 1.78293 0.0859905 0
M  V30 1322 C 127.351 3.38838 0.0650398 0
M  V30 1323 C 126.524 4.2808 -0.898141 0
M  V30 1324 C 125.583 5.2574 -0.219926 0
M  V30 1325 O 124.609 5.62654 -0.860773 0
M  V30 1326 N 125.811 5.71205 1.03466 0
M  V30 1327 H 128.576 2.56622 -1.54808 0
M  V30 1328 H 126.137 1.30551 -0.957494 0
M  V30 1329 H 128.129 4.01222 0.529415 0
M  V30 1330 H 126.699 3.00409 0.864466 0
M  V30 1331 H 125.919 3.62804 -1.54165 0
M  V30 1332 H 127.207 4.84577 -1.5512 0
M  V30 1333 H 126.605 5.43325 1.57526 0
M  V30 1334 H 125.162 6.35633 1.44272 0
M  V30 1335 N 128.595 0.856903 1.32268 0
M  V30 1336 C 129.525 0.31858 2.31316 0
M  V30 1337 C 130.506 -0.583487 1.59779 0
M  V30 1338 O 131.691 -0.503259 1.87566 0
M  V30 1339 C 128.821 -0.491979 3.43798 0
M  V30 1340 C 127.775 0.315849 4.26833 0
M  V30 1341 C 127.101 -0.619586 5.31098 0
M  V30 1342 C 128.401 1.54282 4.98993 0
M  V30 1343 H 130.095 1.14621 2.76591 0
M  V30 1344 H 127.641 0.552613 1.32974 0
M  V30 1345 H 129.594 -0.879012 4.1213 0
M  V30 1346 H 128.318 -1.35299 2.97257 0
M  V30 1347 H 126.977 0.684664 3.6015 0
M  V30 1348 H 126.625 -1.47751 4.8081 0
M  V30 1349 H 126.325 -0.0830621 5.87541 0
M  V30 1350 H 127.849 -1.00375 6.02293 0
M  V30 1351 H 129.263 1.22796 5.59995 0
M  V30 1352 H 127.66 2.01745 5.65172 0
M  V30 1353 H 128.73 2.30285 4.26728 0
M  V30 1354 N 130.073 -1.45103 0.615059 0
M  V30 1355 C 131.319 -2.02483 0.113347 0
M  V30 1356 C 131.652 -1.48146 -1.25564 0
M  V30 1357 O 130.927 -0.659104 -1.82992 0
M  V30 1358 C 131.21 -3.60005 0.0825278 0
M  V30 1359 C 131.063 -4.2466 1.48271 0
M  V30 1360 C 132.382 -4.35972 -0.601401 0
M  V30 1361 H 129.501 -0.735764 0.0426632 0
M  V30 1362 H 132.143 -1.72868 0.788461 0
M  V30 1363 H 130.293 -3.85367 -0.492378 0
M  V30 1364 H 131.965 -4.10458 2.10527 0
M  V30 1365 H 130.208 -3.82772 2.04127 0
M  V30 1366 H 130.879 -5.336 1.41332 0
M  V30 1367 H 133.355 -4.15947 -0.112666 0
M  V30 1368 H 132.231 -5.45697 -0.592097 0
M  V30 1369 H 132.492 -4.09391 -1.66887 0
M  V30 1370 N 131.551 -0.354651 -1.53558 0
M  V30 1371 C 132.799 0.237972 -2.00694 0
M  V30 1372 C 133.12 1.50173 -1.24391 0
M  V30 1373 O 132.39 1.92673 -0.354135 0
M  V30 1374 H 130.97 0.0909256 -0.741446 0
M  V30 1375 H 133.632 -0.478368 -1.88938 0
M  V30 1376 H 132.728 0.47264 -3.085 0
M  V30 1377 N 133.029 1.57378 -0.0835403 0
M  V30 1378 C 134.259 1.97975 0.590713 0
M  V30 1379 C 134.667 0.961083 1.62972 0
M  V30 1380 O 134.01 -0.0590879 1.83605 0
M  V30 1381 C 134.072 3.34915 1.3066 0
M  V30 1382 C 133.736 4.55069 0.419698 0
M  V30 1383 C 134.733 5.18868 -0.32749 0
M  V30 1384 C 132.418 5.0114 0.341137 0
M  V30 1385 C 134.412 6.27098 -1.14134 0
M  V30 1386 C 132.099 6.0924 -0.476374 0
M  V30 1387 C 133.097 6.72083 -1.21627 0
M  V30 1388 O 132.785 7.781 -2.02028 0
M  V30 1389 H 132.517 0.655818 0.163947 0
M  V30 1390 H 135.071 2.04807 -0.156021 0
M  V30 1391 H 133.301 3.24733 2.09966 0
M  V30 1392 H 134.99 3.60037 1.87424 0
M  V30 1393 H 135.756 4.84211 -0.276459 0
M  V30 1394 H 131.635 4.51996 0.90668 0
M  V30 1395 H 135.179 6.7608 -1.71935 0
M  V30 1396 H 131.076 6.43329 -0.528927 0
M  V30 1397 H 131.844 7.95034 -1.94586 0
M  V30 1398 N 134.507 -0.190092 1.56449 0
M  V30 1399 C 135.918 -0.754312 1.70784 0
M  V30 1400 C 136.269 -1.83631 0.690951 0
M  V30 1401 O 135.394 -2.15868 -0.151604 0
M  V30 1402 C 135.989 -1.37503 3.09642 0
M  V30 1403 C 134.548 -1.88628 3.25725 0
M  V30 1404 C 133.695 -0.758098 2.66736 0
M  V30 1405 H 136.646 0.0350524 1.58661 0
M  V30 1406 H 136.667 -2.2445 3.0725 0
M  V30 1407 H 136.179 -0.587302 3.83631 0
M  V30 1408 H 134.28 -2.70103 2.56661 0
M  V30 1409 H 134.393 -2.04462 4.3328 0
M  V30 1410 H 132.757 -1.17369 2.26046 0
M  V30 1411 H 133.54 0.0174705 3.43296 0
M  V30 1412 N 135.985 -1.50799 -0.457987 0
M  V30 1413 C 137.234 -1.6168 -1.20593 0
M  V30 1414 C 137.547 -0.32888 -1.92815 0
M  V30 1415 O 138.753 -0.316773 -2.69646 0
M  V30 1416 C 137.209 -2.8545 -2.19195 0
M  V30 1417 C 136.817 -4.21168 -1.52715 0
M  V30 1418 C 138.561 -3.05681 -2.94549 0
M  V30 1419 C 136.468 -5.3611 -2.4968 0
M  V30 1420 H 135.398 -0.602134 -0.453818 0
M  V30 1421 H 138.049 -1.77245 -0.475031 0
M  V30 1422 H 136.431 -2.63472 -2.95632 0
M  V30 1423 H 137.605 -4.53449 -0.819775 0
M  V30 1424 H 135.92 -4.06648 -0.895922 0
M  V30 1425 H 138.517 -3.88727 -3.67145 0
M  V30 1426 H 138.86 -2.17929 -3.54701 0
M  V30 1427 H 139.393 -3.27901 -2.25223 0
M  V30 1428 H 136.132 -6.26057 -1.94249 0
M  V30 1429 H 135.652 -5.0823 -3.18532 0
M  V30 1430 H 137.331 -5.6722 -3.11241 0
M  V30 1431 N 137.463 0.71206 -1.40597 0
M  V30 1432 C 138.712 1.46754 -1.38369 0
M  V30 1433 C 139.025 1.95598 0.0097839 0
M  V30 1434 O 140.231 2.71059 0.154677 0
M  V30 1435 C 138.687 2.65289 -2.43207 0
M  V30 1436 C 138.295 2.23301 -3.88382 0
M  V30 1437 C 140.039 3.43008 -2.50091 0
M  V30 1438 C 137.946 3.38696 -4.84808 0
M  V30 1439 H 136.876 0.55118 -0.514506 0
M  V30 1440 H 139.527 0.774616 -1.66349 0
M  V30 1441 H 137.909 3.36769 -2.08332 0
M  V30 1442 H 139.083 1.59218 -4.32419 0
M  V30 1443 H 137.398 1.58618 -3.85006 0
M  V30 1444 H 139.995 4.28881 -3.1932 0
M  V30 1445 H 140.338 3.87065 -1.53253 0
M  V30 1446 H 140.871 2.78574 -2.83974 0
M  V30 1447 H 137.61 2.99668 -5.82992 0
M  V30 1448 H 137.13 4.01683 -4.45433 0
M  V30 1449 H 138.809 4.04712 -5.04794 0
M  V30 1450 N 138.941 1.26152 0.944643 0
M  V30 1451 C 140.189 1.11271 1.6871 0
M  V30 1452 C 140.51 -0.345166 1.91921 0
M  V30 1453 O 139.78 -1.24387 1.51343 0
M  V30 1454 H 138.36 0.408783 0.625224 0
M  V30 1455 H 141.022 1.58427 1.1352 0
M  V30 1456 H 140.118 1.62879 2.66227 0
M  V30 1457 N 140.419 -1.14872 1.07899 0
M  V30 1458 C 141.349 -2.2193 0.725887 0
M  V30 1459 C 142.33 -1.67622 -0.28927 0
M  V30 1460 O 143.515 -1.93533 -0.160787 0
M  V30 1461 C 140.645 -3.47061 0.128856 0
M  V30 1462 C 139.599 -4.14363 1.07178 0
M  V30 1463 C 138.925 -5.33636 0.337229 0
M  V30 1464 C 140.225 -4.63492 2.40775 0
M  V30 1465 H 141.919 -2.51724 1.62097 0
M  V30 1466 H 139.465 -1.20991 0.780838 0
M  V30 1467 H 141.418 -4.21199 -0.130147 0
M  V30 1468 H 140.142 -3.16617 -0.80134 0
M  V30 1469 H 138.801 -3.42173 1.3158 0
M  V30 1470 H 138.449 -4.99449 -0.596606 0
M  V30 1471 H 138.149 -5.79609 0.965788 0
M  V30 1472 H 139.673 -6.10539 0.0861567 0
M  V30 1473 H 141.087 -5.2913 2.20669 0
M  V30 1474 H 139.484 -5.20148 2.99276 0
M  V30 1475 H 140.554 -3.78834 3.02676 0
M  V30 1476 N 141.898 -0.863906 -1.31812 0
M  V30 1477 C 142.861 -0.320212 -2.26952 0
M  V30 1478 C 143.861 0.525369 -1.51975 0
M  V30 1479 O 145.051 0.335547 -1.70938 0
M  V30 1480 C 142.183 0.545919 -3.365 0
M  V30 1481 H 143.376 -1.16004 -2.76556 0
M  V30 1482 H 140.929 -0.638995 -1.42641 0
M  V30 1483 H 141.664 1.40718 -2.92179 0
M  V30 1484 H 141.449 -0.0594674 -3.92055 0
M  V30 1485 H 142.939 0.918796 -4.07367 0
M  V30 1486 N 143.376 1.44774 -0.622745 0
M  V30 1487 C 144.286 2.34433 0.0886031 0
M  V30 1488 C 145.302 1.52131 0.844529 0
M  V30 1489 O 146.478 1.84886 0.798691 0
M  V30 1490 C 143.543 3.29986 1.0635 0
M  V30 1491 C 142.604 4.28195 0.307873 0
M  V30 1492 C 141.837 5.19183 1.23633 0
M  V30 1493 O 142.06 5.13918 2.47476 0
M  V30 1494 O 140.994 5.97515 0.725189 0
M  V30 1495 H 144.82 2.96693 -0.648599 0
M  V30 1496 H 142.405 1.44408 -0.382957 0
M  V30 1497 H 144.287 3.88825 1.6246 0
M  V30 1498 H 142.962 2.70269 1.78146 0
M  V30 1499 H 141.869 3.72927 -0.296064 0
M  V30 1500 H 143.202 4.90808 -0.3699 0
M  V30 1501 N 144.854 0.36279 1.53368 0
M  V30 1502 C 146.265 -0.117022 1.86333 0
M  V30 1503 C 146.616 -1.48397 1.28347 0
M  V30 1504 O 145.741 -2.07787 0.604428 0
M  V30 1505 C 146.336 -0.21912 3.38091 0
M  V30 1506 C 144.895 -0.643184 3.70864 0
M  V30 1507 C 144.042 0.211318 2.76494 0
M  V30 1508 H 146.993 0.581687 1.47655 0
M  V30 1509 H 147.014 -1.04319 3.6592 0
M  V30 1510 H 146.526 0.775902 3.80265 0
M  V30 1511 H 144.627 -1.64654 3.34245 0
M  V30 1512 H 144.74 -0.41973 4.77258 0
M  V30 1513 H 143.104 -0.319367 2.5269 0
M  V30 1514 H 143.887 1.20383 3.21501 0
M  V30 1515 N 146.332 -1.57332 0.0918853 0
M  V30 1516 C 147.262 -2.16872 -0.865371 0
M  V30 1517 C 148.243 -1.10118 -1.29646 0
M  V30 1518 O 149.428 -1.38242 -1.36392 0
M  V30 1519 C 146.558 -2.74649 -2.12569 0
M  V30 1520 C 145.512 -3.86747 -1.83333 0
M  V30 1521 C 144.838 -4.31212 -3.16166 0
M  V30 1522 C 146.138 -5.10089 -1.1228 0
M  V30 1523 H 147.832 -2.97114 -0.369307 0
M  V30 1524 H 145.378 -1.42918 -0.176194 0
M  V30 1525 H 147.331 -3.14952 -2.7997 0
M  V30 1526 H 146.055 -1.91657 -2.64452 0
M  V30 1527 H 144.714 -3.46978 -1.18331 0
M  V30 1528 H 144.362 -3.45115 -3.6593 0
M  V30 1529 H 144.062 -5.06788 -2.97388 0
M  V30 1530 H 145.586 -4.74146 -3.84731 0
M  V30 1531 H 147 -5.47582 -1.69785 0
M  V30 1532 H 145.397 -5.91073 -1.03693 0
M  V30 1533 H 146.467 -4.84786 -0.105041 0
M  V30 1534 N 147.81 0.181792 -1.56548 0
M  V30 1535 C 149.087 0.926765 -1.72251 0
M  V30 1536 C 149.467 2.00831 -0.650386 0
M  V30 1537 O 148.815 2.26008 0.336521 0
M  V30 1538 C 149.025 1.50106 -3.1507 0
M  V30 1539 C 150.373 1.97805 -3.75711 0
M  V30 1540 O 151.397 1.59922 -3.18282 0
M  V30 1541 O 150.256 2.67555 -4.76525 0
M  V30 1542 H 147.35 0.435506 -0.703039 0
M  V30 1543 H 149.896 0.170443 -1.68842 0
M  V30 1544 H 148.668 0.72212 -3.84579 0
M  V30 1545 H 148.291 2.32186 -3.22763 0
M  V30 1546 N 149.288 1.51039 0.449983 0
M  V30 1547 C 150.534 1.63322 1.20223 0
M  V30 1548 C 150.867 0.34241 1.91158 0
M  V30 1549 O 150.142 -0.657344 1.83055 0
M  V30 1550 C 150.425 2.82801 2.22925 0
M  V30 1551 C 150.278 4.21823 1.56157 0
M  V30 1552 C 151.597 2.97807 3.24035 0
M  V30 1553 H 148.716 0.594407 0.435718 0
M  V30 1554 H 151.358 1.83489 0.493136 0
M  V30 1555 H 149.508 2.65738 2.834 0
M  V30 1556 H 151.18 4.50526 0.991162 0
M  V30 1557 H 149.423 4.25105 0.864172 0
M  V30 1558 H 150.094 5.01391 2.30891 0
M  V30 1559 H 152.57 3.13497 2.73603 0
M  V30 1560 H 151.446 3.82992 3.93202 0
M  V30 1561 H 151.707 2.09328 3.89402 0
M  V30 1562 N 150.766 -0.704594 1.40972 0
M  V30 1563 C 152.012 -1.46675 1.40051 0
M  V30 1564 C 152.345 -1.94199 0.00641102 0
M  V30 1565 O 151.62 -1.68916 -0.964235 0
M  V30 1566 C 151.903 -2.68505 2.39952 0
M  V30 1567 C 151.756 -2.26805 3.88432 0
M  V30 1568 C 153.075 -3.70686 2.37233 0
M  V30 1569 H 150.194 -0.532015 0.510028 0
M  V30 1570 H 152.836 -0.803255 1.72185 0
M  V30 1571 H 150.986 -3.25114 2.1268 0
M  V30 1572 H 152.658 -1.75592 4.26574 0
M  V30 1573 H 150.901 -1.58685 4.03734 0
M  V30 1574 H 151.572 -3.14181 4.53866 0
M  V30 1575 H 154.048 -3.23731 2.61415 0
M  V30 1576 H 152.924 -4.53553 3.09162 0
M  V30 1577 H 153.185 -4.19754 1.38777 0
M  V30 1578 N 152.244 -1.26651 -0.937939 0
M  V30 1579 C 153.192 -1.08308 -2.05845 0
M  V30 1580 C 154.186 -0.0090757 -1.69398 0
M  V30 1581 O 155.392 -0.166007 -1.79233 0
M  V30 1582 H 151.767 -0.333416 -0.674046 0
M  V30 1583 H 153.738 -2.03261 -2.18467 0
M  V30 1584 C 152.487 -0.736229 -3.39816 0
M  V30 1585 H 151.81 -1.55453 -3.6834 0
M  V30 1586 H 153.25 -0.64769 -4.19024 0
M  V30 1587 C 151.709 0.558824 -3.32233 0
M  V30 1588 O 152.239 1.59621 -3.68624 0
M  V30 1589 N 150.445 0.550657 -2.85335 0
M  V30 1590 H 149.992 -0.293943 -2.55917 0
M  V30 1591 H 149.95 1.41726 -2.80644 0
M  V30 1592 N 153.722 1.14298 -1.08507 0
M  V30 1593 C 154.952 1.88945 -0.835663 0
M  V30 1594 C 155.36 1.78894 0.615928 0
M  V30 1595 O 154.703 1.1468 1.43506 0
M  V30 1596 C 154.765 3.39585 -1.17994 0
M  V30 1597 C 154.429 3.7342 -2.63451 0
M  V30 1598 C 155.426 3.73454 -3.61702 0
M  V30 1599 C 153.111 4.03368 -2.99332 0
M  V30 1600 C 155.105 4.02961 -4.93864 0
M  V30 1601 C 152.792 4.32538 -4.31687 0
M  V30 1602 C 153.79 4.32318 -5.28763 0
M  V30 1603 O 153.478 4.6078 -6.58739 0
M  V30 1604 H 153.21 0.605307 -0.300965 0
M  V30 1605 H 155.764 1.45673 -1.44806 0
M  V30 1606 H 153.994 3.83315 -0.51055 0
M  V30 1607 H 155.683 3.9554 -0.911182 0
M  V30 1608 H 156.449 3.50403 -3.35325 0
M  V30 1609 H 152.328 4.02692 -2.24411 0
M  V30 1610 H 155.872 4.02704 -5.69627 0
M  V30 1611 H 151.769 4.55059 -4.57812 0
M  V30 1612 H 152.537 4.78492 -6.64069 0
M  V30 1613 N 155.201 0.870884 1.31352 0
M  V30 1614 C 156.447 0.482987 1.96965 0
M  V30 1615 C 156.78 -0.962462 1.68672 0
M  V30 1616 O 156.055 -1.6779 0.98371 0
M  V30 1617 C 156.338 0.741752 3.52378 0
M  V30 1618 C 156.191 2.2368 3.9024 0
M  V30 1619 C 157.51 0.208838 4.39604 0
M  V30 1620 H 154.629 0.176955 0.715441 0
M  V30 1621 H 157.271 1.09229 1.55464 0
M  V30 1622 H 155.421 0.223149 3.87859 0
M  V30 1623 H 157.093 2.82273 3.64856 0
M  V30 1624 H 155.336 2.70901 3.38814 0
M  V30 1625 H 156.007 2.3685 4.98604 0
M  V30 1626 H 158.483 0.652529 4.10952 0
M  V30 1627 H 157.359 0.419336 5.47296 0
M  V30 1628 H 157.62 -0.889275 4.33064 0
M  V30 1629 N 156.679 -1.44442 0.630414 0
M  V30 1630 C 158.095 -1.56832 0.295973 0
M  V30 1631 C 158.295 -1.61806 -1.20088 0
M  V30 1632 O 157.351 -1.5607 -1.9849 0
M  V30 1633 C 158.664 -2.84031 0.987264 0
M  V30 1634 C 160.212 -2.97742 0.96534 0
M  V30 1635 C 160.687 -4.27743 1.63708 0
M  V30 1636 N 162.178 -4.34555 1.60364 0
M  V30 1637 C 162.913 -5.33862 2.09234 0
M  V30 1638 N 162.409 -6.39578 2.66292 0
M  V30 1639 N 164.202 -5.25366 1.99867 0
M  V30 1640 H 156.353 -1.39457 1.60205 0
M  V30 1641 H 158.616 -0.668237 0.672431 0
M  V30 1642 H 158.322 -2.86338 2.04215 0
M  V30 1643 H 158.196 -3.73534 0.524588 0
M  V30 1644 H 160.583 -2.94989 -0.0810639 0
M  V30 1645 H 160.664 -2.09589 1.4665 0
M  V30 1646 H 160.308 -4.31255 2.68293 0
M  V30 1647 H 160.238 -5.14752 1.11076 0
M  V30 1648 H 162.729 -3.58772 1.18705 0
M  V30 1649 H 163.042 -7.11637 3.01317 0
M  V30 1650 H 161.387 -6.40265 2.70343 0
M  V30 1651 H 164.578 -4.41688 1.55013 0
M  V30 1652 H 164.751 -6.02606 2.38265 0
M  V30 1653 N 158.157 -0.370918 -1.53173 0
M  V30 1654 C 159.573 -0.0200818 -1.59587 0
M  V30 1655 C 159.773 1.46279 -1.38581 0
M  V30 1656 O 158.829 2.22506 -1.19363 0
M  V30 1657 C 160.142 -0.4808 -2.96831 0
M  V30 1658 C 161.69 -0.435477 -3.09956 0
M  V30 1659 C 162.165 -0.872092 -4.4962 0
M  V30 1660 N 163.656 -0.827364 -4.55751 0
M  V30 1661 C 164.391 -1.13683 -5.62018 0
M  V30 1662 N 163.887 -1.51584 -6.76014 0
M  V30 1663 N 165.68 -1.05927 -5.52029 0
M  V30 1664 H 157.831 -1.33652 -1.65079 0
M  V30 1665 H 160.094 -0.546634 -0.774529 0
M  V30 1666 H 159.8 -1.51577 -3.1736 0
M  V30 1667 H 159.674 0.129796 -3.76977 0
M  V30 1668 H 162.061 0.590371 -2.89134 0
M  V30 1669 H 162.142 -1.08164 -2.31806 0
M  V30 1670 H 161.786 -1.89608 -4.71181 0
M  V30 1671 H 161.716 -0.203127 -5.26208 0
M  V30 1672 H 164.207 -0.548216 -3.73902 0
M  V30 1673 H 164.52 -1.73609 -7.53047 0
M  V30 1674 H 162.865 -1.55454 -6.77391 0
M  V30 1675 H 166.056 -0.762321 -4.61851 0
M  V30 1676 H 166.229 -1.30378 -6.34749 0
M  V30 1677 N 159.635 1.57281 -0.100228 0
M  V30 1678 C 160.565 2.17328 0.853857 0
M  V30 1679 C 161.546 1.10804 1.2906 0
M  V30 1680 O 162.731 1.38963 1.35657 0
M  V30 1681 C 159.861 2.75772 2.11109 0
M  V30 1682 C 158.815 3.87713 1.81279 0
M  V30 1683 C 158.141 4.32882 3.13874 0
M  V30 1684 C 159.441 5.10677 1.09574 0
M  V30 1685 H 161.135 2.97305 0.353545 0
M  V30 1686 H 158.681 1.43009 0.168612 0
M  V30 1687 H 160.634 3.16433 2.78296 0
M  V30 1688 H 159.358 1.93057 2.63432 0
M  V30 1689 H 158.017 3.476 1.16489 0
M  V30 1690 H 157.665 3.47051 3.64095 0
M  V30 1691 H 157.365 5.08358 2.94696 0
M  V30 1692 H 158.889 4.7618 3.82211 0
M  V30 1693 H 160.303 5.48474 1.66879 0
M  V30 1694 H 158.7 5.91615 1.00557 0
M  V30 1695 H 159.77 4.84835 0.0793299 0
M  V30 1696 N 161.113 -0.173488 1.56642 0
M  V30 1697 C 162.023 -1.23482 1.99473 0
M  V30 1698 C 163.039 -1.48567 0.905752 0
M  V30 1699 O 164.215 -1.60758 1.21321 0
M  V30 1700 C 161.28 -2.55444 2.34413 0
M  V30 1701 C 160.341 -2.38241 3.57127 0
M  V30 1702 C 159.574 -3.63909 3.90392 0
M  V30 1703 O 159.797 -4.68996 3.24653 0
M  V30 1704 O 158.731 -3.58149 4.83749 0
M  V30 1705 H 162.557 -0.901279 2.90018 0
M  V30 1706 H 160.142 -0.380185 1.44482 0
M  V30 1707 H 162.024 -3.33292 2.57865 0
M  V30 1708 H 160.699 -2.88382 1.4703 0
M  V30 1709 H 159.606 -1.58431 3.38896 0
M  V30 1710 H 160.939 -2.10228 4.45045 0
M  V30 1711 N 162.591 -1.51276 -0.441967 0
M  V30 1712 C 163.501 -1.75092 -1.56141 0
M  V30 1713 C 164.517 -0.634963 -1.62001 0
M  V30 1714 O 165.693 -0.916686 -1.79329 0
M  V30 1715 C 162.758 -1.86666 -2.92158 0
M  V30 1716 C 161.819 -3.10506 -2.96453 0
M  V30 1717 C 161.052 -3.21519 -4.25982 0
M  V30 1718 O 161.275 -2.38586 -5.18105 0
M  V30 1719 O 160.209 -4.14465 -4.36466 0
M  V30 1720 H 164.035 -2.70044 -1.38961 0
M  V30 1721 H 161.62 -1.35722 -0.624499 0
M  V30 1722 H 163.502 -1.96292 -3.72891 0
M  V30 1723 H 162.177 -0.949014 -3.09476 0
M  V30 1724 H 161.084 -3.06363 -2.14692 0
M  V30 1725 H 162.417 -4.01945 -2.84079 0
M  V30 1726 N 164.069 0.697108 -1.41344 0
M  V30 1727 C 165.294 1.49096 -1.44171 0
M  V30 1728 C 165.719 1.88038 -0.0481568 0
M  V30 1729 O 165.077 1.54525 0.948243 0
M  V30 1730 C 165.125 2.73088 -2.3549 0
M  V30 1731 O 164.229 3.70514 -1.81088 0
M  V30 1732 H 163.57 0.448801 -0.489361 0
M  V30 1733 H 166.1 0.856992 -1.85787 0
M  V30 1734 H 166.11 3.21413 -2.51312 0
M  V30 1735 H 164.785 2.44081 -3.36745 0
M  V30 1736 H 163.362 3.29441 -1.74708 0
M  V30 1737 N 165.547 1.27147 0.931209 0
M  V30 1738 C 166.477 1.12081 2.04842 0
M  V30 1739 C 167.458 0.0232364 1.70084 0
M  V30 1740 O 168.643 0.197085 1.93197 0
M  V30 1741 C 165.773 0.76354 3.38803 0
M  V30 1742 C 164.727 1.81396 3.87659 0
M  V30 1743 C 164.053 1.31075 5.18385 0
M  V30 1744 C 165.353 3.21739 4.11438 0
M  V30 1745 H 167.047 2.05537 2.17703 0
M  V30 1746 H 164.593 0.989603 1.04608 0
M  V30 1747 H 166.546 0.644982 4.16435 0
M  V30 1748 H 165.27 -0.206727 3.25945 0
M  V30 1749 H 163.929 1.92136 3.12217 0
M  V30 1750 H 163.577 0.330037 5.01916 0
M  V30 1751 H 163.277 2.013 5.52044 0
M  V30 1752 H 164.801 1.20506 5.98591 0
M  V30 1753 H 166.215 3.14019 4.79651 0
M  V30 1754 H 164.612 3.89644 4.56397 0
M  V30 1755 H 165.682 3.67054 3.16859 0
M  V30 1756 N 167.025 -1.13721 1.09112 0
M  V30 1757 C 168.274 -1.84275 0.82009 0
M  V30 1758 C 168.587 -1.84253 -0.656509 0
M  V30 1759 O 169.793 -2.50668 -1.04296 0
M  V30 1760 C 168.249 -3.30825 1.41714 0
M  V30 1761 C 167.857 -3.39244 2.92605 0
M  V30 1762 C 169.601 -4.06443 1.22492 0
M  V30 1763 C 167.508 -4.80047 3.45411 0
M  V30 1764 H 166.438 -0.690387 0.30312 0
M  V30 1765 H 169.089 -1.28146 1.31343 0
M  V30 1766 H 167.471 -3.86737 0.851498 0
M  V30 1767 H 168.645 -2.93344 3.55367 0
M  V30 1768 H 166.96 -2.77088 3.10823 0
M  V30 1769 H 169.557 -5.10387 1.59402 0
M  V30 1770 H 169.9 -4.15972 0.165299 0
M  V30 1771 H 170.433 -3.56852 1.75788 0
M  V30 1772 H 167.172 -4.75709 4.50978 0
M  V30 1773 H 166.692 -5.26455 2.87411 0
M  V30 1774 H 168.371 -5.48957 3.42425 0
M  V30 1775 N 168.503 -0.877838 -1.30888 0
M  V30 1776 C 169.435 -0.296607 -2.27273 0
M  V30 1777 C 170.448 0.544799 -1.53414 0
M  V30 1778 O 171.637 0.365511 -1.74718 0
M  V30 1779 C 168.737 0.597481 -3.33592 0
M  V30 1780 C 167.91 -0.213251 -4.3688 0
M  V30 1781 C 166.969 0.610208 -5.2265 0
M  V30 1782 O 165.995 0.035441 -5.69189 0
M  V30 1783 N 167.197 1.92071 -5.47804 0
M  V30 1784 H 169.962 -1.12492 -2.77787 0
M  V30 1785 H 167.523 -0.740105 -1.43993 0
M  V30 1786 H 169.515 1.15425 -3.87891 0
M  V30 1787 H 168.085 1.32647 -2.83061 0
M  V30 1788 H 167.305 -0.951466 -3.82545 0
M  V30 1789 H 168.593 -0.769262 -5.02951 0
M  V30 1790 H 167.991 2.4107 -5.11763 0
M  V30 1791 H 166.548 2.42508 -6.05007 0
M  V30 1792 N 169.982 1.44106 -0.638065 0
M  V30 1793 C 171.228 2.02277 -0.145546 0
M  V30 1794 C 171.561 1.50125 1.23191 0
M  V30 1795 O 170.836 0.688133 1.8192 0
M  V30 1796 C 171.119 3.59829 -0.139791 0
M  V30 1797 C 170.972 4.22247 -1.55008 0
M  V30 1798 C 172.291 4.36873 0.531966 0
M  V30 1799 H 169.41 0.734992 -0.0543632 0
M  V30 1800 H 172.052 1.71592 -0.815863 0
M  V30 1801 H 170.202 3.86102 0.431007 0
M  V30 1802 H 171.874 4.07057 -2.1703 0
M  V30 1803 H 170.117 3.79476 -2.10191 0
M  V30 1804 H 170.788 5.31284 -1.49804 0
M  V30 1805 H 173.264 4.16074 0.0464781 0
M  V30 1806 H 172.14 5.4657 0.505206 0
M  V30 1807 H 172.401 4.11995 1.60352 0
M  V30 1808 N 171.46 0.379036 1.52974 0
M  V30 1809 C 172.7 -0.206325 2.03356 0
M  V30 1810 C 173.064 -1.44892 1.25977 0
M  V30 1811 O 174.265 -2.11078 1.66432 0
M  V30 1812 C 172.536 -0.477887 3.54191 0
M  V30 1813 S 174.095 -1.035 4.26419 0
M  V30 1814 H 170.913 -0.0590259 0.708546 0
M  V30 1815 H 173.515 0.525013 1.88319 0
M  V30 1816 H 172.219 0.433745 4.08101 0
M  V30 1817 H 171.75 -1.23793 3.73415 0
M  V30 1818 H 173.765 -2.31821 4.38718 0
M  V30 1819 N 172.938 -1.57226 0.108567 0
M  V30 1820 C 173.901 -2.13602 -0.831082 0
M  V30 1821 C 174.901 -1.06841 -1.20173 0
M  V30 1822 O 176.091 -1.32666 -1.12895 0
M  V30 1823 C 173.223 -2.66769 -2.12243 0
M  V30 1824 H 174.416 -2.97951 -0.341317 0
M  V30 1825 H 171.969 -1.55667 -0.14057 0
M  V30 1826 H 172.704 -1.85977 -2.65675 0
M  V30 1827 H 172.489 -3.44839 -1.86625 0
M  V30 1828 H 173.979 -3.10332 -2.79435 0
M  V30 1829 N 174.416 0.165178 -1.56732 0
M  V30 1830 C 175.693 0.908443 -1.73224 0
M  V30 1831 C 176.073 2.0013 -0.67165 0
M  V30 1832 O 175.421 2.26353 0.31253 0
M  V30 1833 C 175.631 1.46756 -3.16644 0
M  V30 1834 C 176.979 1.93809 -3.77787 0
M  V30 1835 O 178.003 1.56537 -3.1996 0
M  V30 1836 O 176.862 2.62486 -4.79336 0
M  V30 1837 H 173.956 0.428025 -0.707618 0
M  V30 1838 H 176.502 0.152526 -1.69013 0
M  V30 1839 H 175.274 0.68129 -3.85323 0
M  V30 1840 H 174.897 2.28749 -3.25207 0
M  V30 1841 N 175.894 1.51508 0.433938 0
M  V30 1842 C 176.824 1.76016 1.53429 0
M  V30 1843 C 177.805 0.610112 1.58782 0
M  V30 1844 O 178.99 0.853177 1.74455 0
M  V30 1845 C 176.12 1.88831 2.9148 0
M  V30 1846 C 175.074 3.04288 3.00987 0
M  V30 1847 C 174.4 3.0229 4.4105 0
M  V30 1848 C 175.7 4.44193 2.74754 0
M  V30 1849 H 177.394 2.68152 1.33171 0
M  V30 1850 H 174.94 1.29035 0.639214 0
M  V30 1851 H 176.893 2.04559 3.6842 0
M  V30 1852 H 175.617 0.933455 3.12976 0
M  V30 1853 H 174.276 2.8827 2.26486 0
M  V30 1854 H 173.924 2.04576 4.59519 0
M  V30 1855 H 173.624 3.79822 4.4834 0
M  V30 1856 H 175.148 3.20116 5.1996 0
M  V30 1857 H 176.562 4.60544 3.41426 0
M  V30 1858 H 174.959 5.23457 2.9345 0
M  V30 1859 H 176.029 4.53996 1.70339 0
M  V30 1860 N 177.372 -0.689602 1.41712 0
M  V30 1861 C 178.62 -1.4468 1.4111 0
M  V30 1862 C 178.941 -1.94986 0.0232196 0
M  V30 1863 O 178.211 -1.72097 -0.935913 0
M  V30 1864 H 176.791 -0.536847 0.519427 0
M  V30 1865 H 179.453 -0.815825 1.77004 0
M  V30 1866 H 178.549 -2.30706 2.10193 0
M  V30 1867 N 178.85 -1.27639 -0.924453 0
M  V30 1868 C 179.78 -1.13166 -2.04244 0
M  V30 1869 C 180.761 -0.032256 -1.70069 0
M  V30 1870 O 181.946 -0.207328 -1.9309 0
M  V30 1871 C 179.076 -0.781496 -3.38393 0
M  V30 1872 C 178.03 -1.83449 -3.86692 0
M  V30 1873 C 177.356 -1.33822 -5.17683 0
M  V30 1874 C 178.656 -3.23917 -4.09726 0
M  V30 1875 H 180.35 -2.06689 -2.1661 0
M  V30 1876 H 177.896 -0.995136 -1.04082 0
M  V30 1877 H 179.849 -0.667057 -4.16087 0
M  V30 1878 H 178.573 0.189439 -3.2605 0
M  V30 1879 H 177.232 -1.93789 -3.11193 0
M  V30 1880 H 176.88 -0.35665 -5.01734 0
M  V30 1881 H 176.58 -2.04224 -5.50968 0
M  V30 1882 H 178.104 -1.23679 -5.97943 0
M  V30 1883 H 179.518 -3.16559 -4.77978 0
M  V30 1884 H 177.915 -3.92059 -4.54324 0
M  V30 1885 H 178.985 -3.68729 -3.14908 0
M  V30 1886 N 180.328 1.1314 -1.09713 0
M  V30 1887 C 181.278 2.16709 -0.708593 0
M  V30 1888 C 182.262 1.58471 0.278523 0
M  V30 1889 O 183.454 1.76779 0.088427 0
M  V30 1890 C 180.583 3.43039 -0.133923 0
M  V30 1891 C 179.669 4.08277 -1.14763 0
M  V30 1892 N 180.06 4.48637 -2.33577 0
M  V30 1893 C 178.358 4.34954 -0.986446 0
M  V30 1894 C 179.059 4.9952 -2.98085 0
M  V30 1895 N 178.035 4.94561 -2.25632 0
M  V30 1896 H 181.837 2.45672 -1.61315 0
M  V30 1897 H 179.351 1.29967 -0.973775 0
M  V30 1898 H 181.348 4.16583 0.162465 0
M  V30 1899 H 180.008 3.15549 0.765447 0
M  V30 1900 H 181.019 4.41246 -2.7115 0
M  V30 1901 H 177.696 4.17258 -0.142008 0
M  V30 1902 H 179.086 5.40521 -3.99108 0
M  V30 1903 N 181.806 0.884767 1.30421 0
M  V30 1904 C 182.769 0.356277 2.26414 0
M  V30 1905 C 183.769 -0.501124 1.52792 0
M  V30 1906 O 184.959 -0.30831 1.7145 0
M  V30 1907 C 182.091 -0.492316 3.37326 0
M  V30 1908 H 183.284 1.20389 2.74675 0
M  V30 1909 H 180.837 0.661607 1.41607 0
M  V30 1910 H 181.572 -1.36052 2.94381 0
M  V30 1911 H 181.357 0.121832 3.91911 0
M  V30 1912 H 182.847 -0.853871 4.08777 0
M  V30 1913 N 183.284 -1.43765 0.645699 0
M  V30 1914 C 184.532 -2.01499 0.155731 0
M  V30 1915 C 184.853 -1.51151 -1.232 0
M  V30 1916 O 184.123 -0.721044 -1.82148 0
M  V30 1917 H 182.703 -0.745003 0.0545817 0
M  V30 1918 H 185.365 -1.76075 0.835677 0
M  V30 1919 H 184.461 -3.1181 0.134577 0
M  V30 1920 N 184.763 -0.387143 -1.52771 0
M  V30 1921 C 186.179 -0.037007 -1.59557 0
M  V30 1922 C 186.379 1.44801 -1.40124 0
M  V30 1923 O 185.435 2.21227 -1.21716 0
M  V30 1924 C 186.748 -0.512256 -2.96305 0
M  V30 1925 C 188.296 -0.468328 -3.09476 0
M  V30 1926 C 188.771 -0.919731 -4.4867 0
M  V30 1927 N 190.262 -0.875656 -4.54848 0
M  V30 1928 C 190.997 -1.19637 -5.6078 0
M  V30 1929 N 190.493 -1.58745 -6.74368 0
M  V30 1930 N 192.286 -1.11776 -5.50874 0
M  V30 1931 H 184.437 -1.35395 -1.63652 0
M  V30 1932 H 186.7 -0.554818 -0.768688 0
M  V30 1933 H 186.406 -1.54935 -3.15734 0
M  V30 1934 H 186.28 0.089805 -3.77093 0
M  V30 1935 H 188.667 0.559671 -2.89744 0
M  V30 1936 H 188.748 -1.10616 -2.30646 0
M  V30 1937 H 188.392 -1.94595 -4.69143 0
M  V30 1938 H 188.322 -0.258927 -5.25963 0
M  V30 1939 H 190.813 -0.587843 -3.733 0
M  V30 1940 H 191.126 -1.81586 -7.51163 0
M  V30 1941 H 189.471 -1.6263 -6.75705 0
M  V30 1942 H 192.662 -0.811264 -4.61016 0
M  V30 1943 H 192.835 -1.37103 -6.3333 0
M  V30 1944 N 186.241 1.57166 -0.116904 0
M  V30 1945 C 187.487 1.95412 0.542405 0
M  V30 1946 C 187.82 1.00019 1.66463 0
M  V30 1947 O 187.095 0.0370346 1.94465 0
M  V30 1948 C 187.378 3.43615 1.07708 0
M  V30 1949 C 187.231 4.49781 -0.0415868 0
M  V30 1950 C 188.55 3.93616 1.96861 0
M  V30 1951 H 185.669 0.710543 0.195696 0
M  V30 1952 H 188.311 1.89027 -0.192038 0
M  V30 1953 H 186.461 3.49187 1.70296 0
M  V30 1954 H 188.133 4.56308 -0.676793 0
M  V30 1955 H 186.376 4.28033 -0.705019 0
M  V30 1956 H 187.047 5.50733 0.373717 0
M  V30 1957 H 189.523 3.90335 1.44146 0
M  V30 1958 H 188.399 4.97838 2.3119 0
M  V30 1959 H 188.66 3.34188 2.89432 0
M  V30 1960 N 187.719 -0.156864 1.56817 0
M  V30 1961 C 188.996 -0.899244 1.73704 0
M  V30 1962 C 189.376 -1.99771 0.682254 0
M  V30 1963 O 188.724 -2.26515 -0.300522 0
M  V30 1964 C 188.934 -1.45075 3.17418 0
M  V30 1965 C 190.282 -1.91802 3.7881 0
M  V30 1966 O 191.306 -1.54838 3.20786 0
M  V30 1967 O 190.165 -2.5994 4.80722 0
M  V30 1968 H 187.259 -0.424267 0.709878 0
M  V30 1969 H 189.805 -0.143561 1.69092 0
M  V30 1970 H 188.577 -0.660846 3.85679 0
M  V30 1971 H 188.2 -2.27021 3.26416 0
M  V30 1972 N 189.197 -1.51736 -0.425897 0
M  V30 1973 C 190.445 -1.64644 -1.17204 0
M  V30 1974 C 190.766 -0.370486 -1.91448 0
M  V30 1975 O 190.036 0.614088 -1.86026 0
M  V30 1976 H 188.616 -0.606819 -0.435638 0
M  V30 1977 H 191.278 -1.88713 -0.487177 0
M  V30 1978 H 190.374 -2.47958 -1.89534 0
M  V30 1979 N 190.675 0.682077 -1.42076 0
M  V30 1980 C 192.091 0.994324 -1.24841 0
M  V30 1981 C 192.291 2.0096 -0.147389 0
M  V30 1982 O 191.347 2.47822 0.483782 0
M  V30 1983 C 192.66 1.50607 -2.60265 0
M  V30 1984 C 194.208 1.62421 -2.6756 0
M  V30 1985 C 194.683 2.16994 -4.03333 0
M  V30 1986 N 196.174 2.24337 -4.0525 0
M  V30 1987 C 196.909 2.67621 -5.07116 0
M  V30 1988 N 196.405 3.1041 -6.19368 0
M  V30 1989 N 198.198 2.67305 -4.94474 0
M  V30 1990 H 190.349 0.00973908 -2.12398 0
M  V30 1991 H 192.612 0.0668593 -0.945639 0
M  V30 1992 H 192.318 0.834583 -3.41654 0
M  V30 1993 H 192.192 2.48602 -2.83684 0
M  V30 1994 H 194.579 2.28678 -1.86521 0
M  V30 1995 H 194.66 0.629352 -2.47937 0
M  V30 1996 H 194.304 1.51349 -4.84826 0
M  V30 1997 H 194.234 3.17258 -4.20304 0
M  V30 1998 H 196.725 1.94158 -3.24209 0
M  V30 1999 H 197.038 3.42103 -6.92954 0
M  V30 2000 H 195.383 3.08286 -6.22884 0
M  V30 2001 H 198.574 2.33233 -4.05857 0
M  V30 2002 H 198.747 3.00718 -5.73997 0
M  V30 2003 N 192.153 1.28127 0.917671 0
M  V30 2004 C 193.378 1.18007 1.70555 0
M  V30 2005 C 193.803 -0.258257 1.86319 0
M  V30 2006 O 193.161 -1.1869 1.37049 0
M  V30 2007 C 193.209 1.87948 3.07746 0
M  V30 2008 O 192.313 1.18427 3.9503 0
M  V30 2009 H 191.654 0.409867 0.522403 0
M  V30 2010 H 194.184 1.69379 1.1477 0
M  V30 2011 H 194.194 1.95701 3.58001 0
M  V30 2012 H 192.869 2.92573 2.95591 0
M  V30 2013 H 191.446 1.18811 3.53466 0
M  V30 2014 N 193.631 -1.12557 1.10312 0
M  V30 2015 C 194.879 -1.83675 0.843091 0
M  V30 2016 C 195.2 -1.84435 -0.633131 0
M  V30 2017 O 194.47 -1.30657 -1.45964 0
M  V30 2018 H 193.05 -0.680138 0.308904 0
M  V30 2019 H 195.712 -1.36301 1.39313 0
M  V30 2020 H 194.808 -2.87908 1.2048 0
M  V30 2021 N 195.109 -0.891671 -1.2995 0
M  V30 2022 C 196.355 -0.514261 -1.96171 0
M  V30 2023 C 196.688 0.935506 -1.70182 0
M  V30 2024 O 195.963 1.66204 -1.01028 0
M  V30 2025 C 196.246 -0.797719 -3.51153 0
M  V30 2026 C 196.099 -2.2986 -3.86632 0
M  V30 2027 C 197.418 -0.278749 -4.39216 0
M  V30 2028 H 194.537 -0.188314 -0.712535 0
M  V30 2029 H 197.179 -1.11689 -1.53706 0
M  V30 2030 H 195.329 -0.284826 -3.87455 0
M  V30 2031 H 197.001 -2.88042 -3.60319 0
M  V30 2032 H 195.244 -2.76257 -3.34462 0
M  V30 2033 H 195.915 -2.44753 -4.94773 0
M  V30 2034 H 198.391 -0.717825 -4.09862 0
M  V30 2035 H 197.267 -0.506353 -5.46559 0
M  V30 2036 H 197.528 0.820266 -4.34424 0
M  V30 2037 N 196.587 1.43421 -0.653314 0
M  V30 2038 C 197.833 2.02641 -0.175593 0
M  V30 2039 C 198.188 1.5062 1.19713 0
M  V30 2040 O 197.481 0.689697 1.78756 0
M  V30 2041 C 197.675 3.57176 -0.126623 0
M  V30 2042 C 197.504 4.24191 -1.49306 0
M  V30 2043 C 196.274 4.60257 -2.08547 0
M  V30 2044 C 198.472 4.53193 -2.43148 0
M  V30 2045 N 196.454 5.12345 -3.38194 0
M  V30 2046 C 197.825 5.06601 -3.57429 0
M  V30 2047 C 199.88 4.35161 -2.41949 0
M  V30 2048 C 198.583 5.43875 -4.70736 0
M  V30 2049 C 200.609 4.73498 -3.54336 0
M  V30 2050 C 199.971 5.27039 -4.67343 0
M  V30 2051 H 196.07 0.77441 -0.108686 0
M  V30 2052 H 198.654 1.74596 -0.861638 0
M  V30 2053 H 196.825 3.84784 0.528766 0
M  V30 2054 H 198.557 4.03078 0.36198 0
M  V30 2055 H 195.312 4.45302 -1.61255 0
M  V30 2056 H 195.736 5.42842 -4.04538 0
M  V30 2057 H 200.378 3.9304 -1.55818 0
M  V30 2058 H 198.096 5.8494 -5.57558 0
M  V30 2059 H 201.682 4.61241 -3.5461 0
M  V30 2060 H 200.562 5.56153 -5.52868 0
M  V30 2061 N 198.065 0.39524 1.52563 0
M  V30 2062 C 198.995 -0.428384 2.29537 0
M  V30 2063 C 199.976 -1.05831 1.33169 0
M  V30 2064 O 201.161 -1.06995 1.62067 0
M  V30 2065 C 198.291 -1.55274 3.10656 0
M  V30 2066 C 197.245 -1.04855 4.14957 0
M  V30 2067 C 196.571 -2.26543 4.84337 0
M  V30 2068 C 197.871 -0.112324 5.22179 0
M  V30 2069 H 199.565 0.213867 2.98635 0
M  V30 2070 H 197.111 0.104298 1.43622 0
M  V30 2071 H 199.064 -2.1358 3.63265 0
M  V30 2072 H 197.788 -2.22266 2.39302 0
M  V30 2073 H 196.447 -0.487985 3.63338 0
M  V30 2074 H 196.095 -2.92059 4.09525 0
M  V30 2075 H 195.795 -1.93466 5.54837 0
M  V30 2076 H 197.319 -2.85481 5.39753 0
M  V30 2077 H 198.733 -0.603752 5.70112 0
M  V30 2078 H 197.13 0.128968 5.99961 0
M  V30 2079 H 198.2 0.837052 4.77621 0
M  V30 2080 N 199.544 -1.57102 0.125237 0
M  V30 2081 C 200.955 -1.82384 -0.399142 0
M  V30 2082 C 201.306 -1.04276 -1.66195 0
M  V30 2083 O 200.431 -0.281269 -2.14564 0
M  V30 2084 C 201.026 -3.30821 -0.730932 0
M  V30 2085 C 199.585 -3.56762 -1.19992 0
M  V30 2086 C 198.732 -2.7649 -0.211792 0
M  V30 2087 H 201.683 -1.54786 0.350277 0
M  V30 2088 H 201.704 -3.4579 -1.58775 0
M  V30 2089 H 201.216 -3.87643 0.188345 0
M  V30 2090 H 199.317 -3.05305 -2.13588 0
M  V30 2091 H 199.43 -4.65317 -1.14093 0
M  V30 2092 H 197.794 -2.4489 -0.700085 0
M  V30 2093 H 198.577 -3.36073 0.700691 0
M  V30 2094 N 201.022 0.148545 -1.56898 0
M  V30 2095 C 202.27 0.859717 -1.82902 0
M  V30 2096 C 202.591 1.81775 -0.70588 0
M  V30 2097 O 201.861 1.93994 0.272586 0
M  V30 2098 H 200.441 0.320469 -0.674766 0
M  V30 2099 H 203.103 0.142918 -1.94375 0
M  V30 2100 H 202.199 1.4229 -2.77777 0
M  V30 2101 N 202.5 1.5196 0.417844 0
M  V30 2102 C 203.916 1.40569 0.755816 0
M  V30 2103 C 204.116 0.503316 1.95113 0
M  V30 2104 O 203.172 -0.0341925 2.52477 0
M  V30 2105 C 204.485 2.82947 1.01791 0
M  V30 2106 C 206.033 2.92231 1.12116 0
M  V30 2107 C 206.508 4.35559 1.41608 0
M  V30 2108 N 207.999 4.38753 1.48491 0
M  V30 2109 C 208.734 5.46705 1.7292 0
M  V30 2110 N 208.23 6.64788 1.95011 0
M  V30 2111 N 210.023 5.34209 1.74863 0
M  V30 2112 H 202.174 2.09168 -0.369098 0
M  V30 2113 H 204.437 0.942409 -0.102809 0
M  V30 2114 H 204.143 3.5106 0.212081 0
M  V30 2115 H 204.017 3.23462 1.94042 0
M  V30 2116 H 206.404 2.24304 1.9176 0
M  V30 2117 H 206.485 2.55185 0.177225 0
M  V30 2118 H 206.129 5.04042 0.624848 0
M  V30 2119 H 206.059 4.70133 2.37239 0
M  V30 2120 H 208.55 3.5363 1.33244 0
M  V30 2121 H 208.863 7.42845 2.13076 0
M  V30 2122 H 207.208 6.67869 1.92293 0
M  V30 2123 H 210.399 4.40937 1.57137 0
M  V30 2124 H 210.572 6.18415 1.93563 0
M  V30 2125 N 203.978 -0.674533 1.42435 0
M  V30 2126 C 205.389 -1.25514 1.38214 0
M  V30 2127 C 205.74 -1.96055 0.0755464 0
M  V30 2128 O 204.865 -2.00028 -0.8257 0
M  V30 2129 C 205.46 -2.28269 2.50357 0
M  V30 2130 C 204.019 -2.81856 2.49467 0
M  V30 2131 C 203.166 -1.56182 2.29134 0
M  V30 2132 H 206.117 -0.467902 1.51646 0
M  V30 2133 H 206.138 -3.10009 2.20624 0
M  V30 2134 H 205.65 -1.769 3.45439 0
M  V30 2135 H 203.751 -3.37346 1.58204 0
M  V30 2136 H 203.864 -3.30854 3.46515 0
M  V30 2137 H 202.228 -1.82761 1.774 0
M  V30 2138 H 203.011 -1.06778 3.26272 0
M  V30 2139 N 205.456 -1.28612 -0.910864 0
M  V30 2140 C 206.419 -1.12803 -1.9952 0
M  V30 2141 C 207.419 -0.0668264 -1.60661 0
M  V30 2142 O 208.609 -0.312847 -1.71368 0
M  V30 2143 C 205.741 -0.72254 -3.33155 0
M  V30 2144 H 206.934 -2.09109 -2.14973 0
M  V30 2145 H 204.487 -1.11639 -1.09391 0
M  V30 2146 H 205.222 0.241152 -3.23402 0
M  V30 2147 H 205.007 -1.48916 -3.62721 0
M  V30 2148 H 206.497 -0.634666 -4.12749 0
M  V30 2149 N 206.934 1.1197 -1.10907 0
M  V30 2150 C 208.35 1.35591 -0.841852 0
M  V30 2151 C 208.55 1.94233 0.536246 0
M  V30 2152 O 207.606 2.1717 1.28816 0
M  V30 2153 C 208.919 2.29284 -1.94549 0
M  V30 2154 C 210.467 2.42862 -1.97451 0
M  V30 2155 C 210.942 3.39873 -3.07002 0
M  V30 2156 N 212.433 3.47433 -3.06341 0
M  V30 2157 C 213.168 4.22421 -3.87748 0
M  V30 2158 N 212.664 5.00432 -4.79103 0
M  V30 2159 N 214.457 4.17876 -3.75946 0
M  V30 2160 H 206.608 0.722664 -1.99728 0
M  V30 2161 H 208.871 0.380635 -0.868229 0
M  V30 2162 H 208.577 1.93378 -2.93765 0
M  V30 2163 H 208.451 3.29452 -1.83688 0
M  V30 2164 H 210.838 2.78046 -0.988645 0
M  V30 2165 H 210.919 1.42566 -2.12388 0
M  V30 2166 H 210.563 3.05417 -4.05811 0
M  V30 2167 H 210.493 4.40011 -2.89306 0
M  V30 2168 H 212.984 2.91784 -2.40147 0
M  V30 2169 H 213.297 5.55002 -5.37766 0
M  V30 2170 H 211.642 4.99612 -4.83128 0
M  V30 2171 H 214.833 3.56016 -3.03924 0
M  V30 2172 H 215.006 4.76061 -4.39624 0
M  V30 2173 N 208.412 0.89855 1.29475 0
M  V30 2174 C 209.359 0.373819 2.27753 0
M  V30 2175 C 210.329 -0.543444 1.56958 0
M  V30 2176 O 211.514 -0.468934 1.84948 0
M  V30 2177 C 208.654 -0.393648 3.42848 0
M  V30 2178 C 207.767 0.554379 4.28428 0
M  V30 2179 C 206.902 -0.230026 5.30702 0
M  V30 2180 C 205.941 0.712599 6.07938 0
M  V30 2181 N 205.078 -0.0373283 7.0209 0
M  V30 2182 H 209.918 1.21699 2.72017 0
M  V30 2183 H 207.455 0.611456 1.33789 0
M  V30 2184 H 209.413 -0.85466 4.08352 0
M  V30 2185 H 208.043 -1.20128 2.99615 0
M  V30 2186 H 207.095 1.13391 3.63107 0
M  V30 2187 H 208.407 1.27597 4.82204 0
M  V30 2188 H 207.561 -0.752288 6.02018 0
M  V30 2189 H 206.3 -0.984758 4.77654 0
M  V30 2190 H 205.305 1.24637 5.35486 0
M  V30 2191 H 206.53 1.46664 6.63074 0
M  V30 2192 H 204.476 -0.774348 6.51414 0
M  V30 2193 H 204.393 0.624374 7.53417 0
M  V30 2194 H 205.661 -0.539891 7.77628 0
M  V30 2195 N 209.89 -1.43072 0.660911 0
M  V30 2196 C 211.136 -2.0202 0.177708 0
M  V30 2197 C 211.469 -1.52066 -1.20787 0
M  V30 2198 O 210.744 -0.716987 -1.80802 0
M  V30 2199 C 211.027 -3.59561 0.197019 0
M  V30 2200 C 210.88 -4.19727 1.61706 0
M  V30 2201 C 212.199 -4.37664 -0.462396 0
M  V30 2202 H 209.318 -0.734034 0.0660494 0
M  V30 2203 H 211.96 -1.70272 0.843058 0
M  V30 2204 H 210.11 -3.86739 -0.369527 0
M  V30 2205 H 211.782 -4.03553 2.23479 0
M  V30 2206 H 210.025 -3.76084 2.16201 0
M  V30 2207 H 210.696 -5.28834 1.58237 0
M  V30 2208 H 213.172 -4.16095 0.0197215 0
M  V30 2209 H 212.048 -5.47305 -0.418188 0
M  V30 2210 H 212.309 -4.14493 -1.53778 0
M  V30 2211 N 211.368 -0.403325 -1.52352 0
M  V30 2212 C 212.331 0.413051 -2.25447 0
M  V30 2213 C 213.331 0.978513 -1.276 0
M  V30 2214 O 214.521 0.858305 -1.51587 0
M  V30 2215 C 211.653 1.58087 -3.02029 0
M  V30 2216 H 212.846 -0.227094 -2.99039 0
M  V30 2217 H 210.399 -0.155722 -1.55522 0
M  V30 2218 H 211.134 2.25804 -2.32772 0
M  V30 2219 H 210.919 1.18195 -3.73861 0
M  V30 2220 H 212.409 2.1585 -3.57489 0
M  V30 2221 N 212.846 1.57033 -0.133567 0
M  V30 2222 C 213.809 2.14897 0.796995 0
M  V30 2223 C 214.809 1.0874 1.18458 0
M  V30 2224 O 215.999 1.34446 1.1077 0
M  V30 2225 C 213.131 2.70112 2.07973 0
M  V30 2226 H 214.324 2.98457 0.293873 0
M  V30 2227 H 211.877 1.55871 0.115787 0
M  V30 2228 H 212.612 1.9018 2.62682 0
M  V30 2229 H 212.397 3.47764 1.81115 0
M  V30 2230 H 213.887 3.14738 2.74462 0
M  V30 2231 N 214.325 -0.140222 1.56975 0
M  V30 2232 C 215.574 -0.850152 1.82908 0
M  V30 2233 C 215.887 -1.82028 0.715892 0
M  V30 2234 O 217.093 -2.57485 0.861016 0
M  V30 2235 C 215.549 -1.5625 3.24213 0
M  V30 2236 C 215.157 -0.63443 4.43485 0
M  V30 2237 C 216.901 -2.25881 3.59413 0
M  V30 2238 C 214.808 -1.34879 5.75814 0
M  V30 2239 H 213.738 -0.321221 0.682153 0
M  V30 2240 H 216.389 -0.102874 1.83211 0
M  V30 2241 H 214.771 -2.35565 3.18316 0
M  V30 2242 H 215.945 0.12398 4.60633 0
M  V30 2243 H 214.26 -0.0461836 4.16374 0
M  V30 2244 H 216.857 -2.79978 4.5554 0
M  V30 2245 H 217.2 -3.02693 2.85802 0
M  V30 2246 H 217.733 -1.53477 3.67001 0
M  V30 2247 H 214.472 -0.622385 6.52539 0
M  V30 2248 H 213.992 -2.07974 5.6259 0
M  V30 2249 H 215.671 -1.88784 6.18845 0
M  V30 2250 N 215.803 -1.52179 -0.40978 0
M  V30 2251 C 217.051 -1.65878 -1.15451 0
M  V30 2252 C 217.372 -0.390771 -1.91044 0
M  V30 2253 O 216.642 0.594323 -1.86667 0
M  V30 2254 H 215.222 -0.611405 -0.429177 0
M  V30 2255 H 217.884 -1.89219 -0.467134 0
M  V30 2256 H 216.98 -2.49954 -1.86894 0
M  V30 2257 N 217.281 0.66697 -1.42791 0
M  V30 2258 C 218.527 1.4291 -1.43891 0
M  V30 2259 C 218.86 1.94114 -0.0578972 0
M  V30 2260 O 218.135 1.71414 0.91911 0
M  V30 2261 C 218.418 2.62049 -2.46987 0
M  V30 2262 C 218.271 2.16426 -3.94309 0
M  V30 2263 C 219.59 3.64266 -2.46978 0
M  V30 2264 H 216.709 0.518306 -0.523954 0
M  V30 2265 H 219.351 0.757321 -1.74255 0
M  V30 2266 H 217.501 3.19361 -2.21225 0
M  V30 2267 H 219.173 1.64221 -4.31079 0
M  V30 2268 H 217.416 1.47925 -4.078 0
M  V30 2269 H 218.087 3.02038 -4.62036 0
M  V30 2270 H 220.563 3.16686 -2.69906 0
M  V30 2271 H 219.439 4.45196 -3.21079 0
M  V30 2272 H 219.7 4.15927 -1.49857 0
M  V30 2273 N 218.759 1.29093 0.90403 0
M  V30 2274 C 220.175 1.07011 1.1841 0
M  V30 2275 C 220.375 -0.181358 2.00682 0
M  V30 2276 O 219.431 -0.880331 2.36657 0
M  V30 2277 C 220.744 2.32311 1.90924 0
M  V30 2278 C 222.292 2.37587 2.03768 0
M  V30 2279 C 222.767 3.62679 2.79693 0
M  V30 2280 N 224.258 3.63376 2.87249 0
M  V30 2281 C 224.993 4.56848 3.46522 0
M  V30 2282 N 224.489 5.60648 4.06996 0
M  V30 2283 N 226.282 4.44426 3.44154 0
M  V30 2284 H 218.433 2.09412 0.354993 0
M  V30 2285 H 220.696 0.922181 0.219742 0
M  V30 2286 H 220.402 3.23536 1.37905 0
M  V30 2287 H 220.276 2.39483 2.91424 0
M  V30 2288 H 222.663 1.46853 2.55965 0
M  V30 2289 H 222.744 2.34403 1.02415 0
M  V30 2290 H 222.388 4.53762 2.28173 0
M  V30 2291 H 222.318 3.63119 3.81381 0
M  V30 2292 H 224.809 2.88321 2.44293 0
M  V30 2293 H 225.122 6.28101 4.50232 0
M  V30 2294 H 223.467 5.64463 4.05471 0
M  V30 2295 H 226.658 3.62529 2.96126 0
M  V30 2296 H 226.831 5.17457 3.90054 0
M  V30 2297 N 220.237 -1.11381 1.11499 0
M  V30 2298 C 221.483 -1.83403 0.865512 0
M  V30 2299 C 221.816 -1.84459 -0.607329 0
M  V30 2300 O 221.091 -1.29811 -1.44842 0
M  V30 2301 C 221.374 -3.30552 1.42855 0
M  V30 2302 C 221.227 -3.37886 2.96906 0
M  V30 2303 C 222.546 -4.26643 1.08 0
M  V30 2304 H 219.665 -0.665879 0.31587 0
M  V30 2305 H 222.307 -1.30601 1.37998 0
M  V30 2306 H 220.457 -3.75648 0.990985 0
M  V30 2307 H 222.129 -3.01343 3.49271 0
M  V30 2308 H 220.372 -2.78088 3.32941 0
M  V30 2309 H 221.043 -4.41458 3.31389 0
M  V30 2310 H 223.519 -3.89729 1.45775 0
M  V30 2311 H 222.395 -5.27986 1.50072 0
M  V30 2312 H 222.656 -4.42099 -0.00915037 0
M  V30 2313 N 221.715 -0.905404 -1.28997 0
M  V30 2314 C 222.94 -0.549175 -1.99997 0
M  V30 2315 C 223.365 0.860276 -1.67275 0
M  V30 2316 O 222.723 1.57355 -0.900502 0
M  V30 2317 C 222.771 -0.755185 -3.52604 0
M  V30 2318 O 221.875 0.189692 -4.11964 0
M  V30 2319 H 221.216 -0.213899 -0.628604 0
M  V30 2320 H 223.746 -1.21856 -1.64354 0
M  V30 2321 H 223.756 -0.662045 -4.02593 0
M  V30 2322 H 222.431 -1.78271 -3.75755 0
M  V30 2323 H 221.008 0.0485257 -3.72868 0
M  V30 2324 N 223.193 1.4272 -0.668489 0
M  V30 2325 C 224.609 1.55992 -0.33745 0
M  V30 2326 C 224.809 1.64933 1.15756 0
M  V30 2327 O 223.865 1.61278 1.94282 0
M  V30 2328 C 225.178 2.81314 -1.06222 0
M  V30 2329 C 226.726 2.95078 -1.04394 0
M  V30 2330 C 227.201 4.23252 -1.74991 0
M  V30 2331 N 228.692 4.3015 -1.71829 0
M  V30 2332 C 229.427 5.28127 -2.23315 0
M  V30 2333 N 228.923 6.32293 -2.83156 0
M  V30 2334 N 230.716 5.19882 -2.13726 0
M  V30 2335 H 222.867 1.3516 -1.63846 0
M  V30 2336 H 225.13 0.650174 -0.689912 0
M  V30 2337 H 224.836 2.80823 -2.11734 0
M  V30 2338 H 224.71 3.72012 -0.62344 0
M  V30 2339 H 227.097 2.951 0.0028244 0
M  V30 2340 H 227.178 2.05627 -1.52155 0
M  V30 2341 H 226.822 4.2399 -2.79633 0
M  V30 2342 H 226.752 5.11626 -1.24685 0
M  V30 2343 H 229.243 3.55499 -1.28175 0
M  V30 2344 H 229.556 7.03398 -3.20079 0
M  V30 2345 H 227.901 6.32873 -2.87223 0
M  V30 2346 H 231.092 4.37423 -1.66669 0
M  V30 2347 H 231.265 5.96077 -2.54158 0
M  V30 2348 N 224.671 0.411399 1.52136 0
M  V30 2349 C 225.634 -0.401089 2.25663 0
M  V30 2350 C 226.634 -0.971732 1.28117 0
M  V30 2351 O 227.824 -0.850254 1.52041 0
M  V30 2352 C 224.956 -1.56483 3.02863 0
M  V30 2353 H 226.149 0.24295 2.98914 0
M  V30 2354 H 223.702 0.163968 1.55438 0
M  V30 2355 H 224.437 -2.24567 2.33967 0
M  V30 2356 H 224.222 -1.16211 3.74483 0
M  V30 2357 H 225.712 -2.13951 3.58629 0
M  V30 2358 N 226.149 -1.5696 0.141893 0
M  V30 2359 C 227.377 -2.00322 -0.517579 0
M  V30 2360 C 227.792 -1.02193 -1.58752 0
M  V30 2361 O 227.149 -0.0181619 -1.82491 0
M  V30 2362 C 227.2 -3.43618 -1.12289 0
M  V30 2363 O 226.921 -4.37995 -0.0956929 0
M  V30 2364 C 228.422 -4.02231 -1.86347 0
M  V30 2365 H 225.642 -0.657243 -0.135177 0
M  V30 2366 H 228.186 -2.03146 0.234973 0
M  V30 2367 H 226.341 -3.41662 -1.82609 0
M  V30 2368 H 226.755 -5.21729 -0.538469 0
M  V30 2369 H 228.229 -5.04509 -2.23997 0
M  V30 2370 H 228.706 -3.42655 -2.74744 0
M  V30 2371 H 229.312 -4.07802 -1.20737 0
M  V30 2372 N 227.627 0.131896 -1.57047 0
M  V30 2373 C 228.855 0.856461 -1.88341 0
M  V30 2374 C 229.27 1.74042 -0.731757 0
M  V30 2375 O 228.627 1.80051 0.297945 0
M  V30 2376 C 228.678 1.70064 -3.18999 0
M  V30 2377 O 228.399 0.852278 -4.2973 0
M  V30 2378 C 229.9 2.53148 -3.63911 0
M  V30 2379 H 227.12 0.246885 -0.62393 0
M  V30 2380 H 229.664 0.120152 -2.04147 0
M  V30 2381 H 227.819 2.38984 -3.04902 0
M  V30 2382 H 228.233 1.43329 -5.04537 0
M  V30 2383 H 229.707 3.07931 -4.58129 0
M  V30 2384 H 230.184 3.29901 -2.89935 0
M  V30 2385 H 230.79 1.89492 -3.80753 0
M  V30 2386 N 229.106 1.52395 0.401703 0
M  V30 2387 C 230.036 1.79231 1.49661 0
M  V30 2388 C 231.017 0.643654 1.57452 0
M  V30 2389 O 232.202 0.889989 1.72606 0
M  V30 2390 C 229.332 1.94971 2.87409 0
M  V30 2391 C 228.286 3.10604 2.94465 0
M  V30 2392 C 227.612 3.11577 4.34538 0
M  V30 2393 C 228.912 4.49921 2.6527 0
M  V30 2394 H 230.606 2.70917 1.27454 0
M  V30 2395 H 228.152 1.30362 0.6117 0
M  V30 2396 H 230.105 2.12328 3.63999 0
M  V30 2397 H 228.829 0.999632 3.10926 0
M  V30 2398 H 227.488 2.93009 2.20321 0
M  V30 2399 H 227.136 2.14277 4.55076 0
M  V30 2400 H 226.836 3.89247 4.40183 0
M  V30 2401 H 228.36 3.31073 5.13053 0
M  V30 2402 H 229.774 4.67683 3.31581 0
M  V30 2403 H 228.171 5.29564 2.82281 0
M  V30 2404 H 229.241 4.57507 1.60671 0
M  V30 2405 N 230.584 -0.659388 1.43143 0
M  V30 2406 C 231.534 -1.7655 1.44271 0
M  V30 2407 C 232.518 -1.57847 0.311961 0
M  V30 2408 O 233.71 -1.68064 0.555306 0
M  V30 2409 C 230.839 -3.15104 1.36251 0
M  V30 2410 C 229.925 -3.39377 2.54331 0
M  V30 2411 N 230.316 -3.34153 3.79704 0
M  V30 2412 C 228.614 -3.70072 2.48922 0
M  V30 2413 C 229.315 -3.58337 4.58225 0
M  V30 2414 N 228.291 -3.79851 3.88863 0
M  V30 2415 H 232.093 -1.70928 2.39083 0
M  V30 2416 H 229.607 -0.860823 1.37708 0
M  V30 2417 H 231.604 -3.94389 1.35141 0
M  V30 2418 H 230.264 -3.21913 0.424531 0
M  V30 2419 H 231.275 -3.13704 4.1208 0
M  V30 2420 H 227.952 -3.84034 1.63781 0
M  V30 2421 H 229.342 -3.60129 5.67236 0
M  V30 2422 N 232.062 -1.29571 -0.897171 0
M  V30 2423 C 233.31 -1.17456 -1.64464 0
M  V30 2424 C 233.631 0.273698 -1.9307 0
M  V30 2425 O 232.901 1.18684 -1.55855 0
M  V30 2426 H 231.481 -0.431706 -0.609622 0
M  V30 2427 H 234.143 -1.62531 -1.07562 0
M  V30 2428 H 233.239 -1.72648 -2.59998 0
M  V30 2429 N 233.54 1.10788 -1.12088 0
M  V30 2430 C 234.787 1.82671 -0.873931 0
M  V30 2431 C 235.115 1.85004 0.600311 0
M  V30 2432 O 234.37 1.30365 1.45957 0
M  V30 2433 C 234.669 3.29294 -1.38926 0
M  V30 2434 C 234.335 3.47113 -2.87791 0
M  V30 2435 C 232.997 3.51684 -3.28439 0
M  V30 2436 C 235.349 3.52808 -3.83635 0
M  V30 2437 C 232.677 3.59513 -4.63646 0
M  V30 2438 C 235.029 3.62169 -5.18668 0
M  V30 2439 C 233.693 3.65003 -5.58864 0
M  V30 2440 H 232.963 0.668441 -0.319794 0
M  V30 2441 H 235.61 1.30613 -1.40045 0
M  V30 2442 H 233.915 3.83894 -0.783122 0
M  V30 2443 H 235.612 3.83416 -1.17443 0
M  V30 2444 H 232.202 3.4423 -2.5535 0
M  V30 2445 H 236.386 3.4853 -3.53328 0
M  V30 2446 H 231.642 3.59987 -4.94185 0
M  V30 2447 H 235.816 3.6552 -5.92763 0
M  V30 2448 H 233.443 3.70822 -6.63623 0
M  V30 2449 N 235.018 0.912232 1.28515 0
M  V30 2450 C 235.981 0.404223 2.25607 0
M  V30 2451 C 236.981 -0.468602 1.53821 0
M  V30 2452 O 238.171 -0.271873 1.72065 0
M  V30 2453 C 235.303 -0.420653 3.38295 0
M  V30 2454 H 236.496 1.26188 2.7206 0
M  V30 2455 H 234.049 0.691495 1.40171 0
M  V30 2456 H 234.784 -1.29777 2.97201 0
M  V30 2457 H 234.569 0.204935 3.91564 0
M  V30 2458 H 236.059 -0.766971 4.10496 0
M  V30 2459 N 236.496 -1.42363 0.676048 0
M  V30 2460 C 237.426 -2.33497 0.0124832 0
M  V30 2461 C 238.407 -1.50748 -0.787981 0
M  V30 2462 O 239.592 -1.79346 -0.744884 0
M  V30 2463 C 236.722 -3.34377 -0.938582 0
M  V30 2464 C 235.676 -4.27289 -0.246622 0
M  V30 2465 C 235.002 -5.18386 -1.31071 0
M  V30 2466 C 236.302 -5.14916 0.875125 0
M  V30 2467 H 237.996 -2.89233 0.773593 0
M  V30 2468 H 235.542 -1.39073 0.37346 0
M  V30 2469 H 237.495 -3.97044 -1.41188 0
M  V30 2470 H 236.219 -2.76947 -1.73113 0
M  V30 2471 H 234.878 -3.66018 0.206456 0
M  V30 2472 H 234.526 -4.57282 -2.09528 0
M  V30 2473 H 234.226 -5.81378 -0.852839 0
M  V30 2474 H 235.75 -5.83929 -1.78492 0
M  V30 2475 H 237.164 -5.71262 0.482983 0
M  V30 2476 H 235.561 -5.86747 1.25887 0
M  V30 2477 H 236.631 -4.53242 1.72335 0
M  V30 2478 N 237.974 -0.419461 -1.51915 0
M  V30 2479 C 238.922 0.415502 -2.28859 0
M  V30 2480 C 239.916 1.03674 -1.3397 0
M  V30 2481 O 241.122 0.973757 -1.51387 0
M  V30 2482 H 237.497 0.152786 -0.736315 0
M  V30 2483 H 239.468 -0.254531 -2.97312 0
M  V30 2484 C 238.217 1.51425 -3.12995 0
M  V30 2485 H 237.54 1.04556 -3.85886 0
M  V30 2486 H 238.98 2.07208 -3.6992 0
M  V30 2487 C 237.439 2.48745 -2.27217 0
M  V30 2488 O 237.969 3.52871 -1.9195 0
M  V30 2489 N 236.175 2.19202 -1.90785 0
M  V30 2490 H 235.722 1.34556 -2.19664 0
M  V30 2491 H 235.68 2.84561 -1.33687 0
M  V30 2492 N 239.452 1.56882 -0.150215 0
M  V30 2493 C 240.692 1.98119 0.502804 0
M  V30 2494 C 241.056 1.03327 1.61826 0
M  V30 2495 O 242.257 1.33621 2.33236 0
M  V30 2496 C 240.528 3.43329 0.992988 0
M  V30 2497 S 242.087 4.0659 1.65015 0
M  V30 2498 H 238.905 0.692189 0.162467 0
M  V30 2499 H 241.507 1.93988 -0.242689 0
M  V30 2500 H 240.211 4.10046 0.170436 0
M  V30 2501 H 239.742 3.5118 1.77303 0
M  V30 2502 H 241.757 3.99906 2.93752 0
M  V30 2503 N 240.93 -0.123565 1.57115 0
M  V30 2504 C 242.207 -0.862196 1.75572 0
M  V30 2505 C 242.587 -1.98279 0.724475 0
M  V30 2506 O 241.935 -2.27102 -0.252407 0
M  V30 2507 C 242.145 -1.38309 3.20424 0
M  V30 2508 C 243.493 -1.83724 3.82793 0
M  V30 2509 O 244.517 -1.47999 3.23998 0
M  V30 2510 O 243.376 -2.49685 4.86127 0
M  V30 2511 H 240.47 -0.409113 0.718718 0
M  V30 2512 H 243.016 -0.107661 1.69358 0
M  V30 2513 H 241.788 -0.578889 3.86994 0
M  V30 2514 H 241.411 -2.20046 3.31158 0
M  V30 2515 N 242.408 -1.52605 -0.393616 0
M  V30 2516 C 243.648 -1.6911 -1.1481 0
M  V30 2517 C 244.012 -0.41969 -1.87357 0
M  V30 2518 O 245.213 -0.461034 -2.64817 0
M  V30 2519 C 243.484 -2.88909 -2.10395 0
M  V30 2520 S 245.043 -3.25977 -2.93742 0
M  V30 2521 H 241.861 -0.595337 -0.38871 0
M  V30 2522 H 244.463 -1.90641 -0.433178 0
M  V30 2523 H 243.167 -3.79672 -1.55812 0
M  V30 2524 H 242.698 -2.69698 -2.86403 0
M  V30 2525 H 244.713 -2.75806 -4.12487 0
M  V30 2526 N 243.887 0.651787 -1.4349 0
M  V30 2527 C 245.164 1.40909 -1.35661 0
M  V30 2528 C 245.544 2.11099 -0.00511733 0
M  V30 2529 O 244.892 2.04892 1.0115 0
M  V30 2530 C 245.102 2.3926 -2.54078 0
M  V30 2531 C 246.45 3.03217 -2.97228 0
M  V30 2532 O 247.474 2.49588 -2.54135 0
M  V30 2533 O 246.333 4.00455 -3.71885 0
M  V30 2534 H 243.427 0.629625 -0.536191 0
M  V30 2535 H 245.973 0.678575 -1.55542 0
M  V30 2536 H 244.745 1.86352 -3.44076 0
M  V30 2537 H 244.368 3.1976 -2.36303 0
M  V30 2538 N 245.365 1.30045 0.890287 0
M  V30 2539 C 246.295 1.18541 2.01172 0
M  V30 2540 C 247.276 0.0773356 1.69924 0
M  V30 2541 O 248.461 0.25845 1.92473 0
M  V30 2542 C 245.591 0.870941 3.36202 0
M  V30 2543 C 244.545 1.93637 3.81692 0
M  V30 2544 C 243.871 1.475 5.13953 0
M  V30 2545 C 245.171 3.34666 4.00994 0
M  V30 2546 H 246.865 2.12359 2.11054 0
M  V30 2547 H 244.411 1.02238 1.01407 0
M  V30 2548 H 246.364 0.777141 4.14172 0
M  V30 2549 H 245.088 -0.102926 3.26438 0
M  V30 2550 H 243.747 2.01972 3.05946 0
M  V30 2551 H 243.395 0.489551 5.00612 0
M  V30 2552 H 243.095 2.1876 5.4536 0
M  V30 2553 H 244.619 1.39489 5.94454 0
M  V30 2554 H 246.033 3.2912 4.69417 0
M  V30 2555 H 244.43 4.03966 4.43769 0
M  V30 2556 H 245.5 3.76949 3.05021 0
M  V30 2557 N 246.843 -1.10192 1.12674 0
M  V30 2558 C 247.806 -2.14786 0.799979 0
M  V30 2559 C 248.806 -1.59711 -0.18685 0
M  V30 2560 O 249.996 -1.74156 0.0392558 0
M  V30 2561 C 247.128 -3.40374 0.189228 0
M  V30 2562 H 248.321 -2.45203 1.72671 0
M  V30 2563 H 245.874 -1.25597 0.930326 0
M  V30 2564 H 246.609 -3.15577 -0.747107 0
M  V30 2565 H 246.394 -3.81637 0.899766 0
M  V30 2566 H 247.884 -4.17594 -0.0228143 0
M  V30 2567 N 248.321 -0.919034 -1.28029 0
M  V30 2568 C 249.284 -0.416182 -2.2539 0
M  V30 2569 C 250.284 0.460438 -1.54067 0
M  V30 2570 O 251.474 0.262744 -1.72207 0
M  V30 2571 C 248.606 0.402707 -3.38513 0
M  V30 2572 H 249.799 -1.27629 -2.71387 0
M  V30 2573 H 247.352 -0.698919 -1.39803 0
M  V30 2574 H 248.087 1.282 -2.97885 0
M  V30 2575 H 247.872 -0.225698 -3.9145 0
M  V30 2576 H 249.362 0.745191 -4.10897 0
M  V30 2577 N 249.799 1.42003 -0.683588 0
M  V30 2578 C 251.046 2.01413 -0.209514 0
M  V30 2579 C 251.374 1.54088 1.1869 0
M  V30 2580 O 250.629 0.737591 1.81268 0
M  V30 2581 C 250.928 3.56827 -0.202357 0
M  V30 2582 C 250.594 4.23617 -1.54464 0
M  V30 2583 C 249.256 4.41577 -1.91215 0
M  V30 2584 C 251.608 4.61178 -2.42826 0
M  V30 2585 C 248.936 4.9437 -3.15935 0
M  V30 2586 C 251.288 5.15355 -3.66867 0
M  V30 2587 C 249.952 5.31528 -4.03776 0
M  V30 2588 H 249.222 0.737023 -0.0766668 0
M  V30 2589 H 251.869 1.70067 -0.880312 0
M  V30 2590 H 250.174 3.87892 0.551969 0
M  V30 2591 H 251.871 4.00588 0.181793 0
M  V30 2592 H 248.461 4.10004 -1.24877 0
M  V30 2593 H 252.645 4.46968 -2.15717 0
M  V30 2594 H 247.901 5.05076 -3.44541 0
M  V30 2595 H 252.075 5.43402 -4.35531 0
M  V30 2596 H 249.702 5.72199 -5.00492 0
M  V30 2597 N 251.277 0.427512 1.51691 0
M  V30 2598 C 252.505 -0.141191 2.06418 0
M  V30 2599 C 252.92 -1.37303 1.29589 0
M  V30 2600 O 252.277 -1.79059 0.352732 0
M  V30 2601 C 252.328 -0.473266 3.58389 0
M  V30 2602 O 252.049 0.709673 4.32314 0
M  V30 2603 C 253.55 -1.09371 4.29596 0
M  V30 2604 H 250.77 -0.0122747 0.670888 0
M  V30 2605 H 253.314 0.603764 1.95384 0
M  V30 2606 H 251.469 -1.16812 3.69369 0
M  V30 2607 H 251.883 0.42807 5.2275 0
M  V30 2608 H 253.357 -1.27613 5.37046 0
M  V30 2609 H 253.834 -2.072 3.87253 0
M  V30 2610 H 254.44 -0.43853 4.23033 0
M  V30 2611 N 252.755 -1.56801 0.158532 0
M  V30 2612 C 253.718 -2.16138 -0.762705 0
M  V30 2613 C 254.718 -1.1061 -1.16713 0
M  V30 2614 O 255.908 -1.36191 -1.08617 0
M  V30 2615 C 253.04 -2.73386 -2.03649 0
M  V30 2616 H 254.233 -2.98886 -0.246354 0
M  V30 2617 H 251.786 -1.56035 -0.0909744 0
M  V30 2618 H 252.521 -1.94335 -2.59623 0
M  V30 2619 H 252.306 -3.50601 -1.75559 0
M  V30 2620 H 253.796 -3.19065 -2.6942 0
M  V30 2621 N 254.233 0.115231 -1.57178 0
M  V30 2622 C 255.482 0.820945 -1.84237 0
M  V30 2623 C 255.795 1.80866 -0.744761 0
M  V30 2624 O 257.001 2.56083 -0.901871 0
M  V30 2625 C 255.457 1.51072 -3.26658 0
M  V30 2626 C 255.065 0.563795 -4.44438 0
M  V30 2627 C 256.809 2.20134 -3.62962 0
M  V30 2628 C 254.716 1.25701 -5.77887 0
M  V30 2629 H 253.646 0.310328 -0.687177 0
M  V30 2630 H 256.297 0.0737134 -1.83352 0
M  V30 2631 H 254.679 2.30471 -3.22024 0
M  V30 2632 H 255.853 -0.197247 -4.60378 0
M  V30 2633 H 254.168 -0.0200638 -4.16395 0
M  V30 2634 H 256.765 2.72696 -4.59936 0
M  V30 2635 H 257.108 2.98107 -2.90582 0
M  V30 2636 H 257.641 1.47619 -3.69396 0
M  V30 2637 H 254.38 0.518493 -6.53446 0
M  V30 2638 H 253.9 1.98997 -5.65827 0
M  V30 2639 H 255.579 1.78915 -6.2177 0
M  V30 2640 N 255.711 1.52812 0.385517 0
M  V30 2641 C 256.957 1.68275 1.13188 0
M  V30 2642 C 257.29 0.423179 1.89533 0
M  V30 2643 O 256.565 -0.579113 1.85679 0
M  V30 2644 C 256.848 2.92001 2.1073 0
M  V30 2645 C 256.701 4.28067 1.38125 0
M  V30 2646 C 258.02 3.11283 3.11113 0
M  V30 2647 H 255.139 0.612352 0.410115 0
M  V30 2648 H 257.781 1.85415 0.414869 0
M  V30 2649 H 255.931 2.77519 2.71874 0
M  V30 2650 H 257.603 4.54324 0.799187 0
M  V30 2651 H 255.846 4.28388 0.683092 0
M  V30 2652 H 256.517 5.10733 2.09417 0
M  V30 2653 H 258.993 3.2482 2.6006 0
M  V30 2654 H 257.869 3.99325 3.76605 0
M  V30 2655 H 258.13 2.25656 3.80173 0
M  V30 2656 N 257.189 -0.644168 1.43834 0
M  V30 2657 C 258.6 -1.22554 1.40845 0
M  V30 2658 C 258.951 -1.9585 0.117115 0
M  V30 2659 O 258.076 -2.01734 -0.783086 0
M  V30 2660 C 258.671 -2.22907 2.55143 0
M  V30 2661 C 257.23 -2.76501 2.5539 0
M  V30 2662 C 256.377 -1.51287 2.32396 0
M  V30 2663 H 259.328 -0.43563 1.52604 0
M  V30 2664 H 259.349 -3.05259 2.2715 0
M  V30 2665 H 258.861 -1.69533 3.49114 0
M  V30 2666 H 256.962 -3.33914 1.65324 0
M  V30 2667 H 257.075 -3.23429 3.53455 0
M  V30 2668 H 255.439 -1.78957 1.81236 0
M  V30 2669 H 256.222 -0.998336 3.28463 0
M  V30 2670 N 258.668 -1.30515 -0.883378 0
M  V30 2671 C 259.908 -1.20716 -1.64946 0
M  V30 2672 C 260.272 0.234072 -1.90568 0
M  V30 2673 O 261.473 0.455335 -2.64915 0
M  V30 2674 C 259.744 -2.01444 -2.9522 0
M  V30 2675 S 261.303 -2.0836 -3.86175 0
M  V30 2676 H 258.121 -0.430165 -0.566109 0
M  V30 2677 H 260.723 -1.65011 -1.04841 0
M  V30 2678 H 259.427 -3.05268 -2.74298 0
M  V30 2679 H 258.958 -1.57817 -3.60357 0
M  V30 2680 H 260.973 -1.21215 -4.81167 0
M  V30 2681 N 260.146 1.09593 -1.13257 0
M  V30 2682 C 261.394 1.81375 -0.891492 0
M  V30 2683 C 261.715 1.86049 0.584009 0
M  V30 2684 O 260.985 1.34481 1.42449 0
M  V30 2685 H 259.565 0.671708 -0.326828 0
M  V30 2686 H 262.227 1.3256 -1.42877 0
M  V30 2687 H 261.323 2.84612 -1.28071 0
M  V30 2688 N 261.624 0.925811 1.2754 0
M  V30 2689 C 262.873 0.561084 1.93739 0
M  V30 2690 C 263.186 -0.901685 1.73577 0
M  V30 2691 O 264.392 -1.37511 2.34101 0
M  V30 2692 C 262.848 0.952668 3.47062 0
M  V30 2693 C 262.456 2.43599 3.75983 0
M  V30 2694 C 264.2 0.659103 4.19352 0
M  V30 2695 C 262.107 2.76707 5.22673 0
M  V30 2696 H 261.037 0.206122 0.725279 0
M  V30 2697 H 263.688 1.12637 1.44863 0
M  V30 2698 H 262.07 0.316053 3.94737 0
M  V30 2699 H 263.244 3.12035 3.39073 0
M  V30 2700 H 261.559 2.70125 3.16893 0
M  V30 2701 H 264.156 0.882985 5.27359 0
M  V30 2702 H 264.499 -0.403607 4.14339 0
M  V30 2703 H 265.032 1.25473 3.77494 0
M  V30 2704 H 261.771 3.8188 5.32774 0
M  V30 2705 H 261.291 2.12919 5.60737 0
M  V30 2706 H 262.97 2.6435 5.90532 0
M  V30 2707 N 263.102 -1.41638 0.69111 0
M  V30 2708 C 264.327 -2.06148 0.227583 0
M  V30 2709 C 264.752 -1.51652 -1.11281 0
M  V30 2710 O 264.11 -0.64164 -1.69566 0
M  V30 2711 C 264.158 -3.60095 0.190858 0
M  V30 2712 O 263.262 -4.03845 -0.835664 0
M  V30 2713 H 262.603 -0.654434 0.112306 0
M  V30 2714 H 265.133 -1.81484 0.944714 0
M  V30 2715 H 265.143 -4.07995 0.020207 0
M  V30 2716 H 263.818 -3.99129 1.16915 0
M  V30 2717 H 262.395 -3.67458 -0.63473 0
M  V30 2718 N 264.58 -0.43555 -1.51462 0
M  V30 2719 C 265.857 0.191364 -1.94662 0
M  V30 2720 C 266.237 1.60254 -1.37411 0
M  V30 2721 O 265.585 2.2152 -0.560458 0
M  V30 2722 C 265.795 0.17091 -3.48581 0
M  V30 2723 C 267.143 0.377357 -4.2292 0
M  V30 2724 O 268.167 0.249104 -3.55328 0
M  V30 2725 O 267.026 0.63247 -5.42828 0
M  V30 2726 H 264.12 0.130932 -0.816569 0
M  V30 2727 H 266.666 -0.4934 -1.62369 0
M  V30 2728 H 265.438 -0.815738 -3.82703 0
M  V30 2729 H 265.061 0.898659 -3.87311 0
M  V30 2730 N 266.058 1.56714 -0.166846 0
M  V30 2731 C 267.021 2.16539 0.751232 0
M  V30 2732 C 268.021 1.11228 1.16125 0
M  V30 2733 O 269.211 1.36765 1.07894 0
M  V30 2734 C 266.343 2.74462 2.02196 0
M  V30 2735 H 267.536 2.99013 0.230499 0
M  V30 2736 H 265.089 1.56081 0.0826982 0
M  V30 2737 H 265.824 1.95709 2.58589 0
M  V30 2738 H 265.609 3.51527 1.73698 0
M  V30 2739 H 267.099 3.20489 2.67725 0
M  V30 2740 N 267.536 -0.106894 1.57237 0
M  V30 2741 C 268.499 -1.11466 2.0027 0
M  V30 2742 C 269.499 -1.33623 0.894519 0
M  V30 2743 O 270.689 -1.29935 1.16028 0
M  V30 2744 C 267.821 -2.46646 2.35327 0
M  V30 2745 H 269.014 -0.744516 2.90512 0
M  V30 2746 H 266.567 -0.351576 1.52295 0
M  V30 2747 H 267.302 -2.88558 1.48003 0
M  V30 2748 H 267.087 -2.31915 3.16161 0
M  V30 2749 H 268.577 -3.19151 2.69318 0
M  V30 2750 N 269.014 -1.53014 -0.377408 0
M  V30 2751 C 270.26 -1.68872 -1.12294 0
M  V30 2752 C 270.593 -0.433224 -1.89306 0
M  V30 2753 O 269.868 0.569258 -1.85983 0
M  V30 2754 C 270.151 -2.93115 -2.09179 0
M  V30 2755 C 270.004 -4.28794 -1.35853 0
M  V30 2756 C 271.323 -3.12928 -3.09458 0
M  V30 2757 H 268.442 -0.614518 -0.406862 0
M  V30 2758 H 271.084 -1.85633 -0.40503 0
M  V30 2759 H 269.234 -2.78956 -2.70399 0
M  V30 2760 H 270.906 -4.54742 -0.775082 0
M  V30 2761 H 269.149 -4.28744 -0.660364 0
M  V30 2762 H 269.82 -5.11837 -2.06706 0
M  V30 2763 H 272.296 -3.26194 -2.58334 0
M  V30 2764 H 271.172 -4.01316 -3.74482 0
M  V30 2765 H 271.433 -2.27669 -3.78971 0
M  V30 2766 N 270.492 0.636531 -1.44174 0
M  V30 2767 C 271.72 1.42353 -1.50144 0
M  V30 2768 C 272.135 1.88389 -0.124575 0
M  V30 2769 O 271.492 1.6051 0.868489 0
M  V30 2770 C 271.543 2.64744 -2.46156 0
M  V30 2771 O 271.264 2.20629 -3.7849 0
M  V30 2772 C 272.765 3.57929 -2.61537 0
M  V30 2773 H 269.985 0.436752 -0.5094 0
M  V30 2774 H 272.529 0.778933 -1.89084 0
M  V30 2775 H 270.684 3.25307 -2.10366 0
M  V30 2776 H 271.098 2.99938 -4.30276 0
M  V30 2777 H 272.572 4.40428 -3.32757 0
M  V30 2778 H 273.049 4.06382 -1.66585 0
M  V30 2779 H 273.655 3.03238 -2.98206 0
M  V30 2780 N 271.97 1.30982 0.876444 0
M  V30 2781 C 273.195 1.23373 1.66715 0
M  V30 2782 C 273.62 -0.19885 1.87046 0
M  V30 2783 O 272.978 -1.1427 1.40756 0
M  V30 2784 C 273.026 1.97644 3.01611 0
M  V30 2785 O 272.13 1.30935 3.91062 0
M  V30 2786 H 271.471 0.426279 0.509099 0
M  V30 2787 H 274.001 1.72944 1.09323 0
M  V30 2788 H 274.011 2.06992 3.51594 0
M  V30 2789 H 272.686 3.01829 2.86133 0
M  V30 2790 H 271.263 1.29996 3.49507 0
M  V30 2791 N 273.449 -1.08991 1.13837 0
M  V30 2792 C 274.379 -2.17771 0.842507 0
M  V30 2793 C 275.36 -1.6892 -0.20001 0
M  V30 2794 O 276.545 -1.94113 -0.0579731 0
M  V30 2795 C 273.675 -3.4589 0.312644 0
M  V30 2796 C 272.629 -4.08099 1.28992 0
M  V30 2797 C 271.955 -5.31098 0.619623 0
M  V30 2798 C 273.255 -4.50077 2.65005 0
M  V30 2799 H 274.949 -2.42777 1.75213 0
M  V30 2800 H 272.495 -1.16682 0.843875 0
M  V30 2801 H 274.448 -4.21297 0.0933043 0
M  V30 2802 H 273.172 -3.20419 -0.632382 0
M  V30 2803 H 271.831 -3.34717 1.49533 0
M  V30 2804 H 271.479 -5.0191 -0.33102 0
M  V30 2805 H 271.179 -5.73674 1.27167 0
M  V30 2806 H 272.703 -6.09224 0.409669 0
M  V30 2807 H 274.117 -5.16688 2.48407 0
M  V30 2808 H 272.514 -5.03553 3.26427 0
M  V30 2809 H 273.584 -3.62257 3.22332 0
M  V30 2810 N 274.927 -0.932562 -1.27047 0
M  V30 2811 C 276.152 -0.591474 -1.98787 0
M  V30 2812 C 276.577 0.824601 -1.69062 0
M  V30 2813 O 275.935 1.5541 -0.933677 0
M  V30 2814 C 275.983 -0.829808 -3.50922 0
M  V30 2815 O 275.087 0.102266 -4.12273 0
M  V30 2816 H 274.428 -0.227185 -0.623926 0
M  V30 2817 H 276.958 -1.25314 -1.61733 0
M  V30 2818 H 276.968 -0.747292 -4.01098 0
M  V30 2819 H 275.643 -1.86201 -3.7189 0
M  V30 2820 H 274.22 -0.0305761 -3.72887 0
M  V30 2821 N 276.405 1.4127 -0.698611 0
M  V30 2822 C 277.368 2.29158 -0.044132 0
M  V30 2823 C 278.368 1.44529 0.704841 0
M  V30 2824 O 279.558 1.65643 0.539276 0
M  V30 2825 C 276.69 3.27459 0.947809 0
M  V30 2826 H 277.883 2.88529 -0.817994 0
M  V30 2827 H 275.436 1.49307 -0.46228 0
M  V30 2828 H 276.171 2.73073 1.74933 0
M  V30 2829 H 275.956 3.8991 0.41385 0
M  V30 2830 H 277.446 3.93311 1.40344 0
M  V30 2831 N 277.883 0.443576 1.51229 0
M  V30 2832 C 278.793 -0.370721 2.31652 0
M  V30 2833 C 279.809 -1.02186 1.40833 0
M  V30 2834 O 280.985 -1.01586 1.73903 0
M  V30 2835 C 278.05 -1.45376 3.14749 0
M  V30 2836 C 277.111 -0.822099 4.21355 0
M  V30 2837 C 276.344 -1.85353 5.0048 0
M  V30 2838 O 276.567 -3.07656 4.80316 0
M  V30 2839 O 275.501 -1.4406 5.84406 0
M  V30 2840 H 279.327 0.286002 3.0235 0
M  V30 2841 H 276.912 0.20598 1.47973 0
M  V30 2842 H 278.794 -2.08173 3.66391 0
M  V30 2843 H 277.469 -2.09445 2.46809 0
M  V30 2844 H 276.376 -0.155909 3.73775 0
M  V30 2845 H 277.709 -0.224797 4.91686 0
M  V30 2846 N 279.361 -1.56624 0.175154 0
M  V30 2847 C 280.291 -2.21155 -0.749195 0
M  V30 2848 C 281.272 -1.16836 -1.23626 0
M  V30 2849 O 282.457 -1.45277 -1.28873 0
M  V30 2850 C 279.587 -2.8553 -1.97711 0
M  V30 2851 C 278.541 -3.95921 -1.62575 0
M  V30 2852 C 277.867 -4.47365 -2.92864 0
M  V30 2853 C 279.167 -5.15323 -0.850838 0
M  V30 2854 H 280.861 -2.98653 -0.211295 0
M  V30 2855 H 278.407 -1.43651 -0.100188 0
M  V30 2856 H 280.36 -3.2935 -2.62881 0
M  V30 2857 H 279.084 -2.05406 -2.53921 0
M  V30 2858 H 277.743 -3.52762 -0.997719 0
M  V30 2859 H 277.391 -3.64027 -3.47122 0
M  V30 2860 H 277.091 -5.21839 -2.70106 0
M  V30 2861 H 278.615 -4.93873 -3.59056 0
M  V30 2862 H 280.029 -5.55812 -1.40521 0
M  V30 2863 H 278.426 -5.95739 -0.722154 0
M  V30 2864 H 279.496 -4.84661 0.152082 0
M  V30 2865 N 280.839 0.0985539 -1.57292 0
M  V30 2866 C 282.087 0.801092 -1.85545 0
M  V30 2867 C 282.408 1.79438 -0.763353 0
M  V30 2868 O 281.678 1.94763 0.21073 0
M  V30 2869 H 280.258 0.29884 -0.684619 0
M  V30 2870 H 282.92 0.0810064 -1.94732 0
M  V30 2871 H 282.016 1.3338 -2.82163 0
M  V30 2872 N 282.317 1.53212 0.369288 0
M  V30 2873 C 283.733 1.42902 0.710712 0
M  V30 2874 C 283.933 0.565135 1.93413 0
M  V30 2875 O 282.989 0.0461484 2.52458 0
M  V30 2876 C 284.302 2.86042 0.927382 0
M  V30 2877 C 285.85 2.9565 1.02762 0
M  V30 2878 C 286.325 4.39843 1.27679 0
M  V30 2879 N 287.816 4.43256 1.34457 0
M  V30 2880 C 288.551 5.51929 1.55439 0
M  V30 2881 N 288.047 6.70655 1.73762 0
M  V30 2882 N 289.84 5.39502 1.57779 0
M  V30 2883 H 281.991 2.07888 -0.435457 0
M  V30 2884 H 284.254 0.938661 -0.132739 0
M  V30 2885 H 283.96 3.51557 0.100287 0
M  V30 2886 H 283.834 3.29472 1.83653 0
M  V30 2887 H 286.221 2.30291 1.84527 0
M  V30 2888 H 286.302 2.5562 0.0959504 0
M  V30 2889 H 285.946 5.05774 0.464175 0
M  V30 2890 H 285.876 4.77443 2.22162 0
M  V30 2891 H 288.367 3.5769 1.21926 0
M  V30 2892 H 288.68 7.49248 1.89335 0
M  V30 2893 H 287.025 6.73648 1.70948 0
M  V30 2894 H 290.216 4.45713 1.43029 0
M  V30 2895 H 290.389 6.2426 1.7379 0
M  V30 2896 N 283.795 -0.628877 1.44509 0
M  V30 2897 C 285.023 -1.41554 1.50897 0
M  V30 2898 C 285.438 -1.8832 0.134564 0
M  V30 2899 O 284.795 -1.60969 -0.859965 0
M  V30 2900 C 284.846 -2.63435 2.47556 0
M  V30 2901 O 284.567 -2.18619 3.79654 0
M  V30 2902 C 286.068 -3.56537 2.63431 0
M  V30 2903 H 283.288 -0.434044 0.511709 0
M  V30 2904 H 285.832 -0.768895 1.89495 0
M  V30 2905 H 283.987 -3.24187 2.12089 0
M  V30 2906 H 284.401 -2.97652 4.31861 0
M  V30 2907 H 285.875 -4.38657 3.35088 0
M  V30 2908 H 286.352 -4.05493 1.68738 0
M  V30 2909 H 286.958 -3.01653 2.9981 0
M  V30 2910 N 285.273 -1.31445 -0.869486 0
M  V30 2911 C 286.519 -1.21337 -1.62496 0
M  V30 2912 C 286.852 0.227872 -1.92858 0
M  V30 2913 O 286.127 1.16094 -1.56053 0
M  V30 2914 C 286.41 -2.05814 -2.95487 0
M  V30 2915 C 286.263 -3.5824 -2.72 0
M  V30 2916 C 287.582 -1.9079 -3.96594 0
M  V30 2917 H 284.701 -0.442135 -0.589649 0
M  V30 2918 H 287.343 -1.6124 -1.00507 0
M  V30 2919 H 285.493 -1.71913 -3.48394 0
M  V30 2920 H 287.165 -4.0228 -2.25762 0
M  V30 2921 H 285.408 -3.81647 -2.06224 0
M  V30 2922 H 286.079 -4.12657 -3.66631 0
M  V30 2923 H 288.555 -2.20459 -3.52898 0
M  V30 2924 H 287.431 -2.52199 -4.87531 0
M  V30 2925 H 287.692 -0.871341 -4.33428 0
M  V30 2926 N 286.751 1.08385 -1.14413 0
M  V30 2927 C 287.979 1.84517 -0.936001 0
M  V30 2928 C 288.394 1.81626 0.515503 0
M  V30 2929 O 287.751 1.22008 1.35721 0
M  V30 2930 C 287.802 3.32049 -1.42918 0
M  V30 2931 O 287.523 3.34951 -2.82381 0
M  V30 2932 C 289.024 4.24986 -1.26103 0
M  V30 2933 H 286.244 0.582491 -0.333084 0
M  V30 2934 H 288.788 1.36885 -1.5193 0
M  V30 2935 H 286.943 3.7707 -0.888641 0
M  V30 2936 H 287.357 4.27048 -3.04517 0
M  V30 2937 H 288.831 5.26615 -1.6547 0
M  V30 2938 H 289.308 4.38726 -0.20392 0
M  V30 2939 H 289.914 3.85791 -1.79012 0
M  V30 2940 N 288.23 0.939286 1.26551 0
M  V30 2941 C 289.476 0.586715 1.94128 0
M  V30 2942 C 289.809 -0.8717 1.73537 0
M  V30 2943 O 289.084 -1.62339 1.07127 0
M  V30 2944 C 289.367 0.927497 3.4795 0
M  V30 2945 C 289.22 2.44052 3.77834 0
M  V30 2946 C 290.539 0.441569 4.37879 0
M  V30 2947 H 287.658 0.21463 0.705055 0
M  V30 2948 H 290.3 1.17316 1.49455 0
M  V30 2949 H 288.45 0.428431 3.8613 0
M  V30 2950 H 290.122 3.01216 3.4938 0
M  V30 2951 H 288.365 2.8848 3.23978 0
M  V30 2952 H 289.036 2.62947 4.85348 0
M  V30 2953 H 291.512 0.869448 4.06915 0
M  V30 2954 H 290.388 0.708856 5.44304 0
M  V30 2955 H 290.649 -0.658467 4.37169 0
M  V30 2956 N 289.708 -1.40897 0.706093 0
M  V30 2957 C 290.985 -1.94868 0.169099 0
M  V30 2958 C 291.365 -1.64485 -1.32318 0
M  V30 2959 O 290.713 -0.95744 -2.07474 0
M  V30 2960 C 290.923 -3.45798 0.471654 0
M  V30 2961 C 292.271 -4.22663 0.405127 0
M  V30 2962 O 293.295 -3.53865 0.407168 0
M  V30 2963 O 292.154 -5.45216 0.374383 0
M  V30 2964 H 289.248 -0.82673 0.0211352 0
M  V30 2965 H 291.794 -1.50558 0.782976 0
M  V30 2966 H 290.566 -3.61235 1.50416 0
M  V30 2967 H 290.189 -3.97225 -0.172666 0
M  V30 2968 N 291.186 -0.45159 -1.50991 0
M  V30 2969 C 292.096 0.358431 -2.31846 0
M  V30 2970 C 293.112 1.01438 -1.41373 0
M  V30 2971 O 294.288 1.00663 -1.74439 0
M  V30 2972 C 291.353 1.43704 -3.15515 0
M  V30 2973 C 290.414 0.799742 -4.21785 0
M  V30 2974 C 289.647 1.82696 -5.01456 0
M  V30 2975 O 289.87 3.05105 -4.81941 0
M  V30 2976 O 288.804 1.40958 -5.85162 0
M  V30 2977 H 292.63 -0.302032 -3.02194 0
M  V30 2978 H 290.215 -0.213825 -1.47862 0
M  V30 2979 H 292.097 2.06227 -3.67489 0
M  V30 2980 H 290.772 2.08133 -2.47916 0
M  V30 2981 H 289.679 0.136084 -3.73852 0
M  V30 2982 H 291.012 0.198718 -4.91799 0
M  V30 2983 N 292.664 1.56529 -0.183458 0
M  V30 2984 C 293.91 1.97537 0.459036 0
M  V30 2985 C 294.243 1.06989 1.62071 0
M  V30 2986 O 293.518 0.11948 1.94133 0
M  V30 2987 C 293.801 3.47874 0.930368 0
M  V30 2988 C 293.654 4.492 -0.232317 0
M  V30 2989 C 294.973 4.01612 1.79989 0
M  V30 2990 H 292.092 0.718204 0.165383 0
M  V30 2991 H 294.734 1.88042 -0.272038 0
M  V30 2992 H 292.884 3.56095 1.55333 0
M  V30 2993 H 294.556 4.53027 -0.86972 0
M  V30 2994 H 292.799 4.24657 -0.885928 0
M  V30 2995 H 293.47 5.51823 0.139796 0
M  V30 2996 H 295.946 3.96097 1.27461 0
M  V30 2997 H 294.822 5.07195 2.09867 0
M  V30 2998 H 295.083 3.46163 2.74998 0
M  V30 2999 N 294.142 -0.090211 1.57342 0
M  V30 3000 C 295.558 -0.444547 1.53284 0
M  V30 3001 C 295.758 -1.80238 0.900914 0
M  V30 3002 O 294.814 -2.4759 0.495513 0
M  V30 3003 C 296.127 -0.402543 2.97993 0
M  V30 3004 C 297.675 -0.48405 3.09234 0
M  V30 3005 C 298.15 -0.472144 4.5556 0
M  V30 3006 N 299.641 -0.532757 4.60126 0
M  V30 3007 C 300.376 -0.545462 5.708 0
M  V30 3008 N 299.872 -0.514082 6.9089 0
M  V30 3009 N 301.665 -0.59064 5.58988 0
M  V30 3010 H 293.816 0.799121 1.96794 0
M  V30 3011 H 296.079 0.297965 0.899956 0
M  V30 3012 H 295.785 0.528106 3.47712 0
M  V30 3013 H 295.659 -1.21969 3.56936 0
M  V30 3014 H 298.046 -1.40512 2.595 0
M  V30 3015 H 298.127 0.361328 2.53235 0
M  V30 3016 H 297.771 0.445 5.05947 0
M  V30 3017 H 297.701 -1.3348 5.09402 0
M  V30 3018 H 300.192 -0.562006 3.73698 0
M  V30 3019 H 300.505 -0.527195 7.71 0
M  V30 3020 H 298.85 -0.481054 6.93333 0
M  V30 3021 H 302.041 -0.61272 4.64073 0
M  V30 3022 H 302.214 -0.597073 6.45243 0
M  V30 3023 N 295.62 -1.53406 -0.361157 0
M  V30 3024 C 296.583 -1.79479 -1.42548 0
M  V30 3025 C 297.583 -0.665327 -1.4639 0
M  V30 3026 O 298.773 -0.933549 -1.47073 0
M  V30 3027 C 295.905 -1.92087 -2.8163 0
M  V30 3028 H 297.098 -2.74538 -1.20701 0
M  V30 3029 H 294.651 -1.4455 -0.594546 0
M  V30 3030 H 295.386 -0.991099 -3.08784 0
M  V30 3031 H 295.171 -2.74241 -2.80239 0
M  V30 3032 H 296.661 -2.13836 -3.58697 0
M  V30 3033 N 297.098 0.621204 -1.44841 0
M  V30 3034 C 298.326 1.40752 -1.51646 0
M  V30 3035 C 298.741 1.88246 -0.144549 0
M  V30 3036 O 298.098 1.61422 0.851416 0
M  V30 3037 C 298.149 2.62119 -2.4895 0
M  V30 3038 O 297.87 2.16602 -3.80808 0
M  V30 3039 C 299.371 3.55135 -2.65319 0
M  V30 3040 H 296.591 0.431325 -0.514004 0
M  V30 3041 H 299.135 0.758835 -1.899 0
M  V30 3042 H 297.29 3.23058 -2.13805 0
M  V30 3043 H 297.704 2.95358 -4.33433 0
M  V30 3044 H 299.178 4.36874 -3.37409 0
M  V30 3045 H 299.655 4.04592 -1.70886 0
M  V30 3046 H 300.261 3.00058 -3.01405 0
M  V30 3047 N 298.576 1.31904 0.862503 0
M  V30 3048 C 299.822 1.22197 1.61851 0
M  V30 3049 C 300.155 -0.217641 1.92977 0
M  V30 3050 O 299.43 -1.15264 1.56666 0
M  V30 3051 C 299.713 2.07378 2.94391 0
M  V30 3052 C 299.566 3.59678 2.70096 0
M  V30 3053 C 300.885 1.92891 3.95577 0
M  V30 3054 H 298.004 0.445255 0.587296 0
M  V30 3055 H 300.646 1.6177 0.99651 0
M  V30 3056 H 298.796 1.73758 3.47477 0
M  V30 3057 H 300.468 4.03472 2.23625 0
M  V30 3058 H 298.711 3.82735 2.04197 0
M  V30 3059 H 299.382 4.14595 3.64438 0
M  V30 3060 H 301.858 2.22327 3.51724 0
M  V30 3061 H 300.734 2.54781 4.86187 0
M  V30 3062 H 300.995 0.894315 4.3296 0
M  V30 3063 N 300.054 -1.07777 1.14986 0
M  V30 3064 C 301.017 -2.13041 0.845358 0
M  V30 3065 C 302.017 -1.60071 -0.152931 0
M  V30 3066 O 303.207 -1.74033 0.0761879 0
M  V30 3067 C 300.339 -3.39896 0.261383 0
M  V30 3068 H 301.532 -2.41485 1.77834 0
M  V30 3069 H 299.085 -1.23595 0.956757 0
M  V30 3070 H 299.82 -3.17091 -0.68 0
M  V30 3071 H 299.605 -3.79642 0.980514 0
M  V30 3072 H 301.095 -4.17548 0.0657687 0
M  V30 3073 N 301.532 -0.945985 -1.26051 0
M  V30 3074 C 302.495 -0.463897 -2.24456 0
M  V30 3075 C 303.495 0.427655 -1.55009 0
M  V30 3076 O 304.685 0.226157 -1.72726 0
M  V30 3077 C 301.817 0.330812 -3.39291 0
M  V30 3078 H 303.01 -1.33357 -2.68619 0
M  V30 3079 H 300.563 -0.728416 -1.38289 0
M  V30 3080 H 301.298 1.21852 -3.00537 0
M  V30 3081 H 301.083 -0.308679 -3.90883 0
M  V30 3082 H 302.573 0.657865 -4.12386 0
M  V30 3083 N 303.011 1.40521 -0.713556 0
M  V30 3084 C 303.974 2.29098 -0.0684347 0
M  V30 3085 C 304.974 1.45268 0.689472 0
M  V30 3086 O 306.164 1.66205 0.521677 0
M  V30 3087 C 303.296 3.28446 0.913024 0
M  V30 3088 H 304.489 2.87645 -0.84855 0
M  V30 3089 H 302.042 1.48809 -0.47809 0
M  V30 3090 H 302.777 2.74913 1.72027 0
M  V30 3091 H 302.562 3.90327 0.372472 0
M  V30 3092 H 304.052 3.94777 1.36165 0
M  V30 3093 N 304.489 0.459591 1.5075 0
M  V30 3094 C 305.735 -0.0994966 2.02556 0
M  V30 3095 C 306.068 -1.40399 1.3417 0
M  V30 3096 O 305.343 -1.88892 0.463683 0
M  V30 3097 C 305.626 -0.295242 3.58888 0
M  V30 3098 C 305.479 1.02947 4.37861 0
M  V30 3099 C 306.798 -1.05502 4.27267 0
M  V30 3100 H 303.917 -0.034686 0.736183 0
M  V30 3101 H 306.559 0.602938 1.8018 0
M  V30 3102 H 304.709 -0.893563 3.78084 0
M  V30 3103 H 306.381 1.66348 4.30263 0
M  V30 3104 H 304.624 1.62885 4.02058 0
M  V30 3105 H 305.295 0.846281 5.45474 0
M  V30 3106 H 307.771 -0.547993 4.12476 0
M  V30 3107 H 306.647 -1.16077 5.36486 0
M  V30 3108 H 306.908 -2.08875 3.89645 0
M  V30 3109 N 305.967 -1.56429 0.191757 0
M  V30 3110 C 307.207 -1.99383 -0.450099 0
M  V30 3111 C 307.571 -1.07581 -1.59029 0
M  V30 3112 O 308.772 -1.39758 -2.29611 0
M  V30 3113 C 307.043 -3.45841 -0.901611 0
M  V30 3114 S 308.602 -4.10822 -1.54177 0
M  V30 3115 H 305.42 -0.696253 -0.144057 0
M  V30 3116 H 308.022 -1.93276 0.294036 0
M  V30 3117 H 306.726 -4.10354 -0.0616596 0
M  V30 3118 H 306.257 -3.55757 -1.67929 0
M  V30 3119 H 308.272 -4.07553 -2.83046 0
M  V30 3120 N 307.445 0.0818655 -1.57387 0
M  V30 3121 C 308.408 1.08265 -2.02018 0
M  V30 3122 C 309.408 1.32183 -0.915664 0
M  V30 3123 O 310.598 1.28073 -1.18081 0
M  V30 3124 C 307.73 2.42871 -2.39221 0
M  V30 3125 H 308.923 0.698204 -2.91659 0
M  V30 3126 H 306.476 0.327303 -1.52835 0
M  V30 3127 H 307.211 2.86167 -1.52575 0
M  V30 3128 H 306.996 2.26855 -3.19811 0
M  V30 3129 H 308.486 3.14826 -2.74362 0
M  V30 3130 N 308.923 1.53595 0.353017 0
M  V30 3131 C 309.886 1.80232 1.41594 0
M  V30 3132 C 310.886 0.673081 1.46035 0
M  V30 3133 O 312.076 0.941335 1.46576 0
M  V30 3134 C 309.208 1.93578 2.80607 0
M  V30 3135 H 310.401 2.75174 1.19244 0
M  V30 3136 H 307.954 1.44864 0.586872 0
M  V30 3137 H 308.689 1.00746 3.08254 0
M  V30 3138 H 308.474 2.75724 2.78781 0
M  V30 3139 H 309.964 2.15735 3.57558 0
M  V30 3140 N 310.401 -0.613514 1.45168 0
M  V30 3141 C 311.331 -1.7354 1.56225 0
M  V30 3142 C 312.312 -1.64981 0.41414 0
M  V30 3143 O 313.497 -1.83472 0.636526 0
M  V30 3144 C 310.627 -3.12128 1.52295 0
M  V30 3145 C 309.581 -3.35491 2.65762 0
M  V30 3146 C 308.907 -4.74291 2.46885 0
M  V30 3147 C 310.207 -3.26325 4.0781 0
M  V30 3148 H 311.901 -1.64543 2.50132 0
M  V30 3149 H 309.447 -0.790185 1.20383 0
M  V30 3150 H 311.4 -3.90404 1.58628 0
M  V30 3151 H 310.124 -3.2195 0.549139 0
M  V30 3152 H 308.783 -2.59603 2.58847 0
M  V30 3153 H 308.431 -4.80839 1.47657 0
M  V30 3154 H 308.131 -4.9088 3.22972 0
M  V30 3155 H 309.655 -5.54775 2.55063 0
M  V30 3156 H 311.069 -3.94483 4.16 0
M  V30 3157 H 309.466 -3.54445 4.8424 0
M  V30 3158 H 310.536 -2.23855 4.30136 0
M  V30 3159 N 311.879 -1.3236 -0.855495 0
M  V30 3160 C 313.156 -1.13491 -1.59309 0
M  V30 3161 C 313.536 0.30503 -2.08885 0
M  V30 3162 O 312.884 1.30151 -1.87811 0
M  V30 3163 C 313.094 -2.16176 -2.73987 0
M  V30 3164 C 314.442 -2.49463 -3.43589 0
M  V30 3165 O 315.466 -2.14715 -2.84211 0
M  V30 3166 O 314.325 -3.09027 -4.50738 0
M  V30 3167 H 311.419 -0.437887 -0.701559 0
M  V30 3168 H 313.965 -1.43887 -0.899696 0
M  V30 3169 H 312.737 -3.1297 -2.34873 0
M  V30 3170 H 312.36 -1.86769 -3.51003 0
M  V30 3171 N 313.357 1.07166 -1.15556 0
M  V30 3172 C 314.605 1.79443 -0.929764 0
M  V30 3173 C 314.926 1.87246 0.544414 0
M  V30 3174 O 314.196 1.37473 1.39564 0
M  V30 3175 H 312.776 0.664625 -0.341003 0
M  V30 3176 H 315.438 1.29499 -1.45657 0
M  V30 3177 H 314.534 2.81832 -1.34079 0
M  V30 3178 N 314.835 0.952656 1.25548 0
M  V30 3179 C 316.081 0.607272 1.93494 0
M  V30 3180 C 316.414 -0.853245 1.74452 0
M  V30 3181 O 315.689 -1.61194 1.08843 0
M  V30 3182 C 315.972 0.96435 3.46947 0
M  V30 3183 C 315.825 2.48045 3.75225 0
M  V30 3184 C 317.144 0.487987 4.37386 0
M  V30 3185 H 314.263 0.222096 0.702739 0
M  V30 3186 H 316.905 1.18895 1.48203 0
M  V30 3187 H 315.055 0.469361 3.85654 0
M  V30 3188 H 316.727 3.04905 3.46166 0
M  V30 3189 H 314.97 2.919 3.209 0
M  V30 3190 H 315.641 2.6808 4.82532 0
M  V30 3191 H 318.117 0.912558 4.0597 0
M  V30 3192 H 316.993 0.766547 5.43521 0
M  V30 3193 H 317.254 -0.612063 4.37843 0
M  V30 3194 N 316.313 -1.40141 0.720998 0
M  V30 3195 C 317.243 -2.33339 0.0867621 0
M  V30 3196 C 318.224 -1.53178 -0.739622 0
M  V30 3197 O 319.409 -1.81625 -0.687449 0
M  V30 3198 C 316.539 -3.37194 -0.831728 0
M  V30 3199 C 315.493 -4.27857 -0.110558 0
M  V30 3200 C 314.819 -5.22294 -1.14513 0
M  V30 3201 C 316.119 -5.11872 1.0385 0
M  V30 3202 H 317.813 -2.86626 0.865219 0
M  V30 3203 H 315.359 -1.37814 0.417516 0
M  V30 3204 H 317.312 -4.01335 -1.28485 0
M  V30 3205 H 316.036 -2.82314 -1.64214 0
M  V30 3206 H 314.695 -3.65176 0.322797 0
M  V30 3207 H 314.343 -4.63717 -1.94874 0
M  V30 3208 H 314.043 -5.83797 -0.667446 0
M  V30 3209 H 315.567 -5.89312 -1.59824 0
M  V30 3210 H 316.981 -5.69436 0.664482 0
M  V30 3211 H 315.378 -5.82445 1.4449 0
M  V30 3212 H 316.448 -4.4753 1.86668 0
M  V30 3213 N 317.792 -0.46758 -1.50504 0
M  V30 3214 C 319.203 -0.0116166 -1.86696 0
M  V30 3215 C 319.554 1.39202 -1.38265 0
M  V30 3216 O 318.679 2.0313 -0.746132 0
M  V30 3217 C 319.274 -0.0143044 -3.38797 0
M  V30 3218 C 317.833 0.386175 -3.74414 0
M  V30 3219 C 316.98 -0.401287 -2.74381 0
M  V30 3220 H 319.931 -0.682022 -1.43297 0
M  V30 3221 H 319.952 0.788641 -3.72237 0
M  V30 3222 H 319.464 -1.03602 -3.74016 0
M  V30 3223 H 317.565 1.41237 -3.44794 0
M  V30 3224 H 317.678 0.0899596 -4.79016 0
M  V30 3225 H 316.042 0.144536 -2.5429 0
M  V30 3226 H 316.825 -1.42244 -3.12444 0
M  V30 3227 N 319.27 1.56325 -0.20005 0
M  V30 3228 C 320.516 1.98012 0.438059 0
M  V30 3229 C 320.849 1.08702 1.60927 0
M  V30 3230 O 320.124 0.140064 1.93995 0
M  V30 3231 C 320.407 3.48841 0.893419 0
M  V30 3232 C 320.26 4.48928 -0.279947 0
M  V30 3233 C 321.579 4.03498 1.75719 0
M  V30 3234 H 318.698 0.719918 0.157757 0
M  V30 3235 H 321.34 1.87743 -0.291968 0
M  V30 3236 H 319.49 3.57723 1.51547 0
M  V30 3237 H 321.162 4.52079 -0.91772 0
M  V30 3238 H 319.405 4.23694 -0.930919 0
M  V30 3239 H 320.076 5.5194 0.0812601 0
M  V30 3240 H 322.552 3.97427 1.23253 0
M  V30 3241 H 321.428 5.09393 2.04476 0
M  V30 3242 H 321.689 3.4906 2.71311 0
M  V30 3243 N 320.748 -0.0735177 1.57428 0
M  V30 3244 C 321.996 -0.771472 1.86796 0
M  V30 3245 C 322.317 -1.78201 0.791804 0
M  V30 3246 O 321.587 -1.95074 -0.179718 0
M  V30 3247 H 320.167 -0.28791 0.689287 0
M  V30 3248 H 322.829 -0.0500161 1.94836 0
M  V30 3249 H 321.925 -1.28874 2.8425 0
M  V30 3250 N 322.226 -1.5378 -0.344866 0
M  V30 3251 C 323.503 -1.61589 -1.10219 0
M  V30 3252 C 323.883 -0.436316 -2.06542 0
M  V30 3253 O 323.231 0.571543 -2.21237 0
M  V30 3254 C 323.441 -2.97602 -1.82301 0
M  V30 3255 C 324.789 -3.5291 -2.36093 0
M  V30 3256 O 325.813 -2.99768 -1.924 0
M  V30 3257 O 324.672 -4.45859 -3.16026 0
M  V30 3258 H 321.766 -0.653522 -0.506792 0
M  V30 3259 H 324.312 -1.66126 -0.346465 0
M  V30 3260 H 323.084 -3.74893 -1.12121 0
M  V30 3261 H 322.707 -2.9665 -2.64735 0
M  V30 3262 N 323.704 0.605807 -1.45491 0
M  V30 3263 C 325.12 0.926751 -1.29936 0
M  V30 3264 C 325.32 1.99896 -0.253706 0
M  V30 3265 O 324.376 2.50038 0.351737 0
M  V30 3266 C 325.689 1.36599 -2.67883 0
M  V30 3267 C 327.237 1.4801 -2.75793 0
M  V30 3268 C 327.712 1.95309 -4.14268 0
M  V30 3269 N 329.203 2.0254 -4.16571 0
M  V30 3270 C 329.938 2.40363 -5.20589 0
M  V30 3271 N 329.434 2.77143 -6.34952 0
M  V30 3272 N 331.227 2.40718 -5.07948 0
M  V30 3273 H 323.378 -0.102862 -2.12151 0
M  V30 3274 H 325.641 0.016639 -0.947854 0
M  V30 3275 H 325.347 0.652306 -3.45598 0
M  V30 3276 H 325.221 2.33215 -2.96463 0
M  V30 3277 H 327.608 2.1847 -1.98381 0
M  V30 3278 H 327.689 0.497041 -2.50925 0
M  V30 3279 H 327.333 1.25436 -4.92167 0
M  V30 3280 H 327.263 2.94532 -4.3653 0
M  V30 3281 H 329.754 1.76699 -3.34045 0
M  V30 3282 H 330.067 3.0489 -7.10114 0
M  V30 3283 H 328.412 2.74834 -6.3835 0
M  V30 3284 H 331.603 2.11392 -4.1765 0
M  V30 3285 H 331.776 2.69869 -5.89131 0
M  V30 3286 N 325.182 1.32811 0.848464 0
M  V30 3287 C 326.428 1.23907 1.60546 0
M  V30 3288 C 326.761 -0.197161 1.93197 0
M  V30 3289 O 326.036 -1.13596 1.5788 0
M  V30 3290 C 326.319 2.10489 2.92175 0
M  V30 3291 C 326.172 3.62522 2.66266 0
M  V30 3292 C 327.491 1.97075 3.93509 0
M  V30 3293 H 324.61 0.451459 0.58254 0
M  V30 3294 H 327.252 1.62818 0.979296 0
M  V30 3295 H 325.402 1.77434 3.45614 0
M  V30 3296 H 327.074 4.05821 2.19334 0
M  V30 3297 H 325.317 3.84879 2.00126 0
M  V30 3298 H 325.988 4.18437 3.6002 0
M  V30 3299 H 328.464 2.26045 3.49346 0
M  V30 3300 H 327.34 2.59923 4.83457 0
M  V30 3301 H 327.601 0.940186 4.31987 0
M  V30 3302 N 326.66 -1.06551 1.16123 0
M  V30 3303 C 328.071 -1.60768 0.949232 0
M  V30 3304 C 328.422 -1.89523 -0.507508 0
M  V30 3305 O 327.547 -1.66671 -1.38021 0
M  V30 3306 C 328.142 -2.92086 1.71671 0
M  V30 3307 C 326.701 -3.43015 1.54977 0
M  V30 3308 C 325.848 -2.16947 1.72711 0
M  V30 3309 H 328.799 -0.895354 1.31031 0
M  V30 3310 H 328.82 -3.6138 1.19099 0
M  V30 3311 H 328.332 -2.71127 2.7769 0
M  V30 3312 H 326.433 -3.69039 0.513873 0
M  V30 3313 H 326.546 -4.18516 2.33198 0
M  V30 3314 H 324.91 -2.27041 1.15431 0
M  V30 3315 H 325.693 -1.98473 2.80113 0
M  V30 3316 N 328.138 -0.959301 -1.25041 0
M  V30 3317 C 329.363 -0.633507 -1.97488 0
M  V30 3318 C 329.788 0.788555 -1.70773 0
M  V30 3319 O 329.146 1.53394 -0.966431 0
M  V30 3320 C 329.194 -0.904057 -3.49083 0
M  V30 3321 O 328.298 0.0147939 -4.12397 0
M  V30 3322 H 327.639 -0.240368 -0.618966 0
M  V30 3323 H 330.169 -1.28717 -1.59038 0
M  V30 3324 H 330.179 -0.832203 -3.99423 0
M  V30 3325 H 328.854 -1.94048 -3.67856 0
M  V30 3326 H 327.431 -0.109664 -3.72739 0
M  V30 3327 N 329.616 1.39756 -0.72842 0
M  V30 3328 C 330.566 2.2792 -0.0603424 0
M  V30 3329 C 331.55 1.43922 0.719399 0
M  V30 3330 O 332.742 1.66895 0.589489 0
M  V30 3331 C 329.871 3.32582 0.851104 0
M  V30 3332 C 328.957 4.24049 0.0658641 0
M  V30 3333 N 329.348 4.96653 -0.957578 0
M  V30 3334 C 327.646 4.45013 0.296509 0
M  V30 3335 C 328.347 5.63836 -1.43052 0
M  V30 3336 N 327.323 5.38397 -0.750315 0
M  V30 3337 H 331.125 2.81504 -0.84455 0
M  V30 3338 H 328.639 1.5236 -0.562155 0
M  V30 3339 H 330.636 3.94603 1.34514 0
M  V30 3340 H 329.296 2.80558 1.63454 0
M  V30 3341 H 330.307 5.00297 -1.33877 0
M  V30 3342 H 326.984 4.03943 1.05527 0
M  V30 3343 H 328.374 6.31974 -2.28163 0
M  V30 3344 N 331.094 0.475555 1.50254 0
M  V30 3345 C 332.057 -0.305016 2.27161 0
M  V30 3346 C 333.057 -0.916519 1.32123 0
M  V30 3347 O 334.247 -0.785003 1.5551 0
M  V30 3348 C 331.379 -1.43496 3.09227 0
M  V30 3349 H 332.572 0.369511 2.97615 0
M  V30 3350 H 330.125 0.229747 1.54602 0
M  V30 3351 H 330.86 -2.14441 2.43281 0
M  V30 3352 H 330.645 -1.00223 3.79075 0
M  V30 3353 H 332.135 -1.98548 3.67381 0
M  V30 3354 N 332.573 -1.56217 0.208337 0
M  V30 3355 C 333.819 -1.98242 -0.427552 0
M  V30 3356 C 334.152 -1.09554 -1.60348 0
M  V30 3357 O 333.427 -0.15035 -1.93918 0
M  V30 3358 C 333.71 -3.4931 -0.874907 0
M  V30 3359 C 333.563 -4.48773 0.303751 0
M  V30 3360 C 334.882 -4.04424 -1.73577 0
M  V30 3361 H 332.001 -0.720744 -0.153936 0
M  V30 3362 H 334.643 -1.87586 0.30192 0
M  V30 3363 H 332.793 -3.58522 -1.49648 0
M  V30 3364 H 334.465 -4.51586 0.941682 0
M  V30 3365 H 332.708 -4.23194 0.953375 0
M  V30 3366 H 333.379 -5.51976 -0.0519883 0
M  V30 3367 H 335.855 -3.98075 -1.21143 0
M  V30 3368 H 334.731 -5.1047 -2.01771 0
M  V30 3369 H 334.992 -3.50494 -2.69456 0
M  V30 3370 N 334.051 0.0651679 -1.57465 0
M  V30 3371 C 335.462 0.616213 -1.76238 0
M  V30 3372 C 335.813 1.7756 -0.834689 0
M  V30 3373 O 334.938 2.1639 -0.0204156 0
M  V30 3374 C 335.533 1.12462 -3.1959 0
M  V30 3375 C 334.092 1.62147 -3.39684 0
M  V30 3376 C 333.239 0.543739 -2.71917 0
M  V30 3377 H 336.19 -0.161022 -1.57881 0
M  V30 3378 H 336.211 1.99324 -3.24114 0
M  V30 3379 H 335.723 0.280592 -3.87084 0
M  V30 3380 H 333.824 2.48854 -2.77313 0
M  V30 3381 H 333.937 1.69385 -4.48158 0
M  V30 3382 H 332.301 0.990352 -2.34657 0
M  V30 3383 H 333.084 -0.290216 -3.42071 0
M  V30 3384 N 335.529 1.53961 0.336706 0
M  V30 3385 C 336.754 1.75797 1.10046 0
M  V30 3386 C 337.179 0.498985 1.81361 0
M  V30 3387 O 336.537 -0.548769 1.72795 0
M  V30 3388 C 336.585 2.94257 2.08436 0
M  V30 3389 O 335.689 2.64883 3.16087 0
M  V30 3390 H 335.03 0.582936 0.317934 0
M  V30 3391 H 337.56 2.00945 0.38501 0
M  V30 3392 H 337.57 3.21237 2.51537 0
M  V30 3393 H 336.245 3.85564 1.55927 0
M  V30 3394 H 334.822 2.48812 2.77753 0
M  V30 3395 N 337.007 -0.598083 1.45811 0
M  V30 3396 C 338.418 -1.18011 1.44673 0
M  V30 3397 C 338.769 -1.95378 0.179364 0
M  V30 3398 O 337.894 -2.04124 -0.718509 0
M  V30 3399 C 338.489 -2.14677 2.62105 0
M  V30 3400 C 337.048 -2.68236 2.64057 0
M  V30 3401 C 336.195 -1.43816 2.37091 0
M  V30 3402 H 339.146 -0.38686 1.53913 0
M  V30 3403 H 339.167 -2.97878 2.36746 0
M  V30 3404 H 338.679 -1.5834 3.5433 0
M  V30 3405 H 336.78 -3.28486 1.75864 0
M  V30 3406 H 336.893 -3.12021 3.63566 0
M  V30 3407 H 335.257 -1.731 1.86838 0
M  V30 3408 H 336.04 -0.893333 3.31473 0
M  V30 3409 N 338.485 -1.33259 -0.841409 0
M  V30 3410 C 339.415 -1.25926 -1.96634 0
M  V30 3411 C 340.396 -0.140349 -1.6952 0
M  V30 3412 O 341.581 -0.329707 -1.91381 0
M  V30 3413 C 338.711 -0.99512 -3.32738 0
M  V30 3414 C 337.665 -2.0767 -3.74242 0
M  V30 3415 C 336.991 -1.66474 -5.08125 0
M  V30 3416 C 338.291 -3.49318 -3.88297 0
M  V30 3417 H 339.985 -2.20046 -2.03027 0
M  V30 3418 H 337.531 -1.05931 -0.975425 0
M  V30 3419 H 339.484 -0.930323 -4.11002 0
M  V30 3420 H 338.208 -0.0183004 -3.26595 0
M  V30 3421 H 336.867 -2.13187 -2.98239 0
M  V30 3422 H 336.515 -0.675012 -4.9845 0
M  V30 3423 H 336.215 -2.3885 -5.36865 0
M  V30 3424 H 337.739 -1.61455 -5.88867 0
M  V30 3425 H 339.153 -3.46316 -4.56879 0
M  V30 3426 H 337.55 -4.20158 -4.28471 0
M  V30 3427 H 338.62 -3.8801 -2.9082 0
M  V30 3428 O 340.002 0.979171 -1.28431 0
M  V30 3429 H 340.693 1.60369 -1.08635 0
M  V30 END ATOM
M  V30 BEGIN BOND
M  V30 END BOND
M  V30 END CTAB
M  END
$$$$
