drugbank_target|P9WNH5 4,5:9,10-diseco-3-hydroxy-5,9,17-trioxoandrosta-1(10),2-diene-4-oate hydrolase (DB07911)
 OpenBabel12092120473D

  0  0  0     0  0            999 V3000
M  V30 BEGIN CTAB
M  V30 COUNTS 4484 4537 0 0 0
M  V30 BEGIN ATOM
M  V30 1 H -0.908 1.98254 -0.117106 0
M  V30 2 N 0 1.576 0 0
M  V30 3 C 0.933 2.03868 1.02534 0
M  V30 4 C 1.911 0.928543 1.3348 0
M  V30 5 O 3.095 1.19667 1.45644 0
M  V30 6 C 0.222 2.43627 2.35294 0
M  V30 7 C -0.732 3.65373 2.2001 0
M  V30 8 S 0.101 5.13292 1.52614 0
M  V30 9 C 1.257 5.56322 2.86805 0
M  V30 10 H 1.49 2.90518 0.631377 0
M  V30 11 H -0.977 1.52953 0.210867 0
M  V30 12 H 0.981 2.67203 3.11629 0
M  V30 13 H -0.358 1.57376 2.7183 0
M  V30 14 H -1.165 3.90944 3.18086 0
M  V30 15 H -1.563 3.418 1.51819 0
M  V30 16 H 0.729 5.58782 3.83104 0
M  V30 17 H 1.672 6.56266 2.65933 0
M  V30 18 H 2.08 4.83886 2.90714 0
M  V30 19 N 1.4781 -0.272755 1.55222 0
M  V30 20 C 2.7061 -1.02255 1.79865 0
M  V30 21 C 3.1211 -1.79924 0.572088 0
M  V30 22 O 2.4781 -1.76638 -0.458842 0
M  V30 23 C 2.5291 -1.98094 3.02392 0
M  V30 24 O 2.2501 -1.23572 4.20311 0
M  V30 25 C 3.7511 -2.84884 3.39641 0
M  V30 26 H 0.9711 -0.302057 0.599168 0
M  V30 27 H 3.5151 -0.303465 2.02236 0
M  V30 28 H 1.6701 -2.65465 2.82147 0
M  V30 29 H 2.0841 -1.88172 4.89583 0
M  V30 30 H 3.5581 -3.47927 4.28545 0
M  V30 31 H 4.0351 -3.54665 2.59055 0
M  V30 32 H 4.6411 -2.23003 3.62146 0
M  V30 33 N 2.9562 -1.48159 -0.537278 0
M  V30 34 C 3.9192 -1.61665 -1.62472 0
M  V30 35 C 4.9192 -0.490395 -1.5314 0
M  V30 36 O 6.1092 -0.755998 -1.5694 0
M  V30 37 C 3.2412 -1.57997 -3.02076 0
M  V30 38 H 4.4342 -2.58621 -1.51839 0
M  V30 39 H 1.9872 -1.36647 -0.758771 0
M  V30 40 H 2.7222 -0.624913 -3.18222 0
M  V30 41 H 2.5072 -2.39755 -3.10258 0
M  V30 42 H 3.9972 -1.70627 -3.81151 0
M  V30 43 N 4.4343 0.785586 -1.36625 0
M  V30 44 C 5.6623 1.57448 -1.3423 0
M  V30 45 C 6.0773 1.88649 0.0755653 0
M  V30 46 O 5.4343 1.50414 1.03354 0
M  V30 47 C 5.4853 2.89316 -2.16745 0
M  V30 48 O 5.2063 2.59459 -3.53005 0
M  V30 49 C 6.7073 3.83606 -2.22174 0
M  V30 50 H 3.9273 0.488226 -0.4603 0
M  V30 51 H 6.4713 0.974733 -1.79775 0
M  V30 52 H 4.6263 3.4575 -1.74745 0
M  V30 53 H 5.0403 3.43804 -3.96105 0
M  V30 54 H 6.5143 4.73181 -2.8426 0
M  V30 55 H 6.9913 4.21734 -1.22627 0
M  V30 56 H 7.5973 3.33104 -2.64427 0
M  V30 57 N 5.9124 1.20967 1.01018 0
M  V30 58 C 6.8224 0.980157 2.13143 0
M  V30 59 C 7.8384 -0.0660665 1.73875 0
M  V30 60 O 9.0144 0.122821 2.01025 0
M  V30 61 C 6.0794 0.54216 3.42435 0
M  V30 62 C 5.1404 1.65999 3.95908 0
M  V30 63 C 4.3734 1.2428 5.19028 0
M  V30 64 O 4.5964 0.114196 5.70286 0
M  V30 65 O 3.5304 2.05271 5.65816 0
M  V30 66 H 7.3564 1.91913 2.35379 0
M  V30 67 H 4.9414 0.994099 1.11526 0
M  V30 68 H 6.8234 0.30744 4.20277 0
M  V30 69 H 5.4984 -0.36815 3.216 0
M  V30 70 H 4.4054 1.94906 3.19316 0
M  V30 71 H 5.7384 2.54753 4.21143 0
M  V30 72 N 7.3905 -1.2043 1.01659 0
M  V30 73 C 8.3005 -2.2689 0.596484 0
M  V30 74 C 9.3165 -1.70107 -0.36599 0
M  V30 75 O 10.4925 -2.00117 -0.226942 0
M  V30 76 C 7.5575 -3.4665 -0.0586659 0
M  V30 77 C 6.6185 -4.18662 0.949751 0
M  V30 78 C 5.8515 -5.32705 0.32577 0
M  V30 79 O 6.0745 -5.63656 -0.874509 0
M  V30 80 O 5.0085 -5.92803 1.04249 0
M  V30 81 H 8.8345 -2.65041 1.4828 0
M  V30 82 H 6.4195 -1.27048 0.786082 0
M  V30 83 H 8.3015 -4.19256 -0.424564 0
M  V30 84 H 6.9765 -3.10375 -0.91918 0
M  V30 85 H 5.8835 -3.48229 1.36702 0
M  V30 86 H 7.2165 -4.58878 1.78023 0
M  V30 87 N 8.8686 -0.792821 -1.36206 0
M  V30 88 C 9.7986 -0.207853 -2.32573 0
M  V30 89 C 10.7796 0.659055 -1.56813 0
M  V30 90 O 11.9646 0.592176 -1.84951 0
M  V30 91 C 9.0946 0.655449 -3.41059 0
M  V30 92 C 8.0486 -0.111842 -4.27854 0
M  V30 93 C 7.3746 0.872274 -5.27537 0
M  V30 94 C 8.6746 -1.30299 -5.05786 0
M  V30 95 H 10.3686 -1.01294 -2.81744 0
M  V30 96 H 7.9146 -0.48854 -1.3546 0
M  V30 97 H 9.8676 1.07464 -4.07467 0
M  V30 98 H 8.5916 1.49328 -2.90463 0
M  V30 99 H 7.2506 -0.512053 -3.63006 0
M  V30 100 H 6.8986 1.70523 -4.73214 0
M  V30 101 H 6.5986 0.363291 -5.86476 0
M  V30 102 H 8.1226 1.28996 -5.96818 0
M  V30 103 H 9.5366 -0.959379 -5.65216 0
M  V30 104 H 7.9336 -1.7455 -5.74154 0
M  V30 105 H 9.0036 -2.09663 -4.37229 0
M  V30 106 N 10.3467 1.47872 -0.545128 0
M  V30 107 C 11.5747 2.06889 -0.021084 0
M  V30 108 C 11.9897 1.39955 1.2672 0
M  V30 109 O 11.3467 0.492036 1.75742 0
M  V30 110 C 11.3977 3.60996 0.190817 0
M  V30 111 O 11.1187 4.25419 -1.04644 0
M  V30 112 C 12.6197 4.36849 0.753521 0
M  V30 113 H 9.8397 0.669785 -0.0403635 0
M  V30 114 H 12.3837 1.90049 -0.755095 0
M  V30 115 H 10.5387 3.77391 0.87492 0
M  V30 116 H 10.9527 5.17785 -0.836611 0
M  V30 117 H 12.4267 5.45399 0.851139 0
M  V30 118 H 12.9037 4.02306 1.762 0
M  V30 119 H 13.5097 4.25169 0.105503 0
M  V30 120 N 11.8248 0.280983 1.55075 0
M  V30 121 C 13.0718 -0.334115 1.99725 0
M  V30 122 C 13.3998 -1.5542 1.1694 0
M  V30 123 O 12.6548 -1.94361 0.228531 0
M  V30 124 C 12.9538 -0.754656 3.49342 0
M  V30 125 C 12.6198 0.361445 4.49449 0
M  V30 126 C 11.2818 0.667893 4.76542 0
M  V30 127 C 13.6338 1.11322 5.09173 0
M  V30 128 C 10.9618 1.7296 5.60626 0
M  V30 129 C 13.3138 2.1647 5.9441 0
M  V30 130 C 11.9778 2.47742 6.19822 0
M  V30 131 H 11.2478 -0.122261 0.730844 0
M  V30 132 H 13.8948 0.395917 1.87363 0
M  V30 133 H 12.1998 -1.56446 3.5921 0
M  V30 134 H 13.8968 -1.24142 3.813 0
M  V30 135 H 10.4868 0.112481 4.28452 0
M  V30 136 H 14.6708 0.88973 4.8826 0
M  V30 137 H 9.9268 1.97684 5.78559 0
M  V30 138 H 14.1008 2.75193 6.3972 0
M  V30 139 H 11.7278 3.30145 6.84769 0
M  V30 140 N 13.3029 -1.57598 0.00835791 0
M  V30 141 C 14.2129 -2.12385 -0.996487 0
M  V30 142 C 15.2289 -1.07108 -1.37127 0
M  V30 143 O 16.4049 -1.39055 -1.4569 0
M  V30 144 C 13.4699 -2.62314 -2.26699 0
M  V30 145 C 12.5309 -3.82225 -1.95456 0
M  V30 146 C 11.7639 -4.29763 -3.16449 0
M  V30 147 O 11.9869 -3.76584 -4.28416 0
M  V30 148 O 10.9209 -5.21832 -2.99958 0
M  V30 149 H 14.7469 -2.98479 -0.560725 0
M  V30 150 H 12.3319 -1.47903 -0.210987 0
M  V30 151 H 14.2139 -2.94589 -3.01322 0
M  V30 152 H 12.8889 -1.79313 -2.69497 0
M  V30 153 H 11.7959 -3.54909 -1.18282 0
M  V30 154 H 13.1289 -4.66324 -1.57489 0
M  V30 155 N 14.781 0.264519 -1.55364 0
M  V30 156 C 16.006 1.01726 -1.80739 0
M  V30 157 C 16.431 1.78836 -0.583044 0
M  V30 158 O 15.789 1.75167 0.467566 0
M  V30 159 C 15.837 1.94482 -3.03659 0
M  V30 160 O 14.941 3.03386 -2.7934 0
M  V30 161 H 14.282 0.290395 -0.597132 0
M  V30 162 H 16.812 0.290854 -2.02522 0
M  V30 163 H 16.822 2.36278 -3.32621 0
M  V30 164 H 15.497 1.37772 -3.92418 0
M  V30 165 H 14.074 2.65844 -2.61498 0
M  V30 166 N 16.2591 1.48442 0.529413 0
M  V30 167 C 17.4871 1.60151 1.30994 0
M  V30 168 C 17.9021 0.261985 1.86973 0
M  V30 169 O 17.2591 -0.748805 1.66431 0
M  V30 170 C 17.3101 2.64854 2.46038 0
M  V30 171 O 17.0311 3.93608 1.92365 0
M  V30 172 C 18.5321 2.87007 3.37849 0
M  V30 173 H 15.7521 0.539971 0.398338 0
M  V30 174 H 18.2961 1.94273 0.638597 0
M  V30 175 H 16.4511 2.33589 3.09055 0
M  V30 176 H 16.8651 4.51055 2.67675 0
M  V30 177 H 18.3391 3.64068 4.14919 0
M  V30 178 H 18.8161 1.95852 3.93114 0
M  V30 179 H 19.4221 3.19579 2.80623 0
M  V30 180 N 17.7372 -0.778329 1.37039 0
M  V30 181 C 18.9622 -1.57248 1.35233 0
M  V30 182 C 19.3872 -1.87999 -0.0615568 0
M  V30 183 O 18.7452 -1.48734 -1.03672 0
M  V30 184 C 18.7932 -2.86353 2.19167 0
M  V30 185 O 17.8972 -3.80442 1.59178 0
M  V30 186 H 17.2382 -0.476569 0.462362 0
M  V30 187 H 19.7682 -0.963853 1.80474 0
M  V30 188 H 19.7782 -3.35519 2.32145 0
M  V30 189 H 18.4532 -2.63299 3.21942 0
M  V30 190 H 17.0302 -3.39067 1.55203 0
M  V30 191 N 19.2153 -1.21501 -1.00376 0
M  V30 192 C 20.6313 -0.972629 -1.26539 0
M  V30 193 C 20.8313 0.340257 -1.98606 0
M  V30 194 O 19.8873 1.06561 -2.28913 0
M  V30 195 C 21.2003 -2.16404 -2.08781 0
M  V30 196 C 22.7483 -2.20643 -2.22004 0
M  V30 197 C 23.2233 -3.39306 -3.07629 0
M  V30 198 N 24.7143 -3.39401 -3.15217 0
M  V30 199 C 25.4493 -4.27867 -3.81729 0
M  V30 200 N 24.9453 -5.26533 -4.5026 0
M  V30 201 N 26.7383 -4.15672 -3.78382 0
M  V30 202 H 18.8893 -2.05929 -0.520281 0
M  V30 203 H 21.1523 -0.901803 -0.292328 0
M  V30 204 H 20.8583 -3.11554 -1.63178 0
M  V30 205 H 20.7323 -2.15567 -3.09533 0
M  V30 206 H 23.1193 -1.26048 -2.66825 0
M  V30 207 H 23.2003 -2.25523 -1.20718 0
M  V30 208 H 22.8443 -4.34195 -2.63509 0
M  V30 209 H 22.7743 -3.31665 -4.09031 0
M  V30 210 H 25.2653 -2.67997 -2.66432 0
M  V30 211 H 25.5783 -5.90337 -4.98721 0
M  V30 212 H 23.9233 -5.30457 -4.49044 0
M  V30 213 H 27.1143 -3.3785 -3.23998 0
M  V30 214 H 27.2873 -4.84825 -4.2994 0
M  V30 215 N 20.6934 1.19889 -1.02296 0
M  V30 216 C 21.9404 1.8942 -0.715972 0
M  V30 217 C 22.2684 1.79251 0.754944 0
M  V30 218 O 21.5234 1.17526 1.56481 0
M  V30 219 C 21.8224 3.39883 -1.10518 0
M  V30 220 C 21.4884 3.70254 -2.57337 0
M  V30 221 C 20.1504 3.78254 -2.97452 0
M  V30 222 C 22.5024 3.84052 -3.52354 0
M  V30 223 C 19.8304 3.97514 -4.31509 0
M  V30 224 C 22.1824 4.04824 -4.86108 0
M  V30 225 C 20.8464 4.11054 -5.25919 0
M  V30 226 H 20.1164 0.693138 -0.261993 0
M  V30 227 H 22.7634 1.42012 -1.28472 0
M  V30 228 H 21.0684 3.8915 -0.454953 0
M  V30 229 H 22.7654 3.9199 -0.845261 0
M  V30 230 H 19.3554 3.64632 -2.25258 0
M  V30 231 H 23.5394 3.77221 -3.22518 0
M  V30 232 H 18.7954 4.00574 -4.61898 0
M  V30 233 H 22.9694 4.14442 -5.59653 0
M  V30 234 H 20.5964 4.2573 -6.29808 0
M  V30 235 N 22.1715 0.800033 1.35784 0
M  V30 236 C 23.1345 0.211565 2.28221 0
M  V30 237 C 24.1345 -0.59728 1.49296 0
M  V30 238 O 25.3245 -0.416721 1.69142 0
M  V30 239 C 22.4565 -0.705846 3.33513 0
M  V30 240 H 23.6495 1.02677 2.81776 0
M  V30 241 H 21.2025 0.570211 1.45528 0
M  V30 242 H 21.9375 -1.54498 2.85133 0
M  V30 243 H 21.7225 -0.127655 3.91892 0
M  V30 244 H 23.2125 -1.11211 4.02519 0
M  V30 245 N 23.6496 -1.47581 0.552962 0
M  V30 246 C 24.5596 -2.33743 -0.200353 0
M  V30 247 C 25.5756 -1.47928 -0.916151 0
M  V30 248 O 26.7516 -1.80865 -0.885993 0
M  V30 249 C 23.8166 -3.24536 -1.21973 0
M  V30 250 C 22.8776 -4.26238 -0.511819 0
M  V30 251 C 22.1106 -5.12693 -1.48263 0
M  V30 252 O 22.3336 -5.01525 -2.71714 0
M  V30 253 O 21.2676 -5.93375 -1.00945 0
M  V30 254 H 25.0936 -2.9945 0.506304 0
M  V30 255 H 22.6786 -1.46071 0.313622 0
M  V30 256 H 24.5606 -3.80631 -1.80827 0
M  V30 257 H 23.2356 -2.61462 -1.90839 0
M  V30 258 H 22.1426 -3.73914 0.117799 0
M  V30 259 H 23.4756 -4.92014 0.135308 0
M  V30 260 N 25.1277 -0.289203 -1.54924 0
M  V30 261 C 26.3737 0.323998 -2.00195 0
M  V30 262 C 26.7067 1.54441 -1.17735 0
M  V30 263 O 25.9817 1.92875 -0.250878 0
M  V30 264 C 26.2647 0.692276 -3.53383 0
M  V30 265 C 26.1177 -0.536457 -4.46589 0
M  V30 266 C 27.4367 1.52335 -4.12895 0
M  V30 267 H 24.5557 0.116289 -0.727768 0
M  V30 268 H 27.1977 -0.398954 -1.85764 0
M  V30 269 H 25.3477 1.30822 -3.65811 0
M  V30 270 H 27.0197 -1.17499 -4.46085 0
M  V30 271 H 25.2627 -1.17192 -4.1767 0
M  V30 272 H 25.9337 -0.234806 -5.515 0
M  V30 273 H 28.4097 1.00302 -4.0383 0
M  V30 274 H 27.2857 1.74982 -5.20262 0
M  V30 275 H 27.5467 2.50886 -3.64018 0
M  V30 276 N 26.6058 1.57591 -0.0167156 0
M  V30 277 C 27.8828 1.82547 0.702564 0
M  V30 278 C 28.2628 0.898018 1.91047 0
M  V30 279 O 27.6108 -0.0493456 2.28447 0
M  V30 280 C 27.8208 3.31459 1.09251 0
M  V30 281 C 29.1688 3.97622 1.48937 0
M  V30 282 O 30.1928 3.35881 1.18584 0
M  V30 283 O 29.0518 5.06415 2.05442 0
M  V30 284 H 26.1458 0.752268 0.343544 0
M  V30 285 H 28.6918 1.69644 -0.0434495 0
M  V30 286 H 27.4638 3.9061 0.23227 0
M  V30 287 H 27.0868 3.49422 1.89709 0
M  V30 288 N 28.0839 -0.256276 1.55502 0
M  V30 289 C 29.3299 -0.987079 1.77157 0
M  V30 290 C 29.6629 -1.85327 0.580315 0
M  V30 291 O 28.9379 -1.89874 -0.421686 0
M  V30 292 C 29.2209 -1.85553 3.08613 0
M  V30 293 C 29.0739 -1.01816 4.38125 0
M  V30 294 C 30.3929 -2.8397 3.36228 0
M  V30 295 H 27.5119 -0.357428 0.644526 0
M  V30 296 H 30.1539 -0.258239 1.88237 0
M  V30 297 H 28.3039 -2.47695 2.99298 0
M  V30 298 H 29.9759 -0.416159 4.59419 0
M  V30 299 H 28.2189 -0.322178 4.32602 0
M  V30 300 H 28.8899 -1.65939 5.26468 0
M  V30 301 H 31.3659 -2.31964 3.45445 0
M  V30 302 H 30.2419 -3.41864 4.29442 0
M  V30 303 H 30.5029 -3.59955 2.56681 0
M  V30 304 N 29.562 -1.4872 -0.521534 0
M  V30 305 C 30.839 -1.4766 -1.2828 0
M  V30 306 C 31.219 -0.19292 -2.10217 0
M  V30 307 O 30.567 0.825193 -2.13079 0
M  V30 308 C 30.777 -2.74358 -2.15705 0
M  V30 309 C 32.125 -3.23028 -2.75569 0
M  V30 310 O 33.149 -2.75333 -2.25987 0
M  V30 311 O 32.008 -4.0604 -3.65778 0
M  V30 312 H 29.102 -0.590085 -0.579421 0
M  V30 313 H 31.648 -1.60963 -0.537492 0
M  V30 314 H 30.42 -3.59292 -1.54999 0
M  V30 315 H 30.043 -2.63816 -2.97467 0
M  V30 316 N 31.0401 0.771051 -1.3745 0
M  V30 317 C 32.2881 1.52661 -1.32435 0
M  V30 318 C 32.6091 1.9479 0.0905024 0
M  V30 319 O 31.8791 1.66348 1.03466 0
M  V30 320 H 30.4591 0.566218 -0.487244 0
M  V30 321 H 33.1211 0.917636 -1.71946 0
M  V30 322 H 32.2171 2.42568 -1.96385 0
M  V30 323 N 32.5182 1.22032 0.997298 0
M  V30 324 C 33.9292 1.0397 1.55071 0
M  V30 325 C 34.2802 -0.398192 1.92117 0
M  V30 326 O 33.4052 -1.28254 1.74298 0
M  V30 327 C 34.0002 1.88109 2.81781 0
M  V30 328 C 32.5592 1.74357 3.33581 0
M  V30 329 C 31.7062 1.84846 2.06706 0
M  V30 330 H 34.6572 1.35941 0.818883 0
M  V30 331 H 34.6782 1.39589 3.53971 0
M  V30 332 H 34.1902 2.92754 2.54787 0
M  V30 333 H 32.2912 0.72427 3.65493 0
M  V30 334 H 32.4042 2.56772 4.04481 0
M  V30 335 H 30.7682 1.28238 2.20062 0
M  V30 336 H 31.5512 2.91014 1.82114 0
M  V30 337 N 33.9963 -1.19345 1.0293 0
M  V30 338 C 34.9263 -2.2481 0.631105 0
M  V30 339 C 35.9073 -1.66245 -0.360104 0
M  V30 340 O 37.0923 -1.92677 -0.242726 0
M  V30 341 C 34.2223 -3.47295 -0.0184607 0
M  V30 342 C 33.1763 -4.18536 0.895073 0
M  V30 343 C 32.5023 -5.34586 0.110592 0
M  V30 344 C 33.8023 -4.73287 2.209 0
M  V30 345 H 35.4963 -2.58372 1.51275 0
M  V30 346 H 33.0423 -1.24194 0.728818 0
M  V30 347 H 34.9953 -4.20268 -0.308675 0
M  V30 348 H 33.7193 -3.12933 -0.934907 0
M  V30 349 H 32.3783 -3.47446 1.16949 0
M  V30 350 H 32.0263 -4.96469 -0.807902 0
M  V30 351 H 31.7263 -5.83183 0.719087 0
M  V30 352 H 33.2503 -6.10355 -0.172871 0
M  V30 353 H 34.6643 -5.38013 1.98028 0
M  V30 354 H 33.0613 -5.32373 2.76946 0
M  V30 355 H 34.1313 -3.91331 2.86336 0
M  V30 356 N 35.4744 -0.807222 -1.35358 0
M  V30 357 C 36.4214 -0.216037 -2.29787 0
M  V30 358 C 37.3914 0.650278 -1.52842 0
M  V30 359 O 38.5764 0.595227 -1.81278 0
M  V30 360 C 35.7164 0.628893 -3.39321 0
M  V30 361 C 34.8294 -0.257927 -4.31229 0
M  V30 362 C 33.9644 0.595069 -5.27856 0
M  V30 363 C 33.0034 -0.292111 -6.11403 0
M  V30 364 N 32.1404 0.520895 -7.00165 0
M  V30 365 H 36.9804 -1.02671 -2.79755 0
M  V30 366 H 34.5174 -0.517839 -1.37684 0
M  V30 367 H 36.4754 1.13393 -4.01494 0
M  V30 368 H 35.1054 1.40482 -2.90628 0
M  V30 369 H 34.1574 -0.881076 -3.70056 0
M  V30 370 H 35.4694 -0.940759 -4.89848 0
M  V30 371 H 34.6234 1.16522 -5.95405 0
M  V30 372 H 33.3624 1.31146 -4.69736 0
M  V30 373 H 32.3674 -0.874525 -5.428 0
M  V30 374 H 33.5924 -1.00638 -6.71602 0
M  V30 375 H 31.5384 1.22125 -6.44532 0
M  V30 376 H 31.4554 -0.103877 -7.55929 0
M  V30 377 H 32.7234 1.0743 -7.72062 0
M  V30 378 N 36.9525 1.47285 -0.560781 0
M  V30 379 C 37.8825 2.32857 0.173105 0
M  V30 380 C 38.8635 1.44009 0.905281 0
M  V30 381 O 40.0485 1.7286 0.885046 0
M  V30 382 C 37.1785 3.25861 1.20133 0
M  V30 383 C 36.1325 4.23978 0.585388 0
M  V30 384 C 35.4585 5.06332 1.7185 0
M  V30 385 C 36.7585 5.20242 -0.463178 0
M  V30 386 H 38.4525 2.94466 -0.541307 0
M  V30 387 H 35.9985 1.41601 -0.261764 0
M  V30 388 H 37.9515 3.84569 1.72293 0
M  V30 389 H 36.6755 2.62315 1.94573 0
M  V30 390 H 35.3345 3.66501 0.085054 0
M  V30 391 H 34.9825 4.39186 2.45203 0
M  V30 392 H 34.6825 5.72762 1.31213 0
M  V30 393 H 36.2065 5.67899 2.24329 0
M  V30 394 H 37.6205 5.73293 -0.027502 0
M  V30 395 H 36.0175 5.94896 -0.788627 0
M  V30 396 H 37.0875 4.65504 -1.35773 0
M  V30 397 N 38.4306 0.297415 1.54768 0
M  V30 398 C 39.3806 -0.595275 2.20092 0
M  V30 399 C 40.3646 -1.10163 1.17273 0
M  V30 400 O 41.5566 -1.043 1.43006 0
M  V30 401 C 38.6856 -1.7684 2.94249 0
M  V30 402 C 37.7716 -1.27818 4.0438 0
M  V30 403 N 38.1626 -0.505695 5.03266 0
M  V30 404 C 36.4606 -1.55923 4.17857 0
M  V30 405 C 37.1616 -0.245094 5.81183 0
M  V30 406 N 36.1376 -0.823881 5.3732 0
M  V30 407 H 39.9396 0.00250837 2.939 0
M  V30 408 H 37.4536 0.102007 1.62079 0
M  V30 409 H 39.4506 -2.41944 3.39513 0
M  V30 410 H 38.1106 -2.36992 2.21957 0
M  V30 411 H 39.1216 -0.150928 5.1768 0
M  V30 412 H 35.7986 -2.16849 3.56767 0
M  V30 413 H 37.1886 0.375084 6.70852 0
M  V30 414 N 39.9087 -1.5758 0.0250728 0
M  V30 415 C 41.1387 -1.95646 -0.663783 0
M  V30 416 C 41.5467 -0.899935 -1.66427 0
M  V30 417 O 40.8897 0.127191 -1.83259 0
M  V30 418 C 40.9517 -3.29835 -1.43 0
M  V30 419 C 40.6157 -4.53197 -0.588305 0
M  V30 420 C 41.6127 -5.19726 0.13469 0
M  V30 421 C 39.2977 -4.99529 -0.526897 0
M  V30 422 C 41.2917 -6.30902 0.90781 0
M  V30 423 C 38.9787 -6.10589 0.24993 0
M  V30 424 C 39.9767 -6.76134 0.965994 0
M  V30 425 O 39.6647 -7.85062 1.7301 0
M  V30 426 H 39.3967 -0.649282 -0.188174 0
M  V30 427 H 41.9507 -2.05245 0.0799006 0
M  V30 428 H 40.1807 -3.16716 -2.21873 0
M  V30 429 H 41.8697 -3.52833 -2.00658 0
M  V30 430 H 42.6357 -4.84904 0.0965562 0
M  V30 431 H 38.5147 -4.48319 -1.07381 0
M  V30 432 H 42.0587 -6.81995 1.46724 0
M  V30 433 H 37.9557 -6.44849 0.289795 0
M  V30 434 H 38.7237 -8.01708 1.64944 0
M  V30 435 N 41.3868 0.248026 -1.55636 0
M  V30 436 C 42.3368 1.30994 -1.86614 0
M  V30 437 C 43.3208 1.43543 -0.726918 0
M  V30 438 O 44.5128 1.46804 -0.988818 0
M  V30 439 C 41.6418 2.6656 -2.16335 0
M  V30 440 C 40.7278 2.58019 -3.36581 0
M  V30 441 N 41.1188 2.1911 -4.55878 0
M  V30 442 C 39.4168 2.89035 -3.39669 0
M  V30 443 C 40.1178 2.21174 -5.38012 0
M  V30 444 N 39.0938 2.60632 -4.77045 0
M  V30 445 H 42.8958 0.999583 -2.76379 0
M  V30 446 H 40.4098 0.456652 -1.55848 0
M  V30 447 H 42.4068 3.43194 -2.36692 0
M  V30 448 H 41.0668 2.98463 -1.27867 0
M  V30 449 H 42.0778 1.90672 -4.81523 0
M  V30 450 H 38.7548 3.25485 -2.61469 0
M  V30 451 H 40.1448 1.9344 -6.43452 0
M  V30 452 N 42.8649 1.48995 0.513639 0
M  V30 453 C 43.7749 1.67443 1.64317 0
M  V30 454 C 44.7909 0.556947 1.64846 0
M  V30 455 O 45.9669 0.830082 1.83498 0
M  V30 456 C 43.0319 1.72515 3.00732 0
M  V30 457 C 42.0929 2.96009 3.1093 0
M  V30 458 C 41.3259 3.00829 4.40837 0
M  V30 459 O 41.5489 2.13594 5.28898 0
M  V30 460 O 40.4829 3.93168 4.55744 0
M  V30 461 H 44.3089 2.63106 1.51687 0
M  V30 462 H 41.8939 1.32588 0.688543 0
M  V30 463 H 43.7759 1.78277 3.81831 0
M  V30 464 H 42.4509 0.800278 3.13651 0
M  V30 465 H 41.3579 2.9577 2.29065 0
M  V30 466 H 42.6909 3.87934 3.02933 0
M  V30 467 N 44.343 -0.763751 1.37857 0
M  V30 468 C 45.306 -1.85889 1.34081 0
M  V30 469 C 46.306 -1.58949 0.243277 0
M  V30 470 O 47.496 -1.66882 0.499589 0
M  V30 471 C 44.628 -3.23176 1.08489 0
M  V30 472 H 45.821 -1.90648 2.31502 0
M  V30 473 H 43.374 -0.964367 1.23003 0
M  V30 474 H 44.109 -3.24091 0.116318 0
M  V30 475 H 43.894 -3.44124 1.8794 0
M  V30 476 H 45.384 -4.03254 1.08517 0
M  V30 477 N 45.8211 -1.22559 -0.990812 0
M  V30 478 C 47.0691 -1.04933 -1.72724 0
M  V30 479 C 47.3901 0.416158 -1.90508 0
M  V30 480 O 46.6601 1.29918 -1.46622 0
M  V30 481 H 45.2401 -0.385296 -0.639965 0
M  V30 482 H 47.9021 -1.54105 -1.19322 0
M  V30 483 H 46.9981 -1.52886 -2.72089 0
M  V30 484 N 47.2992 1.18797 -1.03562 0
M  V30 485 C 48.5452 1.8893 -0.737113 0
M  V30 486 C 48.8782 1.79837 0.732956 0
M  V30 487 O 48.1532 1.19525 1.5344 0
M  V30 488 C 48.4362 3.39607 -1.19745 0
M  V30 489 C 48.2892 3.57537 -2.72924 0
M  V30 490 C 49.6082 4.33069 -0.783526 0
M  V30 491 H 46.7272 0.686057 -0.269249 0
M  V30 492 H 49.3692 1.39797 -1.28673 0
M  V30 493 H 47.5192 3.81583 -0.729855 0
M  V30 494 H 49.1912 3.24688 -3.27682 0
M  V30 495 H 47.4342 3.00363 -3.12993 0
M  V30 496 H 48.1052 4.63238 -3.00191 0
M  V30 497 H 50.5812 3.98846 -1.18581 0
M  V30 498 H 49.4572 5.3707 -1.13343 0
M  V30 499 H 49.7182 4.40986 0.313681 0
M  V30 500 N 48.7773 0.814389 1.34928 0
M  V30 501 C 50.0253 0.397636 1.9815 0
M  V30 502 C 50.3463 -1.04069 1.64908 0
M  V30 503 O 49.6163 -1.72121 0.93548 0
M  V30 504 H 48.1963 0.144043 0.732981 0
M  V30 505 H 50.8583 1.04195 1.6471 0
M  V30 506 H 49.9543 0.509688 3.0791 0
M  V30 507 N 50.2554 -1.46986 0.568584 0
M  V30 508 C 51.2034 -2.31858 -0.185649 0
M  V30 509 C 52.1974 -1.43624 -0.898249 0
M  V30 510 O 53.4034 -1.60327 -0.818242 0
M  V30 511 H 49.7784 -0.747866 -0.0787399 0
M  V30 512 H 51.7494 -2.93303 0.549191 0
M  V30 513 C 50.4984 -3.26513 -1.19519 0
M  V30 514 H 49.8214 -3.94377 -0.656285 0
M  V30 515 H 51.2614 -3.88707 -1.6936 0
M  V30 516 C 49.7204 -2.50847 -2.24894 0
M  V30 517 O 50.2504 -2.26119 -3.32014 0
M  V30 518 N 48.4564 -2.11656 -1.99124 0
M  V30 519 H 48.0034 -2.31966 -1.12024 0
M  V30 520 H 47.9614 -1.61347 -2.69842 0
M  V30 521 N 51.7335 -0.305618 -1.54608 0
M  V30 522 C 53.0105 0.355652 -1.92339 0
M  V30 523 C 53.3905 1.71324 -1.23335 0
M  V30 524 O 52.7385 2.25473 -0.370702 0
M  V30 525 C 52.9485 0.46572 -3.45879 0
M  V30 526 C 54.2965 0.734426 -4.182 0
M  V30 527 O 55.3205 0.54935 -3.51938 0
M  V30 528 O 54.1795 1.09024 -5.35515 0
M  V30 529 H 51.2735 0.199666 -0.802535 0
M  V30 530 H 53.8195 -0.354017 -1.65966 0
M  V30 531 H 52.5915 -0.488461 -3.88239 0
M  V30 532 H 52.2145 1.22367 -3.78301 0
M  V30 533 N 53.2116 1.57565 -0.0334293 0
M  V30 534 C 54.1436 2.0739 0.975811 0
M  V30 535 C 55.1566 0.998166 1.2861 0
M  V30 536 O 56.3456 1.27426 1.25 0
M  V30 537 C 53.4456 2.4871 2.30209 0
M  V30 538 C 52.6186 3.79413 2.17634 0
M  V30 539 C 51.6776 4.07237 3.33233 0
M  V30 540 O 50.7036 4.77425 3.09927 0
M  V30 541 N 51.9056 3.5775 4.5716 0
M  V30 542 H 54.6706 2.94598 0.55066 0
M  V30 543 H 52.2316 1.61173 0.15323 0
M  V30 544 H 54.2236 2.64413 3.06378 0
M  V30 545 H 52.7936 1.66845 2.64351 0
M  V30 546 H 52.0136 3.73465 1.26165 0
M  V30 547 H 53.3016 4.65038 2.0644 0
M  V30 548 H 52.6996 3.00976 4.78989 0
M  V30 549 H 51.2566 3.78724 5.30482 0
M  V30 550 N 54.6897 -0.239769 1.55765 0
M  V30 551 C 55.9177 -0.98417 1.81994 0
M  V30 552 C 56.3327 -1.7867 0.610124 0
M  V30 553 O 55.6897 -1.77571 -0.421271 0
M  V30 554 C 55.7407 -1.91635 3.06526 0
M  V30 555 O 55.4617 -1.14629 4.22838 0
M  V30 556 C 56.9627 -2.77616 3.45607 0
M  V30 557 H 54.1827 -0.28928 0.605441 0
M  V30 558 H 56.7267 -0.260499 2.02834 0
M  V30 559 H 54.8817 -2.5942 2.87715 0
M  V30 560 H 55.2957 -1.77745 4.93464 0
M  V30 561 H 56.7697 -3.38759 4.35828 0
M  V30 562 H 57.2467 -3.4909 2.6652 0
M  V30 563 H 57.8527 -2.15271 3.66795 0
M  V30 564 N 56.1678 -1.49265 -0.50573 0
M  V30 565 C 57.4138 -1.58748 -1.26202 0
M  V30 566 C 57.7468 -0.271227 -1.92297 0
M  V30 567 O 57.0218 0.724831 -1.80489 0
M  V30 568 C 57.3048 -2.74332 -2.33268 0
M  V30 569 C 57.1578 -4.15737 -1.71705 0
M  V30 570 C 58.4768 -2.85576 -3.34865 0
M  V30 571 H 55.5958 -0.577826 -0.457478 0
M  V30 572 H 58.2378 -1.81532 -0.560897 0
M  V30 573 H 56.3878 -2.55036 -2.93068 0
M  V30 574 H 58.0598 -4.46537 -1.15769 0
M  V30 575 H 56.3028 -4.21605 -1.02135 0
M  V30 576 H 56.9738 -4.92477 -2.49341 0
M  V30 577 H 59.4498 -3.03127 -2.8505 0
M  V30 578 H 58.3258 -3.68135 -4.07146 0
M  V30 579 H 58.5868 -1.94732 -3.96903 0
M  V30 580 N 57.6459 0.756429 -1.3826 0
M  V30 581 C 58.8919 1.51772 -1.34511 0
M  V30 582 C 59.2249 1.94089 0.0656691 0
M  V30 583 O 58.4999 1.65221 1.02626 0
M  V30 584 C 58.7829 2.77226 -2.29821 0
M  V30 585 C 58.6359 2.41065 -3.79747 0
M  V30 586 C 59.9549 3.79236 -2.23312 0
M  V30 587 H 57.0739 0.550578 -0.489931 0
M  V30 588 H 59.7159 0.866607 -1.69086 0
M  V30 589 H 57.8659 3.32784 -2.00467 0
M  V30 590 H 59.5379 1.91303 -4.19763 0
M  V30 591 H 57.7809 1.7356 -3.97567 0
M  V30 592 H 58.4519 3.3081 -4.41892 0
M  V30 593 H 60.9279 3.3321 -2.49219 0
M  V30 594 H 59.8039 4.64714 -2.92116 0
M  V30 595 H 60.0649 4.24615 -1.23102 0
M  V30 596 N 59.124 1.23083 0.984299 0
M  V30 597 C 60.054 1.03292 2.09411 0
M  V30 598 C 61.035 -0.048923 1.7003 0
M  V30 599 O 62.22 0.114967 1.93859 0
M  V30 600 C 59.35 0.619155 3.41736 0
M  V30 601 C 58.304 1.64791 3.95004 0
M  V30 602 C 57.63 1.0897 5.23478 0
M  V30 603 C 58.93 3.03999 4.24714 0
M  V30 604 H 60.624 1.96119 2.26225 0
M  V30 605 H 58.17 0.944344 1.08711 0
M  V30 606 H 60.123 0.467777 4.18796 0
M  V30 607 H 58.847 -0.344786 3.24775 0
M  V30 608 H 57.506 1.78721 3.20085 0
M  V30 609 H 57.154 0.11686 5.02864 0
M  V30 610 H 56.854 1.77704 5.60085 0
M  V30 611 H 58.378 0.950093 6.03163 0
M  V30 612 H 59.792 2.93393 4.92538 0
M  V30 613 H 58.189 3.69936 4.72512 0
M  V30 614 H 59.259 3.53285 3.32142 0
M  V30 615 N 60.6021 -1.18246 1.0419 0
M  V30 616 C 61.5321 -2.24127 0.654914 0
M  V30 617 C 62.5131 -1.66617 -0.342451 0
M  V30 618 O 63.6981 -1.92924 -0.222277 0
M  V30 619 C 60.8281 -3.47295 0.0183757 0
M  V30 620 C 59.7821 -4.17563 0.939414 0
M  V30 621 C 59.1081 -5.34438 0.167286 0
M  V30 622 C 60.4081 -4.70917 2.25908 0
M  V30 623 H 62.1021 -2.56753 1.54007 0
M  V30 624 H 59.6481 -1.23414 0.74195 0
M  V30 625 H 61.6011 -4.20572 -0.264082 0
M  V30 626 H 60.3251 -3.13907 -0.901664 0
M  V30 627 H 58.9841 -3.46186 1.20628 0
M  V30 628 H 58.6321 -4.97298 -0.7552 0
M  V30 629 H 58.3321 -5.82388 0.780901 0
M  V30 630 H 59.8561 -6.10504 -0.108125 0
M  V30 631 H 61.2701 -5.35882 2.03724 0
M  V30 632 H 59.6671 -5.29406 2.82577 0
M  V30 633 H 60.7371 -3.88272 2.9047 0
M  V30 634 N 62.0802 -0.821533 -1.34494 0
M  V30 635 C 63.0302 -0.214793 -2.26986 0
M  V30 636 C 64.0142 0.620125 -1.4847 0
M  V30 637 O 65.2062 0.474933 -1.70509 0
M  V30 638 C 62.3352 0.623566 -3.37589 0
M  V30 639 C 61.4212 -0.221904 -4.23519 0
M  V30 640 N 61.8122 -1.29223 -4.89014 0
M  V30 641 C 60.1102 -0.00600922 -4.46 0
M  V30 642 C 60.8112 -1.80965 -5.52835 0
M  V30 643 N 59.7872 -1.11376 -5.32068 0
M  V30 644 H 63.5892 -1.03354 -2.75128 0
M  V30 645 H 61.1032 -0.6642 -1.48196 0
M  V30 646 H 63.1002 1.0744 -4.02818 0
M  V30 647 H 61.7602 1.44049 -2.90998 0
M  V30 648 H 62.7712 -1.67502 -4.90065 0
M  V30 649 H 59.4482 0.77886 -4.10171 0
M  V30 650 H 60.8382 -2.70502 -6.15043 0
M  V30 651 N 63.5583 1.46682 -0.576371 0
M  V30 652 C 64.8063 2.02013 -0.0594163 0
M  V30 653 C 65.1273 1.45101 1.30271 0
M  V30 654 O 64.3973 0.633317 1.8538 0
M  V30 655 H 62.9773 0.746759 -0.0189745 0
M  V30 656 H 65.6393 1.79862 -0.750717 0
M  V30 657 H 64.7353 3.12097 0.014345 0
M  V30 658 N 65.0364 0.313813 1.54444 0
M  V30 659 C 66.2844 -0.291099 1.99993 0
M  V30 660 C 66.6054 -1.53418 1.20366 0
M  V30 661 O 65.8754 -1.93544 0.302927 0
M  V30 662 H 64.4554 -0.110552 0.738774 0
M  V30 663 H 67.1174 0.428106 1.9014 0
M  V30 664 H 66.2134 -0.554268 3.07139 0
M  V30 665 N 66.5145 -1.57545 0.0417849 0
M  V30 666 C 67.7625 -1.91937 -0.632829 0
M  V30 667 C 68.0835 -0.919978 -1.71934 0
M  V30 668 O 67.3535 0.0366064 -1.95866 0
M  V30 669 H 65.9335 -0.708493 -0.236742 0
M  V30 670 H 68.5955 -1.9468 0.0925745 0
M  V30 671 H 67.6915 -2.92912 -1.07746 0
M  V30 672 N 67.9926 0.231505 -1.5589 0
M  V30 673 C 69.4036 0.799327 -1.68724 0
M  V30 674 C 69.7546 1.85398 -0.642022 0
M  V30 675 O 68.8796 2.1539 0.208784 0
M  V30 676 C 69.4746 1.45664 -3.05888 0
M  V30 677 C 68.0336 1.97197 -3.20609 0
M  V30 678 C 67.1806 0.828552 -2.64632 0
M  V30 679 H 70.1316 0.00702616 -1.58698 0
M  V30 680 H 70.1526 2.32517 -3.01191 0
M  V30 681 H 69.6646 0.688808 -3.81939 0
M  V30 682 H 67.7656 2.76813 -2.4941 0
M  V30 683 H 67.8786 2.15878 -4.27707 0
M  V30 684 H 66.2426 1.23321 -2.22854 0
M  V30 685 H 67.0256 0.0735544 -3.43221 0
M  V30 686 N 69.4707 1.49531 0.497807 0
M  V30 687 C 70.7187 1.58865 1.24926 0
M  V30 688 C 71.0397 0.278721 1.92998 0
M  V30 689 O 70.3097 -0.702144 1.82885 0
M  V30 690 H 68.8897 0.585343 0.464094 0
M  V30 691 H 71.5517 1.86174 0.57666 0
M  V30 692 H 70.6477 2.38633 2.01149 0
M  V30 693 N 70.9488 -0.749086 1.3866 0
M  V30 694 C 71.9118 -1.84457 1.36045 0
M  V30 695 C 72.9118 -1.58682 0.260122 0
M  V30 696 O 74.1018 -1.66343 0.517261 0
M  V30 697 C 71.2338 -3.22008 1.11911 0
M  V30 698 H 72.4268 -1.88182 2.33512 0
M  V30 699 H 69.9798 -0.951266 1.24019 0
M  V30 700 H 70.7148 -3.2395 0.150686 0
M  V30 701 H 70.4998 -3.42111 1.91579 0
M  V30 702 H 71.9898 -4.0208 1.12788 0
M  V30 703 N 72.4269 -1.23603 -0.977757 0
M  V30 704 C 73.3899 -1.02069 -2.05218 0
M  V30 705 C 74.3899 0.0184305 -1.60789 0
M  V30 706 O 75.5799 -0.221569 -1.72785 0
M  V30 707 C 72.7119 -0.544926 -3.36517 0
M  V30 708 H 73.9049 -1.9742 -2.25755 0
M  V30 709 H 71.4579 -1.05684 -1.15155 0
M  V30 710 H 72.1929 0.412241 -3.21669 0
M  V30 711 H 71.9779 -1.2948 -3.70105 0
M  V30 712 H 73.4679 -0.414985 -4.15533 0
M  V30 713 N 73.905 1.17692 -1.04816 0
M  V30 714 C 75.13 1.92327 -0.776207 0
M  V30 715 C 75.555 1.76082 0.661581 0
M  V30 716 O 74.913 1.076 1.45917 0
M  V30 717 C 74.961 3.41539 -1.15687 0
M  V30 718 O 74.065 4.11402 -0.286775 0
M  V30 719 H 73.406 0.599735 -0.284981 0
M  V30 720 H 75.936 1.49201 -1.4 0
M  V30 721 H 75.946 3.92269 -1.12202 0
M  V30 722 H 74.621 3.52684 -2.20425 0
M  V30 723 H 73.198 3.70939 -0.381903 0
M  V30 724 N 75.3831 0.828654 1.34056 0
M  V30 725 C 76.6291 0.429279 1.98818 0
M  V30 726 C 76.9841 -0.998011 1.64492 0
M  V30 727 O 76.2771 -1.68652 0.909228 0
M  V30 728 C 76.4711 0.575226 3.52741 0
M  V30 729 C 76.3001 2.01515 4.02022 0
M  V30 730 C 75.0701 2.64825 4.30344 0
M  V30 731 C 77.2681 2.98261 4.18981 0
M  V30 732 N 75.2501 3.99998 4.65698 0
M  V30 733 C 76.6211 4.18356 4.57578 0
M  V30 734 C 78.6761 2.94802 4.01243 0
M  V30 735 C 77.3791 5.35454 4.80293 0
M  V30 736 C 79.4051 4.11121 4.25128 0
M  V30 737 C 78.7671 5.29969 4.64018 0
M  V30 738 H 74.8661 0.205304 0.754569 0
M  V30 739 H 77.4501 1.07457 1.62361 0
M  V30 740 H 75.6211 -0.0401962 3.88379 0
M  V30 741 H 77.3531 0.148292 4.04428 0
M  V30 742 H 74.1081 2.16027 4.21461 0
M  V30 743 H 74.5321 4.69653 4.87601 0
M  V30 744 H 79.1741 2.04054 3.70299 0
M  V30 745 H 76.8921 6.26755 5.10102 0
M  V30 746 H 80.4781 4.0985 4.12934 0
M  V30 747 H 79.3581 6.18479 4.82134 0
M  V30 748 N 76.8612 -1.46375 0.584142 0
M  V30 749 C 78.0892 -2.06761 0.0759296 0
M  V30 750 C 78.5042 -1.43266 -1.22965 0
M  V30 751 O 77.8612 -0.538458 -1.74376 0
M  V30 752 C 77.9122 -3.61375 -0.0950384 0
M  V30 753 O 77.6332 -4.22495 1.15887 0
M  V30 754 C 79.1342 -4.38693 -0.637434 0
M  V30 755 H 76.3542 -0.668479 0.0581075 0
M  V30 756 H 78.8982 -1.8798 0.805218 0
M  V30 757 H 77.0532 -3.79578 -0.774554 0
M  V30 758 H 77.4672 -5.15385 0.973598 0
M  V30 759 H 78.9412 -5.47464 -0.706237 0
M  V30 760 H 79.4182 -4.06836 -1.65472 0
M  V30 761 H 80.0242 -4.25299 0.00725967 0
M  V30 762 N 78.3393 -0.321999 -1.54275 0
M  V30 763 C 79.2873 0.560206 -2.25753 0
M  V30 764 C 80.2813 1.11984 -1.27106 0
M  V30 765 O 81.4873 1.06806 -1.44888 0
M  V30 766 H 77.8623 0.199304 -0.725108 0
M  V30 767 H 79.8333 -0.0649365 -2.98329 0
M  V30 768 C 78.5823 1.71023 -3.02731 0
M  V30 769 H 77.9053 1.28885 -3.78456 0
M  V30 770 H 79.3453 2.30314 -3.55993 0
M  V30 771 C 77.8043 2.62692 -2.10938 0
M  V30 772 O 78.3343 3.64364 -1.6912 0
M  V30 773 N 76.5403 2.30891 -1.76459 0
M  V30 774 H 76.0873 1.48253 -2.10663 0
M  V30 775 H 76.0453 2.92487 -1.1532 0
M  V30 776 N 79.8174 1.5752 -0.0501392 0
M  V30 777 C 81.0644 1.9265 0.623874 0
M  V30 778 C 81.3924 0.928411 1.70912 0
M  V30 779 O 80.6474 -0.0594525 1.9561 0
M  V30 780 C 80.9464 3.34467 1.25963 0
M  V30 781 C 80.6124 4.49883 0.302689 0
M  V30 782 C 79.2744 4.81184 0.0393636 0
M  V30 783 C 81.6264 5.20002 -0.353205 0
M  V30 784 C 78.9544 5.79951 -0.887308 0
M  V30 785 C 81.3064 6.1976 -1.26806 0
M  V30 786 C 79.9704 6.49491 -1.54007 0
M  V30 787 H 79.2404 0.704957 0.228292 0
M  V30 788 H 81.8874 1.91146 -0.116398 0
M  V30 789 H 80.1924 3.32333 2.07514 0
M  V30 790 H 81.8894 3.58928 1.78806 0
M  V30 791 H 78.4794 4.25457 0.518109 0
M  V30 792 H 82.6634 4.96033 -0.162854 0
M  V30 793 H 77.9194 6.01322 -1.10553 0
M  V30 794 H 82.0934 6.73205 -1.78236 0
M  V30 795 H 79.7204 7.25837 -2.25976 0
M  V30 796 N 81.2955 -0.223234 1.56011 0
M  V30 797 C 82.5205 -0.968978 1.83373 0
M  V30 798 C 82.9455 -1.77227 0.630254 0
M  V30 799 O 82.3035 -1.76345 -0.420959 0
M  V30 800 C 82.3515 -1.86363 3.08709 0
M  V30 801 O 81.4555 -2.95873 2.87285 0
M  V30 802 H 80.7965 -0.274461 0.604622 0
M  V30 803 H 83.3265 -0.237056 2.03222 0
M  V30 804 H 83.3365 -2.27376 3.38768 0
M  V30 805 H 82.0115 -1.27319 3.95933 0
M  V30 806 H 80.5885 -2.58818 2.68454 0
M  V30 807 N 82.7736 -1.49793 -0.48987 0
M  V30 808 C 84.1896 -1.36803 -0.822022 0
M  V30 809 C 84.3896 -0.409652 -1.97292 0
M  V30 810 O 83.4456 0.154614 -2.52026 0
M  V30 811 C 84.7586 -2.77768 -1.15175 0
M  V30 812 C 86.3066 -2.86549 -1.25931 0
M  V30 813 C 86.7816 -4.28306 -1.62228 0
M  V30 814 N 88.2726 -4.31169 -1.69256 0
M  V30 815 C 89.0076 -5.37832 -1.98807 0
M  V30 816 N 88.5036 -6.54726 -2.26507 0
M  V30 817 N 90.2966 -5.25258 -2.00152 0
M  V30 818 H 82.4476 -2.10691 0.268881 0
M  V30 819 H 84.7106 -0.946241 0.057728 0
M  V30 820 H 84.4166 -3.49648 -0.379335 0
M  V30 821 H 84.2906 -3.13836 -2.09253 0
M  V30 822 H 86.6776 -2.14899 -2.02243 0
M  V30 823 H 86.7586 -2.54049 -0.298776 0
M  V30 824 H 86.4026 -5.00486 -0.864622 0
M  V30 825 H 86.3326 -4.58279 -2.594 0
M  V30 826 H 88.8236 -3.4687 -1.49965 0
M  V30 827 H 89.1366 -7.31833 -2.48276 0
M  V30 828 H 87.4816 -6.57933 -2.23939 0
M  V30 829 H 90.6726 -4.32938 -1.77996 0
M  V30 830 H 90.8456 -6.08476 -2.22848 0
M  V30 831 N 84.2517 0.741722 -1.39055 0
M  V30 832 C 85.1997 1.87702 -1.3737 0
M  V30 833 C 86.1937 1.67427 -0.257812 0
M  V30 834 O 87.3997 1.7485 -0.427489 0
M  V30 835 H 83.7747 0.617757 -0.428812 0
M  V30 836 H 85.7457 1.86239 -2.33147 0
M  V30 837 C 84.4947 3.25315 -1.22741 0
M  V30 838 H 83.8177 3.41509 -2.07873 0
M  V30 839 H 85.2577 4.04964 -1.25618 0
M  V30 840 C 83.7167 3.36838 0.0647316 0
M  V30 841 O 84.2467 3.88073 1.03741 0
M  V30 842 N 82.4527 2.90329 0.125544 0
M  V30 843 H 81.9997 2.48823 -0.666682 0
M  V30 844 H 81.9577 2.98418 0.989639 0
M  V30 845 N 85.7298 1.2412 0.971189 0
M  V30 846 C 86.9788 1.07284 1.70801 0
M  V30 847 C 87.2918 -0.388902 1.91695 0
M  V30 848 O 88.4978 -0.677379 2.62914 0
M  V30 849 C 86.9538 1.87145 3.07416 0
M  V30 850 C 86.5618 3.37707 2.94377 0
M  V30 851 C 88.3058 1.78828 3.84995 0
M  V30 852 C 86.2128 4.09925 4.26281 0
M  V30 853 H 85.1428 0.397854 0.64049 0
M  V30 854 H 87.7938 1.4817 1.0825 0
M  V30 855 H 86.1758 1.39071 3.70777 0
M  V30 856 H 87.3498 3.93335 2.4005 0
M  V30 857 H 85.6648 3.46938 2.30267 0
M  V30 858 H 88.2618 2.30089 4.82662 0
M  V30 859 H 88.6048 0.75284 4.09436 0
M  V30 860 H 89.1378 2.24563 3.28354 0
M  V30 861 H 85.8768 5.13813 4.07033 0
M  V30 862 H 85.3968 3.59083 4.80437 0
M  V30 863 H 87.0758 4.1673 4.94919 0
M  V30 864 N 87.2079 -1.17134 1.05439 0
M  V30 865 C 88.1709 -2.19439 0.661764 0
M  V30 866 C 89.1709 -1.58199 -0.288042 0
M  V30 867 O 90.3609 -1.74053 -0.0715803 0
M  V30 868 C 87.4929 -3.40889 -0.0276209 0
M  V30 869 H 88.6859 -2.55688 1.56728 0
M  V30 870 H 86.2389 -1.31259 0.848567 0
M  V30 871 H 86.9739 -3.10187 -0.94629 0
M  V30 872 H 86.7589 -3.86586 0.655238 0
M  V30 873 H 88.2489 -4.16603 -0.288342 0
M  V30 874 N 88.686 -0.835752 -1.33615 0
M  V30 875 C 89.932 -0.430596 -1.98176 0
M  V30 876 C 90.265 1.00684 -1.66061 0
M  V30 877 O 89.54 1.70339 -0.938877 0
M  V30 878 C 89.823 -0.648065 -3.5422 0
M  V30 879 C 89.676 -2.13255 -3.96033 0
M  V30 880 C 90.995 -0.0922113 -4.40003 0
M  V30 881 H 88.114 -0.157924 -0.719881 0
M  V30 882 H 90.756 -1.05069 -1.58305 0
M  V30 883 H 88.906 -0.120237 -3.88314 0
M  V30 884 H 90.578 -2.725 -3.72211 0
M  V30 885 H 88.821 -2.61823 -3.45878 0
M  V30 886 H 89.492 -2.23547 -5.04708 0
M  V30 887 H 91.968 -0.543343 -4.12537 0
M  V30 888 H 90.844 -0.274083 -5.48215 0
M  V30 889 H 91.105 1.00378 -4.30554 0
M  V30 890 N 90.1641 1.46063 -0.591896 0
M  V30 891 C 91.0941 2.33172 0.123673 0
M  V30 892 C 92.0751 1.45897 0.87453 0
M  V30 893 O 93.2601 1.74698 0.848181 0
M  V30 894 C 90.3901 3.28336 1.13194 0
M  V30 895 C 89.3441 4.25124 0.495324 0
M  V30 896 C 88.6701 5.09863 1.61071 0
M  V30 897 C 89.9701 5.19143 -0.573425 0
M  V30 898 H 91.6641 2.93252 -0.603646 0
M  V30 899 H 89.2101 1.41014 -0.291741 0
M  V30 900 H 91.1631 3.88137 1.64097 0
M  V30 901 H 89.8871 2.66383 1.88965 0
M  V30 902 H 88.5461 3.66599 0.00729452 0
M  V30 903 H 88.1941 4.44288 2.35832 0
M  V30 904 H 87.8941 5.75417 1.19035 0
M  V30 905 H 89.4181 5.72529 2.12233 0
M  V30 906 H 90.8321 5.73106 -0.1491 0
M  V30 907 H 89.2291 5.93089 -0.914636 0
M  V30 908 H 90.2991 4.62519 -1.45617 0
M  V30 909 N 91.6422 0.330177 1.54103 0
M  V30 910 C 92.6052 -0.520144 2.2322 0
M  V30 911 C 93.6052 -1.03828 1.22786 0
M  V30 912 O 94.7952 -0.929652 1.4732 0
M  V30 913 C 91.9272 -1.72317 2.94142 0
M  V30 914 H 93.1202 0.0841605 2.99782 0
M  V30 915 H 90.6732 0.0813433 1.56088 0
M  V30 916 H 91.4082 -2.36653 2.21734 0
M  V30 917 H 91.1932 -1.35898 3.67796 0
M  V30 918 H 92.6832 -2.3266 3.46784 0
M  V30 919 N 93.1203 -1.57491 0.0584922 0
M  V30 920 C 94.5363 -1.56792 -0.298091 0
M  V30 921 C 94.7363 -1.06679 -1.70944 0
M  V30 922 O 93.7923 -0.726672 -2.41818 0
M  V30 923 C 95.1053 -3.00461 -0.119879 0
M  V30 924 C 96.6533 -3.1242 -0.190428 0
M  V30 925 C 97.1283 -4.57982 -0.0406567 0
M  V30 926 N 98.6193 -4.63099 -0.0966958 0
M  V30 927 C 99.3543 -5.734 -0.00502943 0
M  V30 928 N 98.8503 -6.9266 0.139402 0
M  V30 929 N 100.643 -5.62067 -0.0611391 0
M  V30 930 H 92.7943 -1.88386 0.98105 0
M  V30 931 H 95.0573 -0.867865 0.381463 0
M  V30 932 H 94.7633 -3.41187 0.85349 0
M  V30 933 H 94.6373 -3.66843 -0.877833 0
M  V30 934 H 97.0243 -2.71589 -1.15427 0
M  V30 935 H 97.1053 -2.48702 0.598405 0
M  V30 936 H 96.7493 -4.995 0.919897 0
M  V30 937 H 96.6793 -5.19715 -0.848727 0
M  V30 938 H 99.1703 -3.77331 -0.207277 0
M  V30 939 H 99.4833 -7.72536 0.201855 0
M  V30 940 H 97.8283 -6.94781 0.174586 0
M  V30 941 H 101.019 -4.67782 -0.172583 0
M  V30 942 H 101.192 -6.47999 0.0137562 0
M  V30 943 N 94.5984 0.214957 -1.56127 0
M  V30 944 C 95.5484 1.27006 -1.8935 0
M  V30 945 C 96.5324 1.41969 -0.757202 0
M  V30 946 O 97.7244 1.44673 -1.01973 0
M  V30 947 C 94.8534 2.61911 -2.2194 0
M  V30 948 C 93.9394 2.50822 -3.41978 0
M  V30 949 N 94.3304 2.09391 -4.60423 0
M  V30 950 C 92.6284 2.81765 -3.45723 0
M  V30 951 C 93.3294 2.09712 -5.42582 0
M  V30 952 N 92.3054 2.50454 -4.82466 0
M  V30 953 H 96.1074 0.940734 -2.78437 0
M  V30 954 H 93.6214 0.423492 -1.56781 0
M  V30 955 H 95.6184 3.38096 -2.43919 0
M  V30 956 H 94.2784 2.95684 -1.34169 0
M  V30 957 H 95.2894 1.80416 -4.85459 0
M  V30 958 H 91.9664 3.19865 -2.68314 0
M  V30 959 H 93.3564 1.79748 -6.4741 0
M  V30 960 N 96.0765 1.50051 0.48192 0
M  V30 961 C 97.3235 1.60498 1.23477 0
M  V30 962 C 97.6515 0.300331 1.92167 0
M  V30 963 O 96.9065 -0.713094 1.82246 0
M  V30 964 C 97.2055 2.72717 2.30998 0
M  V30 965 C 96.8715 4.13572 1.79636 0
M  V30 966 C 95.5335 4.519 1.65348 0
M  V30 967 C 97.8855 5.01649 1.41412 0
M  V30 968 C 95.2135 5.76057 1.11244 0
M  V30 969 C 97.5655 6.26343 0.887538 0
M  V30 970 C 96.2295 6.63483 0.731207 0
M  V30 971 H 95.4995 0.587303 0.451836 0
M  V30 972 H 98.1465 1.83948 0.532468 0
M  V30 973 H 96.4515 2.43312 3.07094 0
M  V30 974 H 98.1485 2.78006 2.88988 0
M  V30 975 H 94.7385 3.83329 1.91721 0
M  V30 976 H 98.9225 4.72679 1.51289 0
M  V30 977 H 94.1785 6.03516 0.978686 0
M  V30 978 H 98.3525 6.93958 0.582654 0
M  V30 979 H 95.9795 7.59568 0.309806 0
M  V30 980 N 97.5546 -0.734337 1.39446 0
M  V30 981 C 98.5046 -1.83949 1.34709 0
M  V30 982 C 99.4886 -1.59279 0.227851 0
M  V30 983 O 100.681 -1.70771 0.465438 0
M  V30 984 C 97.8096 -3.21884 1.19356 0
M  V30 985 C 96.8956 -3.52381 2.35984 0
M  V30 986 N 97.2866 -3.53811 3.61457 0
M  V30 987 C 95.5846 -3.82747 2.28956 0
M  V30 988 C 96.2856 -3.82122 4.38586 0
M  V30 989 N 95.2616 -3.9993 3.68181 0
M  V30 990 H 99.0636 -1.83361 2.29687 0
M  V30 991 H 96.5776 -0.932609 1.32952 0
M  V30 992 H 98.5746 -4.00998 1.14046 0
M  V30 993 H 97.2346 -3.23711 0.253295 0
M  V30 994 H 98.2456 -3.35107 3.94872 0
M  V30 995 H 94.9226 -3.92175 1.43194 0
M  V30 996 H 96.3126 -3.89691 5.47349 0
M  V30 997 N 99.0327 -1.24633 -0.964593 0
M  V30 998 C 100.279 -1.08949 -1.71049 0
M  V30 999 C 100.612 0.370302 -1.90637 0
M  V30 1000 O 99.8867 1.27349 -1.47011 0
M  V30 1001 C 100.17 -1.83329 -3.0994 0
M  V30 1002 C 100.023 -3.37077 -2.97824 0
M  V30 1003 C 101.342 -1.60846 -4.09654 0
M  V30 1004 H 98.4607 -0.397178 -0.620821 0
M  V30 1005 H 101.103 -1.5334 -1.12191 0
M  V30 1006 H 99.2527 -1.45597 -3.60186 0
M  V30 1007 H 100.925 -3.84425 -2.5498 0
M  V30 1008 H 99.1677 -3.65298 -2.33965 0
M  V30 1009 H 99.8387 -3.84324 -3.96231 0
M  V30 1010 H 102.315 -1.93674 -3.68279 0
M  V30 1011 H 101.191 -2.1534 -5.04896 0
M  V30 1012 H 101.452 -0.547434 -4.38698 0
M  V30 1013 N 100.511 1.16574 -1.06058 0
M  V30 1014 C 101.441 2.23057 -0.690488 0
M  V30 1015 C 102.422 1.67141 0.315901 0
M  V30 1016 O 103.607 1.93253 0.191556 0
M  V30 1017 C 100.737 3.47222 -0.073625 0
M  V30 1018 C 99.6908 4.16016 -1.00573 0
M  V30 1019 C 99.0168 5.34104 -0.252289 0
M  V30 1020 C 100.317 4.67264 -2.33371 0
M  V30 1021 H 102.011 2.54271 -1.58072 0
M  V30 1022 H 99.5568 1.22218 -0.76149 0
M  V30 1023 H 101.51 4.20939 0.19714 0
M  V30 1024 H 100.234 3.15302 0.85161 0
M  V30 1025 H 98.8928 3.44223 -1.2612 0
M  V30 1026 H 98.5408 4.98437 0.675988 0
M  V30 1027 H 98.2408 5.81072 -0.873455 0
M  V30 1028 H 99.7648 6.10599 0.0109857 0
M  V30 1029 H 101.179 5.32573 -2.12223 0
M  V30 1030 H 99.5758 5.24843 -2.90963 0
M  V30 1031 H 100.646 3.83602 -2.96611 0
M  V30 1032 N 101.989 0.842826 1.3317 0
M  V30 1033 C 102.952 0.284065 2.27433 0
M  V30 1034 C 103.952 -0.54948 1.5112 0
M  V30 1035 O 105.142 -0.362699 1.70382 0
M  V30 1036 C 102.274 -0.599384 3.35589 0
M  V30 1037 H 103.467 1.11589 2.78366 0
M  V30 1038 H 101.02 0.616221 1.4364 0
M  V30 1039 H 101.755 -1.45349 2.89904 0
M  V30 1040 H 101.54 -0.00291266 3.921 0
M  V30 1041 H 103.03 -0.983488 4.05854 0
M  V30 1042 N 103.467 -1.45747 0.599634 0
M  V30 1043 C 104.713 -2.02592 0.0918643 0
M  V30 1044 C 105.046 -1.46806 -1.27128 0
M  V30 1045 O 104.321 -0.639658 -1.83681 0
M  V30 1046 C 104.604 -3.60073 0.0443398 0
M  V30 1047 C 104.457 -4.26208 1.43759 0
M  V30 1048 C 105.776 -4.35309 -0.647608 0
M  V30 1049 H 102.895 -0.736175 0.034857 0
M  V30 1050 H 105.537 -1.73694 0.770081 0
M  V30 1051 H 103.687 -3.84823 -0.533224 0
M  V30 1052 H 105.359 -4.12668 2.06162 0
M  V30 1053 H 103.602 -3.84916 2.00056 0
M  V30 1054 H 104.273 -5.35069 1.35665 0
M  V30 1055 H 106.749 -4.15805 -0.156776 0
M  V30 1056 H 105.625 -5.45038 -0.649942 0
M  V30 1057 H 105.886 -4.07598 -1.71219 0
M  V30 1058 N 104.945 -0.338344 -1.53925 0
M  V30 1059 C 106.222 0.314774 -1.93051 0
M  V30 1060 C 106.602 1.68669 -1.26941 0
M  V30 1061 O 105.95 2.24636 -0.418445 0
M  V30 1062 C 106.16 0.392249 -3.46789 0
M  V30 1063 C 107.508 0.645554 -4.19664 0
M  V30 1064 O 108.532 0.474575 -3.53024 0
M  V30 1065 O 107.391 0.976408 -5.37707 0
M  V30 1066 H 104.485 0.182598 -0.80659 0
M  V30 1067 H 107.031 -0.389141 -1.65178 0
M  V30 1068 H 105.803 -0.570702 -3.87116 0
M  V30 1069 H 105.426 1.14316 -3.80812 0
M  V30 1070 N 106.423 1.57458 -0.0668435 0
M  V30 1071 C 107.355 2.09413 0.931601 0
M  V30 1072 C 108.368 1.02522 1.26464 0
M  V30 1073 O 109.557 1.30049 1.22269 0
M  V30 1074 C 106.657 2.53537 2.24882 0
M  V30 1075 C 105.83 3.83944 2.09537 0
M  V30 1076 C 104.889 4.14214 3.2452 0
M  V30 1077 O 103.915 4.83891 2.9973 0
M  V30 1078 N 105.117 3.67367 4.49469 0
M  V30 1079 H 107.882 2.95699 0.488048 0
M  V30 1080 H 105.443 1.61462 0.119009 0
M  V30 1081 H 107.435 2.70853 3.00701 0
M  V30 1082 H 106.005 1.72415 2.60753 0
M  V30 1083 H 105.225 3.76057 1.18215 0
M  V30 1084 H 106.513 4.69312 1.96529 0
M  V30 1085 H 105.911 3.11068 4.72497 0
M  V30 1086 H 104.468 3.89891 5.2233 0
M  V30 1087 N 107.901 -0.206675 1.56239 0
M  V30 1088 C 109.312 -0.772383 1.69974 0
M  V30 1089 C 109.663 -1.84353 0.671436 0
M  V30 1090 O 108.788 -2.15695 -0.174491 0
M  V30 1091 C 109.383 -1.40779 3.08167 0
M  V30 1092 C 107.942 -1.92072 3.23706 0
M  V30 1093 C 107.089 -0.786347 2.65917 0
M  V30 1094 H 110.04 0.0182223 1.5869 0
M  V30 1095 H 110.061 -2.27696 3.04852 0
M  V30 1096 H 109.573 -0.627958 3.82986 0
M  V30 1097 H 107.674 -2.7281 2.53782 0
M  V30 1098 H 107.787 -2.09046 4.31087 0
M  V30 1099 H 106.151 -1.1976 2.24788 0
M  V30 1100 H 106.934 -0.0189416 3.43295 0
M  V30 1101 N 109.379 -1.50304 -0.473955 0
M  V30 1102 C 110.627 -1.60832 -1.22382 0
M  V30 1103 C 110.948 -0.30939 -1.9253 0
M  V30 1104 O 110.218 0.67296 -1.83978 0
M  V30 1105 H 108.798 -0.592652 -0.454723 0
M  V30 1106 H 111.46 -1.87068 -0.546968 0
M  V30 1107 H 110.556 -2.41803 -1.97327 0
M  V30 1108 N 110.857 0.726932 -1.39834 0
M  V30 1109 C 112.087 1.51393 -1.40583 0
M  V30 1110 C 112.495 1.892 -0.000740625 0
M  V30 1111 O 111.838 1.55189 0.982951 0
M  V30 1112 C 111.9 2.82588 -2.22226 0
M  V30 1113 C 111.564 2.67169 -3.70769 0
M  V30 1114 C 112.561 2.3518 -4.63666 0
M  V30 1115 C 110.246 2.83788 -4.14451 0
M  V30 1116 C 112.24 2.20002 -5.98229 0
M  V30 1117 C 109.927 2.68229 -5.49087 0
M  V30 1118 C 110.925 2.36382 -6.4079 0
M  V30 1119 O 110.613 2.2093 -7.72946 0
M  V30 1120 H 110.345 0.474168 -0.48181 0
M  V30 1121 H 112.899 0.905247 -1.84376 0
M  V30 1122 H 111.129 3.45746 -1.73195 0
M  V30 1123 H 112.818 3.44247 -2.15055 0
M  V30 1124 H 113.584 2.21984 -4.31217 0
M  V30 1125 H 109.463 3.07566 -3.43401 0
M  V30 1126 H 113.007 1.95067 -6.69772 0
M  V30 1127 H 108.904 2.81006 -5.81125 0
M  V30 1128 H 109.672 2.35937 -7.83757 0
M  V30 1129 N 112.336 1.25143 0.95797 0
M  V30 1130 C 113.584 1.09476 1.69881 0
M  V30 1131 C 113.905 -0.365502 1.91544 0
M  V30 1132 O 113.175 -1.25985 1.50015 0
M  V30 1133 H 111.755 0.402128 0.629525 0
M  V30 1134 H 114.417 1.57214 1.15194 0
M  V30 1135 H 113.513 1.60046 2.6794 0
M  V30 1136 N 113.814 -1.1601 1.06675 0
M  V30 1137 C 114.764 -2.18512 0.650888 0
M  V30 1138 C 115.748 -1.57677 -0.320441 0
M  V30 1139 O 116.94 -1.76482 -0.135266 0
M  V30 1140 C 114.069 -3.43273 0.0429255 0
M  V30 1141 C 113.155 -4.11176 1.03898 0
M  V30 1142 N 113.546 -4.54672 2.216 0
M  V30 1143 C 111.844 -4.37417 0.870779 0
M  V30 1144 C 112.545 -5.07248 2.84736 0
M  V30 1145 N 111.521 -5.0037 2.12441 0
M  V30 1146 H 115.323 -2.49863 1.54745 0
M  V30 1147 H 112.837 -1.32503 0.938975 0
M  V30 1148 H 114.834 -4.16006 -0.272857 0
M  V30 1149 H 113.494 -3.13408 -0.84884 0
M  V30 1150 H 114.505 -4.4828 2.59356 0
M  V30 1151 H 111.182 -4.17488 0.0313293 0
M  V30 1152 H 112.572 -5.50912 3.84636 0
M  V30 1153 N 115.292 -0.849877 -1.32721 0
M  V30 1154 C 116.517 -0.463856 -2.02146 0
M  V30 1155 C 116.942 0.930449 -1.63476 0
M  V30 1156 O 116.3 1.61033 -0.832952 0
M  V30 1157 C 116.348 -0.604955 -3.55489 0
M  V30 1158 O 115.452 0.36425 -4.10788 0
M  V30 1159 H 114.793 -0.187046 -0.637111 0
M  V30 1160 H 117.323 -1.14775 -1.69375 0
M  V30 1161 H 117.333 -0.490696 -4.05038 0
M  V30 1162 H 116.008 -1.62174 -3.82978 0
M  V30 1163 H 114.585 0.206628 -3.72327 0
M  V30 1164 N 116.77 1.45427 -0.607355 0
M  V30 1165 C 118.047 1.9557 -0.0344566 0
M  V30 1166 C 118.427 1.54979 1.43334 0
M  V30 1167 O 117.775 0.812241 2.13576 0
M  V30 1168 C 117.985 3.48226 -0.232321 0
M  V30 1169 C 119.333 4.2445 -0.113001 0
M  V30 1170 O 120.357 3.55829 -0.162431 0
M  V30 1171 O 119.216 5.465 0.00209442 0
M  V30 1172 H 116.31 0.826222 0.0358667 0
M  V30 1173 H 118.856 1.55594 -0.6774 0
M  V30 1174 H 117.628 3.70739 -1.25174 0
M  V30 1175 H 117.251 3.95092 0.445896 0
M  V30 1176 N 118.248 0.346503 1.53744 0
M  V30 1177 C 119.195 -0.508914 2.25119 0
M  V30 1178 C 120.165 -1.09315 1.25058 0
M  V30 1179 O 121.35 -1.12921 1.53797 0
M  V30 1180 C 118.49 -1.65246 3.02965 0
M  V30 1181 C 117.603 -1.09525 4.17886 0
M  V30 1182 C 116.738 -2.20634 4.83212 0
M  V30 1183 C 115.777 -1.62279 5.90196 0
M  V30 1184 N 114.914 -2.67143 6.49291 0
M  V30 1185 H 119.754 0.106283 2.9781 0
M  V30 1186 H 117.291 0.0642227 1.4696 0
M  V30 1187 H 119.249 -2.32574 3.4636 0
M  V30 1188 H 117.879 -2.2386 2.32565 0
M  V30 1189 H 116.931 -0.312818 3.79112 0
M  V30 1190 H 118.243 -0.628444 4.94825 0
M  V30 1191 H 117.397 -2.95821 5.29693 0
M  V30 1192 H 116.136 -2.70659 4.05703 0
M  V30 1193 H 115.141 -0.855989 5.43096 0
M  V30 1194 H 116.366 -1.13102 6.69615 0
M  V30 1195 H 114.312 -3.16417 5.74645 0
M  V30 1196 H 114.229 -2.25093 7.21713 0
M  V30 1197 H 115.497 -3.4209 7.00425 0
M  V30 1198 N 119.726 -1.57421 0.075193 0
M  V30 1199 C 121.142 -1.57099 -0.281444 0
M  V30 1200 C 121.342 -1.08486 -1.69803 0
M  V30 1201 O 120.398 -0.752279 -2.41033 0
M  V30 1202 C 121.711 -3.00571 -0.0880041 0
M  V30 1203 C 123.259 -3.12605 -0.157281 0
M  V30 1204 C 123.734 -4.57999 0.0079207 0
M  V30 1205 N 125.225 -4.63176 -0.0475725 0
M  V30 1206 C 125.96 -5.73373 0.0557876 0
M  V30 1207 N 125.456 -6.92473 0.21286 0
M  V30 1208 N 127.249 -5.621 -0.00152098 0
M  V30 1209 H 119.4 -1.87335 1.00098 0
M  V30 1210 H 121.663 -0.86377 0.390646 0
M  V30 1211 H 121.369 -3.40262 0.889629 0
M  V30 1212 H 121.243 -3.67754 -0.838875 0
M  V30 1213 H 123.63 -2.72798 -1.1254 0
M  V30 1214 H 123.711 -2.48053 0.62475 0
M  V30 1215 H 123.355 -4.98496 0.972824 0
M  V30 1216 H 123.285 -5.20586 -0.793556 0
M  V30 1217 H 125.776 -3.7753 -0.167244 0
M  V30 1218 H 126.089 -7.72279 0.283781 0
M  V30 1219 H 124.434 -6.94556 0.248267 0
M  V30 1220 H 127.625 -4.67938 -0.122958 0
M  V30 1221 H 127.798 -6.47948 0.0824844 0
M  V30 1222 N 121.204 0.198386 -1.56346 0
M  V30 1223 C 122.167 1.22952 -1.93431 0
M  V30 1224 C 123.167 1.38611 -0.815092 0
M  V30 1225 O 124.357 1.36479 -1.08255 0
M  V30 1226 C 121.489 2.59946 -2.20546 0
M  V30 1227 H 122.682 0.912626 -2.85677 0
M  V30 1228 H 120.235 0.43977 -1.49986 0
M  V30 1229 H 120.97 2.96696 -1.30927 0
M  V30 1230 H 120.755 2.49953 -3.02102 0
M  V30 1231 H 122.245 3.3431 -2.50253 0
M  V30 1232 N 122.682 1.50554 0.465978 0
M  V30 1233 C 123.592 1.72585 1.58907 0
M  V30 1234 C 124.608 0.60911 1.6299 0
M  V30 1235 O 125.784 0.88804 1.80765 0
M  V30 1236 C 122.849 1.81995 2.95091 0
M  V30 1237 C 121.91 3.05751 3.01355 0
M  V30 1238 C 121.143 3.14702 4.31043 0
M  V30 1239 O 121.366 2.30313 5.21835 0
M  V30 1240 O 120.3 4.07468 4.43005 0
M  V30 1241 H 124.126 2.67799 1.43239 0
M  V30 1242 H 121.711 1.34711 0.646013 0
M  V30 1243 H 123.593 1.90335 3.75966 0
M  V30 1244 H 122.268 0.899659 3.10947 0
M  V30 1245 H 121.175 3.02908 2.19539 0
M  V30 1246 H 122.508 3.97375 2.90437 0
M  V30 1247 N 124.16 -0.719506 1.40217 0
M  V30 1248 C 125.11 -1.8251 1.36653 0
M  V30 1249 C 126.094 -1.59028 0.244732 0
M  V30 1250 O 127.286 -1.70268 0.483524 0
M  V30 1251 C 124.415 -3.20599 1.22763 0
M  V30 1252 C 123.501 -3.49858 2.39708 0
M  V30 1253 N 123.892 -3.49957 3.6519 0
M  V30 1254 C 122.19 -3.80297 2.33002 0
M  V30 1255 C 122.891 -3.77449 4.42614 0
M  V30 1256 N 121.867 -3.96002 3.72402 0
M  V30 1257 H 125.669 -1.80914 2.31619 0
M  V30 1258 H 123.183 -0.918455 1.33933 0
M  V30 1259 H 125.18 -3.99766 1.18292 0
M  V30 1260 H 123.84 -3.23424 0.287614 0
M  V30 1261 H 124.851 -3.309 3.98404 0
M  V30 1262 H 121.528 -3.90635 1.47346 0
M  V30 1263 H 122.918 -3.83863 5.51451 0
M  V30 1264 N 125.638 -1.25649 -0.95132 0
M  V30 1265 C 126.886 -1.10375 -1.69298 0
M  V30 1266 C 127.207 0.355339 -1.91735 0
M  V30 1267 O 126.477 1.25188 -1.50681 0
M  V30 1268 H 125.057 -0.405461 -0.627384 0
M  V30 1269 H 127.719 -1.57823 -1.14358 0
M  V30 1270 H 126.815 -1.61465 -2.67087 0
M  V30 1271 N 127.117 1.15442 -1.07289 0
M  V30 1272 C 128.049 2.19773 -0.650585 0
M  V30 1273 C 129.062 1.60076 0.296572 0
M  V30 1274 O 130.251 1.78293 0.0859905 0
M  V30 1275 C 127.351 3.38838 0.0650398 0
M  V30 1276 C 126.524 4.2808 -0.898141 0
M  V30 1277 C 125.583 5.2574 -0.219926 0
M  V30 1278 O 124.609 5.62654 -0.860773 0
M  V30 1279 N 125.811 5.71205 1.03466 0
M  V30 1280 H 128.576 2.56622 -1.54808 0
M  V30 1281 H 126.137 1.30551 -0.957494 0
M  V30 1282 H 128.129 4.01222 0.529415 0
M  V30 1283 H 126.699 3.00409 0.864466 0
M  V30 1284 H 125.919 3.62804 -1.54165 0
M  V30 1285 H 127.207 4.84577 -1.5512 0
M  V30 1286 H 126.605 5.43325 1.57526 0
M  V30 1287 H 125.162 6.35633 1.44272 0
M  V30 1288 N 128.595 0.856903 1.32268 0
M  V30 1289 C 129.842 0.461386 1.97174 0
M  V30 1290 C 130.17 -0.983491 1.67803 0
M  V30 1291 O 129.425 -1.70541 0.959903 0
M  V30 1292 C 129.724 0.649919 3.51441 0
M  V30 1293 C 129.39 2.0656 4.00804 0
M  V30 1294 C 128.052 2.45279 4.13995 0
M  V30 1295 C 130.404 2.98947 4.26943 0
M  V30 1296 C 127.732 3.75653 4.50668 0
M  V30 1297 C 130.084 4.28822 4.65075 0
M  V30 1298 C 128.748 4.67472 4.76472 0
M  V30 1299 H 128.018 0.168833 0.72151 0
M  V30 1300 H 130.665 1.08739 1.57633 0
M  V30 1301 H 128.97 -0.0593018 3.91755 0
M  V30 1302 H 130.667 0.32391 3.9969 0
M  V30 1303 H 127.257 1.75495 3.91024 0
M  V30 1304 H 131.441 2.70265 4.16258 0
M  V30 1305 H 126.697 4.05379 4.57688 0
M  V30 1306 H 130.871 5.0047 4.84255 0
M  V30 1307 H 128.498 5.68539 5.04646 0
M  V30 1308 N 130.073 -1.45103 0.615059 0
M  V30 1309 C 131.021 -2.32331 -0.111791 0
M  V30 1310 C 132.015 -1.46409 -0.852102 0
M  V30 1311 O 133.221 -1.62849 -0.766821 0
M  V30 1312 H 129.596 -0.749993 -0.0549072 0
M  V30 1313 H 131.567 -2.91407 0.642225 0
M  V30 1314 C 130.316 -3.3015 -1.09071 0
M  V30 1315 H 129.639 -3.96265 -0.530485 0
M  V30 1316 H 131.079 -3.93898 -1.56908 0
M  V30 1317 C 129.538 -2.57875 -2.168 0
M  V30 1318 O 130.068 -2.36567 -3.24652 0
M  V30 1319 N 128.274 -2.17884 -1.92289 0
M  V30 1320 H 127.821 -2.35413 -1.04587 0
M  V30 1321 H 127.779 -1.6985 -2.64572 0
M  V30 1322 N 131.551 -0.354651 -1.53558 0
M  V30 1323 C 132.967 -0.00315426 -1.596 0
M  V30 1324 C 133.167 1.47741 -1.37021 0
M  V30 1325 O 132.223 2.23759 -1.16996 0
M  V30 1326 C 133.536 -0.44929 -2.97325 0
M  V30 1327 C 135.084 -0.402578 -3.104 0
M  V30 1328 C 135.559 -0.824355 -4.5052 0
M  V30 1329 N 137.05 -0.778979 -4.56603 0
M  V30 1330 C 137.785 -1.07715 -5.63192 0
M  V30 1331 N 137.281 -1.44405 -6.77583 0
M  V30 1332 N 139.074 -1.00066 -5.53121 0
M  V30 1333 H 131.225 -1.31893 -1.66487 0
M  V30 1334 H 133.488 -0.538388 -0.780284 0
M  V30 1335 H 133.194 -1.48202 -3.1895 0
M  V30 1336 H 133.068 0.169772 -3.76818 0
M  V30 1337 H 135.455 0.621004 -2.88492 0
M  V30 1338 H 135.536 -1.05699 -2.32941 0
M  V30 1339 H 135.18 -1.846 -4.73165 0
M  V30 1340 H 135.11 -0.147304 -5.26394 0
M  V30 1341 H 137.601 -0.508528 -3.74463 0
M  V30 1342 H 137.914 -1.65612 -7.54846 0
M  V30 1343 H 136.259 -1.4826 -6.79002 0
M  V30 1344 H 139.45 -0.713293 -4.62633 0
M  V30 1345 H 139.623 -1.23638 -6.36096 0
M  V30 1346 N 133.029 1.57378 -0.0835403 0
M  V30 1347 C 134.259 1.97975 0.590713 0
M  V30 1348 C 134.667 0.961083 1.62972 0
M  V30 1349 O 134.01 -0.0590879 1.83605 0
M  V30 1350 C 134.072 3.34915 1.3066 0
M  V30 1351 C 133.736 4.55069 0.419698 0
M  V30 1352 C 134.733 5.18868 -0.32749 0
M  V30 1353 C 132.418 5.0114 0.341137 0
M  V30 1354 C 134.412 6.27098 -1.14134 0
M  V30 1355 C 132.099 6.0924 -0.476374 0
M  V30 1356 C 133.097 6.72083 -1.21627 0
M  V30 1357 O 132.785 7.781 -2.02028 0
M  V30 1358 H 132.517 0.655818 0.163947 0
M  V30 1359 H 135.071 2.04807 -0.156021 0
M  V30 1360 H 133.301 3.24733 2.09966 0
M  V30 1361 H 134.99 3.60037 1.87424 0
M  V30 1362 H 135.756 4.84211 -0.276459 0
M  V30 1363 H 131.635 4.51996 0.90668 0
M  V30 1364 H 135.179 6.7608 -1.71935 0
M  V30 1365 H 131.076 6.43329 -0.528927 0
M  V30 1366 H 131.844 7.95034 -1.94586 0
M  V30 1367 N 134.507 -0.190092 1.56449 0
M  V30 1368 C 135.47 -1.21925 1.9408 0
M  V30 1369 C 136.47 -1.38176 0.822431 0
M  V30 1370 O 137.66 -1.35903 1.08977 0
M  V30 1371 C 134.792 -2.58773 2.21922 0
M  V30 1372 H 135.985 -0.897464 2.86157 0
M  V30 1373 H 133.538 -0.43181 1.50217 0
M  V30 1374 H 134.273 -2.95998 1.32499 0
M  V30 1375 H 134.058 -2.48348 3.03424 0
M  V30 1376 H 135.548 -3.32978 2.52022 0
M  V30 1377 N 135.985 -1.50799 -0.457987 0
M  V30 1378 C 136.948 -1.7005 -1.53674 0
M  V30 1379 C 137.948 -0.570881 -1.50325 0
M  V30 1380 O 139.138 -0.838126 -1.52712 0
M  V30 1381 C 136.27 -1.73788 -2.93276 0
M  V30 1382 H 137.463 -2.66306 -1.37917 0
M  V30 1383 H 135.016 -1.40477 -0.685271 0
M  V30 1384 H 135.751 -0.792717 -3.14462 0
M  V30 1385 H 135.536 -2.55864 -2.97113 0
M  V30 1386 H 137.026 -1.90591 -3.71571 0
M  V30 1387 N 137.463 0.71206 -1.40597 0
M  V30 1388 C 138.396 1.83582 -1.35546 0
M  V30 1389 C 139.374 1.61032 -0.225284 0
M  V30 1390 O 140.558 1.83998 -0.409519 0
M  V30 1391 C 137.685 3.19983 -1.11034 0
M  V30 1392 C 136.731 3.61355 -2.2655 0
M  V30 1393 S 137.564 3.68062 -3.88961 0
M  V30 1394 C 138.72 5.07216 -3.66719 0
M  V30 1395 H 138.953 1.87586 -2.30648 0
M  V30 1396 H 136.486 0.879182 -1.26924 0
M  V30 1397 H 138.444 3.98734 -0.975761 0
M  V30 1398 H 137.105 3.13608 -0.175798 0
M  V30 1399 H 136.298 4.60403 -2.0505 0
M  V30 1400 H 135.9 2.8987 -2.36329 0
M  V30 1401 H 138.192 5.94238 -3.25404 0
M  V30 1402 H 139.135 5.33753 -4.6531 0
M  V30 1403 H 139.543 4.77976 -3.00332 0
M  V30 1404 N 138.941 1.26152 0.944643 0
M  V30 1405 C 139.904 1.07474 2.0244 0
M  V30 1406 C 140.904 0.0242064 1.60782 0
M  V30 1407 O 142.094 0.267302 1.72137 0
M  V30 1408 C 139.226 0.633956 3.34953 0
M  V30 1409 H 140.419 2.03336 2.20442 0
M  V30 1410 H 137.972 1.087 1.12312 0
M  V30 1411 H 138.707 -0.326811 3.22649 0
M  V30 1412 H 138.492 1.39247 3.66542 0
M  V30 1413 H 139.982 0.52501 4.14287 0
M  V30 1414 N 140.419 -1.14872 1.07899 0
M  V30 1415 C 141.349 -2.2193 0.725887 0
M  V30 1416 C 142.33 -1.67622 -0.28927 0
M  V30 1417 O 143.515 -1.93533 -0.160787 0
M  V30 1418 C 140.645 -3.47061 0.128856 0
M  V30 1419 C 139.599 -4.14363 1.07178 0
M  V30 1420 C 138.925 -5.33636 0.337229 0
M  V30 1421 C 140.225 -4.63492 2.40775 0
M  V30 1422 H 141.919 -2.51724 1.62097 0
M  V30 1423 H 139.465 -1.20991 0.780838 0
M  V30 1424 H 141.418 -4.21199 -0.130147 0
M  V30 1425 H 140.142 -3.16617 -0.80134 0
M  V30 1426 H 138.801 -3.42173 1.3158 0
M  V30 1427 H 138.449 -4.99449 -0.596606 0
M  V30 1428 H 138.149 -5.79609 0.965788 0
M  V30 1429 H 139.673 -6.10539 0.0861567 0
M  V30 1430 H 141.087 -5.2913 2.20669 0
M  V30 1431 H 139.484 -5.20148 2.99276 0
M  V30 1432 H 140.554 -3.78834 3.02676 0
M  V30 1433 N 141.898 -0.863906 -1.31812 0
M  V30 1434 C 142.845 -0.313303 -2.28664 0
M  V30 1435 C 143.815 0.584868 -1.55462 0
M  V30 1436 O 145 0.517805 -1.83639 0
M  V30 1437 C 142.14 0.48441 -3.41683 0
M  V30 1438 C 141.253 -0.440594 -4.29747 0
M  V30 1439 C 140.388 0.370652 -5.29905 0
M  V30 1440 C 139.427 -0.551164 -6.09613 0
M  V30 1441 N 138.564 0.223462 -7.01744 0
M  V30 1442 H 143.404 -1.14444 -2.75148 0
M  V30 1443 H 140.941 -0.575769 -1.35364 0
M  V30 1444 H 142.899 0.962627 -4.05943 0
M  V30 1445 H 141.529 1.28029 -2.96325 0
M  V30 1446 H 140.581 -1.03724 -3.65986 0
M  V30 1447 H 141.893 -1.14767 -4.85417 0
M  V30 1448 H 141.047 0.911638 -5.99812 0
M  V30 1449 H 139.786 1.11105 -4.74876 0
M  V30 1450 H 138.791 -1.10396 -5.38603 0
M  V30 1451 H 140.016 -1.29032 -6.66729 0
M  V30 1452 H 137.962 0.946787 -6.49132 0
M  V30 1453 H 137.879 -0.424399 -7.54808 0
M  V30 1454 H 139.147 0.745876 -7.75923 0
M  V30 1455 N 143.376 1.44774 -0.622745 0
M  V30 1456 C 144.624 2.01721 -0.123655 0
M  V30 1457 C 144.945 1.49172 1.25589 0
M  V30 1458 O 144.215 0.691974 1.83272 0
M  V30 1459 H 142.795 0.745777 -0.0427225 0
M  V30 1460 H 145.457 1.77382 -0.807559 0
M  V30 1461 H 144.553 3.11984 -0.0849534 0
M  V30 1462 N 144.854 0.36279 1.53368 0
M  V30 1463 C 145.784 -0.476976 2.28576 0
M  V30 1464 C 146.765 -1.08631 1.30894 0
M  V30 1465 O 147.95 -1.10409 1.59761 0
M  V30 1466 C 145.08 -1.61828 3.07293 0
M  V30 1467 C 144.034 -1.13633 4.1264 0
M  V30 1468 C 143.36 -2.36766 4.79423 0
M  V30 1469 C 144.66 -0.223061 5.21823 0
M  V30 1470 H 146.354 0.150474 2.99022 0
M  V30 1471 H 143.9 0.0738103 1.43811 0
M  V30 1472 H 145.853 -2.21237 3.58653 0
M  V30 1473 H 144.577 -2.27292 2.34533 0
M  V30 1474 H 143.236 -0.564945 3.62221 0
M  V30 1475 H 142.884 -3.0068 4.03238 0
M  V30 1476 H 142.584 -2.05192 5.50609 0
M  V30 1477 H 144.108 -2.96865 5.33576 0
M  V30 1478 H 145.522 -0.724545 5.68703 0
M  V30 1479 H 143.919 0.001678 6.001 0
M  V30 1480 H 144.989 0.735553 4.79289 0
M  V30 1481 N 146.332 -1.57332 0.0918853 0
M  V30 1482 C 147.579 -1.94236 -0.572577 0
M  V30 1483 C 147.907 -0.973398 -1.6839 0
M  V30 1484 O 147.162 0.00756912 -1.95699 0
M  V30 1485 C 147.461 -3.37689 -1.17051 0
M  V30 1486 C 147.127 -4.50527 -0.183304 0
M  V30 1487 C 145.789 -4.81119 0.0882276 0
M  V30 1488 C 148.141 -5.18883 0.49095 0
M  V30 1489 C 145.469 -5.77395 1.04076 0
M  V30 1490 C 147.821 -6.1618 1.43193 0
M  V30 1491 C 146.485 -6.45179 1.71173 0
M  V30 1492 H 145.755 -0.710762 -0.209521 0
M  V30 1493 H 148.402 -1.9077 0.167036 0
M  V30 1494 H 146.707 -3.37718 -1.9863 0
M  V30 1495 H 148.404 -3.63543 -1.69227 0
M  V30 1496 H 144.994 -4.26681 -0.405124 0
M  V30 1497 H 149.178 -4.95427 0.294312 0
M  V30 1498 H 144.434 -5.98179 1.26457 0
M  V30 1499 H 148.608 -6.68243 1.96023 0
M  V30 1500 H 146.235 -7.1959 2.4514 0
M  V30 1501 N 147.81 0.181792 -1.56548 0
M  V30 1502 C 149.087 0.926765 -1.72251 0
M  V30 1503 C 149.467 2.00831 -0.650386 0
M  V30 1504 O 148.815 2.26008 0.336521 0
M  V30 1505 C 149.025 1.50106 -3.1507 0
M  V30 1506 C 150.373 1.97805 -3.75711 0
M  V30 1507 O 151.397 1.59922 -3.18282 0
M  V30 1508 O 150.256 2.67555 -4.76525 0
M  V30 1509 H 147.35 0.435506 -0.703039 0
M  V30 1510 H 149.896 0.170443 -1.68842 0
M  V30 1511 H 148.668 0.72212 -3.84579 0
M  V30 1512 H 148.291 2.32186 -3.22763 0
M  V30 1513 N 149.288 1.51039 0.449983 0
M  V30 1514 C 150.22 1.67617 1.56324 0
M  V30 1515 C 151.233 0.557083 1.52972 0
M  V30 1516 O 152.422 0.830989 1.57977 0
M  V30 1517 C 149.522 1.66402 2.95235 0
M  V30 1518 C 148.695 2.9469 3.23229 0
M  V30 1519 C 147.754 2.85832 4.41799 0
M  V30 1520 O 146.78 3.59785 4.41071 0
M  V30 1521 N 147.982 2.00821 5.44657 0
M  V30 1522 H 150.747 2.63648 1.42512 0
M  V30 1523 H 148.308 1.48767 0.638737 0
M  V30 1524 H 150.3 1.58062 3.72557 0
M  V30 1525 H 148.87 0.780182 3.02708 0
M  V30 1526 H 148.09 3.16996 2.34323 0
M  V30 1527 H 149.378 3.79636 3.38754 0
M  V30 1528 H 148.776 1.40091 5.48079 0
M  V30 1529 H 147.333 1.98368 6.20881 0
M  V30 1530 N 150.766 -0.704594 1.40972 0
M  V30 1531 C 151.696 -1.83124 1.44872 0
M  V30 1532 C 152.677 -1.67281 0.30838 0
M  V30 1533 O 153.862 -1.87149 0.518556 0
M  V30 1534 C 150.992 -3.21181 1.32136 0
M  V30 1535 C 149.946 -3.51714 2.43888 0
M  V30 1536 C 149.272 -4.89032 2.16222 0
M  V30 1537 C 150.572 -3.516 3.86232 0
M  V30 1538 H 152.266 -1.80117 2.39161 0
M  V30 1539 H 149.812 -0.865145 1.15114 0
M  V30 1540 H 151.765 -3.99702 1.33479 0
M  V30 1541 H 150.489 -3.24791 0.343279 0
M  V30 1542 H 149.148 -2.75539 2.41813 0
M  V30 1543 H 148.796 -4.89256 1.16778 0
M  V30 1544 H 148.496 -5.10426 2.911 0
M  V30 1545 H 150.02 -5.69873 2.19265 0
M  V30 1546 H 151.434 -4.2014 3.9007 0
M  V30 1547 H 149.831 -3.84523 4.60719 0
M  V30 1548 H 150.901 -2.50757 4.15029 0
M  V30 1549 N 152.244 -1.26651 -0.937939 0
M  V30 1550 C 153.492 -1.12165 -1.68118 0
M  V30 1551 C 153.813 0.334983 -1.92101 0
M  V30 1552 O 153.083 1.23583 -1.52 0
M  V30 1553 H 151.663 -0.412093 -0.623048 0
M  V30 1554 H 154.325 -1.59027 -1.12678 0
M  V30 1555 H 153.421 -1.64289 -2.6536 0
M  V30 1556 N 153.722 1.14298 -1.08507 0
M  V30 1557 C 154.652 2.21542 -0.737646 0
M  V30 1558 C 155.633 1.67773 0.280377 0
M  V30 1559 O 156.818 1.93616 0.150521 0
M  V30 1560 C 153.948 3.46988 -0.147259 0
M  V30 1561 C 152.902 4.13789 -1.09374 0
M  V30 1562 C 152.228 5.33449 -0.365524 0
M  V30 1563 C 153.528 4.62208 -2.4323 0
M  V30 1564 H 155.222 2.5086 -1.6343 0
M  V30 1565 H 152.768 1.20576 -0.787243 0
M  V30 1566 H 154.721 4.21262 0.107808 0
M  V30 1567 H 153.445 3.17037 0.784538 0
M  V30 1568 H 152.104 3.4147 -1.33393 0
M  V30 1569 H 151.752 4.99759 0.57011 0
M  V30 1570 H 151.452 5.79088 -0.996512 0
M  V30 1571 H 152.976 6.10485 -0.118534 0
M  V30 1572 H 154.39 5.27952 -2.23472 0
M  V30 1573 H 152.787 5.18553 -3.02031 0
M  V30 1574 H 153.857 3.77224 -3.04681 0
M  V30 1575 N 155.201 0.870884 1.31352 0
M  V30 1576 C 156.449 0.48132 1.96285 0
M  V30 1577 C 156.77 -0.969813 1.69173 0
M  V30 1578 O 156.04 -1.67998 1.00764 0
M  V30 1579 H 154.62 0.175002 0.726212 0
M  V30 1580 H 157.282 1.11087 1.60143 0
M  V30 1581 H 156.378 0.639825 3.05471 0
M  V30 1582 N 156.679 -1.44442 0.630414 0
M  V30 1583 C 158.095 -1.56832 0.295973 0
M  V30 1584 C 158.295 -1.61806 -1.20088 0
M  V30 1585 O 157.351 -1.5607 -1.9849 0
M  V30 1586 C 158.664 -2.84031 0.987264 0
M  V30 1587 C 160.212 -2.97742 0.96534 0
M  V30 1588 C 160.687 -4.27743 1.63708 0
M  V30 1589 N 162.178 -4.34555 1.60364 0
M  V30 1590 C 162.913 -5.33862 2.09234 0
M  V30 1591 N 162.409 -6.39578 2.66292 0
M  V30 1592 N 164.202 -5.25366 1.99867 0
M  V30 1593 H 156.353 -1.39457 1.60205 0
M  V30 1594 H 158.616 -0.668237 0.672431 0
M  V30 1595 H 158.322 -2.86338 2.04215 0
M  V30 1596 H 158.196 -3.73534 0.524588 0
M  V30 1597 H 160.583 -2.94989 -0.0810639 0
M  V30 1598 H 160.664 -2.09589 1.4665 0
M  V30 1599 H 160.308 -4.31255 2.68293 0
M  V30 1600 H 160.238 -5.14752 1.11076 0
M  V30 1601 H 162.729 -3.58772 1.18705 0
M  V30 1602 H 163.042 -7.11637 3.01317 0
M  V30 1603 H 161.387 -6.40265 2.70343 0
M  V30 1604 H 164.578 -4.41688 1.55013 0
M  V30 1605 H 164.751 -6.02606 2.38265 0
M  V30 1606 N 158.157 -0.370918 -1.53173 0
M  V30 1607 C 159.403 0.217423 -2.01631 0
M  V30 1608 C 159.736 1.47983 -1.25756 0
M  V30 1609 O 159.011 1.91274 -0.352764 0
M  V30 1610 C 159.294 0.503982 -3.56556 0
M  V30 1611 C 159.147 -0.77243 -4.43118 0
M  V30 1612 C 160.466 1.30234 -4.20389 0
M  V30 1613 H 157.585 0.0775486 -0.732909 0
M  V30 1614 H 160.227 -0.496863 -1.83388 0
M  V30 1615 H 158.377 1.11248 -3.72231 0
M  V30 1616 H 160.049 -1.4098 -4.39229 0
M  V30 1617 H 158.292 -1.39167 -4.10871 0
M  V30 1618 H 158.963 -0.526815 -5.4948 0
M  V30 1619 H 161.439 0.787546 -4.08579 0
M  V30 1620 H 160.315 1.47158 -5.28806 0
M  V30 1621 H 160.576 2.31237 -3.76805 0
M  V30 1622 N 159.635 1.57281 -0.100228 0
M  V30 1623 C 161.046 1.81725 0.428107 0
M  V30 1624 C 161.397 1.01619 1.67833 0
M  V30 1625 O 160.522 0.247098 2.14985 0
M  V30 1626 C 161.117 3.29617 0.78347 0
M  V30 1627 C 159.676 3.54808 1.25653 0
M  V30 1628 C 158.823 2.76118 0.255752 0
M  V30 1629 H 161.774 1.55324 -0.325608 0
M  V30 1630 H 161.795 3.4322 1.64256 0
M  V30 1631 H 161.307 3.87893 -0.12665 0
M  V30 1632 H 159.408 3.01868 2.18418 0
M  V30 1633 H 159.521 4.63443 1.21482 0
M  V30 1634 H 157.885 2.43745 0.738956 0
M  V30 1635 H 158.668 3.37145 -0.647136 0
M  V30 1636 N 161.113 -0.173488 1.56642 0
M  V30 1637 C 162.043 -1.2171 1.99271 0
M  V30 1638 C 163.024 -1.46289 0.867959 0
M  V30 1639 O 164.209 -1.5766 1.13388 0
M  V30 1640 C 161.339 -2.55651 2.35074 0
M  V30 1641 C 160.293 -2.45645 3.50489 0
M  V30 1642 C 159.619 -3.84056 3.72028 0
M  V30 1643 C 160.919 -1.96302 4.84007 0
M  V30 1644 H 162.613 -0.86275 2.867 0
M  V30 1645 H 160.159 -0.413571 1.37933 0
M  V30 1646 H 162.112 -3.2886 2.63494 0
M  V30 1647 H 160.836 -2.92869 1.44552 0
M  V30 1648 H 159.495 -1.7489 3.22194 0
M  V30 1649 H 159.143 -4.18664 2.788 0
M  V30 1650 H 158.843 -3.7823 4.49684 0
M  V30 1651 H 160.367 -4.58854 4.02846 0
M  V30 1652 H 161.781 -2.59284 5.11317 0
M  V30 1653 H 160.178 -2.01429 5.65284 0
M  V30 1654 H 161.248 -0.917226 4.76146 0
M  V30 1655 N 162.591 -1.51276 -0.441967 0
M  V30 1656 C 163.837 -1.63958 -1.19355 0
M  V30 1657 C 164.17 -0.352543 -1.90973 0
M  V30 1658 O 163.445 0.647627 -1.83401 0
M  V30 1659 C 163.728 -2.83979 -2.21422 0
M  V30 1660 C 163.581 -4.22646 -1.53918 0
M  V30 1661 C 164.9 -2.99521 -3.22451 0
M  V30 1662 H 162.019 -0.596709 -0.432559 0
M  V30 1663 H 164.661 -1.83748 -0.483398 0
M  V30 1664 H 162.811 -2.67237 -2.81987 0
M  V30 1665 H 164.483 -4.51045 -0.967256 0
M  V30 1666 H 162.726 -4.25558 -0.841615 0
M  V30 1667 H 163.397 -5.02609 -2.28229 0
M  V30 1668 H 165.873 -3.14944 -2.71937 0
M  V30 1669 H 164.749 -3.85072 -3.91166 0
M  V30 1670 H 165.01 -2.11391 -3.88287 0
M  V30 1671 N 164.069 0.697108 -1.41344 0
M  V30 1672 C 165.317 1.45426 -1.40341 0
M  V30 1673 C 165.638 1.94996 -0.0128787 0
M  V30 1674 O 164.908 1.71599 0.945027 0
M  V30 1675 H 163.488 0.539594 -0.516573 0
M  V30 1676 H 166.15 0.825201 -1.76569 0
M  V30 1677 H 165.246 2.31817 -2.08967 0
M  V30 1678 N 165.547 1.27147 0.931209 0
M  V30 1679 C 166.495 1.09398 2.05268 0
M  V30 1680 C 167.489 0.0180591 1.6939 0
M  V30 1681 O 168.695 0.17551 1.79142 0
M  V30 1682 H 165.07 0.336986 0.672268 0
M  V30 1683 H 167.041 2.04416 2.17386 0
M  V30 1684 C 165.79 0.75424 3.39421 0
M  V30 1685 H 165.113 1.57404 3.67511 0
M  V30 1686 H 166.553 0.669903 4.18674 0
M  V30 1687 C 165.012 -0.541197 3.32525 0
M  V30 1688 O 165.542 -1.57664 3.69466 0
M  V30 1689 N 163.748 -0.535517 2.85623 0
M  V30 1690 H 163.295 0.307511 2.55758 0
M  V30 1691 H 163.253 -1.40236 2.81392 0
M  V30 1692 N 167.025 -1.13721 1.09112 0
M  V30 1693 C 168.25 -1.89314 0.847053 0
M  V30 1694 C 168.675 -1.78416 -0.595774 0
M  V30 1695 O 168.033 -1.12942 -1.41823 0
M  V30 1696 C 168.081 -3.3701 1.28284 0
M  V30 1697 O 167.185 -4.10054 0.439267 0
M  V30 1698 H 166.526 -0.588745 0.307044 0
M  V30 1699 H 169.056 -1.43902 1.45442 0
M  V30 1700 H 169.066 -3.87834 1.26683 0
M  V30 1701 H 167.741 -3.4426 2.33363 0
M  V30 1702 H 166.318 -3.69266 0.519312 0
M  V30 1703 N 168.503 -0.877838 -1.30888 0
M  V30 1704 C 169.433 -0.35534 -2.3078 0
M  V30 1705 C 170.414 0.557994 -1.60687 0
M  V30 1706 O 171.599 0.473355 -1.88343 0
M  V30 1707 C 168.729 0.437221 -3.44537 0
M  V30 1708 C 167.683 -0.383715 -4.26276 0
M  V30 1709 C 167.009 0.535014 -5.32017 0
M  V30 1710 C 168.309 -1.62201 -4.96476 0
M  V30 1711 H 170.003 -1.19007 -2.74732 0
M  V30 1712 H 167.549 -0.573698 -1.32078 0
M  V30 1713 H 169.502 0.813334 -4.13477 0
M  V30 1714 H 168.226 1.30553 -2.99372 0
M  V30 1715 H 166.885 -0.741874 -3.59015 0
M  V30 1716 H 166.533 1.40083 -4.831 0
M  V30 1717 H 166.233 -0.0104211 -5.87599 0
M  V30 1718 H 167.757 0.907799 -6.03814 0
M  V30 1719 H 169.171 -1.31689 -5.5797 0
M  V30 1720 H 167.568 -2.10711 -5.61891 0
M  V30 1721 H 168.638 -2.37044 -4.23011 0
M  V30 1722 N 169.982 1.44106 -0.638065 0
M  V30 1723 C 171.23 2.01579 -0.145043 0
M  V30 1724 C 171.551 1.50496 1.24 0
M  V30 1725 O 170.821 0.711374 1.82527 0
M  V30 1726 H 169.401 0.745282 -0.05063 0
M  V30 1727 H 172.063 1.76516 -0.826327 0
M  V30 1728 H 171.159 3.11877 -0.118039 0
M  V30 1729 N 171.46 0.379036 1.52974 0
M  V30 1730 C 172.708 -0.206014 2.01047 0
M  V30 1731 C 173.029 -1.48175 1.26765 0
M  V30 1732 O 172.299 -1.92085 0.384743 0
M  V30 1733 H 170.879 -0.0791184 0.742798 0
M  V30 1734 H 173.541 0.508366 1.88153 0
M  V30 1735 H 172.637 -0.423501 3.09213 0
M  V30 1736 N 172.938 -1.57226 0.108567 0
M  V30 1737 C 174.186 -1.94448 -0.550853 0
M  V30 1738 C 174.507 -0.992074 -1.67878 0
M  V30 1739 O 173.777 -0.0465 -1.95845 0
M  V30 1740 H 172.357 -0.717897 -0.206479 0
M  V30 1741 H 175.019 -1.94112 0.175062 0
M  V30 1742 H 174.115 -2.97218 -0.952259 0
M  V30 1743 N 174.416 0.165178 -1.56732 0
M  V30 1744 C 175.644 0.896218 -1.86482 0
M  V30 1745 C 176.059 1.75555 -0.694675 0
M  V30 1746 O 175.416 1.79379 0.33607 0
M  V30 1747 C 175.467 1.76792 -3.1532 0
M  V30 1748 O 175.188 0.943239 -4.27825 0
M  V30 1749 C 176.689 2.6081 -3.58459 0
M  V30 1750 H 173.909 0.260064 -0.618553 0
M  V30 1751 H 176.453 0.163428 -2.03846 0
M  V30 1752 H 174.608 2.45398 -2.99764 0
M  V30 1753 H 175.022 1.53998 -5.01383 0
M  V30 1754 H 176.496 3.17579 -4.51495 0
M  V30 1755 H 176.973 3.35977 -2.82872 0
M  V30 1756 H 177.579 1.97526 -3.76648 0
M  V30 1757 N 175.894 1.51508 0.433938 0
M  V30 1758 C 176.857 1.72473 1.50949 0
M  V30 1759 C 177.857 0.594725 1.49398 0
M  V30 1760 O 179.047 0.862315 1.5136 0
M  V30 1761 C 176.179 1.78431 2.90474 0
M  V30 1762 H 177.372 2.68467 1.33662 0
M  V30 1763 H 174.925 1.41549 0.662836 0
M  V30 1764 H 175.66 0.842645 3.13161 0
M  V30 1765 H 175.445 2.60558 2.93005 0
M  V30 1766 H 176.935 1.96479 3.68491 0
M  V30 1767 N 177.372 -0.689602 1.41712 0
M  V30 1768 C 178.618 -1.45181 1.41599 0
M  V30 1769 C 178.951 -1.94181 0.0270081 0
M  V30 1770 O 178.226 -1.6993 -0.946265 0
M  V30 1771 C 178.509 -2.65945 2.42787 0
M  V30 1772 C 178.362 -2.22672 3.90816 0
M  V30 1773 C 179.681 -3.68149 2.41151 0
M  V30 1774 H 176.8 -0.526576 0.515642 0
M  V30 1775 H 179.442 -0.784947 1.73028 0
M  V30 1776 H 177.592 -3.2284 2.16116 0
M  V30 1777 H 179.264 -1.71058 4.28412 0
M  V30 1778 H 177.507 -1.54394 4.05395 0
M  V30 1779 H 178.178 -3.0935 4.57172 0
M  V30 1780 H 180.654 -3.2094 2.64834 0
M  V30 1781 H 179.53 -4.50248 3.13955 0
M  V30 1782 H 179.791 -4.18259 1.43221 0
M  V30 1783 N 178.85 -1.27639 -0.924453 0
M  V30 1784 C 180.266 -1.05113 -1.20097 0
M  V30 1785 C 180.466 0.213262 -2.00368 0
M  V30 1786 O 179.522 0.91787 -2.35226 0
M  V30 1787 C 180.835 -2.29244 -1.94596 0
M  V30 1788 C 182.383 -2.34315 -2.07522 0
M  V30 1789 C 182.858 -3.58183 -2.85427 0
M  V30 1790 N 184.349 -3.5876 -2.92994 0
M  V30 1791 C 185.084 -4.51277 -3.53746 0
M  V30 1792 N 184.58 -5.54102 -4.15863 0
M  V30 1793 N 186.373 -4.38894 -3.51181 0
M  V30 1794 H 178.524 -2.08821 -0.388264 0
M  V30 1795 H 180.787 -0.918568 -0.234385 0
M  V30 1796 H 180.493 -3.21301 -1.43034 0
M  V30 1797 H 180.367 -2.34816 -2.95197 0
M  V30 1798 H 182.754 -1.42762 -2.58269 0
M  V30 1799 H 182.835 -2.32744 -1.06131 0
M  V30 1800 H 182.479 -4.50074 -2.35363 0
M  V30 1801 H 182.409 -3.57006 -3.8711 0
M  V30 1802 H 184.9 -2.84398 -2.4885 0
M  V30 1803 H 185.213 -6.20859 -4.60168 0
M  V30 1804 H 183.558 -5.57941 -4.144 0
M  V30 1805 H 186.749 -3.57772 -3.01856 0
M  V30 1806 H 186.922 -5.11186 -3.98237 0
M  V30 1807 N 180.328 1.1314 -1.09713 0
M  V30 1808 C 181.575 1.84484 -0.834987 0
M  V30 1809 C 181.903 1.83689 0.639418 0
M  V30 1810 O 181.158 1.2724 1.4869 0
M  V30 1811 C 181.457 3.32167 -1.3191 0
M  V30 1812 C 181.123 3.53139 -2.80363 0
M  V30 1813 C 179.785 3.58571 -3.20905 0
M  V30 1814 C 182.137 3.60866 -3.76065 0
M  V30 1815 C 179.465 3.69267 -4.55916 0
M  V30 1816 C 181.817 3.73089 -5.10869 0
M  V30 1817 C 180.481 3.76775 -5.50996 0
M  V30 1818 H 179.751 0.675073 -0.305544 0
M  V30 1819 H 182.398 1.33554 -1.37243 0
M  V30 1820 H 180.703 3.85469 -0.701517 0
M  V30 1821 H 182.4 3.85821 -1.09284 0
M  V30 1822 H 178.99 3.49569 -2.47991 0
M  V30 1823 H 183.174 3.55946 -3.45855 0
M  V30 1824 H 178.43 3.70388 -4.86438 0
M  V30 1825 H 182.604 3.78011 -5.84877 0
M  V30 1826 H 180.231 3.84815 -6.55608 0
M  V30 1827 N 181.806 0.884767 1.30421 0
M  V30 1828 C 182.769 0.356277 2.26414 0
M  V30 1829 C 183.769 -0.501124 1.52792 0
M  V30 1830 O 184.959 -0.30831 1.7145 0
M  V30 1831 C 182.091 -0.492316 3.37326 0
M  V30 1832 H 183.284 1.20389 2.74675 0
M  V30 1833 H 180.837 0.661607 1.41607 0
M  V30 1834 H 181.572 -1.36052 2.94381 0
M  V30 1835 H 181.357 0.121832 3.91911 0
M  V30 1836 H 182.847 -0.853871 4.08777 0
M  V30 1837 N 183.284 -1.43765 0.645699 0
M  V30 1838 C 184.214 -2.33471 -0.0370477 0
M  V30 1839 C 185.195 -1.49042 -0.819779 0
M  V30 1840 O 186.38 -1.77726 -0.782758 0
M  V30 1841 C 183.51 -3.32311 -1.0093 0
M  V30 1842 C 182.464 -4.2667 -0.337201 0
M  V30 1843 C 181.79 -5.1549 -1.42037 0
M  V30 1844 C 183.09 -5.16657 0.765706 0
M  V30 1845 H 184.784 -2.90809 0.712069 0
M  V30 1846 H 182.33 -1.39834 0.343876 0
M  V30 1847 H 184.283 -3.9396 -1.49578 0
M  V30 1848 H 183.007 -2.73213 -1.78948 0
M  V30 1849 H 181.666 -3.66374 0.128771 0
M  V30 1850 H 181.314 -4.52735 -2.1918 0
M  V30 1851 H 181.014 -5.79438 -0.975966 0
M  V30 1852 H 182.538 -5.80012 -1.90838 0
M  V30 1853 H 183.952 -5.72158 0.361702 0
M  V30 1854 H 182.349 -5.89286 1.13413 0
M  V30 1855 H 183.419 -4.56796 1.62683 0
M  V30 1856 N 184.763 -0.387143 -1.52771 0
M  V30 1857 C 186.04 0.253197 -1.93954 0
M  V30 1858 C 186.42 1.64545 -1.32243 0
M  V30 1859 O 185.768 2.23191 -0.489699 0
M  V30 1860 C 185.978 0.281722 -3.47861 0
M  V30 1861 C 187.326 0.511715 -4.21505 0
M  V30 1862 O 188.35 0.362023 -3.54356 0
M  V30 1863 O 187.209 0.804847 -5.40541 0
M  V30 1864 H 184.303 0.156845 -0.811991 0
M  V30 1865 H 186.849 -0.441494 -1.63856 0
M  V30 1866 H 185.621 -0.693571 -3.85104 0
M  V30 1867 H 185.244 1.02142 -3.84256 0
M  V30 1868 N 186.241 1.57166 -0.116904 0
M  V30 1869 C 187.471 1.99184 0.548586 0
M  V30 1870 C 187.879 0.995436 1.60897 0
M  V30 1871 O 187.222 -0.0201293 1.83689 0
M  V30 1872 C 187.284 3.37611 1.23526 0
M  V30 1873 C 186.948 4.55857 0.323077 0
M  V30 1874 C 187.945 5.18056 -0.437476 0
M  V30 1875 C 185.63 5.01751 0.234761 0
M  V30 1876 C 187.624 6.24536 -1.2741 0
M  V30 1877 C 185.311 6.08093 -0.605496 0
M  V30 1878 C 186.309 6.69352 -1.35856 0
M  V30 1879 O 185.997 7.7364 -2.18487 0
M  V30 1880 H 185.729 0.659148 0.149999 0
M  V30 1881 H 188.283 2.0443 -0.199428 0
M  V30 1882 H 186.513 3.29113 2.0303 0
M  V30 1883 H 188.202 3.63932 1.79745 0
M  V30 1884 H 188.968 4.83516 -0.379105 0
M  V30 1885 H 184.847 4.53817 0.810601 0
M  V30 1886 H 188.391 6.72281 -1.86237 0
M  V30 1887 H 184.288 6.42063 -0.665268 0
M  V30 1888 H 185.056 7.90727 -2.11406 0
M  V30 1889 N 187.719 -0.156864 1.56817 0
M  V30 1890 C 189.13 -0.717916 1.72345 0
M  V30 1891 C 189.481 -1.82124 0.729747 0
M  V30 1892 O 188.606 -2.16141 -0.105781 0
M  V30 1893 C 189.201 -1.30904 3.12489 0
M  V30 1894 C 187.76 -1.81676 3.29653 0
M  V30 1895 C 186.907 -0.701349 2.68284 0
M  V30 1896 H 189.858 0.0686989 1.58551 0
M  V30 1897 H 189.879 -2.17882 3.11942 0
M  V30 1898 H 189.391 -0.505796 3.8479 0
M  V30 1899 H 187.492 -2.64598 2.62333 0
M  V30 1900 H 187.605 -1.95226 4.3752 0
M  V30 1901 H 185.969 -1.12548 2.28484 0
M  V30 1902 H 186.752 0.0902846 3.43181 0
M  V30 1903 N 189.197 -1.51736 -0.425897 0
M  V30 1904 C 190.16 -1.73271 -1.50032 0
M  V30 1905 C 191.16 -0.602639 -1.4908 0
M  V30 1906 O 192.35 -0.87033 -1.509 0
M  V30 1907 C 189.482 -1.79969 -2.89523 0
M  V30 1908 H 190.675 -2.69172 -1.32237 0
M  V30 1909 H 188.228 -1.41899 -0.65532 0
M  V30 1910 H 188.963 -0.859241 -3.1271 0
M  V30 1911 H 188.748 -2.62109 -2.91619 0
M  V30 1912 H 190.238 -1.9843 -3.67444 0
M  V30 1913 N 190.675 0.682077 -1.42076 0
M  V30 1914 C 192.091 0.994324 -1.24841 0
M  V30 1915 C 192.291 2.0096 -0.147389 0
M  V30 1916 O 191.347 2.47822 0.483782 0
M  V30 1917 C 192.66 1.50607 -2.60265 0
M  V30 1918 C 194.208 1.62421 -2.6756 0
M  V30 1919 C 194.683 2.16994 -4.03333 0
M  V30 1920 N 196.174 2.24337 -4.0525 0
M  V30 1921 C 196.909 2.67621 -5.07116 0
M  V30 1922 N 196.405 3.1041 -6.19368 0
M  V30 1923 N 198.198 2.67305 -4.94474 0
M  V30 1924 H 190.349 0.00973908 -2.12398 0
M  V30 1925 H 192.612 0.0668593 -0.945639 0
M  V30 1926 H 192.318 0.834583 -3.41654 0
M  V30 1927 H 192.192 2.48602 -2.83684 0
M  V30 1928 H 194.579 2.28678 -1.86521 0
M  V30 1929 H 194.66 0.629352 -2.47937 0
M  V30 1930 H 194.304 1.51349 -4.84826 0
M  V30 1931 H 194.234 3.17258 -4.20304 0
M  V30 1932 H 196.725 1.94158 -3.24209 0
M  V30 1933 H 197.038 3.42103 -6.92954 0
M  V30 1934 H 195.383 3.08286 -6.22884 0
M  V30 1935 H 198.574 2.33233 -4.05857 0
M  V30 1936 H 198.747 3.00718 -5.73997 0
M  V30 1937 N 192.153 1.28127 0.917671 0
M  V30 1938 C 193.116 1.11744 2.00115 0
M  V30 1939 C 194.116 0.0583052 1.60694 0
M  V30 1940 O 195.306 0.303755 1.71531 0
M  V30 1941 C 192.438 0.704862 3.33533 0
M  V30 1942 H 193.631 2.07966 2.16079 0
M  V30 1943 H 191.184 1.11058 1.09981 0
M  V30 1944 H 191.919 -0.258299 3.2327 0
M  V30 1945 H 191.704 1.4699 3.63505 0
M  V30 1946 H 193.194 0.612768 4.1308 0
M  V30 1947 N 193.631 -1.12557 1.10312 0
M  V30 1948 C 194.879 -1.83675 0.843091 0
M  V30 1949 C 195.2 -1.84435 -0.633131 0
M  V30 1950 O 194.47 -1.30657 -1.45964 0
M  V30 1951 H 193.05 -0.680138 0.308904 0
M  V30 1952 H 195.712 -1.36301 1.39313 0
M  V30 1953 H 194.808 -2.87908 1.2048 0
M  V30 1954 N 195.109 -0.891671 -1.2995 0
M  V30 1955 C 196.525 -0.58662 -1.48428 0
M  V30 1956 C 196.725 0.873951 -1.81561 0
M  V30 1957 O 195.781 1.65471 -1.90724 0
M  V30 1958 C 197.094 -1.50553 -2.60296 0
M  V30 1959 C 198.642 -1.50988 -2.74175 0
M  V30 1960 C 199.117 -2.41488 -3.89163 0
M  V30 1961 N 200.608 -2.39489 -3.96483 0
M  V30 1962 C 201.343 -3.06223 -4.84784 0
M  V30 1963 N 200.839 -3.82206 -5.77833 0
M  V30 1964 N 202.632 -2.95421 -4.78208 0
M  V30 1965 H 194.783 -1.83644 -1.06718 0
M  V30 1966 H 197.046 -0.786455 -0.529332 0
M  V30 1967 H 196.752 -2.54581 -2.42654 0
M  V30 1968 H 196.626 -1.22008 -3.56923 0
M  V30 1969 H 199.013 -0.47708 -2.91218 0
M  V30 1970 H 199.094 -1.83567 -1.78148 0
M  V30 1971 H 198.738 -3.44857 -3.72876 0
M  V30 1972 H 198.668 -2.06222 -4.84541 0
M  V30 1973 H 201.159 -1.84278 -3.29924 0
M  V30 1974 H 201.472 -4.302 -6.41988 0
M  V30 1975 H 199.817 -3.86313 -5.77743 0
M  V30 1976 H 203.008 -2.35581 -4.04499 0
M  V30 1977 H 203.181 -3.47704 -5.46814 0
M  V30 1978 N 196.587 1.43421 -0.653314 0
M  V30 1979 C 197.517 2.33487 0.0246656 0
M  V30 1980 C 198.498 1.49475 0.811863 0
M  V30 1981 O 199.683 1.78139 0.773322 0
M  V30 1982 C 196.813 3.32841 0.99166 0
M  V30 1983 C 195.767 4.26842 0.314568 0
M  V30 1984 C 195.093 5.16236 1.39302 0
M  V30 1985 C 196.393 5.16243 -0.793095 0
M  V30 1986 H 198.087 2.90427 -0.727481 0
M  V30 1987 H 195.633 1.39649 -0.351287 0
M  V30 1988 H 197.586 3.94747 1.47487 0
M  V30 1989 H 196.31 2.74158 1.77497 0
M  V30 1990 H 194.969 3.663 -0.148199 0
M  V30 1991 H 194.617 4.53891 2.16776 0
M  V30 1992 H 194.317 5.79948 0.945223 0
M  V30 1993 H 195.841 5.81015 1.87759 0
M  V30 1994 H 197.255 5.71958 -0.392039 0
M  V30 1995 H 195.652 5.88676 -1.16536 0
M  V30 1996 H 196.722 4.55927 -1.65103 0
M  V30 1997 N 198.065 0.39524 1.52563 0
M  V30 1998 C 199.311 -0.185318 2.01952 0
M  V30 1999 C 199.644 -1.45964 1.28095 0
M  V30 2000 O 198.919 -1.90689 0.38315 0
M  V30 2001 C 199.202 -0.447193 3.57312 0
M  V30 2002 C 199.055 0.842828 4.41833 0
M  V30 2003 C 200.374 -1.23529 4.22408 0
M  V30 2004 H 197.493 -0.0658788 0.73405 0
M  V30 2005 H 200.135 0.525975 1.82575 0
M  V30 2006 H 198.285 -1.05312 3.73954 0
M  V30 2007 H 199.957 1.4795 4.36931 0
M  V30 2008 H 198.2 1.45686 4.08605 0
M  V30 2009 H 198.871 0.614165 5.48573 0
M  V30 2010 H 201.347 -0.722445 4.0978 0
M  V30 2011 H 200.223 -1.38727 5.3108 0
M  V30 2012 H 200.484 -2.25213 3.80436 0
M  V30 2013 N 199.544 -1.57102 0.125237 0
M  V30 2014 C 200.474 -2.18659 -0.819174 0
M  V30 2015 C 201.455 -1.12843 -1.27281 0
M  V30 2016 O 202.64 -1.41104 -1.33429 0
M  V30 2017 C 199.77 -2.79096 -2.06695 0
M  V30 2018 C 198.724 -3.90548 -1.75088 0
M  V30 2019 C 198.05 -4.37821 -3.06948 0
M  V30 2020 C 199.35 -5.12356 -1.01435 0
M  V30 2021 H 201.044 -2.9783 -0.306202 0
M  V30 2022 H 198.59 -1.4326 -0.145839 0
M  V30 2023 H 200.543 -3.2082 -2.73226 0
M  V30 2024 H 199.267 -1.97223 -2.60328 0
M  V30 2025 H 197.926 -3.49409 -1.10944 0
M  V30 2026 H 197.574 -3.52799 -3.58527 0
M  V30 2027 H 197.274 -5.12982 -2.86571 0
M  V30 2028 H 198.798 -4.822 -3.74587 0
M  V30 2029 H 200.212 -5.5106 -1.58132 0
M  V30 2030 H 198.609 -5.9314 -0.911319 0
M  V30 2031 H 199.679 -4.849 -0.00218681 0
M  V30 2032 N 201.022 0.148545 -1.56898 0
M  V30 2033 C 201.955 1.21293 -1.93296 0
M  V30 2034 C 202.933 1.41637 -0.798599 0
M  V30 2035 O 204.117 1.56275 -1.05406 0
M  V30 2036 C 201.244 2.5721 -2.20365 0
M  V30 2037 C 200.29 2.53469 -3.4301 0
M  V30 2038 S 201.123 2.00315 -4.96623 0
M  V30 2039 C 202.279 3.37964 -5.26812 0
M  V30 2040 H 202.512 0.902393 -2.83274 0
M  V30 2041 H 200.045 0.354094 -1.50285 0
M  V30 2042 H 202.003 3.35427 -2.36641 0
M  V30 2043 H 200.664 2.85454 -1.31054 0
M  V30 2044 H 199.857 3.53518 -3.59223 0
M  V30 2045 H 199.459 1.83359 -3.25968 0
M  V30 2046 H 201.751 4.34066 -5.20185 0
M  V30 2047 H 202.694 3.26606 -6.28279 0
M  V30 2048 H 203.102 3.35028 -4.54331 0
M  V30 2049 N 202.5 1.5196 0.417844 0
M  V30 2050 C 203.748 1.65263 1.16329 0
M  V30 2051 C 204.069 0.380634 1.91249 0
M  V30 2052 O 203.339 -0.604214 1.86349 0
M  V30 2053 H 201.919 0.60912 0.432414 0
M  V30 2054 H 204.581 1.88969 0.477162 0
M  V30 2055 H 203.677 2.4896 1.88217 0
M  V30 2056 N 203.978 -0.674533 1.42435 0
M  V30 2057 C 205.389 -1.25514 1.38214 0
M  V30 2058 C 205.74 -1.96055 0.0755464 0
M  V30 2059 O 204.865 -2.00028 -0.8257 0
M  V30 2060 C 205.46 -2.28269 2.50357 0
M  V30 2061 C 204.019 -2.81856 2.49467 0
M  V30 2062 C 203.166 -1.56182 2.29134 0
M  V30 2063 H 206.117 -0.467902 1.51646 0
M  V30 2064 H 206.138 -3.10009 2.20624 0
M  V30 2065 H 205.65 -1.769 3.45439 0
M  V30 2066 H 203.751 -3.37346 1.58204 0
M  V30 2067 H 203.864 -3.30854 3.46515 0
M  V30 2068 H 202.228 -1.82761 1.774 0
M  V30 2069 H 203.011 -1.06778 3.26272 0
M  V30 2070 N 205.456 -1.28612 -0.910864 0
M  V30 2071 C 206.704 -1.15705 -1.65701 0
M  V30 2072 C 207.025 0.29416 -1.92769 0
M  V30 2073 O 206.295 1.20331 -1.54588 0
M  V30 2074 H 204.875 -0.425216 -0.614167 0
M  V30 2075 H 207.537 -1.61381 -1.0928 0
M  V30 2076 H 206.633 -1.6988 -2.61815 0
M  V30 2077 N 206.934 1.1197 -1.10907 0
M  V30 2078 C 208.182 1.83225 -0.852819 0
M  V30 2079 C 208.503 1.84769 0.623341 0
M  V30 2080 O 207.773 1.3143 1.45269 0
M  V30 2081 H 206.353 0.67849 -0.312507 0
M  V30 2082 H 209.015 1.3556 -1.40033 0
M  V30 2083 H 208.111 2.87265 -1.22005 0
M  V30 2084 N 208.412 0.89855 1.29475 0
M  V30 2085 C 209.342 0.39201 2.30186 0
M  V30 2086 C 210.323 -0.532359 1.61555 0
M  V30 2087 O 211.508 -0.443331 1.89072 0
M  V30 2088 C 208.638 -0.382353 3.45189 0
M  V30 2089 C 207.592 0.451483 4.25612 0
M  V30 2090 C 206.918 -0.450307 5.328 0
M  V30 2091 C 208.218 1.70079 4.93832 0
M  V30 2092 H 209.912 1.23362 2.72804 0
M  V30 2093 H 207.458 0.594638 1.31149 0
M  V30 2094 H 209.411 -0.747451 4.14718 0
M  V30 2095 H 208.135 -1.25774 3.01411 0
M  V30 2096 H 206.794 0.798897 3.57789 0
M  V30 2097 H 206.442 -1.32379 4.85268 0
M  V30 2098 H 206.142 0.103902 5.87508 0
M  V30 2099 H 207.666 -0.811623 6.05182 0
M  V30 2100 H 209.08 1.40549 5.55805 0
M  V30 2101 H 207.477 2.19623 5.58467 0
M  V30 2102 H 208.547 2.43744 4.19186 0
M  V30 2103 N 209.89 -1.43072 0.660911 0
M  V30 2104 C 211.115 -2.06584 0.183805 0
M  V30 2105 C 211.54 -1.49257 -1.14472 0
M  V30 2106 O 210.898 -0.605528 -1.70889 0
M  V30 2107 C 210.946 -3.60418 0.114434 0
M  V30 2108 O 210.05 -4.01981 -0.921137 0
M  V30 2109 H 209.391 -0.656669 0.0983994 0
M  V30 2110 H 211.921 -1.83447 0.906006 0
M  V30 2111 H 211.931 -4.07946 -0.0663394 0
M  V30 2112 H 210.606 -4.01519 1.08422 0
M  V30 2113 H 209.183 -3.66029 -0.71253 0
M  V30 2114 N 211.368 -0.403325 -1.52352 0
M  V30 2115 C 212.617 0.175668 -2.00934 0
M  V30 2116 C 212.93 1.46718 -1.29356 0
M  V30 2117 O 214.136 2.12708 -1.68724 0
M  V30 2118 C 212.592 0.363612 -3.58058 0
M  V30 2119 C 212.2 -0.915472 -4.38547 0
M  V30 2120 C 213.944 0.89821 -4.14888 0
M  V30 2121 C 211.851 -0.695035 -5.87302 0
M  V30 2122 H 210.781 0.0694234 -0.750797 0
M  V30 2123 H 213.432 -0.527879 -1.75743 0
M  V30 2124 H 211.814 1.12935 -3.79555 0
M  V30 2125 H 212.988 -1.68691 -4.28812 0
M  V30 2126 H 211.303 -1.37606 -3.93006 0
M  V30 2127 H 213.9 1.07907 -5.23699 0
M  V30 2128 H 214.243 1.87126 -3.71873 0
M  V30 2129 H 214.776 0.191681 -3.97338 0
M  V30 2130 H 211.515 -1.63948 -6.34666 0
M  V30 2131 H 211.035 0.0372116 -5.99788 0
M  V30 2132 H 212.714 -0.33497 -6.46132 0
M  V30 2133 N 212.846 1.57033 -0.133567 0
M  V30 2134 C 213.794 2.17348 0.828412 0
M  V30 2135 C 214.788 1.12671 1.26498 0
M  V30 2136 O 215.994 1.30947 1.23502 0
M  V30 2137 H 212.369 0.695775 0.285309 0
M  V30 2138 H 214.34 2.96935 0.295372 0
M  V30 2139 C 213.089 2.79893 2.06289 0
M  V30 2140 H 212.412 3.60147 1.73592 0
M  V30 2141 H 213.852 3.25615 2.71572 0
M  V30 2142 C 212.311 1.77713 2.86216 0
M  V30 2143 O 212.841 1.23937 3.82103 0
M  V30 2144 N 211.047 1.47321 2.50489 0
M  V30 2145 H 210.594 1.91243 1.7258 0
M  V30 2146 H 210.552 0.79199 3.04261 0
M  V30 2147 N 214.325 -0.140222 1.56975 0
M  V30 2148 C 215.255 -1.17456 2.01808 0
M  V30 2149 C 216.236 -1.44415 0.898794 0
M  V30 2150 O 217.421 -1.5522 1.16707 0
M  V30 2151 C 214.551 -2.50607 2.40444 0
M  V30 2152 C 213.505 -2.38155 3.55621 0
M  V30 2153 C 212.831 -3.76078 3.80091 0
M  V30 2154 C 214.131 -1.85991 4.88062 0
M  V30 2155 H 215.825 -0.801743 2.88466 0
M  V30 2156 H 213.371 -0.38422 1.38779 0
M  V30 2157 H 215.324 -3.23197 2.7041 0
M  V30 2158 H 214.048 -2.89737 1.50732 0
M  V30 2159 H 212.707 -1.68016 3.25832 0
M  V30 2160 H 212.355 -4.12656 2.87618 0
M  V30 2161 H 212.055 -3.68606 4.57606 0
M  V30 2162 H 213.579 -4.50206 4.12488 0
M  V30 2163 H 214.993 -2.4838 5.16701 0
M  V30 2164 H 213.39 -1.89393 5.6943 0
M  V30 2165 H 214.46 -0.816023 4.77984 0
M  V30 2166 N 215.803 -1.52179 -0.40978 0
M  V30 2167 C 217.05 -1.66206 -1.15679 0
M  V30 2168 C 217.378 -0.391674 -1.90516 0
M  V30 2169 O 216.633 0.62533 -1.8544 0
M  V30 2170 C 216.932 -2.83428 -2.17723 0
M  V30 2171 C 216.598 -4.21672 -1.59699 0
M  V30 2172 C 215.26 -4.59274 -1.43599 0
M  V30 2173 C 217.612 -5.07825 -1.17317 0
M  V30 2174 C 214.94 -5.80709 -0.836328 0
M  V30 2175 C 217.292 -6.29864 -0.587691 0
M  V30 2176 C 215.956 -6.66216 -0.413818 0
M  V30 2177 H 215.226 -0.608192 -0.423301 0
M  V30 2178 H 217.873 -1.86279 -0.444097 0
M  V30 2179 H 216.178 -2.57687 -2.95135 0
M  V30 2180 H 217.875 -2.91477 -2.75394 0
M  V30 2181 H 214.465 -3.9204 -1.73213 0
M  V30 2182 H 218.649 -4.79359 -1.28565 0
M  V30 2183 H 213.905 -6.07498 -0.689626 0
M  V30 2184 H 218.079 -6.95948 -0.250894 0
M  V30 2185 H 215.706 -7.60182 0.0529471 0
M  V30 2186 N 217.281 0.66697 -1.42791 0
M  V30 2187 C 218.244 1.76211 -1.46568 0
M  V30 2188 C 219.244 1.56896 -0.352196 0
M  V30 2189 O 220.434 1.63044 -0.613364 0
M  V30 2190 C 217.566 3.14935 -1.30494 0
M  V30 2191 H 218.759 1.74247 -2.44086 0
M  V30 2192 H 216.312 0.877342 -1.29354 0
M  V30 2193 H 217.047 3.2252 -0.339301 0
M  V30 2194 H 216.832 3.30359 -2.11199 0
M  V30 2195 H 218.322 3.94821 -1.36038 0
M  V30 2196 N 218.759 1.29093 0.90403 0
M  V30 2197 C 220.17 1.15186 1.46932 0
M  V30 2198 C 220.521 -0.254587 1.94541 0
M  V30 2199 O 219.646 -1.14972 1.83332 0
M  V30 2200 C 220.241 2.08492 2.67051 0
M  V30 2201 C 218.8 1.98621 3.19729 0
M  V30 2202 C 217.947 1.9967 1.92425 0
M  V30 2203 H 220.898 1.41641 0.715789 0
M  V30 2204 H 220.919 1.65461 3.42641 0
M  V30 2205 H 220.431 3.10847 2.3237 0
M  V30 2206 H 218.532 0.993389 3.59114 0
M  V30 2207 H 218.645 2.86068 3.8432 0
M  V30 2208 H 217.009 1.44208 2.09943 0
M  V30 2209 H 217.792 3.03721 1.60026 0
M  V30 2210 N 220.237 -1.11381 1.11499 0
M  V30 2211 C 221.514 -1.7955 0.775965 0
M  V30 2212 C 221.894 -1.97859 -0.73588 0
M  V30 2213 O 221.242 -1.56376 -1.66609 0
M  V30 2214 C 221.452 -3.13196 1.53977 0
M  V30 2215 C 222.8 -3.88227 1.71944 0
M  V30 2216 O 223.824 -3.22887 1.50407 0
M  V30 2217 O 222.683 -5.05477 2.07738 0
M  V30 2218 H 219.777 -0.777728 0.28119 0
M  V30 2219 H 222.323 -1.18118 1.21845 0
M  V30 2220 H 221.095 -2.95229 2.56818 0
M  V30 2221 H 220.718 -3.82342 1.09088 0
M  V30 2222 N 221.715 -0.905404 -1.28997 0
M  V30 2223 C 223.126 -0.581953 -1.77398 0
M  V30 2224 C 223.477 0.902552 -1.74208 0
M  V30 2225 O 222.602 1.70584 -1.33154 0
M  V30 2226 C 223.197 -1.04961 -3.22131 0
M  V30 2227 C 221.756 -0.777229 -3.68288 0
M  V30 2228 C 220.903 -1.22109 -2.48967 0
M  V30 2229 H 223.854 -1.08754 -1.15578 0
M  V30 2230 H 223.875 -0.387387 -3.78523 0
M  V30 2231 H 223.387 -2.13008 -3.24421 0
M  V30 2232 H 221.488 0.290383 -3.71467 0
M  V30 2233 H 221.601 -1.37911 -4.58822 0
M  V30 2234 H 219.965 -0.639971 -2.46529 0
M  V30 2235 H 220.748 -2.30972 -2.53982 0
M  V30 2236 N 223.193 1.4272 -0.668489 0
M  V30 2237 C 224.421 2.05966 -0.196348 0
M  V30 2238 C 224.836 1.50191 1.14403 0
M  V30 2239 O 224.193 0.639208 1.7094 0
M  V30 2240 C 224.244 3.61314 -0.115815 0
M  V30 2241 O 223.965 4.1502 -1.40322 0
M  V30 2242 C 225.466 4.41663 0.380579 0
M  V30 2243 H 222.686 0.663954 -0.0969829 0
M  V30 2244 H 225.23 1.82966 -0.913446 0
M  V30 2245 H 223.385 3.83448 0.551931 0
M  V30 2246 H 223.799 5.08832 -1.27243 0
M  V30 2247 H 225.273 5.5065 0.385848 0
M  V30 2248 H 225.75 4.15792 1.41471 0
M  V30 2249 H 226.356 4.24534 -0.255209 0
M  V30 2250 N 224.671 0.411399 1.52136 0
M  V30 2251 C 225.581 -0.419774 2.30814 0
M  V30 2252 C 226.597 -1.0515 1.38634 0
M  V30 2253 O 227.773 -1.05252 1.71709 0
M  V30 2254 C 224.838 -1.52019 3.11594 0
M  V30 2255 C 223.899 -0.91129 4.19516 0
M  V30 2256 C 223.132 -1.95927 4.96436 0
M  V30 2257 O 223.355 -3.17775 4.73683 0
M  V30 2258 O 222.289 -1.56423 5.81219 0
M  V30 2259 H 226.115 0.221805 3.02889 0
M  V30 2260 H 223.7 0.174547 1.48377 0
M  V30 2261 H 225.582 -2.15898 3.61892 0
M  V30 2262 H 224.257 -2.14633 2.42311 0
M  V30 2263 H 223.164 -0.235157 3.7336 0
M  V30 2264 H 224.497 -0.32904 4.91099 0
M  V30 2265 N 226.149 -1.5696 0.141893 0
M  V30 2266 C 227.397 -1.95573 -0.509484 0
M  V30 2267 C 227.718 -1.02746 -1.65736 0
M  V30 2268 O 226.988 -0.0880311 -1.95702 0
M  V30 2269 H 225.568 -0.722115 -0.191205 0
M  V30 2270 H 228.23 -1.93697 0.216196 0
M  V30 2271 H 227.326 -2.99171 -0.889 0
M  V30 2272 N 227.627 0.131896 -1.57047 0
M  V30 2273 C 228.873 0.843179 -1.84441 0
M  V30 2274 C 229.206 1.80129 -0.725749 0
M  V30 2275 O 228.481 1.92624 0.269469 0
M  V30 2276 C 228.764 1.60442 -3.22382 0
M  V30 2277 C 228.617 0.666782 -4.4483 0
M  V30 2278 C 229.936 2.56354 -3.5773 0
M  V30 2279 H 227.055 0.305081 -0.670891 0
M  V30 2280 H 229.697 0.107839 -1.89694 0
M  V30 2281 H 227.847 2.23128 -3.18035 0
M  V30 2282 H 229.519 0.0497646 -4.61273 0
M  V30 2283 H 227.762 -0.022609 -4.33794 0
M  V30 2284 H 228.433 1.23579 -5.37989 0
M  V30 2285 H 230.909 2.0378 -3.62785 0
M  V30 2286 H 229.785 3.06657 -4.5525 0
M  V30 2287 H 230.046 3.38419 -2.84473 0
M  V30 2288 N 229.106 1.52395 0.401703 0
M  V30 2289 C 230.053 1.76268 1.48991 0
M  V30 2290 C 231.023 0.605386 1.54675 0
M  V30 2291 O 232.208 0.843742 1.7113 0
M  V30 2292 C 229.348 1.92592 2.86361 0
M  V30 2293 C 228.461 3.20259 2.89928 0
M  V30 2294 C 227.596 3.26972 4.18644 0
M  V30 2295 C 226.635 4.48812 4.16214 0
M  V30 2296 N 225.772 4.52877 5.36514 0
M  V30 2297 H 230.612 2.6914 1.27935 0
M  V30 2298 H 228.149 1.33355 0.620871 0
M  V30 2299 H 230.107 2.0004 3.66115 0
M  V30 2300 H 228.737 1.03093 3.05895 0
M  V30 2301 H 227.789 3.21945 2.02621 0
M  V30 2302 H 229.101 4.10056 2.83999 0
M  V30 2303 H 228.255 3.33533 5.06794 0
M  V30 2304 H 226.994 2.35126 4.27278 0
M  V30 2305 H 225.999 4.4239 3.26453 0
M  V30 2306 H 227.224 5.41961 4.09213 0
M  V30 2307 H 225.17 3.63917 5.45802 0
M  V30 2308 H 225.087 5.36529 5.32609 0
M  V30 2309 H 226.355 4.63676 6.26597 0
M  V30 2310 N 230.584 -0.659388 1.43143 0
M  V30 2311 C 232 -0.974337 1.26407 0
M  V30 2312 C 232.2 -2.007 0.179341 0
M  V30 2313 O 231.256 -2.4856 -0.444295 0
M  V30 2314 C 232.569 -1.46447 2.62628 0
M  V30 2315 C 234.117 -1.58144 2.7011 0
M  V30 2316 C 234.592 -2.1055 4.06734 0
M  V30 2317 N 236.083 -2.17861 4.08767 0
M  V30 2318 C 236.818 -2.59519 5.1131 0
M  V30 2319 N 236.314 -3.00518 6.24228 0
M  V30 2320 N 238.107 -2.59404 4.98664 0
M  V30 2321 H 230.258 0.0240528 2.12386 0
M  V30 2322 H 232.521 -0.0518065 0.946583 0
M  V30 2323 H 232.227 -0.780123 3.42939 0
M  V30 2324 H 232.101 -2.44058 2.87603 0
M  V30 2325 H 234.488 -2.25682 1.90136 0
M  V30 2326 H 234.569 -0.589828 2.48907 0
M  V30 2327 H 234.213 -1.43616 4.87172 0
M  V30 2328 H 234.143 -3.10531 4.25298 0
M  V30 2329 H 236.634 -1.88975 3.27257 0
M  V30 2330 H 236.947 -3.31036 6.98309 0
M  V30 2331 H 235.292 -2.98337 6.2771 0
M  V30 2332 H 238.483 -2.26747 4.09516 0
M  V30 2333 H 238.656 -2.91548 5.78709 0
M  V30 2334 N 232.062 -1.29571 -0.897171 0
M  V30 2335 C 232.992 -1.17473 -2.01798 0
M  V30 2336 C 233.973 -0.068323 -1.69963 0
M  V30 2337 O 235.158 -0.248239 -1.92607 0
M  V30 2338 C 232.288 -0.853099 -3.36659 0
M  V30 2339 C 231.242 -1.9161 -3.82713 0
M  V30 2340 C 230.568 -1.44773 -5.14728 0
M  V30 2341 C 231.868 -3.32535 -4.02763 0
M  V30 2342 H 233.562 -2.11237 -2.12177 0
M  V30 2343 H 231.108 -1.01699 -1.01948 0
M  V30 2344 H 233.061 -0.755165 -4.14578 0
M  V30 2345 H 231.785 0.120236 -3.26379 0
M  V30 2346 H 230.444 -2.00346 -3.07013 0
M  V30 2347 H 230.092 -0.462995 -5.00865 0
M  V30 2348 H 229.792 -2.15865 -5.46513 0
M  V30 2349 H 231.316 -1.36334 -5.95185 0
M  V30 2350 H 232.73 -3.26626 -4.71156 0
M  V30 2351 H 231.127 -4.01607 -4.45905 0
M  V30 2352 H 232.197 -3.75326 -3.07016 0
M  V30 2353 N 233.54 1.10788 -1.12088 0
M  V30 2354 C 234.765 1.87002 -0.896949 0
M  V30 2355 C 235.19 1.79933 0.548261 0
M  V30 2356 O 234.548 1.16662 1.38779 0
M  V30 2357 C 234.596 3.3349 -1.37174 0
M  V30 2358 O 233.7 4.08745 -0.547831 0
M  V30 2359 H 233.041 0.580397 -0.322545 0
M  V30 2360 H 235.571 1.39996 -1.49206 0
M  V30 2361 H 235.581 3.84339 -1.36922 0
M  V30 2362 H 234.256 3.37951 -2.42408 0
M  V30 2363 H 232.833 3.6776 -0.617034 0
M  V30 2364 N 235.018 0.912232 1.28515 0
M  V30 2365 C 235.965 0.397954 2.27343 0
M  V30 2366 C 236.935 -0.526766 1.57526 0
M  V30 2367 O 238.12 -0.449292 1.85435 0
M  V30 2368 C 235.26 -0.357263 3.43246 0
M  V30 2369 C 234.373 0.599788 4.27816 0
M  V30 2370 C 233.508 -0.173725 5.30916 0
M  V30 2371 C 232.547 0.777039 6.07148 0
M  V30 2372 N 231.684 0.0371398 7.0209 0
M  V30 2373 H 236.524 1.24577 2.70711 0
M  V30 2374 H 234.061 0.625612 1.33133 0
M  V30 2375 H 236.019 -0.8113 4.09236 0
M  V30 2376 H 234.649 -1.16943 3.00872 0
M  V30 2377 H 233.701 1.17235 3.61884 0
M  V30 2378 H 235.013 1.32704 4.80823 0
M  V30 2379 H 234.167 -0.688394 6.02782 0
M  V30 2380 H 232.906 -0.934041 4.78672 0
M  V30 2381 H 231.911 1.3031 5.34134 0
M  V30 2382 H 233.136 1.53689 6.61481 0
M  V30 2383 H 231.082 -0.705213 6.52198 0
M  V30 2384 H 230.999 0.704249 7.52713 0
M  V30 2385 H 232.267 -0.457383 7.78157 0
M  V30 2386 N 236.496 -1.42363 0.676048 0
M  V30 2387 C 237.743 -2.01522 0.19883 0
M  V30 2388 C 238.071 -1.53456 -1.19505 0
M  V30 2389 O 237.326 -0.727967 -1.81657 0
M  V30 2390 C 237.625 -3.56929 0.183431 0
M  V30 2391 C 237.291 -4.24431 1.52215 0
M  V30 2392 C 235.953 -4.42585 1.8887 0
M  V30 2393 C 238.305 -4.62459 2.40377 0
M  V30 2394 C 235.633 -4.96039 3.13309 0
M  V30 2395 C 237.985 -5.17294 3.64129 0
M  V30 2396 C 236.649 -5.33661 4.00951 0
M  V30 2397 H 235.919 -0.737419 0.0727571 0
M  V30 2398 H 238.566 -1.70531 0.871281 0
M  V30 2399 H 236.871 -3.87594 -0.572532 0
M  V30 2400 H 238.568 -4.00486 -0.203035 0
M  V30 2401 H 235.158 -4.10661 1.22701 0
M  V30 2402 H 239.342 -4.48105 2.13343 0
M  V30 2403 H 234.598 -5.06896 3.41857 0
M  V30 2404 H 238.772 -5.45704 4.32644 0
M  V30 2405 H 236.399 -5.74845 4.9745 0
M  V30 2406 N 237.974 -0.419461 -1.51915 0
M  V30 2407 C 239.199 0.154572 -2.06823 0
M  V30 2408 C 239.624 1.3722 -1.28656 0
M  V30 2409 O 238.982 1.78461 -0.319583 0
M  V30 2410 C 239.03 0.473172 -3.57482 0
M  V30 2411 O 238.134 1.56255 -3.81652 0
M  V30 2412 H 237.475 0.0096924 -0.663929 0
M  V30 2413 H 240.005 -0.595642 -1.95738 0
M  V30 2414 H 240.015 0.728825 -4.01438 0
M  V30 2415 H 238.69 -0.416873 -4.13805 0
M  V30 2416 H 237.267 1.29825 -3.49571 0
M  V30 2417 N 239.452 1.56882 -0.150215 0
M  V30 2418 C 240.698 1.96518 0.500834 0
M  V30 2419 C 241.031 1.03527 1.64304 0
M  V30 2420 O 240.306 0.0782751 1.94342 0
M  V30 2421 C 240.589 3.45822 1.00395 0
M  V30 2422 C 240.442 4.49591 -0.136983 0
M  V30 2423 C 241.761 3.97704 1.88467 0
M  V30 2424 H 238.88 0.714535 0.18058 0
M  V30 2425 H 241.522 1.88577 -0.232091 0
M  V30 2426 H 239.672 3.5272 1.62851 0
M  V30 2427 H 241.344 4.5477 -0.77343 0
M  V30 2428 H 239.587 4.26441 -0.795652 0
M  V30 2429 H 240.258 5.51402 0.256815 0
M  V30 2430 H 242.734 3.93304 1.35834 0
M  V30 2431 H 241.61 5.0263 2.20578 0
M  V30 2432 H 241.871 3.40252 2.82279 0
M  V30 2433 N 240.93 -0.123565 1.57115 0
M  V30 2434 C 241.893 -1.13583 1.99076 0
M  V30 2435 C 242.893 -1.34564 0.880296 0
M  V30 2436 O 244.083 -1.31158 1.14644 0
M  V30 2437 C 241.215 -2.49128 2.32698 0
M  V30 2438 H 242.408 -0.775287 2.89706 0
M  V30 2439 H 239.961 -0.36771 1.51913 0
M  V30 2440 H 240.696 -2.90111 1.44934 0
M  V30 2441 H 240.481 -2.35255 3.13684 0
M  V30 2442 H 241.971 -3.2199 2.65918 0
M  V30 2443 N 242.408 -1.52605 -0.393616 0
M  V30 2444 C 243.819 -1.59417 -0.971761 0
M  V30 2445 C 244.17 -0.444173 -1.91106 0
M  V30 2446 O 243.295 0.433382 -2.12016 0
M  V30 2447 C 243.89 -2.88936 -1.76921 0
M  V30 2448 C 242.449 -2.98175 -2.29714 0
M  V30 2449 C 241.596 -2.54491 -1.10135 0
M  V30 2450 H 244.547 -1.57751 -0.173317 0
M  V30 2451 H 244.568 -2.75163 -2.62804 0
M  V30 2452 H 244.08 -3.72616 -1.08532 0
M  V30 2453 H 242.181 -2.19024 -3.01429 0
M  V30 2454 H 242.294 -4.02726 -2.59517 0
M  V30 2455 H 240.658 -2.08702 -1.45999 0
M  V30 2456 H 241.441 -3.4056 -0.432874 0
M  V30 2457 N 243.887 0.651787 -1.4349 0
M  V30 2458 C 245.115 1.43937 -1.48626 0
M  V30 2459 C 245.53 1.8851 -0.104587 0
M  V30 2460 O 244.887 1.5958 0.885464 0
M  V30 2461 C 244.938 2.6734 -2.43334 0
M  V30 2462 O 244.659 2.24631 -3.76128 0
M  V30 2463 C 246.16 3.60683 -2.57726 0
M  V30 2464 H 243.38 0.44213 -0.504739 0
M  V30 2465 H 245.924 0.798944 -1.88248 0
M  V30 2466 H 244.079 3.2752 -2.06904 0
M  V30 2467 H 244.493 3.04485 -4.2707 0
M  V30 2468 H 245.967 4.43933 -3.28067 0
M  V30 2469 H 246.444 4.08126 -1.62265 0
M  V30 2470 H 247.05 3.06384 -2.94973 0
M  V30 2471 N 245.365 1.30045 0.890287 0
M  V30 2472 C 246.781 1.08261 1.17268 0
M  V30 2473 C 246.981 -0.160063 2.00863 0
M  V30 2474 O 246.037 -0.855181 2.37577 0
M  V30 2475 C 247.35 2.34323 1.8845 0
M  V30 2476 C 248.898 2.39735 2.01237 0
M  V30 2477 C 249.373 3.65625 2.7583 0
M  V30 2478 N 250.864 3.66402 2.83379 0
M  V30 2479 C 251.599 4.60498 3.41657 0
M  V30 2480 N 251.095 5.64933 4.01026 0
M  V30 2481 N 252.888 4.48051 3.39421 0
M  V30 2482 H 245.039 2.09777 0.332762 0
M  V30 2483 H 247.302 0.92446 0.209948 0
M  V30 2484 H 247.008 3.2498 1.34465 0
M  V30 2485 H 246.882 2.4256 2.88867 0
M  V30 2486 H 249.269 1.4956 2.54393 0
M  V30 2487 H 249.35 2.35476 0.999232 0
M  V30 2488 H 248.994 4.56156 2.23347 0
M  V30 2489 H 248.924 3.67144 3.77509 0
M  V30 2490 H 251.415 2.90896 2.41222 0
M  V30 2491 H 251.728 6.32841 4.43545 0
M  V30 2492 H 250.073 5.68732 3.99461 0
M  V30 2493 H 253.264 3.65649 2.92264 0
M  V30 2494 H 253.437 5.21565 3.84544 0
M  V30 2495 N 246.843 -1.10192 1.12674 0
M  V30 2496 C 247.753 -2.20172 0.810026 0
M  V30 2497 C 248.769 -1.72821 -0.202188 0
M  V30 2498 O 249.945 -2.01369 -0.0351691 0
M  V30 2499 C 247.01 -3.45631 0.272007 0
M  V30 2500 C 246.071 -4.07704 1.34447 0
M  V30 2501 C 245.304 -5.27175 0.832029 0
M  V30 2502 O 245.527 -5.69425 -0.333284 0
M  V30 2503 O 244.461 -5.80168 1.60277 0
M  V30 2504 H 248.287 -2.49701 1.72867 0
M  V30 2505 H 245.872 -1.18977 0.903597 0
M  V30 2506 H 247.754 -4.21394 -0.0230219 0
M  V30 2507 H 246.429 -3.17723 -0.619164 0
M  V30 2508 H 245.336 -3.33614 1.6927 0
M  V30 2509 H 246.669 -4.3982 2.2095 0
M  V30 2510 N 248.321 -0.919034 -1.28029 0
M  V30 2511 C 249.269 -0.401753 -2.29104 0
M  V30 2512 C 250.263 0.509354 -1.61561 0
M  V30 2513 O 251.469 0.390014 -1.75724 0
M  V30 2514 H 247.844 -0.111331 -0.743713 0
M  V30 2515 H 249.815 -1.2672 -2.70156 0
M  V30 2516 C 248.564 0.338148 -3.46052 0
M  V30 2517 H 247.887 -0.353732 -3.98232 0
M  V30 2518 H 249.327 0.664653 -4.18758 0
M  V30 2519 C 247.786 1.54798 -2.99231 0
M  V30 2520 O 248.316 2.64696 -3.02157 0
M  V30 2521 N 246.522 1.3968 -2.54829 0
M  V30 2522 H 246.069 0.502698 -2.52647 0
M  V30 2523 H 246.027 2.20755 -2.23863 0
M  V30 2524 N 249.799 1.42003 -0.683588 0
M  V30 2525 C 250.729 2.33487 -0.024866 0
M  V30 2526 C 251.71 1.51163 0.779975 0
M  V30 2527 O 252.895 1.79739 0.735362 0
M  V30 2528 C 250.025 3.3487 0.920836 0
M  V30 2529 C 248.979 4.27414 0.223958 0
M  V30 2530 C 248.305 5.19074 1.2832 0
M  V30 2531 C 249.605 5.14445 -0.90242 0
M  V30 2532 H 251.299 2.88819 -0.788921 0
M  V30 2533 H 248.845 1.38873 -0.38083 0
M  V30 2534 H 250.798 3.97787 1.39081 0
M  V30 2535 H 249.522 2.77861 1.71642 0
M  V30 2536 H 248.181 3.65904 -0.225864 0
M  V30 2537 H 247.829 4.58387 2.071 0
M  V30 2538 H 247.529 5.81822 0.821995 0
M  V30 2539 H 249.053 5.84867 1.75392 0
M  V30 2540 H 250.467 5.70998 -0.513272 0
M  V30 2541 H 248.864 5.86072 -1.28997 0
M  V30 2542 H 249.934 4.52322 -1.74737 0
M  V30 2543 N 251.277 0.427512 1.51691 0
M  V30 2544 C 252.187 -0.39527 2.31246 0
M  V30 2545 C 253.203 -1.03674 1.39742 0
M  V30 2546 O 254.379 -1.03425 1.72816 0
M  V30 2547 C 251.444 -1.48706 3.13189 0
M  V30 2548 C 250.505 -0.866743 4.20459 0
M  V30 2549 C 249.738 -1.90651 4.98486 0
M  V30 2550 O 249.961 -3.12733 4.77026 0
M  V30 2551 O 248.895 -1.5025 5.82845 0
M  V30 2552 H 252.721 0.253918 3.02637 0
M  V30 2553 H 250.306 0.190274 1.48183 0
M  V30 2554 H 252.188 -2.12047 3.64162 0
M  V30 2555 H 250.863 -2.12051 2.44573 0
M  V30 2556 H 249.77 -0.195544 3.73589 0
M  V30 2557 H 251.103 -0.276934 4.9142 0
M  V30 2558 N 252.755 -1.56801 0.158532 0
M  V30 2559 C 253.718 -2.16138 -0.762705 0
M  V30 2560 C 254.718 -1.1061 -1.16713 0
M  V30 2561 O 255.908 -1.36191 -1.08617 0
M  V30 2562 C 253.04 -2.73386 -2.03649 0
M  V30 2563 H 254.233 -2.98886 -0.246354 0
M  V30 2564 H 251.786 -1.56035 -0.0909744 0
M  V30 2565 H 252.521 -1.94335 -2.59623 0
M  V30 2566 H 252.306 -3.50601 -1.75559 0
M  V30 2567 H 253.796 -3.19065 -2.6942 0
M  V30 2568 N 254.233 0.115231 -1.57178 0
M  V30 2569 C 255.48 0.822351 -1.8505 0
M  V30 2570 C 255.808 1.79701 -0.744168 0
M  V30 2571 O 255.063 1.93909 0.26414 0
M  V30 2572 C 255.362 1.60324 -3.19423 0
M  V30 2573 C 255.028 0.772536 -4.44233 0
M  V30 2574 C 253.69 0.543468 -4.78121 0
M  V30 2575 C 256.042 0.193746 -5.2084 0
M  V30 2576 C 253.37 -0.274583 -5.86057 0
M  V30 2577 C 255.722 -0.611517 -6.29637 0
M  V30 2578 C 254.386 -0.850867 -6.62055 0
M  V30 2579 H 253.656 0.30092 -0.677147 0
M  V30 2580 H 256.303 0.0845802 -1.91313 0
M  V30 2581 H 254.608 2.41203 -3.08753 0
M  V30 2582 H 256.305 2.1544 -3.38211 0
M  V30 2583 H 252.895 0.96117 -4.17683 0
M  V30 2584 H 257.079 0.357926 -4.95008 0
M  V30 2585 H 252.335 -0.469206 -6.09597 0
M  V30 2586 H 256.509 -1.06697 -6.88178 0
M  V30 2587 H 254.136 -1.48657 -7.45523 0
M  V30 2588 N 255.711 1.52812 0.385517 0
M  V30 2589 C 256.641 1.80808 1.47752 0
M  V30 2590 C 257.622 0.660318 1.5676 0
M  V30 2591 O 258.807 0.908246 1.71652 0
M  V30 2592 C 255.937 1.98008 2.85324 0
M  V30 2593 C 254.891 3.13709 2.91154 0
M  V30 2594 C 254.217 3.16169 4.31209 0
M  V30 2595 C 255.517 4.52709 2.60483 0
M  V30 2596 H 257.211 2.72253 1.24573 0
M  V30 2597 H 254.757 1.31003 0.597839 0
M  V30 2598 H 256.71 2.16176 3.61726 0
M  V30 2599 H 255.434 1.03255 3.09848 0
M  V30 2600 H 254.093 2.95329 2.17201 0
M  V30 2601 H 253.741 2.19092 4.52778 0
M  V30 2602 H 253.441 3.93894 4.36029 0
M  V30 2603 H 254.965 3.36496 5.09512 0
M  V30 2604 H 256.379 4.71173 3.26602 0
M  V30 2605 H 254.776 5.32528 2.76648 0
M  V30 2606 H 255.846 4.59186 1.55809 0
M  V30 2607 N 257.189 -0.644168 1.43834 0
M  V30 2608 C 258.605 -0.960875 1.27434 0
M  V30 2609 C 258.805 -2.00499 0.200618 0
M  V30 2610 O 257.861 -2.49018 -0.417906 0
M  V30 2611 C 259.174 -1.43653 2.64167 0
M  V30 2612 C 260.722 -1.55271 2.71772 0
M  V30 2613 C 261.197 -2.06224 4.08944 0
M  V30 2614 N 262.688 -2.13513 4.11055 0
M  V30 2615 C 263.423 -2.54081 5.14033 0
M  V30 2616 N 262.919 -2.9388 6.27381 0
M  V30 2617 N 264.712 -2.54101 5.01387 0
M  V30 2618 H 256.863 0.0465779 2.12349 0
M  V30 2619 H 259.126 -0.0417638 0.94708 0
M  V30 2620 H 258.832 -0.743706 3.43747 0
M  V30 2621 H 258.706 -2.40993 2.90176 0
M  V30 2622 H 261.093 -2.23653 1.92519 0
M  V30 2623 H 261.174 -0.563395 2.49519 0
M  V30 2624 H 260.818 -1.38441 4.88668 0
M  V30 2625 H 260.748 -3.06003 4.28567 0
M  V30 2626 H 263.239 -1.85493 3.29242 0
M  V30 2627 H 263.552 -3.2361 7.01781 0
M  V30 2628 H 261.897 -2.91663 6.30839 0
M  V30 2629 H 265.088 -2.22391 4.11898 0
M  V30 2630 H 265.261 -2.85394 5.81768 0
M  V30 2631 N 258.668 -1.30515 -0.883378 0
M  V30 2632 C 259.914 -1.19607 -1.63774 0
M  V30 2633 C 260.247 0.248314 -1.92606 0
M  V30 2634 O 259.522 1.17742 -1.54813 0
M  V30 2635 C 259.805 -2.02669 -2.97653 0
M  V30 2636 C 259.658 -3.55335 -2.75784 0
M  V30 2637 C 260.977 -1.86573 -3.98596 0
M  V30 2638 H 258.096 -0.435856 -0.594305 0
M  V30 2639 H 260.738 -1.60165 -1.02212 0
M  V30 2640 H 258.888 -1.68208 -3.50197 0
M  V30 2641 H 260.56 -3.99863 -2.30016 0
M  V30 2642 H 258.803 -3.79438 -2.1026 0
M  V30 2643 H 259.474 -4.08745 -3.70988 0
M  V30 2644 H 261.95 -2.16703 -3.55217 0
M  V30 2645 H 260.826 -2.47014 -4.90179 0
M  V30 2646 H 261.087 -0.825321 -4.34328 0
M  V30 2647 N 260.146 1.09593 -1.13257 0
M  V30 2648 C 261.079 2.15451 -0.752061 0
M  V30 2649 C 262.057 1.60493 0.260913 0
M  V30 2650 O 263.241 1.8788 0.152819 0
M  V30 2651 C 260.368 3.38506 -0.114594 0
M  V30 2652 C 259.414 4.12183 -1.09579 0
M  V30 2653 S 260.247 4.6661 -2.62745 0
M  V30 2654 C 261.403 5.92966 -2.00354 0
M  V30 2655 H 261.636 2.47395 -1.64872 0
M  V30 2656 H 259.169 1.21515 -0.952545 0
M  V30 2657 H 261.127 4.09757 0.246808 0
M  V30 2658 H 259.788 3.04784 0.759309 0
M  V30 2659 H 258.981 5.00445 -0.597545 0
M  V30 2660 H 258.583 3.46785 -1.40057 0
M  V30 2661 H 260.875 6.63882 -1.35156 0
M  V30 2662 H 261.818 6.47467 -2.86691 0
M  V30 2663 H 262.226 5.45405 -1.4558 0
M  V30 2664 N 261.624 0.925811 1.2754 0
M  V30 2665 C 262.87 0.566092 1.94739 0
M  V30 2666 C 263.203 -0.890057 1.72603 0
M  V30 2667 O 262.478 -1.63467 1.05399 0
M  V30 2668 C 262.761 0.89054 3.48915 0
M  V30 2669 C 262.614 2.4003 3.80402 0
M  V30 2670 C 263.933 0.395101 4.38323 0
M  V30 2671 H 261.052 0.20714 0.707292 0
M  V30 2672 H 263.694 1.15725 1.50691 0
M  V30 2673 H 261.844 0.387452 3.86563 0
M  V30 2674 H 263.516 2.97494 3.52555 0
M  V30 2675 H 261.759 2.85028 3.2702 0
M  V30 2676 H 262.43 2.57785 4.8811 0
M  V30 2677 H 264.906 0.826241 4.07814 0
M  V30 2678 H 263.782 0.651086 5.45025 0
M  V30 2679 H 264.043 -0.704798 4.36446 0
M  V30 2680 N 263.102 -1.41638 0.69111 0
M  V30 2681 C 264.332 -2.0533 0.228758 0
M  V30 2682 C 264.74 -1.52089 -1.12541 0
M  V30 2683 O 264.083 -0.662145 -1.71351 0
M  V30 2684 C 264.145 -3.59349 0.10407 0
M  V30 2685 C 263.809 -4.35362 1.38956 0
M  V30 2686 C 264.806 -4.64942 2.32648 0
M  V30 2687 C 262.491 -4.74714 1.64169 0
M  V30 2688 C 264.485 -5.32828 3.49818 0
M  V30 2689 C 262.172 -5.42338 2.81625 0
M  V30 2690 C 263.17 -5.71322 3.74273 0
M  V30 2691 O 262.858 -6.37554 4.89673 0
M  V30 2692 H 262.59 -0.667796 0.104997 0
M  V30 2693 H 265.144 -1.82477 0.942938 0
M  V30 2694 H 263.374 -3.80924 -0.665839 0
M  V30 2695 H 265.063 -4.04633 -0.320519 0
M  V30 2696 H 265.829 -4.35025 2.14425 0
M  V30 2697 H 261.708 -4.51538 0.929202 0
M  V30 2698 H 265.252 -5.55368 4.22152 0
M  V30 2699 H 261.149 -5.71673 2.99768 0
M  V30 2700 H 261.917 -6.56049 4.8943 0
M  V30 2701 N 264.58 -0.43555 -1.51462 0
M  V30 2702 C 265.857 0.191364 -1.94662 0
M  V30 2703 C 266.237 1.60254 -1.37411 0
M  V30 2704 O 265.585 2.2152 -0.560458 0
M  V30 2705 C 265.795 0.17091 -3.48581 0
M  V30 2706 C 267.143 0.377357 -4.2292 0
M  V30 2707 O 268.167 0.249104 -3.55328 0
M  V30 2708 O 267.026 0.63247 -5.42828 0
M  V30 2709 H 264.12 0.130932 -0.816569 0
M  V30 2710 H 266.666 -0.4934 -1.62369 0
M  V30 2711 H 265.438 -0.815738 -3.82703 0
M  V30 2712 H 265.061 0.898659 -3.87311 0
M  V30 2713 N 266.058 1.56714 -0.166846 0
M  V30 2714 C 267.005 2.17746 0.765193 0
M  V30 2715 C 267.975 1.11614 1.23011 0
M  V30 2716 O 269.16 1.39745 1.29908 0
M  V30 2717 C 266.3 2.81882 1.9909 0
M  V30 2718 C 265.413 4.02462 1.56997 0
M  V30 2719 C 264.548 4.54537 2.749 0
M  V30 2720 C 263.587 5.67538 2.29275 0
M  V30 2721 N 262.724 6.14142 3.40255 0
M  V30 2722 H 267.564 2.97048 0.237952 0
M  V30 2723 H 265.101 1.4672 0.105725 0
M  V30 2724 H 267.059 3.17221 2.70974 0
M  V30 2725 H 265.689 2.05191 2.49192 0
M  V30 2726 H 264.741 3.72973 0.748037 0
M  V30 2727 H 266.053 4.84273 1.19503 0
M  V30 2728 H 265.207 4.92035 3.54946 0
M  V30 2729 H 263.946 3.71774 3.1565 0
M  V30 2730 H 262.951 5.29597 1.47674 0
M  V30 2731 H 264.176 6.52099 1.89588 0
M  V30 2732 H 262.122 5.3431 3.8059 0
M  V30 2733 H 262.039 6.9093 3.06841 0
M  V30 2734 H 263.307 6.56289 4.206 0
M  V30 2735 N 267.536 -0.106894 1.57237 0
M  V30 2736 C 268.484 -1.14944 2.02215 0
M  V30 2737 C 269.478 -1.42167 0.92114 0
M  V30 2738 O 270.684 -1.41987 1.10634 0
M  V30 2739 H 267.059 -0.387841 0.64427 0
M  V30 2740 H 269.03 -0.743683 2.88984 0
M  V30 2741 C 267.779 -2.4647 2.4525 0
M  V30 2742 H 267.102 -2.26363 3.29545 0
M  V30 2743 H 268.542 -3.17948 2.80508 0
M  V30 2744 C 267.001 -3.09921 1.321 0
M  V30 2745 O 267.531 -3.9651 0.643622 0
M  V30 2746 N 265.737 -2.69986 1.07497 0
M  V30 2747 H 265.284 -1.99667 1.62761 0
M  V30 2748 H 265.242 -3.12769 0.319876 0
M  V30 2749 N 269.014 -1.53014 -0.377408 0
M  V30 2750 C 269.944 -1.81589 -1.46791 0
M  V30 2751 C 270.925 -0.668622 -1.56408 0
M  V30 2752 O 272.11 -0.917337 -1.71168 0
M  V30 2753 C 269.24 -1.99519 -2.8427 0
M  V30 2754 C 268.194 -3.15249 -2.89486 0
M  V30 2755 C 267.52 -3.18451 -4.29527 0
M  V30 2756 C 268.82 -4.54084 -2.58079 0
M  V30 2757 H 270.514 -2.7291 -1.23127 0
M  V30 2758 H 268.06 -1.31319 -0.590883 0
M  V30 2759 H 270.013 -2.18092 -3.60575 0
M  V30 2760 H 268.737 -1.04897 -3.09296 0
M  V30 2761 H 267.396 -2.96477 -2.15631 0
M  V30 2762 H 267.044 -2.2149 -4.5161 0
M  V30 2763 H 266.744 -3.962 -4.33934 0
M  V30 2764 H 268.268 -3.39193 -5.07721 0
M  V30 2765 H 269.682 -4.72899 -3.24098 0
M  V30 2766 H 268.079 -5.33987 -2.7382 0
M  V30 2767 H 269.149 -4.60006 -1.53372 0
M  V30 2768 N 270.492 0.636531 -1.44174 0
M  V30 2769 C 271.741 1.39213 -1.45954 0
M  V30 2770 C 272.054 1.95374 -0.0939119 0
M  V30 2771 O 273.26 2.71498 0.0107767 0
M  V30 2772 C 271.716 2.52025 -2.56927 0
M  V30 2773 C 271.324 2.024 -3.99673 0
M  V30 2774 C 273.068 3.29269 -2.67922 0
M  V30 2775 C 270.975 3.12521 -5.0208 0
M  V30 2776 H 269.905 0.523132 -0.542999 0
M  V30 2777 H 272.556 0.685349 -1.70221 0
M  V30 2778 H 270.938 3.25253 -2.25891 0
M  V30 2779 H 272.112 1.36073 -4.40251 0
M  V30 2780 H 270.427 1.37987 -3.92872 0
M  V30 2781 H 273.024 4.11352 -3.41605 0
M  V30 2782 H 273.367 3.78397 -1.73555 0
M  V30 2783 H 273.9 2.63129 -2.98342 0
M  V30 2784 H 270.639 2.68343 -5.98057 0
M  V30 2785 H 270.159 3.77507 -4.66099 0
M  V30 2786 H 271.838 3.77385 -5.25538 0
M  V30 2787 N 271.97 1.30982 0.876444 0
M  V30 2788 C 273.198 1.23242 1.6619 0
M  V30 2789 C 273.613 -0.203345 1.87702 0
M  V30 2790 O 272.97 -1.13317 1.43057 0
M  V30 2791 C 273.021 1.96623 3.03351 0
M  V30 2792 O 272.742 3.34594 2.82804 0
M  V30 2793 C 274.243 1.95644 3.97792 0
M  V30 2794 H 271.463 0.426126 0.518322 0
M  V30 2795 H 274.007 1.7275 1.09442 0
M  V30 2796 H 272.162 1.50892 3.56806 0
M  V30 2797 H 272.576 3.71873 3.69879 0
M  V30 2798 H 274.05 2.51511 4.91372 0
M  V30 2799 H 274.527 0.937395 4.2908 0
M  V30 2800 H 275.133 2.41225 3.50272 0
M  V30 2801 N 273.449 -1.08991 1.13837 0
M  V30 2802 C 274.86 -1.62746 0.914917 0
M  V30 2803 C 275.211 -1.88403 -0.547594 0
M  V30 2804 O 274.336 -1.63706 -1.41525 0
M  V30 2805 C 274.931 -2.95662 1.65437 0
M  V30 2806 C 273.49 -3.46225 1.47666 0
M  V30 2807 C 272.637 -2.20562 1.6807 0
M  V30 2808 H 275.588 -0.922946 1.29102 0
M  V30 2809 H 275.609 -3.63825 1.11407 0
M  V30 2810 H 275.121 -2.76956 2.71877 0
M  V30 2811 H 273.222 -3.70046 0.435478 0
M  V30 2812 H 273.335 -4.23368 2.24268 0
M  V30 2813 H 271.699 -2.29439 1.10589 0
M  V30 2814 H 272.482 -2.0437 2.7584 0
M  V30 2815 N 274.927 -0.932562 -1.27047 0
M  V30 2816 C 275.837 -0.441219 -2.30414 0
M  V30 2817 C 276.853 0.480525 -1.67233 0
M  V30 2818 O 278.029 0.362151 -1.98117 0
M  V30 2819 C 275.094 0.293651 -3.45454 0
M  V30 2820 C 274.155 -0.663601 -4.2414 0
M  V30 2821 C 273.388 0.0362932 -5.33688 0
M  V30 2822 O 273.611 1.2548 -5.56427 0
M  V30 2823 O 272.545 -0.638015 -5.98509 0
M  V30 2824 H 276.371 -1.29962 -2.74488 0
M  V30 2825 H 273.956 -0.6981 -1.32087 0
M  V30 2826 H 275.838 0.707951 -4.15411 0
M  V30 2827 H 274.513 1.12758 -3.03426 0
M  V30 2828 H 273.42 -1.12768 -3.56699 0
M  V30 2829 H 274.753 -1.46489 -4.69896 0
M  V30 2830 N 276.405 1.4127 -0.698611 0
M  V30 2831 C 277.335 2.33447 -0.049629 0
M  V30 2832 C 278.316 1.51982 0.763898 0
M  V30 2833 O 279.501 1.80509 0.716257 0
M  V30 2834 C 276.631 3.35828 0.885267 0
M  V30 2835 C 275.585 4.27627 0.178613 0
M  V30 2836 C 274.911 5.20406 1.22807 0
M  V30 2837 C 276.211 5.13459 -0.956933 0
M  V30 2838 H 277.905 2.87966 -0.81951 0
M  V30 2839 H 275.451 1.38461 -0.395538 0
M  V30 2840 H 277.404 3.9924 1.34854 0
M  V30 2841 H 276.128 2.79666 1.68685 0
M  V30 2842 H 274.787 3.65643 -0.26466 0
M  V30 2843 H 274.435 4.60558 2.02226 0
M  V30 2844 H 274.135 5.82661 0.760239 0
M  V30 2845 H 275.659 5.86695 1.69179 0
M  V30 2846 H 277.073 5.70421 -0.573805 0
M  V30 2847 H 275.47 5.8467 -1.35205 0
M  V30 2848 H 276.54 4.50443 -1.79524 0
M  V30 2849 N 277.883 0.443576 1.51229 0
M  V30 2850 C 279.129 -0.120975 2.02439 0
M  V30 2851 C 279.462 -1.41815 1.32674 0
M  V30 2852 O 278.737 -1.89373 0.443622 0
M  V30 2853 C 279.02 -0.333291 3.58554 0
M  V30 2854 C 278.873 0.982968 4.38928 0
M  V30 2855 C 280.192 -1.10028 4.26124 0
M  V30 2856 H 277.311 -0.0424923 0.735774 0
M  V30 2857 H 279.953 0.583794 1.80809 0
M  V30 2858 H 278.103 -0.933614 3.77115 0
M  V30 2859 H 279.775 1.61775 4.32003 0
M  V30 2860 H 278.018 1.58611 4.03763 0
M  V30 2861 H 278.689 0.788379 5.46341 0
M  V30 2862 H 281.165 -0.591711 4.11871 0
M  V30 2863 H 280.041 -1.21761 5.35225 0
M  V30 2864 H 280.302 -2.12996 3.87408 0
M  V30 2865 N 279.361 -1.56624 0.175154 0
M  V30 2866 C 280.638 -1.88688 -0.515373 0
M  V30 2867 C 281.018 -1.08564 -1.81044 0
M  V30 2868 O 280.366 -0.180703 -2.27784 0
M  V30 2869 C 280.576 -3.40768 -0.753552 0
M  V30 2870 C 281.924 -4.10587 -1.08184 0
M  V30 2871 O 282.948 -3.46106 -0.841961 0
M  V30 2872 O 281.807 -5.24512 -1.53459 0
M  V30 2873 H 278.901 -0.78301 -0.26613 0
M  V30 2874 H 281.447 -1.68347 0.213877 0
M  V30 2875 H 280.219 -3.90965 0.161829 0
M  V30 2876 H 279.842 -3.66733 -1.53598 0
M  V30 2877 N 280.839 0.0985539 -1.57292 0
M  V30 2878 C 281.771 1.14595 -1.98496 0
M  V30 2879 C 282.784 1.36512 -0.887031 0
M  V30 2880 O 283.973 1.35225 -1.16518 0
M  V30 2881 C 281.073 2.50216 -2.28572 0
M  V30 2882 C 280.246 2.48624 -3.59868 0
M  V30 2883 C 279.305 3.66146 -3.7792 0
M  V30 2884 O 278.331 3.48795 -4.49812 0
M  V30 2885 N 279.533 4.85496 -3.18235 0
M  V30 2886 H 282.298 0.795277 -2.88956 0
M  V30 2887 H 279.859 0.287579 -1.59325 0
M  V30 2888 H 281.851 3.27432 -2.37845 0
M  V30 2889 H 280.421 2.77387 -1.44136 0
M  V30 2890 H 279.641 1.56978 -3.61596 0
M  V30 2891 H 280.929 2.44635 -4.46129 0
M  V30 2892 H 280.327 5.02497 -2.59833 0
M  V30 2893 H 278.884 5.60317 -3.32999 0
M  V30 2894 N 282.317 1.53212 0.369288 0
M  V30 2895 C 283.733 1.42902 0.710712 0
M  V30 2896 C 283.933 0.565135 1.93413 0
M  V30 2897 O 282.989 0.0461484 2.52458 0
M  V30 2898 C 284.302 2.86042 0.927382 0
M  V30 2899 C 285.85 2.9565 1.02762 0
M  V30 2900 C 286.325 4.39843 1.27679 0
M  V30 2901 N 287.816 4.43256 1.34457 0
M  V30 2902 C 288.551 5.51929 1.55439 0
M  V30 2903 N 288.047 6.70655 1.73762 0
M  V30 2904 N 289.84 5.39502 1.57779 0
M  V30 2905 H 281.991 2.07888 -0.435457 0
M  V30 2906 H 284.254 0.938661 -0.132739 0
M  V30 2907 H 283.96 3.51557 0.100287 0
M  V30 2908 H 283.834 3.29472 1.83653 0
M  V30 2909 H 286.221 2.30291 1.84527 0
M  V30 2910 H 286.302 2.5562 0.0959504 0
M  V30 2911 H 285.946 5.05774 0.464175 0
M  V30 2912 H 285.876 4.77443 2.22162 0
M  V30 2913 H 288.367 3.5769 1.21926 0
M  V30 2914 H 288.68 7.49248 1.89335 0
M  V30 2915 H 287.025 6.73648 1.70948 0
M  V30 2916 H 290.216 4.45713 1.43029 0
M  V30 2917 H 290.389 6.2426 1.7379 0
M  V30 2918 N 283.795 -0.628877 1.44509 0
M  V30 2919 C 285.042 -1.38839 1.47411 0
M  V30 2920 C 285.37 -1.94202 0.10757 0
M  V30 2921 O 284.625 -1.74243 -0.890947 0
M  V30 2922 C 284.924 -2.56995 2.48371 0
M  V30 2923 C 284.59 -2.19908 3.93639 0
M  V30 2924 C 283.252 -2.09506 4.33198 0
M  V30 2925 C 285.604 -1.9064 4.85083 0
M  V30 2926 C 282.932 -1.68028 5.62124 0
M  V30 2927 C 285.284 -1.50655 6.14399 0
M  V30 2928 C 283.948 -1.38796 6.5291 0
M  V30 2929 H 283.218 -0.508048 0.539414 0
M  V30 2930 H 285.865 -0.712913 1.77735 0
M  V30 2931 H 284.17 -3.29786 2.11538 0
M  V30 2932 H 285.867 -3.15223 2.47861 0
M  V30 2933 H 282.457 -2.28922 3.62343 0
M  V30 2934 H 286.641 -1.97585 4.55273 0
M  V30 2935 H 281.897 -1.57452 5.90778 0
M  V30 2936 H 286.071 -1.27048 6.84713 0
M  V30 2937 H 283.698 -1.06429 7.52713 0
M  V30 2938 N 285.273 -1.31445 -0.869486 0
M  V30 2939 C 286.236 -1.19094 -1.9583 0
M  V30 2940 C 287.236 -0.117906 -1.60367 0
M  V30 2941 O 288.426 -0.367208 -1.70286 0
M  V30 2942 C 285.558 -0.828165 -3.30688 0
M  V30 2943 H 286.751 -2.15842 -2.08212 0
M  V30 2944 H 284.304 -1.15063 -1.05784 0
M  V30 2945 H 285.039 0.138142 -3.24006 0
M  V30 2946 H 284.824 -1.6038 -3.578 0
M  V30 2947 H 286.314 -0.765658 -4.10521 0
M  V30 2948 N 286.751 1.08385 -1.14413 0
M  V30 2949 C 287.681 2.17321 -0.854044 0
M  V30 2950 C 288.662 1.69024 0.191049 0
M  V30 2951 O 289.847 1.94141 0.0476779 0
M  V30 2952 C 286.977 3.45719 -0.330983 0
M  V30 2953 C 285.931 4.07409 -1.31155 0
M  V30 2954 C 285.257 5.30762 -0.64778 0
M  V30 2955 C 286.557 4.48665 -2.67388 0
M  V30 2956 H 288.251 2.41845 -1.76498 0
M  V30 2957 H 285.797 1.16233 -0.850051 0
M  V30 2958 H 287.75 4.21241 -0.115645 0
M  V30 2959 H 286.474 3.2075 0.615381 0
M  V30 2960 H 285.133 3.33919 -1.51306 0
M  V30 2961 H 284.781 5.02078 0.304398 0
M  V30 2962 H 284.481 5.72992 -1.30207 0
M  V30 2963 H 286.005 6.08998 -0.441972 0
M  V30 2964 H 287.419 5.15364 -2.51143 0
M  V30 2965 H 285.816 5.01814 -3.29093 0
M  V30 2966 H 286.886 3.60543 -3.24248 0
M  V30 2967 N 288.23 0.939286 1.26551 0
M  V30 2968 C 289.193 0.451987 2.24699 0
M  V30 2969 C 290.193 -0.435869 1.5478 0
M  V30 2970 O 291.383 -0.235314 1.72603 0
M  V30 2971 C 288.515 -0.348801 3.39111 0
M  V30 2972 H 289.708 1.3193 2.69322 0
M  V30 2973 H 287.261 0.721072 1.38673 0
M  V30 2974 H 287.996 -1.23444 2.99887 0
M  V30 2975 H 287.781 0.287945 3.91041 0
M  V30 2976 H 289.271 -0.679726 4.12031 0
M  V30 2977 N 289.708 -1.40897 0.706093 0
M  V30 2978 C 290.933 -2.05895 0.249435 0
M  V30 2979 C 291.358 -1.52823 -1.09666 0
M  V30 2980 O 290.716 -0.659589 -1.68876 0
M  V30 2981 C 290.764 -3.59872 0.22904 0
M  V30 2982 O 289.868 -4.04708 -0.792784 0
M  V30 2983 H 289.209 -0.653206 0.119241 0
M  V30 2984 H 291.739 -1.80471 0.96391 0
M  V30 2985 H 291.749 -4.07951 0.0634791 0
M  V30 2986 H 290.424 -3.97866 1.21141 0
M  V30 2987 H 289.001 -3.68111 -0.59572 0
M  V30 2988 N 291.186 -0.45159 -1.50991 0
M  V30 2989 C 292.414 0.108334 -2.06616 0
M  V30 2990 C 292.829 1.35224 -1.31757 0
M  V30 2991 O 292.186 1.78475 -0.381174 0
M  V30 2992 C 292.237 0.41619 -3.59096 0
M  V30 2993 O 291.958 -0.778361 -4.3113 0
M  V30 2994 C 293.459 1.02523 -4.31282 0
M  V30 2995 H 290.679 0.00159995 -0.670998 0
M  V30 2996 H 293.223 -0.634771 -1.94399 0
M  V30 2997 H 291.378 1.10921 -3.71181 0
M  V30 2998 H 291.792 -0.511181 -5.22003 0
M  V30 2999 H 293.266 1.19053 -5.39009 0
M  V30 3000 H 293.743 2.01013 -3.905 0
M  V30 3001 H 294.349 0.371173 -4.23677 0
M  V30 3002 N 292.664 1.56529 -0.183458 0
M  V30 3003 C 294.075 1.83739 0.331177 0
M  V30 3004 C 294.426 1.10373 1.62211 0
M  V30 3005 O 293.551 0.36071 2.13373 0
M  V30 3006 C 294.146 3.33306 0.607646 0
M  V30 3007 C 292.705 3.60969 1.06668 0
M  V30 3008 C 291.852 2.77086 0.109029 0
M  V30 3009 H 294.803 1.53379 -0.407484 0
M  V30 3010 H 294.824 3.51444 1.45832 0
M  V30 3011 H 294.336 3.86677 -0.332086 0
M  V30 3012 H 292.437 3.13021 2.0211 0
M  V30 3013 H 292.55 4.69231 0.967447 0
M  V30 3014 H 290.914 2.47319 0.608714 0
M  V30 3015 H 291.697 3.33241 -0.82494 0
M  V30 3016 N 294.142 -0.090211 1.57342 0
M  V30 3017 C 295.052 -1.12735 2.05738 0
M  V30 3018 C 296.068 -1.43557 0.983231 0
M  V30 3019 O 297.244 -1.54101 1.29672 0
M  V30 3020 C 294.309 -2.42659 2.47624 0
M  V30 3021 C 293.37 -2.18975 3.69254 0
M  V30 3022 C 292.603 -3.42704 4.09133 0
M  V30 3023 O 292.826 -4.51127 3.49057 0
M  V30 3024 O 291.76 -3.32003 5.02053 0
M  V30 3025 H 295.586 -0.746279 2.94388 0
M  V30 3026 H 293.171 -0.303064 1.46294 0
M  V30 3027 H 295.053 -3.19155 2.7517 0
M  V30 3028 H 293.728 -2.80182 1.62109 0
M  V30 3029 H 292.635 -1.40244 3.46818 0
M  V30 3030 H 293.968 -1.86342 4.55563 0
M  V30 3031 N 295.62 -1.53406 -0.361157 0
M  V30 3032 C 296.845 -1.74024 -1.12829 0
M  V30 3033 C 297.27 -0.470069 -1.82132 0
M  V30 3034 O 296.628 0.57619 -1.719 0
M  V30 3035 C 296.676 -2.90903 -2.13091 0
M  V30 3036 O 295.78 -2.59821 -3.20261 0
M  V30 3037 H 295.121 -0.577804 -0.327168 0
M  V30 3038 H 297.651 -2.00307 -0.41693 0
M  V30 3039 H 297.661 -3.17194 -2.56616 0
M  V30 3040 H 296.336 -3.83034 -1.62042 0
M  V30 3041 H 294.913 -2.44362 -2.81677 0
M  V30 3042 N 297.098 0.621204 -1.44841 0
M  V30 3043 C 298.028 1.74366 -1.55303 0
M  V30 3044 C 299.009 1.65199 -0.405385 0
M  V30 3045 O 300.194 1.83807 -0.626787 0
M  V30 3046 C 297.324 3.12931 -1.50637 0
M  V30 3047 C 296.278 3.36896 -2.63979 0
M  V30 3048 C 295.604 4.75594 -2.44366 0
M  V30 3049 C 296.904 3.28483 -4.06074 0
M  V30 3050 H 298.598 1.65867 -2.49256 0
M  V30 3051 H 296.144 0.796558 -1.19962 0
M  V30 3052 H 298.097 3.9124 -1.56555 0
M  V30 3053 H 296.821 3.22237 -0.532057 0
M  V30 3054 H 295.48 2.60972 -2.57467 0
M  V30 3055 H 295.128 4.81616 -1.45105 0
M  V30 3056 H 294.828 4.92586 -3.20364 0
M  V30 3057 H 296.352 5.5612 -2.52117 0
M  V30 3058 H 297.766 3.96684 -4.13902 0
M  V30 3059 H 296.163 3.57008 -4.82354 0
M  V30 3060 H 297.233 2.26133 -4.28943 0
M  V30 3061 N 298.576 1.31904 0.862503 0
M  V30 3062 C 299.804 1.24998 1.64873 0
M  V30 3063 C 300.219 -0.183425 1.87907 0
M  V30 3064 O 299.576 -1.11794 1.44251 0
M  V30 3065 C 299.627 1.99829 3.01248 0
M  V30 3066 O 299.348 3.37575 2.79239 0
M  V30 3067 C 300.849 1.99852 3.95694 0
M  V30 3068 H 298.069 0.431599 0.513773 0
M  V30 3069 H 300.613 1.73901 1.07604 0
M  V30 3070 H 298.768 1.54668 3.55185 0
M  V30 3071 H 299.182 3.75776 3.65914 0
M  V30 3072 H 300.656 2.56709 4.88676 0
M  V30 3073 H 301.133 0.982852 4.28062 0
M  V30 3074 H 301.739 2.44926 3.47694 0
M  V30 3075 N 300.054 -1.07777 1.14986 0
M  V30 3076 C 301.017 -2.13041 0.845358 0
M  V30 3077 C 302.017 -1.60071 -0.152931 0
M  V30 3078 O 303.207 -1.74033 0.0761879 0
M  V30 3079 C 300.339 -3.39896 0.261383 0
M  V30 3080 H 301.532 -2.41485 1.77834 0
M  V30 3081 H 299.085 -1.23595 0.956757 0
M  V30 3082 H 299.82 -3.17091 -0.68 0
M  V30 3083 H 299.605 -3.79642 0.980514 0
M  V30 3084 H 301.095 -4.17548 0.0657687 0
M  V30 3085 N 301.532 -0.945985 -1.26051 0
M  V30 3086 C 302.76 -0.613025 -1.9761 0
M  V30 3087 C 303.175 0.813035 -1.70397 0
M  V30 3088 O 302.532 1.54274 -0.974979 0
M  V30 3089 C 302.583 -0.85159 -3.51326 0
M  V30 3090 O 302.304 -2.22157 -3.77595 0
M  V30 3091 C 303.805 -0.529831 -4.40122 0
M  V30 3092 H 301.025 -0.230593 -0.630133 0
M  V30 3093 H 303.569 -1.268 -1.60443 0
M  V30 3094 H 301.724 -0.243151 -3.86636 0
M  V30 3095 H 302.138 -2.2852 -4.721 0
M  V30 3096 H 303.612 -0.747348 -5.46917 0
M  V30 3097 H 304.089 0.535341 -4.35925 0
M  V30 3098 H 304.695 -1.11721 -4.10364 0
M  V30 3099 N 303.011 1.40521 -0.713556 0
M  V30 3100 C 304.427 1.54839 -0.386907 0
M  V30 3101 C 304.627 1.68532 1.1045 0
M  V30 3102 O 303.683 1.67377 1.89053 0
M  V30 3103 C 304.996 2.77792 -1.15118 0
M  V30 3104 C 306.544 2.91607 -1.13729 0
M  V30 3105 C 307.019 4.1747 -1.88368 0
M  V30 3106 N 308.51 4.24466 -1.85427 0
M  V30 3107 C 309.245 5.20755 -2.40004 0
M  V30 3108 N 308.741 6.22965 -3.03129 0
M  V30 3109 N 310.534 5.1282 -2.30158 0
M  V30 3110 H 302.685 1.29879 -1.68063 0
M  V30 3111 H 304.948 0.627896 -0.710247 0
M  V30 3112 H 304.654 2.73944 -2.20561 0
M  V30 3113 H 304.528 3.6984 -0.741477 0
M  V30 3114 H 306.915 2.94959 -0.0910608 0
M  V30 3115 H 306.996 2.00682 -1.5862 0
M  V30 3116 H 306.64 4.1488 -2.9298 0
M  V30 3117 H 306.57 5.074 -1.40898 0
M  V30 3118 H 309.061 3.51241 -1.3942 0
M  V30 3119 H 309.374 6.92859 -3.42295 0
M  V30 3120 H 307.719 6.23415 -3.07212 0
M  V30 3121 H 310.91 4.31899 -1.80501 0
M  V30 3122 H 311.083 5.87689 -2.72993 0
M  V30 3123 N 304.489 0.459591 1.5075 0
M  V30 3124 C 305.452 -0.329093 2.26825 0
M  V30 3125 C 306.452 -0.930481 1.31144 0
M  V30 3126 O 307.642 -0.801453 1.54669 0
M  V30 3127 C 304.774 -1.46768 3.07688 0
M  V30 3128 H 305.967 0.337924 2.9799 0
M  V30 3129 H 303.52 0.213336 1.54837 0
M  V30 3130 H 304.255 -2.17009 2.40993 0
M  V30 3131 H 304.04 -1.04238 3.77991 0
M  V30 3132 H 305.53 -2.02433 3.65254 0
M  V30 3133 N 305.967 -1.56429 0.191757 0
M  V30 3134 C 306.9 -2.14829 -0.76967 0
M  V30 3135 C 307.878 -1.08405 -1.2119 0
M  V30 3136 O 309.062 -1.36498 -1.30002 0
M  V30 3137 C 306.189 -2.70446 -2.03903 0
M  V30 3138 C 305.235 -3.89428 -1.7392 0
M  V30 3139 S 306.068 -5.28048 -0.890265 0
M  V30 3140 C 307.224 -5.87085 -2.16984 0
M  V30 3141 H 307.457 -2.96042 -0.273204 0
M  V30 3142 H 304.99 -1.54383 -0.0231975 0
M  V30 3143 H 306.948 -3.03134 -2.76803 0
M  V30 3144 H 305.609 -1.89281 -2.50662 0
M  V30 3145 H 304.802 -4.26742 -2.68155 0
M  V30 3146 H 304.404 -3.57732 -1.09103 0
M  V30 3147 H 306.696 -6.01244 -3.12269 0
M  V30 3148 H 307.639 -6.83747 -1.84108 0
M  V30 3149 H 308.047 -5.15663 -2.29678 0
M  V30 3150 N 307.445 0.0818655 -1.57387 0
M  V30 3151 C 308.693 0.781368 -1.86384 0
M  V30 3152 C 309.014 1.78618 -0.782342 0
M  V30 3153 O 308.284 1.94976 0.190061 0
M  V30 3154 H 306.864 0.291562 -0.687751 0
M  V30 3155 H 309.526 0.060348 -1.94807 0
M  V30 3156 H 308.622 1.3038 -2.83562 0
M  V30 3157 N 308.923 1.53595 0.353017 0
M  V30 3158 C 309.87 1.80919 1.43308 0
M  V30 3159 C 310.84 0.654288 1.5267 0
M  V30 3160 O 312.025 0.897759 1.6836 0
M  V30 3161 C 309.165 2.01605 2.80089 0
M  V30 3162 C 308.278 3.29321 2.79593 0
M  V30 3163 C 307.413 3.40125 4.0803 0
M  V30 3164 C 306.452 4.61826 4.01725 0
M  V30 3165 N 305.589 4.69716 5.21834 0
M  V30 3166 H 310.429 2.73074 1.19308 0
M  V30 3167 H 307.966 1.35263 0.578131 0
M  V30 3168 H 309.924 2.11586 3.59565 0
M  V30 3169 H 308.554 1.12772 3.0246 0
M  V30 3170 H 307.606 3.28229 1.92276 0
M  V30 3171 H 308.918 4.18884 2.70809 0
M  V30 3172 H 308.072 3.49488 4.95927 0
M  V30 3173 H 306.811 2.48601 4.19582 0
M  V30 3174 H 305.816 4.52552 3.12213 0
M  V30 3175 H 307.041 5.54705 3.91764 0
M  V30 3176 H 304.987 3.81097 5.33948 0
M  V30 3177 H 304.904 5.53202 5.1527 0
M  V30 3178 H 306.172 4.83376 6.11529 0
M  V30 3179 N 310.401 -0.613514 1.45168 0
M  V30 3180 C 311.626 -1.40437 1.52618 0
M  V30 3181 C 312.051 -1.87438 0.157707 0
M  V30 3182 O 311.409 -1.59791 -0.856537 0
M  V30 3183 C 311.457 -2.58894 2.51011 0
M  V30 3184 O 310.561 -3.59326 2.02382 0
M  V30 3185 H 309.902 -0.419506 0.514695 0
M  V30 3186 H 312.432 -0.747215 1.90467 0
M  V30 3187 H 312.442 -3.06214 2.69624 0
M  V30 3188 H 311.117 -2.24032 3.50403 0
M  V30 3189 H 309.694 -3.18695 1.93618 0
M  V30 3190 N 311.879 -1.3236 -0.855495 0
M  V30 3191 C 313.126 -1.22872 -1.60962 0
M  V30 3192 C 313.454 0.209658 -1.93367 0
M  V30 3193 O 312.709 1.16243 -1.57436 0
M  V30 3194 C 313.008 -2.03275 -2.93963 0
M  V30 3195 C 312.674 -3.5264 -2.80991 0
M  V30 3196 C 311.336 -3.93364 -2.7716 0
M  V30 3197 C 313.688 -4.47626 -2.66983 0
M  V30 3198 C 311.016 -5.27319 -2.572 0
M  V30 3199 C 313.368 -5.81723 -2.48558 0
M  V30 3200 C 312.032 -6.2165 -2.4312 0
M  V30 3201 H 311.302 -0.44962 -0.589001 0
M  V30 3202 H 313.949 -1.63777 -0.992442 0
M  V30 3203 H 312.254 -1.55095 -3.59795 0
M  V30 3204 H 313.951 -1.93303 -3.51333 0
M  V30 3205 H 310.541 -3.20295 -2.84797 0
M  V30 3206 H 314.725 -4.17084 -2.68988 0
M  V30 3207 H 309.981 -5.57311 -2.51424 0
M  V30 3208 H 314.155 -6.5494 -2.36699 0
M  V30 3209 H 311.782 -7.25388 -2.27412 0
M  V30 3210 N 313.357 1.07166 -1.15556 0
M  V30 3211 C 314.32 2.12589 -0.856644 0
M  V30 3212 C 315.32 1.6015 0.14444 0
M  V30 3213 O 316.51 1.7399 -0.0854163 0
M  V30 3214 C 313.642 3.39753 -0.279405 0
M  V30 3215 H 314.835 2.40539 -1.79112 0
M  V30 3216 H 312.388 1.23086 -0.963298 0
M  V30 3217 H 313.123 3.17447 0.663174 0
M  V30 3218 H 312.908 3.79117 -1.00063 0
M  V30 3219 H 314.398 4.17507 -0.0879113 0
M  V30 3220 N 314.835 0.952656 1.25548 0
M  V30 3221 C 316.083 0.605176 1.92826 0
M  V30 3222 C 316.404 -0.860261 1.74999 0
M  V30 3223 O 315.674 -1.6125 1.11244 0
M  V30 3224 H 314.254 0.220832 0.713612 0
M  V30 3225 H 316.916 1.21047 1.52754 0
M  V30 3226 H 316.012 0.832798 3.00784 0
M  V30 3227 N 316.313 -1.40141 0.720998 0
M  V30 3228 C 317.276 -2.29058 0.0805834 0
M  V30 3229 C 318.276 -1.45632 -0.681758 0
M  V30 3230 O 319.466 -1.6648 -0.512856 0
M  V30 3231 C 316.598 -3.28925 -0.895593 0
M  V30 3232 H 317.791 -2.87191 0.863793 0
M  V30 3233 H 315.344 -1.48553 0.485975 0
M  V30 3234 H 316.079 -2.75822 -1.70566 0
M  V30 3235 H 315.864 -3.90519 -0.351766 0
M  V30 3236 H 317.354 -3.95494 -1.34069 0
M  V30 3237 N 317.792 -0.46758 -1.50504 0
M  V30 3238 C 319.069 0.15003 -1.95024 0
M  V30 3239 C 319.449 1.57304 -1.40779 0
M  V30 3240 O 318.797 2.20281 -0.607319 0
M  V30 3241 C 319.007 0.0969324 -3.48865 0
M  V30 3242 C 320.355 0.287565 -4.23625 0
M  V30 3243 O 321.379 0.173678 -3.55776 0
M  V30 3244 O 320.238 0.517186 -5.44047 0
M  V30 3245 H 317.332 0.113582 -0.819163 0
M  V30 3246 H 319.878 -0.52773 -1.61286 0
M  V30 3247 H 318.65 -0.896732 -3.80886 0
M  V30 3248 H 318.273 0.816303 -3.8913 0
M  V30 3249 N 319.27 1.56325 -0.20005 0
M  V30 3250 C 320.517 1.97719 0.437411 0
M  V30 3251 C 320.845 1.08709 1.61284 0
M  V30 3252 O 320.1 0.127261 1.95286 0
M  V30 3253 C 320.399 3.4495 0.935103 0
M  V30 3254 C 320.065 4.5072 -0.12749 0
M  V30 3255 C 318.727 4.79368 -0.419451 0
M  V30 3256 C 321.079 5.14268 -0.847231 0
M  V30 3257 C 318.407 5.68854 -1.43604 0
M  V30 3258 C 320.759 6.04852 -1.85301 0
M  V30 3259 C 319.423 6.31855 -2.15211 0
M  V30 3260 H 318.693 0.723507 0.16006 0
M  V30 3261 H 321.34 1.89166 -0.298056 0
M  V30 3262 H 319.645 3.50599 1.74894 0
M  V30 3263 H 321.342 3.74337 1.43781 0
M  V30 3264 H 317.932 4.28458 0.11023 0
M  V30 3265 H 322.116 4.92222 -0.634901 0
M  V30 3266 H 317.372 5.88047 -1.67364 0
M  V30 3267 H 321.546 6.53152 -2.41591 0
M  V30 3268 H 319.173 7.00994 -2.94129 0
M  V30 3269 N 320.748 -0.0735177 1.57428 0
M  V30 3270 C 321.658 -1.10547 2.06922 0
M  V30 3271 C 322.674 -1.42506 0.998402 0
M  V30 3272 O 323.85 -1.52717 1.31299 0
M  V30 3273 C 320.915 -2.40019 2.50184 0
M  V30 3274 C 319.976 -2.15046 3.71556 0
M  V30 3275 C 319.209 -3.38345 4.12745 0
M  V30 3276 O 319.432 -4.47399 3.53822 0
M  V30 3277 O 318.366 -3.2666 5.05546 0
M  V30 3278 H 322.192 -0.715013 2.95163 0
M  V30 3279 H 319.777 -0.287531 1.46607 0
M  V30 3280 H 321.659 -3.16218 2.78539 0
M  V30 3281 H 320.334 -2.78447 1.65072 0
M  V30 3282 H 319.241 -1.36558 3.48285 0
M  V30 3283 H 320.574 -1.81499 4.57514 0
M  V30 3284 N 322.226 -1.5378 -0.344866 0
M  V30 3285 C 323.189 -1.80981 -1.40637 0
M  V30 3286 C 324.189 -0.680816 -1.45676 0
M  V30 3287 O 325.379 -0.949095 -1.46075 0
M  V30 3288 C 322.511 -1.95063 -2.79577 0
M  V30 3289 H 323.704 -2.75803 -1.17783 0
M  V30 3290 H 321.257 -1.45173 -0.579181 0
M  V30 3291 H 321.992 -1.02379 -3.07716 0
M  V30 3292 H 321.777 -2.77198 -2.77315 0
M  V30 3293 H 323.267 -2.17629 -3.56409 0
M  V30 3294 N 323.704 0.605807 -1.45491 0
M  V30 3295 C 324.952 1.36207 -1.49305 0
M  V30 3296 C 325.273 1.94519 -0.136863 0
M  V30 3297 O 324.543 1.77261 0.833983 0
M  V30 3298 H 323.123 0.50565 -0.549843 0
M  V30 3299 H 325.785 0.711239 -1.81459 0
M  V30 3300 H 324.881 2.18058 -2.23287 0
M  V30 3301 N 325.182 1.32811 0.848464 0
M  V30 3302 C 326.115 1.16601 1.96162 0
M  V30 3303 C 327.093 0.0638855 1.62474 0
M  V30 3304 O 328.277 0.224348 1.8716 0
M  V30 3305 C 325.404 0.786333 3.29446 0
M  V30 3306 C 324.45 1.89459 3.8211 0
M  V30 3307 S 325.283 3.50395 4.04949 0
M  V30 3308 C 326.439 3.14413 5.41198 0
M  V30 3309 H 326.672 2.10832 2.09612 0
M  V30 3310 H 324.205 1.17543 1.00115 0
M  V30 3311 H 326.163 0.574044 4.06466 0
M  V30 3312 H 324.824 -0.137218 3.138 0
M  V30 3313 H 324.017 1.58207 4.78526 0
M  V30 3314 H 323.619 2.06304 3.11953 0
M  V30 3315 H 325.911 2.64642 6.23675 0
M  V30 3316 H 326.854 4.09874 5.77416 0
M  V30 3317 H 327.262 2.51266 5.05495 0
M  V30 3318 N 326.66 -1.06551 1.16123 0
M  V30 3319 C 327.593 -2.13382 0.80892 0
M  V30 3320 C 328.571 -1.61128 -0.21827 0
M  V30 3321 O 329.755 -1.88219 -0.102952 0
M  V30 3322 C 326.882 -3.38083 0.204303 0
M  V30 3323 C 325.928 -4.09133 1.20469 0
M  V30 3324 S 326.761 -4.5948 2.75024 0
M  V30 3325 C 327.917 -5.87446 2.16005 0
M  V30 3326 H 328.15 -2.42937 1.71373 0
M  V30 3327 H 325.683 -1.18947 0.984428 0
M  V30 3328 H 327.641 -4.10268 -0.138081 0
M  V30 3329 H 326.302 -3.0669 -0.678234 0
M  V30 3330 H 325.495 -4.98685 0.730019 0
M  V30 3331 H 325.097 -3.4295 1.49202 0
M  V30 3332 H 327.389 -6.60065 1.5271 0
M  V30 3333 H 328.332 -6.39639 3.03756 0
M  V30 3334 H 328.74 -5.41354 1.59989 0
M  V30 3335 N 328.138 -0.959301 -1.25041 0
M  V30 3336 C 329.384 -0.627096 -1.93492 0
M  V30 3337 C 329.739 0.827484 -1.73696 0
M  V30 3338 O 329.032 1.58651 -1.07427 0
M  V30 3339 C 329.226 -0.927136 -3.45165 0
M  V30 3340 C 329.055 -2.40933 -3.79712 0
M  V30 3341 C 327.825 -3.0677 -4.01522 0
M  V30 3342 C 330.023 -3.38894 -3.86853 0
M  V30 3343 N 328.005 -4.44815 -4.231 0
M  V30 3344 C 329.376 -4.62263 -4.13174 0
M  V30 3345 C 331.431 -3.33668 -3.69554 0
M  V30 3346 C 330.134 -5.81052 -4.23995 0
M  V30 3347 C 332.16 -4.518 -3.81616 0
M  V30 3348 C 331.522 -5.73957 -4.08354 0
M  V30 3349 H 327.621 -0.280166 -0.73009 0
M  V30 3350 H 330.205 -1.23244 -1.50729 0
M  V30 3351 H 328.376 -0.350685 -3.86814 0
M  V30 3352 H 330.108 -0.554361 -4.00885 0
M  V30 3353 H 326.863 -2.57327 -3.97593 0
M  V30 3354 H 327.287 -5.16319 -4.37885 0
M  V30 3355 H 331.929 -2.40268 -3.47895 0
M  V30 3356 H 329.647 -6.74888 -4.44468 0
M  V30 3357 H 333.233 -4.49309 -3.69612 0
M  V30 3358 H 332.113 -6.6384 -4.17475 0
M  V30 3359 N 329.616 1.39756 -0.72842 0
M  V30 3360 C 331.032 1.5442 -0.403308 0
M  V30 3361 C 331.232 1.69694 1.08656 0
M  V30 3362 O 330.288 1.69373 1.87267 0
M  V30 3363 C 331.601 2.76555 -1.18058 0
M  V30 3364 C 333.149 2.90384 -1.16815 0
M  V30 3365 C 333.624 4.15449 -1.92785 0
M  V30 3366 N 335.115 4.22475 -1.89918 0
M  V30 3367 C 335.85 5.1818 -2.45514 0
M  V30 3368 N 335.346 6.19714 -3.09719 0
M  V30 3369 N 337.139 5.1035 -2.35584 0
M  V30 3370 H 329.29 1.28089 -1.69431 0
M  V30 3371 H 331.553 0.620327 -0.716867 0
M  V30 3372 H 331.259 2.7159 -2.23455 0
M  V30 3373 H 331.133 3.69033 -0.780662 0
M  V30 3374 H 333.52 2.94846 -0.12234 0
M  V30 3375 H 333.601 1.98988 -1.6074 0
M  V30 3376 H 333.245 4.11749 -2.97364 0
M  V30 3377 H 333.175 5.05877 -1.46272 0
M  V30 3378 H 335.666 3.49743 -1.43138 0
M  V30 3379 H 335.979 6.8919 -3.49625 0
M  V30 3380 H 334.324 6.20121 -3.13807 0
M  V30 3381 H 337.515 4.2996 -1.85072 0
M  V30 3382 H 337.688 5.84761 -2.79211 0
M  V30 3383 N 331.094 0.475555 1.50254 0
M  V30 3384 C 332.004 -0.321501 2.32387 0
M  V30 3385 C 333.02 -0.991755 1.42969 0
M  V30 3386 O 334.196 -0.978747 1.76018 0
M  V30 3387 C 331.261 -1.38667 3.17762 0
M  V30 3388 C 330.322 -0.732538 4.23004 0
M  V30 3389 C 329.555 -1.74695 5.04299 0
M  V30 3390 O 329.778 -2.97399 4.86734 0
M  V30 3391 O 328.712 -1.31631 5.8733 0
M  V30 3392 H 332.538 0.350071 3.01676 0
M  V30 3393 H 330.123 0.237321 1.47503 0
M  V30 3394 H 332.005 -2.00354 3.70724 0
M  V30 3395 H 330.68 -2.04163 2.51196 0
M  V30 3396 H 329.587 -0.0765902 3.74022 0
M  V30 3397 H 330.92 -0.120452 4.92053 0
M  V30 3398 N 332.573 -1.56217 0.208337 0
M  V30 3399 C 333.819 -1.98242 -0.427552 0
M  V30 3400 C 334.152 -1.09554 -1.60348 0
M  V30 3401 O 333.427 -0.15035 -1.93918 0
M  V30 3402 C 333.71 -3.4931 -0.874907 0
M  V30 3403 C 333.563 -4.48773 0.303751 0
M  V30 3404 C 334.882 -4.04424 -1.73577 0
M  V30 3405 H 332.001 -0.720744 -0.153936 0
M  V30 3406 H 334.643 -1.87586 0.30192 0
M  V30 3407 H 332.793 -3.58522 -1.49648 0
M  V30 3408 H 334.465 -4.51586 0.941682 0
M  V30 3409 H 332.708 -4.23194 0.953375 0
M  V30 3410 H 333.379 -5.51976 -0.0519883 0
M  V30 3411 H 335.855 -3.98075 -1.21143 0
M  V30 3412 H 334.731 -5.1047 -2.01771 0
M  V30 3413 H 334.992 -3.50494 -2.69456 0
M  V30 3414 N 334.051 0.0651679 -1.57465 0
M  V30 3415 C 335.281 0.774683 -1.91526 0
M  V30 3416 C 335.689 1.71305 -0.803196 0
M  V30 3417 O 335.032 1.82231 0.231881 0
M  V30 3418 C 335.094 1.61645 -3.21109 0
M  V30 3419 C 334.758 0.846753 -4.49087 0
M  V30 3420 C 335.755 0.163024 -5.19644 0
M  V30 3421 C 333.44 0.811966 -4.95694 0
M  V30 3422 C 335.434 -0.54519 -6.35064 0
M  V30 3423 C 333.121 0.0999836 -6.11018 0
M  V30 3424 C 334.119 -0.577388 -6.80555 0
M  V30 3425 O 333.807 -1.27789 -7.93678 0
M  V30 3426 H 333.539 0.225031 -0.637446 0
M  V30 3427 H 336.093 0.0377134 -2.05365 0
M  V30 3428 H 334.323 2.39638 -3.03497 0
M  V30 3429 H 336.012 2.20525 -3.40769 0
M  V30 3430 H 336.778 0.181163 -4.84662 0
M  V30 3431 H 332.657 1.32867 -4.41438 0
M  V30 3432 H 336.201 -1.07446 -6.89276 0
M  V30 3433 H 332.098 0.0797945 -6.45451 0
M  V30 3434 H 332.866 -1.18784 -8.09835 0
M  V30 3435 N 335.529 1.53961 0.336706 0
M  V30 3436 C 336.945 1.44378 0.680241 0
M  V30 3437 C 337.145 0.606034 1.9217 0
M  V30 3438 O 336.201 0.099688 2.52303 0
M  V30 3439 C 337.514 2.87945 0.8665 0
M  V30 3440 C 339.062 2.97763 0.964682 0
M  V30 3441 C 339.537 4.42453 1.18321 0
M  V30 3442 N 341.028 4.46008 1.25025 0
M  V30 3443 C 341.763 5.55102 1.43697 0
M  V30 3444 N 341.259 6.7419 1.59498 0
M  V30 3445 N 343.052 5.42727 1.463 0
M  V30 3446 H 335.203 2.06918 -0.479455 0
M  V30 3447 H 337.466 0.935634 -0.152619 0
M  V30 3448 H 337.172 3.51691 0.0256937 0
M  V30 3449 H 337.046 3.33293 1.76623 0
M  V30 3450 H 339.433 2.34153 1.796 0
M  V30 3451 H 339.514 2.55766 0.041708 0
M  V30 3452 H 339.158 5.06645 0.356788 0
M  V30 3453 H 339.088 4.82048 2.11985 0
M  V30 3454 H 341.579 3.60196 1.14312 0
M  V30 3455 H 341.892 7.53095 1.734 0
M  V30 3456 H 340.237 6.77123 1.56621 0
M  V30 3457 H 343.428 4.48647 1.33543 0
M  V30 3458 H 343.601 6.27806 1.6051 0
M  V30 3459 N 337.007 -0.598083 1.45811 0
M  V30 3460 C 337.937 -1.71873 1.58057 0
M  V30 3461 C 338.918 -1.64533 0.431615 0
M  V30 3462 O 340.103 -1.82787 0.65595 0
M  V30 3463 C 337.233 -3.10495 1.55597 0
M  V30 3464 C 336.187 -3.32654 2.69305 0
M  V30 3465 C 335.513 -4.71646 2.51902 0
M  V30 3466 C 336.813 -3.21981 4.11248 0
M  V30 3467 H 338.507 -1.61881 2.51863 0
M  V30 3468 H 336.053 -0.777372 1.21214 0
M  V30 3469 H 338.006 -3.88699 1.6276 0
M  V30 3470 H 336.73 -3.2135 0.583255 0
M  V30 3471 H 335.389 -2.56843 2.61586 0
M  V30 3472 H 335.037 -4.79246 1.52748 0
M  V30 3473 H 334.737 -4.87426 3.2816 0
M  V30 3474 H 336.261 -5.52038 2.60933 0
M  V30 3475 H 337.675 -3.90049 4.20161 0
M  V30 3476 H 336.072 -3.49289 4.87972 0
M  V30 3477 H 337.142 -2.1928 4.32486 0
M  V30 3478 N 338.485 -1.33259 -0.841409 0
M  V30 3479 C 339.901 -1.12538 -1.13169 0
M  V30 3480 C 340.101 0.0854037 -2.01319 0
M  V30 3481 O 339.157 0.766417 -2.40587 0
M  V30 3482 C 340.47 -2.41156 -1.79623 0
M  V30 3483 C 342.018 -2.47038 -1.922 0
M  V30 3484 C 342.493 -3.7561 -2.6207 0
M  V30 3485 N 343.984 -3.76667 -2.69585 0
M  V30 3486 C 344.719 -4.72861 -3.2433 0
M  V30 3487 N 344.215 -5.79428 -3.79783 0
M  V30 3488 N 346.008 -4.6034 -3.22558 0
M  V30 3489 H 338.159 -2.10868 -0.254676 0
M  V30 3490 H 340.422 -0.931615 -0.175493 0
M  V30 3491 H 340.128 -3.29747 -1.22311 0
M  V30 3492 H 340.002 -2.53114 -2.79666 0
M  V30 3493 H 342.389 -1.58898 -2.48667 0
M  V30 3494 H 342.47 -2.39022 -0.911148 0
M  V30 3495 H 342.114 -4.64131 -2.06263 0
M  V30 3496 H 342.044 -3.80902 -3.63622 0
M  V30 3497 H 344.535 -2.99648 -2.30259 0
M  V30 3498 H 344.848 -6.48867 -4.19752 0
M  V30 3499 H 343.193 -5.83166 -3.78078 0
M  V30 3500 H 346.384 -3.76244 -2.78492 0
M  V30 3501 H 346.557 -5.35478 -3.64921 0
M  V30 3502 N 339.963 1.05934 -1.16686 0
M  V30 3503 C 340.895 2.13468 -0.834503 0
M  V30 3504 C 341.908 1.62013 0.15984 0
M  V30 3505 O 343.097 1.7838 -0.0654228 0
M  V30 3506 C 340.197 3.3817 -0.222361 0
M  V30 3507 C 339.37 4.18928 -1.25771 0
M  V30 3508 C 338.429 5.21985 -0.664703 0
M  V30 3509 O 337.455 5.53334 -1.33453 0
M  V30 3510 N 338.657 5.77919 0.546834 0
M  V30 3511 H 341.422 2.42578 -1.75999 0
M  V30 3512 H 338.983 1.21967 -1.06469 0
M  V30 3513 H 340.975 4.04266 0.187472 0
M  V30 3514 H 339.545 3.06655 0.606758 0
M  V30 3515 H 338.765 3.48433 -1.84358 0
M  V30 3516 H 340.053 4.69687 -1.95631 0
M  V30 3517 H 339.451 5.54721 1.10912 0
M  V30 3518 H 338.008 6.45573 0.898829 0
M  V30 3519 N 341.441 0.965919 1.2453 0
M  V30 3520 C 342.852 0.665929 1.7442 0
M  V30 3521 C 343.203 -0.818407 1.78316 0
M  V30 3522 O 342.328 -1.64037 1.41141 0
M  V30 3523 C 342.923 1.20211 3.16757 0
M  V30 3524 C 341.482 0.952059 3.6416 0
M  V30 3525 C 340.629 1.33848 2.42858 0
M  V30 3526 H 343.58 1.14144 1.10258 0
M  V30 3527 H 343.601 0.567544 3.76244 0
M  V30 3528 H 343.113 2.28244 3.13889 0
M  V30 3529 H 341.214 -0.112821 3.72429 0
M  V30 3530 H 341.327 1.59645 4.51719 0
M  V30 3531 H 339.691 0.756864 2.43195 0
M  V30 3532 H 340.474 2.42827 2.42673 0
M  V30 3533 N 342.919 -1.39368 0.735821 0
M  V30 3534 C 344.165 -2.00794 0.284544 0
M  V30 3535 C 344.498 -1.58255 -1.12557 0
M  V30 3536 O 343.773 -0.811819 -1.76748 0
M  V30 3537 C 344.056 -3.58011 0.387337 0
M  V30 3538 C 343.909 -4.10566 1.83728 0
M  V30 3539 C 345.228 -4.395 -0.22975 0
M  V30 3540 H 342.347 -0.729501 0.104866 0
M  V30 3541 H 344.989 -1.65564 0.93213 0
M  V30 3542 H 343.139 -3.88154 -0.164006 0
M  V30 3543 H 344.811 -3.91139 2.44556 0
M  V30 3544 H 343.054 -3.64095 2.35833 0
M  V30 3545 H 343.725 -5.19702 1.86047 0
M  V30 3546 H 346.201 -4.15406 0.240257 0
M  V30 3547 H 345.077 -5.48752 -0.127485 0
M  V30 3548 H 345.338 -4.22062 -1.3159 0
M  V30 3549 N 344.397 -0.483516 -1.5 0
M  V30 3550 C 345.327 0.293829 -2.31644 0
M  V30 3551 C 346.308 0.978864 -1.39112 0
M  V30 3552 O 347.493 0.973644 -1.68029 0
M  V30 3553 C 344.623 1.36897 -3.19181 0
M  V30 3554 C 343.577 0.804833 -4.20365 0
M  V30 3555 C 342.903 1.9792 -4.96721 0
M  V30 3556 C 344.203 -0.192313 -5.21946 0
M  V30 3557 H 345.897 -0.387616 -2.9688 0
M  V30 3558 H 343.443 -0.187856 -1.42769 0
M  V30 3559 H 345.396 1.92037 -3.751 0
M  V30 3560 H 344.12 2.07936 -2.51853 0
M  V30 3561 H 342.779 0.275319 -3.65565 0
M  V30 3562 H 342.427 2.67686 -4.25856 0
M  V30 3563 H 342.127 1.60789 -5.65173 0
M  V30 3564 H 343.651 2.53526 -5.55479 0
M  V30 3565 H 345.065 0.270333 -5.72662 0
M  V30 3566 H 343.462 -0.478543 -5.98189 0
M  V30 3567 H 344.532 -1.11409 -4.71928 0
M  V30 3568 N 345.875 1.56104 -0.216619 0
M  V30 3569 C 346.805 2.23063 0.690296 0
M  V30 3570 C 347.786 1.20072 1.20485 0
M  V30 3571 O 348.971 1.48643 1.24976 0
M  V30 3572 C 346.101 2.90672 1.90072 0
M  V30 3573 C 345.055 4.00092 1.5202 0
M  V30 3574 C 344.381 4.54972 2.80899 0
M  V30 3575 C 345.681 5.17398 0.71391 0
M  V30 3576 H 347.375 2.99109 0.132038 0
M  V30 3577 H 344.921 1.43866 0.0620664 0
M  V30 3578 H 346.874 3.36204 2.54057 0
M  V30 3579 H 345.598 2.12066 2.48386 0
M  V30 3580 H 344.257 3.55283 0.903839 0
M  V30 3581 H 343.905 3.73102 3.37348 0
M  V30 3582 H 343.605 5.28817 2.56176 0
M  V30 3583 H 345.129 5.0322 3.45836 0
M  V30 3584 H 346.543 5.59342 1.25735 0
M  V30 3585 H 344.94 5.97444 0.563951 0
M  V30 3586 H 346.01 4.84088 -0.280527 0
M  V30 3587 N 347.353 -0.0568162 1.57498 0
M  V30 3588 C 348.602 -0.752001 1.87157 0
M  V30 3589 C 348.915 -1.77978 0.811375 0
M  V30 3590 O 350.121 -2.52559 0.996293 0
M  V30 3591 C 348.577 -1.38844 3.3204 0
M  V30 3592 C 348.185 -0.398456 4.46225 0
M  V30 3593 C 349.929 -2.06512 3.70882 0
M  V30 3594 C 347.836 -1.04166 5.82154 0
M  V30 3595 H 346.766 -0.28461 0.698222 0
M  V30 3596 H 349.417 -0.00561272 1.83499 0
M  V30 3597 H 347.799 -2.1836 3.30356 0
M  V30 3598 H 348.973 0.367977 4.59328 0
M  V30 3599 H 347.288 0.174592 4.16034 0
M  V30 3600 H 349.885 -2.55437 4.6974 0
M  V30 3601 H 350.228 -2.87117 3.01445 0
M  V30 3602 H 350.761 -1.33808 3.7462 0
M  V30 3603 H 347.5 -0.275614 6.5492 0
M  V30 3604 H 347.02 -1.7786 5.72823 0
M  V30 3605 H 348.699 -1.55715 6.27982 0
M  V30 3606 N 348.832 -1.54138 -0.328536 0
M  V30 3607 C 350.078 -1.73297 -1.06488 0
M  V30 3608 C 350.433 -0.497958 -1.85844 0
M  V30 3609 O 349.726 0.509591 -1.84699 0
M  V30 3610 C 349.92 -2.9457 -2.02393 0
M  V30 3611 C 349.749 -4.29747 -1.32467 0
M  V30 3612 C 348.519 -4.93987 -1.06324 0
M  V30 3613 C 350.717 -5.08903 -0.743137 0
M  V30 3614 N 348.699 -6.13005 -0.331359 0
M  V30 3615 C 350.07 -6.19836 -0.142602 0
M  V30 3616 C 352.125 -4.93699 -0.64546 0
M  V30 3617 C 350.828 -7.17224 0.546125 0
M  V30 3618 C 352.854 -5.91393 0.0295558 0
M  V30 3619 C 352.216 -7.01674 0.619056 0
M  V30 3620 H 348.315 -0.687017 -0.373539 0
M  V30 3621 H 350.899 -1.91589 -0.346659 0
M  V30 3622 H 349.07 -2.77752 -2.71493 0
M  V30 3623 H 350.802 -3.0238 -2.68977 0
M  V30 3624 H 347.557 -4.53824 -1.35428 0
M  V30 3625 H 347.981 -6.76997 0.0202939 0
M  V30 3626 H 352.623 -4.08589 -1.08695 0
M  V30 3627 H 350.341 -8.01896 0.999459 0
M  V30 3628 H 353.927 -5.81706 0.104705 0
M  V30 3629 H 352.807 -7.75971 1.13309 0
M  V30 3630 N 350.31 0.590341 -1.46126 0
M  V30 3631 C 351.558 1.34616 -1.50742 0
M  V30 3632 C 351.879 1.94363 -0.157486 0
M  V30 3633 O 351.149 1.78136 0.815136 0
M  V30 3634 H 349.729 0.499789 -0.555175 0
M  V30 3635 H 352.391 0.691953 -1.82203 0
M  V30 3636 H 351.487 2.15678 -2.25587 0
M  V30 3637 N 351.788 1.33704 0.83433 0
M  V30 3638 C 353.204 1.13137 1.12571 0
M  V30 3639 C 353.404 -0.0747261 2.01361 0
M  V30 3640 O 352.46 -0.753647 2.4099 0
M  V30 3641 C 353.773 2.42105 1.78342 0
M  V30 3642 C 355.321 2.48054 1.90888 0
M  V30 3643 C 355.796 3.76995 2.60075 0
M  V30 3644 N 357.287 3.78092 2.67584 0
M  V30 3645 C 358.022 4.74574 3.21818 0
M  V30 3646 N 357.518 5.81434 3.76705 0
M  V30 3647 N 359.311 4.62044 3.20112 0
M  V30 3648 H 351.462 2.11 0.243489 0
M  V30 3649 H 353.725 0.932532 0.17055 0
M  V30 3650 H 353.431 3.30391 1.20561 0
M  V30 3651 H 353.305 2.54594 2.7832 0
M  V30 3652 H 355.692 1.60215 2.47821 0
M  V30 3653 H 355.773 2.39502 0.898459 0
M  V30 3654 H 355.417 4.65219 2.03799 0
M  V30 3655 H 355.347 3.82825 3.61597 0
M  V30 3656 H 357.838 3.00865 2.28667 0
M  V30 3657 H 358.151 6.51084 4.16305 0
M  V30 3658 H 356.496 5.85163 3.7498 0
M  V30 3659 H 359.687 3.77716 2.76493 0
M  V30 3660 H 359.86 5.37406 3.62076 0
M  V30 3661 N 353.266 -1.05314 1.17247 0
M  V30 3662 C 354.176 -2.16538 0.90268 0
M  V30 3663 C 355.192 -1.73523 -0.128707 0
M  V30 3664 O 356.368 -2.01337 0.0502701 0
M  V30 3665 C 353.433 -3.44167 0.418356 0
M  V30 3666 C 352.494 -4.01635 1.51618 0
M  V30 3667 C 351.727 -5.23171 1.05487 0
M  V30 3668 O 351.95 -5.70327 -0.0914715 0
M  V30 3669 O 350.884 -5.72848 1.8474 0
M  V30 3670 H 354.71 -2.42145 1.83302 0
M  V30 3671 H 352.295 -1.15037 0.953246 0
M  V30 3672 H 354.177 -4.21112 0.155726 0
M  V30 3673 H 352.852 -3.20063 -0.48385 0
M  V30 3674 H 351.759 -3.26135 1.83268 0
M  V30 3675 H 353.092 -4.30053 2.39405 0
M  V30 3676 N 354.744 -0.972509 -1.24016 0
M  V30 3677 C 356.021 -0.553733 -1.87598 0
M  V30 3678 C 356.401 0.969158 -1.87538 0
M  V30 3679 O 355.749 1.84255 -1.35139 0
M  V30 3680 C 355.959 -1.15076 -3.29482 0
M  V30 3681 C 357.307 -1.23862 -4.06132 0
M  V30 3682 O 358.331 -1.10363 -3.38672 0
M  V30 3683 O 357.19 -1.45252 -5.26844 0
M  V30 3684 H 354.284 -0.185331 -0.805966 0
M  V30 3685 H 356.83 -1.06709 -1.31952 0
M  V30 3686 H 355.602 -2.19333 -3.2405 0
M  V30 3687 H 355.225 -0.621746 -3.92709 0
M  V30 3688 N 356.222 1.38976 -0.743202 0
M  V30 3689 C 357.638 1.53984 -0.419664 0
M  V30 3690 C 357.838 1.70837 1.0685 0
M  V30 3691 O 356.894 1.7135 1.8546 0
M  V30 3692 C 358.207 2.75287 -1.20985 0
M  V30 3693 C 359.755 2.89129 -1.19889 0
M  V30 3694 C 360.23 4.13381 -1.97181 0
M  V30 3695 N 361.721 4.20437 -1.94389 0
M  V30 3696 C 362.456 5.15547 -2.50996 0
M  V30 3697 N 361.952 6.16395 -3.16274 0
M  V30 3698 N 363.745 5.07822 -2.40984 0
M  V30 3699 H 355.896 1.26285 -1.7078 0
M  V30 3700 H 358.159 0.612689 -0.723406 0
M  V30 3701 H 357.865 2.69204 -2.26323 0
M  V30 3702 H 357.739 3.68184 -0.819759 0
M  V30 3703 H 360.126 2.947 -0.153606 0
M  V30 3704 H 360.207 1.97272 -1.62841 0
M  V30 3705 H 359.851 4.08572 -3.01714 0
M  V30 3706 H 359.781 5.04298 -1.51629 0
M  V30 3707 H 362.272 3.48205 -1.46839 0
M  V30 3708 H 362.585 6.85443 -3.56915 0
M  V30 3709 H 360.93 6.16758 -3.20367 0
M  V30 3710 H 364.121 4.27973 -1.89622 0
M  V30 3711 H 364.294 5.81767 -2.85397 0
M  V30 3712 N 357.7 0.491464 1.49741 0
M  V30 3713 C 358.946 -0.0565092 2.02721 0
M  V30 3714 C 359.279 -1.37522 1.37118 0
M  V30 3715 O 358.554 -1.87866 0.503645 0
M  V30 3716 C 358.837 -0.219051 3.59433 0
M  V30 3717 C 358.69 1.12211 4.35579 0
M  V30 3718 C 360.009 -0.964157 4.29409 0
M  V30 3719 H 357.128 -0.0190627 0.736753 0
M  V30 3720 H 359.77 0.641021 1.7886 0
M  V30 3721 H 357.92 -0.813165 3.79895 0
M  V30 3722 H 359.592 1.75437 4.26637 0
M  V30 3723 H 357.835 1.71377 3.98513 0
M  V30 3724 H 358.506 0.961794 5.43556 0
M  V30 3725 H 360.982 -0.460378 4.13545 0
M  V30 3726 H 359.858 -1.04671 5.38828 0
M  V30 3727 H 360.119 -2.00563 3.93988 0
M  V30 3728 N 359.178 -1.55987 0.224894 0
M  V30 3729 C 360.126 -2.21808 -0.700283 0
M  V30 3730 C 361.12 -1.19854 -1.19714 0
M  V30 3731 O 362.326 -1.37925 -1.15658 0
M  V30 3732 H 358.701 -0.711226 -0.244258 0
M  V30 3733 H 360.672 -2.98152 -0.121749 0
M  V30 3734 C 359.421 -2.91444 -1.8962 0
M  V30 3735 H 358.744 -3.69655 -1.52299 0
M  V30 3736 H 360.184 -3.40894 -2.52125 0
M  V30 3737 C 358.643 -1.94098 -2.75368 0
M  V30 3738 O 359.173 -1.46004 -3.74227 0
M  V30 3739 N 357.379 -1.61675 -2.41474 0
M  V30 3740 H 356.926 -2.00979 -1.61137 0
M  V30 3741 H 356.884 -0.968036 -2.99126 0
M  V30 3742 N 360.656 0.0484629 -1.57525 0
M  V30 3743 C 362.067 0.597486 -1.76881 0
M  V30 3744 C 362.418 1.76664 -0.853475 0
M  V30 3745 O 361.543 2.16357 -0.0433656 0
M  V30 3746 C 362.138 1.09066 -3.20765 0
M  V30 3747 C 360.697 1.58535 -3.41385 0
M  V30 3748 C 359.844 0.514868 -2.72478 0
M  V30 3749 H 362.795 -0.177758 -1.57701 0
M  V30 3750 H 362.816 1.95875 -3.2621 0
M  V30 3751 H 362.328 0.239521 -3.8736 0
M  V30 3752 H 360.429 2.45898 -2.79937 0
M  V30 3753 H 360.542 1.64622 -4.49929 0
M  V30 3754 H 358.906 0.965407 -2.35695 0
M  V30 3755 H 359.689 -0.32648 -3.41744 0
M  V30 3756 N 362.134 1.5431 0.320358 0
M  V30 3757 C 363.064 1.86912 1.3995 0
M  V30 3758 C 364.045 0.726211 1.53819 0
M  V30 3759 O 365.23 0.980233 1.67646 0
M  V30 3760 C 362.36 2.09932 2.7667 0
M  V30 3761 C 361.314 3.25776 2.77586 0
M  V30 3762 C 360.64 3.34173 4.17412 0
M  V30 3763 C 361.94 4.6335 2.41048 0
M  V30 3764 H 363.634 2.77292 1.12914 0
M  V30 3765 H 361.18 1.33421 0.541738 0
M  V30 3766 H 363.133 2.31324 3.52232 0
M  V30 3767 H 361.857 1.16304 3.0519 0
M  V30 3768 H 360.516 3.04276 2.04479 0
M  V30 3769 H 360.164 2.38098 4.43078 0
M  V30 3770 H 359.864 4.12033 4.18931 0
M  V30 3771 H 361.388 3.57803 4.94782 0
M  V30 3772 H 362.802 4.84602 3.06324 0
M  V30 3773 H 361.199 5.43782 2.53813 0
M  V30 3774 H 362.269 4.65381 1.36193 0
M  V30 3775 N 363.613 -0.582584 1.46437 0
M  V30 3776 C 364.89 -1.34276 1.4223 0
M  V30 3777 C 365.27 -2.10835 0.10583 0
M  V30 3778 O 364.618 -2.09485 -0.912596 0
M  V30 3779 C 364.828 -2.26865 2.65204 0
M  V30 3780 C 366.176 -2.88691 3.11356 0
M  V30 3781 O 367.2 -2.37178 2.65753 0
M  V30 3782 O 366.059 -3.82255 3.90568 0
M  V30 3783 H 363.153 -0.603326 0.565621 0
M  V30 3784 H 365.699 -0.603591 1.58603 0
M  V30 3785 H 364.471 -1.69724 3.52576 0
M  V30 3786 H 364.094 -3.08122 2.5129 0
M  V30 3787 N 365.091 -1.34144 -0.827227 0
M  V30 3788 C 366.339 -1.26009 -1.58007 0
M  V30 3789 C 366.66 0.170971 -1.94249 0
M  V30 3790 O 365.93 1.10256 -1.61927 0
M  V30 3791 H 364.51 -0.463414 -0.585881 0
M  V30 3792 H 367.172 -1.68005 -0.987951 0
M  V30 3793 H 366.268 -1.86187 -2.50481 0
M  V30 3794 N 366.569 1.04691 -1.17803 0
M  V30 3795 C 367.532 2.10724 -0.901545 0
M  V30 3796 C 368.532 1.6042 0.110437 0
M  V30 3797 O 369.722 1.7377 -0.122303 0
M  V30 3798 C 366.854 3.39084 -0.351409 0
M  V30 3799 H 368.047 2.36686 -1.84174 0
M  V30 3800 H 365.6 1.21015 -0.98919 0
M  V30 3801 H 366.335 3.18782 0.59569 0
M  V30 3802 H 366.12 3.76909 -1.08083 0
M  V30 3803 H 367.61 4.17227 -0.176451 0
M  V30 3804 N 368.047 0.979072 1.23499 0
M  V30 3805 C 368.977 0.537606 2.27227 0
M  V30 3806 C 369.958 -0.428539 1.64613 0
M  V30 3807 O 371.143 -0.322191 1.91509 0
M  V30 3808 C 368.273 -0.162052 3.46922 0
M  V30 3809 C 367.227 0.721242 4.21879 0
M  V30 3810 C 366.553 -0.110555 5.34586 0
M  V30 3811 C 367.853 2.01141 4.82016 0
M  V30 3812 H 369.547 1.40462 2.64406 0
M  V30 3813 H 367.093 0.67684 1.27102 0
M  V30 3814 H 369.046 -0.482192 4.18632 0
M  V30 3815 H 367.77 -1.06351 3.08799 0
M  V30 3816 H 366.429 1.02482 3.51984 0
M  V30 3817 H 366.077 -1.0125 4.92704 0
M  V30 3818 H 365.777 0.477325 5.85658 0
M  V30 3819 H 367.301 -0.425107 6.09118 0
M  V30 3820 H 368.715 1.75612 5.45741 0
M  V30 3821 H 367.112 2.54695 5.43369 0
M  V30 3822 H 368.182 2.69909 4.02836 0
M  V30 3823 N 369.525 -1.3858 0.750561 0
M  V30 3824 C 370.771 -2.00481 0.305825 0
M  V30 3825 C 371.104 -1.5944 -1.10872 0
M  V30 3826 O 370.379 -0.83052 -1.75877 0
M  V30 3827 C 370.662 -3.5758 0.425287 0
M  V30 3828 C 370.515 -4.08594 1.88072 0
M  V30 3829 C 371.834 -4.39719 -0.183122 0
M  V30 3830 H 368.953 -0.728348 0.112598 0
M  V30 3831 H 371.595 -1.64566 0.949638 0
M  V30 3832 H 369.745 -3.88306 -0.122828 0
M  V30 3833 H 371.417 -3.88523 2.48691 0
M  V30 3834 H 369.66 -3.61574 2.39681 0
M  V30 3835 H 370.331 -5.177 1.91548 0
M  V30 3836 H 372.807 -4.15128 0.284303 0
M  V30 3837 H 371.683 -5.48856 -0.0692757 0
M  V30 3838 H 371.944 -4.23434 -1.27106 0
M  V30 3839 N 371.003 -0.499398 -1.49478 0
M  V30 3840 C 371.966 0.268838 -2.27618 0
M  V30 3841 C 372.966 0.895383 -1.33565 0
M  V30 3842 O 374.156 0.760164 -1.56739 0
M  V30 3843 C 371.288 1.38559 -3.11471 0
M  V30 3844 H 372.481 -0.416812 -2.96989 0
M  V30 3845 H 370.034 -0.254313 -1.54217 0
M  V30 3846 H 370.769 2.10544 -2.46661 0
M  V30 3847 H 370.554 0.941797 -3.80621 0
M  V30 3848 H 372.044 1.92678 -3.70493 0
M  V30 3849 N 372.481 1.55866 -0.233164 0
M  V30 3850 C 373.411 2.23783 0.666599 0
M  V30 3851 C 374.392 1.21343 1.19205 0
M  V30 3852 O 375.577 1.4996 1.23392 0
M  V30 3853 C 372.707 2.92671 1.86978 0
M  V30 3854 C 371.661 4.01682 1.47768 0
M  V30 3855 C 370.987 4.57926 2.76058 0
M  V30 3856 C 372.287 5.18126 0.658993 0
M  V30 3857 H 373.981 2.99232 0.100306 0
M  V30 3858 H 371.527 1.43924 0.046804 0
M  V30 3859 H 373.48 3.3888 2.50476 0
M  V30 3860 H 372.204 2.14688 2.46123 0
M  V30 3861 H 370.863 3.56222 0.866106 0
M  V30 3862 H 370.511 3.76659 3.33372 0
M  V30 3863 H 370.211 5.31505 2.50552 0
M  V30 3864 H 371.735 5.06859 3.40479 0
M  V30 3865 H 373.149 5.60644 1.19795 0
M  V30 3866 H 371.546 5.98009 0.500552 0
M  V30 3867 H 372.616 4.83763 -0.331856 0
M  V30 3868 N 373.959 -0.0401083 1.57549 0
M  V30 3869 C 374.906 -1.04413 2.05831 0
M  V30 3870 C 375.876 -1.36585 0.945184 0
M  V30 3871 O 377.061 -1.47112 1.21502 0
M  V30 3872 C 374.201 -2.34336 2.53339 0
M  V30 3873 C 373.314 -2.08419 3.78398 0
M  V30 3874 C 372.449 -3.32133 4.14561 0
M  V30 3875 C 371.488 -3.01721 5.3257 0
M  V30 3876 N 370.625 -4.17855 5.64218 0
M  V30 3877 H 375.465 -0.625442 2.91363 0
M  V30 3878 H 373.002 -0.297218 1.44066 0
M  V30 3879 H 374.96 -3.10234 2.78946 0
M  V30 3880 H 373.59 -2.73948 1.7074 0
M  V30 3881 H 372.642 -1.23069 3.59942 0
M  V30 3882 H 373.954 -1.81978 4.64419 0
M  V30 3883 H 373.108 -4.16406 4.41238 0
M  V30 3884 H 371.847 -3.61678 3.2717 0
M  V30 3885 H 370.852 -2.15849 5.05657 0
M  V30 3886 H 372.077 -2.73466 6.21605 0
M  V30 3887 H 370.023 -4.47372 4.79786 0
M  V30 3888 H 369.94 -3.94798 6.44725 0
M  V30 3889 H 371.208 -5.03033 5.95465 0
M  V30 3890 N 375.437 -1.54477 -0.31217 0
M  V30 3891 C 376.665 -1.77205 -1.068 0
M  V30 3892 C 377.08 -0.526114 -1.81321 0
M  V30 3893 O 376.437 0.503647 -1.75413 0
M  V30 3894 C 376.488 -2.97253 -2.05725 0
M  V30 3895 O 376.209 -4.1703 -1.34228 0
M  V30 3896 C 377.71 -3.32281 -2.93435 0
M  V30 3897 H 374.93 -0.591287 -0.317208 0
M  V30 3898 H 377.474 -2.01398 -0.354834 0
M  V30 3899 H 375.629 -2.753 -2.72559 0
M  V30 3900 H 376.043 -4.84636 -2.00571 0
M  V30 3901 H 377.517 -4.19551 -3.58721 0
M  V30 3902 H 377.994 -2.49945 -3.61143 0
M  V30 3903 H 378.6 -3.56353 -2.32147 0
M  V30 3904 N 376.915 0.57481 -1.46744 0
M  V30 3905 C 378.164 1.32898 -1.51727 0
M  V30 3906 C 378.477 1.948 -0.176692 0
M  V30 3907 O 379.683 2.71299 -0.104385 0
M  V30 3908 C 378.139 2.40901 -2.67385 0
M  V30 3909 C 377.747 1.85266 -4.07898 0
M  V30 3910 C 379.491 3.17609 -2.81646 0
M  V30 3911 C 377.398 2.90945 -5.14883 0
M  V30 3912 H 376.328 0.499631 -0.564699 0
M  V30 3913 H 378.979 0.612536 -1.72975 0
M  V30 3914 H 377.361 3.15379 -2.39483 0
M  V30 3915 H 378.535 1.17278 -4.45626 0
M  V30 3916 H 376.85 1.21199 -3.98371 0
M  V30 3917 H 379.447 3.96493 -3.58744 0
M  V30 3918 H 379.79 3.70696 -1.89448 0
M  V30 3919 H 380.323 2.50239 -3.09233 0
M  V30 3920 H 377.062 2.42736 -6.089 0
M  V30 3921 H 376.582 3.57398 -4.81691 0
M  V30 3922 H 378.261 3.54755 -5.41071 0
M  V30 3923 N 378.394 1.34581 0.820102 0
M  V30 3924 C 379.805 1.24298 1.39309 0
M  V30 3925 C 380.156 -0.130351 1.95767 0
M  V30 3926 O 379.281 -1.0308 1.90272 0
M  V30 3927 C 379.876 2.25054 2.53251 0
M  V30 3928 C 378.435 2.18552 3.0645 0
M  V30 3929 C 377.582 2.11503 1.79337 0
M  V30 3930 H 380.533 1.45906 0.624262 0
M  V30 3931 H 380.554 1.86917 3.31425 0
M  V30 3932 H 380.066 3.24996 2.1213 0
M  V30 3933 H 378.167 1.21976 3.52069 0
M  V30 3934 H 378.28 3.0993 3.65349 0
M  V30 3935 H 376.644 1.57268 2.00347 0
M  V30 3936 H 377.427 3.13284 1.40386 0
M  V30 3937 N 379.872 -1.04064 1.18357 0
M  V30 3938 C 381.288 -1.2947 0.933258 0
M  V30 3939 C 381.488 -1.97466 -0.401169 0
M  V30 3940 O 380.544 -2.25528 -1.13549 0
M  V30 3941 C 381.857 -2.15337 2.09882 0
M  V30 3942 C 383.405 -2.28683 2.13712 0
M  V30 3943 C 383.88 -3.17917 3.29686 0
M  V30 3944 N 385.371 -3.25504 3.29547 0
M  V30 3945 C 386.106 -3.94706 4.15926 0
M  V30 3946 N 385.602 -4.66239 5.12439 0
M  V30 3947 N 387.395 -3.90986 4.0384 0
M  V30 3948 H 379.546 -0.583359 2.04232 0
M  V30 3949 H 381.809 -0.319921 0.892387 0
M  V30 3950 H 381.515 -1.72682 3.06389 0
M  V30 3951 H 381.389 -3.16015 2.05947 0
M  V30 3952 H 383.776 -2.70575 1.17784 0
M  V30 3953 H 383.857 -1.27596 2.21705 0
M  V30 3954 H 383.501 -2.76736 4.25887 0
M  V30 3955 H 383.431 -4.19036 3.1893 0
M  V30 3956 H 385.922 -2.74547 2.59677 0
M  V30 3957 H 386.235 -5.16638 5.74722 0
M  V30 3958 H 384.58 -4.65143 5.16398 0
M  V30 3959 H 387.771 -3.34234 3.27727 0
M  V30 3960 H 387.944 -4.44646 4.71375 0
M  V30 3961 N 381.35 -0.985608 -1.22978 0
M  V30 3962 C 382.313 -0.535071 -2.22867 0
M  V30 3963 C 383.313 0.378123 -1.56291 0
M  V30 3964 O 384.503 0.171092 -1.73358 0
M  V30 3965 C 381.635 0.222702 -3.40172 0
M  V30 3966 H 382.828 -1.41835 -2.6424 0
M  V30 3967 H 380.381 -0.772042 -1.35901 0
M  V30 3968 H 381.116 1.12229 -3.04262 0
M  V30 3969 H 380.901 -0.43288 -3.89703 0
M  V30 3970 H 382.391 0.526335 -4.1427 0
M  V30 3971 N 382.828 1.3818 -0.7579 0
M  V30 3972 C 383.76 2.2901 -0.0932177 0
M  V30 3973 C 384.773 1.47958 0.679136 0
M  V30 3974 O 385.962 1.70773 0.519514 0
M  V30 3975 C 383.062 3.26953 0.89192 0
M  V30 3976 C 382.235 4.37045 0.176303 0
M  V30 3977 C 381.294 5.15148 1.07281 0
M  V30 3978 O 380.32 5.66616 0.541728 0
M  V30 3979 N 381.522 5.28542 2.40049 0
M  V30 3980 H 384.287 2.86694 -0.873303 0
M  V30 3981 H 381.848 1.50007 -0.609054 0
M  V30 3982 H 383.84 3.76083 1.49479 0
M  V30 3983 H 382.41 2.70136 1.57306 0
M  V30 3984 H 381.63 3.89493 -0.607328 0
M  V30 3985 H 382.918 5.07801 -0.318718 0
M  V30 3986 H 382.316 4.88285 2.85647 0
M  V30 3987 H 380.873 5.8103 2.95376 0
M  V30 3988 N 384.306 0.507319 1.49211 0
M  V30 3989 C 385.236 -0.256939 2.32082 0
M  V30 3990 C 386.217 -0.956609 1.40652 0
M  V30 3991 O 387.402 -0.946788 1.69557 0
M  V30 3992 C 384.532 -1.31802 3.21318 0
M  V30 3993 C 383.486 -0.737855 4.21592 0
M  V30 3994 C 382.812 -1.89992 4.99807 0
M  V30 3995 C 384.112 0.275325 5.21574 0
M  V30 3996 H 385.806 0.434798 2.96226 0
M  V30 3997 H 383.352 0.210546 1.42452 0
M  V30 3998 H 385.305 -1.86045 3.78107 0
M  V30 3999 H 384.029 -2.03903 2.5513 0
M  V30 4000 H 382.688 -0.217126 3.65956 0
M  V30 4001 H 382.336 -2.60877 4.30061 0
M  V30 4002 H 382.036 -1.51777 5.6766 0
M  V30 4003 H 383.56 -2.44657 5.59442 0
M  V30 4004 H 384.974 -0.179193 5.7302 0
M  V30 4005 H 383.371 0.573649 5.97352 0
M  V30 4006 H 384.441 1.18903 4.70096 0
M  V30 4007 N 385.784 -1.5574 0.241426 0
M  V30 4008 C 386.734 -2.17803 -0.674233 0
M  V30 4009 C 387.718 -1.13225 -1.14319 0
M  V30 4010 O 388.91 -1.39153 -1.09387 0
M  V30 4011 C 386.039 -2.87682 -1.87333 0
M  V30 4012 C 385.125 -3.99509 -1.42313 0
M  V30 4013 N 385.516 -5.01115 -0.686798 0
M  V30 4014 C 383.814 -4.11964 -1.70885 0
M  V30 4015 C 384.515 -5.79922 -0.454456 0
M  V30 4016 N 383.491 -5.34001 -1.01705 0
M  V30 4017 H 387.293 -2.93718 -0.103447 0
M  V30 4018 H 384.807 -1.62342 0.0435095 0
M  V30 4019 H 386.804 -3.3057 -2.54026 0
M  V30 4020 H 385.464 -2.13269 -2.4484 0
M  V30 4021 H 386.475 -5.16799 -0.337459 0
M  V30 4022 H 383.152 -3.48718 -2.2957 0
M  V30 4023 H 384.542 -6.71768 0.132992 0
M  V30 4024 N 387.262 0.0317525 -1.57568 0
M  V30 4025 C 388.508 0.724175 -1.8943 0
M  V30 4026 C 388.841 1.75149 -0.838836 0
M  V30 4027 O 388.116 1.93948 0.146422 0
M  V30 4028 C 388.399 1.39615 -3.31933 0
M  V30 4029 C 388.252 0.382537 -4.4817 0
M  V30 4030 C 389.571 2.33084 -3.73309 0
M  V30 4031 H 386.69 0.261797 -0.688935 0
M  V30 4032 H 389.332 -0.013017 -1.89996 0
M  V30 4033 H 387.482 2.02451 -3.31581 0
M  V30 4034 H 389.154 -0.243689 -4.60656 0
M  V30 4035 H 387.397 -0.29844 -4.32772 0
M  V30 4036 H 388.068 0.891145 -5.44759 0
M  V30 4037 H 390.544 1.80295 -3.7501 0
M  V30 4038 H 389.42 2.77084 -4.73831 0
M  V30 4039 H 389.681 3.19643 -3.05419 0
M  V30 4040 N 388.74 1.54641 0.303973 0
M  V30 4041 C 389.987 1.7378 1.03955 0
M  V30 4042 C 390.315 0.521986 1.87365 0
M  V30 4043 O 389.57 -0.496099 1.89308 0
M  V30 4044 C 389.869 2.97753 1.97681 0
M  V30 4045 C 389.535 4.31671 1.30271 0
M  V30 4046 C 388.197 4.68075 1.11619 0
M  V30 4047 C 390.549 5.147 0.82055 0
M  V30 4048 C 387.877 5.8509 0.434304 0
M  V30 4049 C 390.229 6.32416 0.152395 0
M  V30 4050 C 388.893 6.67484 -0.0461067 0
M  V30 4051 H 388.163 0.635908 0.380398 0
M  V30 4052 H 390.81 1.88896 0.314718 0
M  V30 4053 H 389.115 2.77406 2.76682 0
M  V30 4054 H 390.812 3.09756 2.54661 0
M  V30 4055 H 387.402 4.03041 1.45795 0
M  V30 4056 H 391.586 4.87077 0.952374 0
M  V30 4057 H 386.842 6.10806 0.269495 0
M  V30 4058 H 391.016 6.96023 -0.229126 0
M  V30 4059 H 388.643 7.58011 -0.576494 0
M  V30 4060 N 390.218 -0.567019 1.47046 0
M  V30 4061 C 391.466 -1.322 1.52864 0
M  V30 4062 C 391.787 -1.94088 0.188388 0
M  V30 4063 O 391.057 -1.7941 -0.786693 0
M  V30 4064 H 389.637 -0.490894 0.563056 0
M  V30 4065 H 392.299 -0.662879 1.83281 0
M  V30 4066 H 391.395 -2.12062 2.2899 0
M  V30 4067 N 391.696 -1.35014 -0.812953 0
M  V30 4068 C 392.628 -1.23262 -1.93233 0
M  V30 4069 C 393.641 -0.157371 -1.62038 0
M  V30 4070 O 394.83 -0.410096 -1.73725 0
M  V30 4071 C 391.93 -0.87392 -3.27438 0
M  V30 4072 C 391.103 -2.04622 -3.86586 0
M  V30 4073 C 390.162 -1.66432 -4.99186 0
M  V30 4074 O 389.188 -2.38222 -5.16951 0
M  V30 4075 N 390.39 -0.584248 -5.77552 0
M  V30 4076 H 393.155 -2.19699 -2.03844 0
M  V30 4077 H 390.716 -1.281 -0.99005 0
M  V30 4078 H 392.708 -0.600039 -4.00227 0
M  V30 4079 H 391.278 0.00057392 -3.126 0
M  V30 4080 H 390.498 -2.48427 -3.06068 0
M  V30 4081 H 391.786 -2.82999 -4.22835 0
M  V30 4082 H 391.184 0.0123526 -5.65699 0
M  V30 4083 H 389.741 -0.37013 -6.50748 0
M  V30 4084 N 393.175 1.03435 -1.18907 0
M  V30 4085 C 394.415 1.78302 -0.999391 0
M  V30 4086 C 394.779 1.86353 0.462219 0
M  V30 4087 O 395.98 2.57489 0.771543 0
M  V30 4088 C 394.251 3.17362 -1.64365 0
M  V30 4089 S 395.81 4.08488 -1.6026 0
M  V30 4090 H 392.628 0.613861 -0.358742 0
M  V30 4091 H 395.23 1.23979 -1.51161 0
M  V30 4092 H 393.934 3.09116 -2.69955 0
M  V30 4093 H 393.465 3.76762 -1.13199 0
M  V30 4094 H 395.48 4.92274 -0.622932 0
M  V30 4095 N 394.653 0.992116 1.22453 0
M  V30 4096 C 395.901 0.666215 1.90804 0
M  V30 4097 C 396.222 -0.804152 1.77647 0
M  V30 4098 O 395.492 -1.57629 1.16318 0
M  V30 4099 H 394.072 0.243423 0.706225 0
M  V30 4100 H 396.734 1.25845 1.48825 0
M  V30 4101 H 395.83 0.928069 2.97982 0
M  V30 4102 N 396.131 -1.37776 0.765217 0
M  V30 4103 C 397.081 -2.2768 0.12075 0
M  V30 4104 C 398.065 -1.45778 -0.680988 0
M  V30 4105 O 399.257 -1.684 -0.545033 0
M  V30 4106 C 396.386 -3.34722 -0.762626 0
M  V30 4107 C 395.472 -4.24074 0.0465881 0
M  V30 4108 N 395.863 -4.93939 1.08892 0
M  V30 4109 C 394.161 -4.45643 -0.178418 0
M  V30 4110 C 394.862 -5.59845 1.57951 0
M  V30 4111 N 393.838 -5.36218 0.892797 0
M  V30 4112 H 397.64 -2.79166 0.918889 0
M  V30 4113 H 395.154 -1.50816 0.602353 0
M  V30 4114 H 397.151 -3.98031 -1.24005 0
M  V30 4115 H 395.811 -2.84793 -1.55959 0
M  V30 4116 H 396.822 -4.96572 1.47095 0
M  V30 4117 H 393.499 -4.06599 -0.9478 0
M  V30 4118 H 394.889 -6.25703 2.44838 0
M  V30 4119 N 397.609 -0.515225 -1.4894 0
M  V30 4120 C 398.855 0.016187 -2.03394 0
M  V30 4121 C 399.21 1.33377 -1.38666 0
M  V30 4122 O 398.503 1.84461 -0.518141 0
M  V30 4123 C 398.697 0.210595 -3.56779 0
M  V30 4124 C 398.526 -1.08659 -4.36375 0
M  V30 4125 C 397.296 -1.64237 -4.77864 0
M  V30 4126 C 399.494 -1.9935 -4.74093 0
M  V30 4127 N 397.476 -2.88398 -5.41941 0
M  V30 4128 C 398.847 -3.08088 -5.38035 0
M  V30 4129 C 400.902 -1.99856 -4.56029 0
M  V30 4130 C 399.605 -4.17377 -5.85823 0
M  V30 4131 C 401.631 -3.08129 -5.04787 0
M  V30 4132 C 400.993 -4.15586 -5.68742 0
M  V30 4133 H 397.092 -0.0352107 -0.781207 0
M  V30 4134 H 399.676 -0.693237 -1.8194 0
M  V30 4135 H 397.847 0.889088 -3.78087 0
M  V30 4136 H 399.579 0.740287 -3.97872 0
M  V30 4137 H 396.334 -1.18566 -4.58518 0
M  V30 4138 H 396.758 -3.51572 -5.78555 0
M  V30 4139 H 401.4 -1.18079 -4.05977 0
M  V30 4140 H 399.118 -4.99943 -6.34888 0
M  V30 4141 H 402.704 -3.09557 -4.92611 0
M  V30 4142 H 401.584 -4.97987 -6.05787 0
M  V30 4143 N 399.087 1.5561 -0.249682 0
M  V30 4144 C 400.333 1.99306 0.374841 0
M  V30 4145 C 400.666 1.13767 1.57387 0
M  V30 4146 O 399.941 0.201711 1.93451 0
M  V30 4147 C 400.224 3.51507 0.781986 0
M  V30 4148 C 400.077 4.4781 -0.422629 0
M  V30 4149 C 401.396 4.08884 1.62793 0
M  V30 4150 H 398.515 0.724572 0.134773 0
M  V30 4151 H 401.157 1.86719 -0.351549 0
M  V30 4152 H 399.307 3.62363 1.4009 0
M  V30 4153 H 400.979 4.48931 -1.06108 0
M  V30 4154 H 399.222 4.20518 -1.06524 0
M  V30 4155 H 399.893 5.51919 -0.0943766 0
M  V30 4156 H 402.369 4.01147 1.10547 0
M  V30 4157 H 401.245 5.1564 1.88166 0
M  V30 4158 H 401.506 3.57515 2.60068 0
M  V30 4159 N 400.565 -0.0233959 1.57583 0
M  V30 4160 C 401.497 -1.04994 2.03737 0
M  V30 4161 C 402.51 -1.32125 0.951152 0
M  V30 4162 O 403.699 -1.29512 1.22837 0
M  V30 4163 C 400.799 -2.39026 2.40249 0
M  V30 4164 C 399.972 -2.31171 3.7132 0
M  V30 4165 C 399.031 -3.47698 3.94959 0
M  V30 4166 O 398.057 -3.26937 4.65941 0
M  V30 4167 N 399.259 -4.6976 3.41037 0
M  V30 4168 H 402.024 -0.656507 2.92421 0
M  V30 4169 H 399.585 -0.211235 1.60516 0
M  V30 4170 H 401.577 -3.15712 2.53196 0
M  V30 4171 H 400.147 -2.70194 1.57207 0
M  V30 4172 H 399.367 -1.39547 3.68674 0
M  V30 4173 H 400.655 -2.23071 4.57293 0
M  V30 4174 H 400.053 -4.89528 2.83512 0
M  V30 4175 H 398.61 -5.43791 3.59353 0
M  V30 4176 N 402.043 -1.548 -0.295768 0
M  V30 4177 C 403.289 -1.74588 -1.03184 0
M  V30 4178 C 403.622 -0.532962 -1.86744 0
M  V30 4179 O 402.897 0.469872 -1.88739 0
M  V30 4180 C 403.18 -3.03791 -1.93347 0
M  V30 4181 C 403.033 -4.35392 -1.12933 0
M  V30 4182 C 404.352 -3.28892 -2.92435 0
M  V30 4183 H 401.471 -0.635221 -0.373715 0
M  V30 4184 H 404.113 -1.87519 -0.30606 0
M  V30 4185 H 402.263 -2.92898 -2.55232 0
M  V30 4186 H 403.935 -4.58211 -0.532943 0
M  V30 4187 H 402.178 -4.31642 -0.432168 0
M  V30 4188 H 402.849 -5.22074 -1.79284 0
M  V30 4189 H 405.325 -3.39429 -2.4068 0
M  V30 4190 H 404.201 -4.20603 -3.52682 0
M  V30 4191 H 404.462 -2.47437 -3.6637 0
M  V30 4192 N 403.521 0.559213 -1.47345 0
M  V30 4193 C 404.431 1.69388 -1.62311 0
M  V30 4194 C 405.447 1.6648 -0.505993 0
M  V30 4195 O 406.623 1.85964 -0.773262 0
M  V30 4196 C 403.688 3.05894 -1.63185 0
M  V30 4197 C 402.749 3.19885 -2.86307 0
M  V30 4198 C 401.982 4.49879 -2.87131 0
M  V30 4199 O 402.205 5.35217 -1.97229 0
M  V30 4200 O 401.139 4.67618 -3.78968 0
M  V30 4201 H 404.965 1.59706 -2.58317 0
M  V30 4202 H 402.55 0.728989 -1.30407 0
M  V30 4203 H 404.432 3.87133 -1.66451 0
M  V30 4204 H 403.107 3.15964 -0.70345 0
M  V30 4205 H 402.014 2.38052 -2.88587 0
M  V30 4206 H 403.347 3.14718 -3.78435 0
M  V30 4207 N 404.999 1.35443 0.805782 0
M  V30 4208 C 405.946 1.28431 1.91766 0
M  V30 4209 C 406.916 0.156102 1.65365 0
M  V30 4210 O 408.101 0.339936 1.87747 0
M  V30 4211 C 405.241 1.06301 3.2832 0
M  V30 4212 C 404.354 2.2805 3.66902 0
M  V30 4213 C 403.489 1.99064 4.92491 0
M  V30 4214 C 402.528 3.16863 5.23703 0
M  V30 4215 N 401.665 2.87647 6.40471 0
M  V30 4216 H 406.505 2.23511 1.97096 0
M  V30 4217 H 404.042 1.11105 0.964054 0
M  V30 4218 H 406 0.915012 4.07042 0
M  V30 4219 H 404.63 0.148822 3.22457 0
M  V30 4220 H 403.682 2.53711 2.83434 0
M  V30 4221 H 404.994 3.1601 3.85927 0
M  V30 4222 H 404.148 1.81099 5.7904 0
M  V30 4223 H 402.887 1.0839 4.75503 0
M  V30 4224 H 401.892 3.35404 4.35642 0
M  V30 4225 H 403.117 4.08339 5.4262 0
M  V30 4226 H 401.063 1.99568 6.24907 0
M  V30 4227 H 400.98 3.69141 6.59751 0
M  V30 4228 H 402.248 2.73226 7.30047 0
M  V30 4229 N 406.477 -1.02803 1.19454 0
M  V30 4230 C 407.724 -1.76217 0.997693 0
M  V30 4231 C 408.052 -1.887 -0.47144 0
M  V30 4232 O 407.307 -1.4011 -1.3663 0
M  V30 4233 C 407.606 -3.18941 1.6128 0
M  V30 4234 C 407.272 -3.26463 3.11019 0
M  V30 4235 C 405.934 -3.28223 3.51885 0
M  V30 4236 C 408.286 -3.25542 4.07028 0
M  V30 4237 C 405.614 -3.26719 4.8731 0
M  V30 4238 C 407.966 -3.25579 5.42385 0
M  V30 4239 C 406.63 -3.25637 5.82681 0
M  V30 4240 H 405.9 -0.644823 0.365082 0
M  V30 4241 H 408.547 -1.20655 1.4871 0
M  V30 4242 H 406.852 -3.77587 1.04572 0
M  V30 4243 H 408.549 -3.74415 1.43577 0
M  V30 4244 H 405.139 -3.25822 2.78457 0
M  V30 4245 H 409.323 -3.23362 3.76498 0
M  V30 4246 H 404.579 -3.25089 5.1781 0
M  V30 4247 H 408.753 -3.23817 6.16535 0
M  V30 4248 H 406.38 -3.24226 6.87591 0
M  V30 4249 N 407.956 -0.998596 -1.21925 0
M  V30 4250 C 409.233 -0.593401 -1.86382 0
M  V30 4251 C 409.613 0.92916 -1.89552 0
M  V30 4252 O 408.961 1.81347 -1.39017 0
M  V30 4253 C 409.171 -1.22039 -3.26967 0
M  V30 4254 C 410.519 -1.32449 -4.03413 0
M  V30 4255 O 411.543 -1.17522 -3.36254 0
M  V30 4256 O 410.402 -1.56395 -5.23644 0
M  V30 4257 H 407.496 -0.202385 -0.801854 0
M  V30 4258 H 410.042 -1.09484 -1.29659 0
M  V30 4259 H 408.814 -2.26158 -3.19325 0
M  V30 4260 H 408.437 -0.704906 -3.91301 0
M  V30 4261 N 409.434 1.37368 -0.772513 0
M  V30 4262 C 410.344 2.34053 -0.160081 0
M  V30 4263 C 411.36 1.60216 0.678728 0
M  V30 4264 O 412.536 1.92303 0.59847 0
M  V30 4265 C 409.601 3.3939 0.708182 0
M  V30 4266 C 408.662 4.29048 -0.147172 0
M  V30 4267 C 407.895 5.29354 0.679744 0
M  V30 4268 O 408.118 5.3723 1.91678 0
M  V30 4269 O 407.052 6.01835 0.0885444 0
M  V30 4270 H 410.878 2.88159 -0.959053 0
M  V30 4271 H 408.463 1.39543 -0.533685 0
M  V30 4272 H 410.345 4.03839 1.20384 0
M  V30 4273 H 409.02 2.8761 1.48533 0
M  V30 4274 H 407.927 3.67697 -0.689205 0
M  V30 4275 H 409.26 4.84134 -0.887423 0
M  V30 4276 N 410.912 0.523116 1.48665 0
M  V30 4277 C 412.159 -0.0134763 2.02496 0
M  V30 4278 C 412.487 -1.3493 1.40086 0
M  V30 4279 O 411.742 -1.88286 0.533567 0
M  V30 4280 C 412.041 -0.191671 3.56886 0
M  V30 4281 C 411.707 1.06893 4.38046 0
M  V30 4282 C 410.369 1.41443 4.59943 0
M  V30 4283 C 412.721 1.90584 4.85106 0
M  V30 4284 C 410.049 2.59594 5.26144 0
M  V30 4285 C 412.401 3.07907 5.52609 0
M  V30 4286 C 411.065 3.42811 5.72745 0
M  V30 4287 H 410.335 -0.00493133 0.740984 0
M  V30 4288 H 412.982 0.687751 1.78724 0
M  V30 4289 H 411.287 -0.97561 3.79459 0
M  V30 4290 H 412.984 -0.621659 3.96152 0
M  V30 4291 H 409.574 0.789848 4.21259 0
M  V30 4292 H 413.758 1.65203 4.67997 0
M  V30 4293 H 409.014 2.86847 5.39934 0
M  V30 4294 H 413.188 3.73066 5.88043 0
M  V30 4295 H 410.815 4.34462 6.23816 0
M  V30 4296 N 412.39 -1.55475 0.257931 0
M  V30 4297 C 413.338 -2.23244 -0.653076 0
M  V30 4298 C 414.332 -1.22366 -1.17144 0
M  V30 4299 O 415.538 -1.40347 -1.12706 0
M  V30 4300 H 411.913 -0.716247 -0.229117 0
M  V30 4301 H 413.884 -2.98343 -0.0584788 0
M  V30 4302 C 412.633 -2.95401 -1.83395 0
M  V30 4303 H 411.956 -3.72802 -1.44424 0
M  V30 4304 H 413.396 -3.46165 -2.44838 0
M  V30 4305 C 411.855 -1.99895 -2.71189 0
M  V30 4306 O 412.385 -1.53909 -3.71046 0
M  V30 4307 N 410.591 -1.6676 -2.3799 0
M  V30 4308 H 410.138 -2.04352 -1.56837 0
M  V30 4309 H 410.096 -1.03127 -2.97005 0
M  V30 4310 N 413.868 0.0150385 -1.57593 0
M  V30 4311 C 414.815 1.01126 -2.07466 0
M  V30 4312 C 415.785 1.35064 -0.966794 0
M  V30 4313 O 416.97 1.4516 -1.23827 0
M  V30 4314 C 414.11 2.30276 -2.57035 0
M  V30 4315 C 413.223 2.02373 -3.81666 0
M  V30 4316 C 412.358 3.25496 -4.19793 0
M  V30 4317 C 411.397 2.93211 -5.37303 0
M  V30 4318 N 410.534 4.08826 -5.70794 0
M  V30 4319 H 415.374 0.57901 -2.92321 0
M  V30 4320 H 412.911 0.27426 -1.44521 0
M  V30 4321 H 414.869 3.05757 -2.83846 0
M  V30 4322 H 413.499 2.71197 -1.75077 0
M  V30 4323 H 412.551 1.17327 -3.61854 0
M  V30 4324 H 413.863 1.74567 -4.67256 0
M  V30 4325 H 413.017 4.09333 -4.47807 0
M  V30 4326 H 411.756 3.56428 -3.32882 0
M  V30 4327 H 410.761 2.07777 -5.09027 0
M  V30 4328 H 411.986 2.63542 -6.25877 0
M  V30 4329 H 409.932 4.39682 -4.86842 0
M  V30 4330 H 409.849 3.84491 -6.50924 0
M  V30 4331 H 411.117 4.93496 -6.03392 0
M  V30 4332 N 415.346 1.54954 0.287554 0
M  V30 4333 C 416.276 1.89839 1.35954 0
M  V30 4334 C 417.257 0.758675 1.52244 0
M  V30 4335 O 418.442 1.01557 1.65529 0
M  V30 4336 C 415.572 2.15753 2.72154 0
M  V30 4337 C 414.526 3.3159 2.70614 0
M  V30 4338 C 413.852 3.42952 4.10229 0
M  V30 4339 C 415.152 4.68359 2.31165 0
M  V30 4340 H 416.846 2.79625 1.07007 0
M  V30 4341 H 414.392 1.3454 0.513316 0
M  V30 4342 H 416.345 2.38743 3.47246 0
M  V30 4343 H 415.069 1.22752 3.02654 0
M  V30 4344 H 413.728 3.08545 1.97979 0
M  V30 4345 H 413.376 2.47443 4.37928 0
M  V30 4346 H 413.076 4.20826 4.10097 0
M  V30 4347 H 414.6 3.68218 4.87081 0
M  V30 4348 H 416.014 4.9099 2.95976 0
M  V30 4349 H 414.411 5.49044 2.42221 0
M  V30 4350 H 415.481 4.68165 1.26291 0
M  V30 4351 N 416.824 -0.551391 1.4764 0
M  V30 4352 C 418.052 -1.33357 1.58189 0
M  V30 4353 C 418.467 -1.87342 0.234199 0
M  V30 4354 O 417.824 -1.65301 -0.77343 0
M  V30 4355 C 417.875 -2.49942 2.61173 0
M  V30 4356 O 417.596 -1.98187 3.90709 0
M  V30 4357 C 419.097 -3.42072 2.8196 0
M  V30 4358 H 416.317 -0.40631 0.533998 0
M  V30 4359 H 418.861 -0.667367 1.93304 0
M  V30 4360 H 417.016 -3.12489 2.28975 0
M  V30 4361 H 417.43 -2.74342 4.47031 0
M  V30 4362 H 418.904 -4.20278 3.57869 0
M  V30 4363 H 419.381 -3.95978 1.89995 0
M  V30 4364 H 419.987 -2.85336 3.15378 0
M  V30 4365 N 418.302 -1.35869 -0.798587 0
M  V30 4366 C 419.551 -1.28921 -1.5512 0
M  V30 4367 C 419.864 0.13208 -1.95154 0
M  V30 4368 O 421.07 0.323879 -2.69561 0
M  V30 4369 C 419.526 -2.26141 -2.79979 0
M  V30 4370 C 419.134 -3.73658 -2.47151 0
M  V30 4371 C 420.878 -2.28152 -3.57976 0
M  V30 4372 C 418.785 -4.62679 -3.6835 0
M  V30 4373 H 417.715 -0.479031 -0.582276 0
M  V30 4374 H 420.366 -1.61179 -0.877125 0
M  V30 4375 H 418.748 -1.86865 -3.49138 0
M  V30 4376 H 419.922 -4.21616 -1.85947 0
M  V30 4377 H 418.237 -3.74333 -1.82383 0
M  V30 4378 H 420.834 -2.91875 -4.4801 0
M  V30 4379 H 421.177 -1.28748 -3.95891 0
M  V30 4380 H 421.71 -2.65998 -2.95787 0
M  V30 4381 H 418.449 -5.63111 -3.35538 0
M  V30 4382 H 417.969 -4.19442 -4.28752 0
M  V30 4383 H 419.648 -4.78498 -4.35487 0
M  V30 4384 N 419.78 1.02168 -1.19998 0
M  V30 4385 C 420.69 2.14069 -0.959774 0
M  V30 4386 C 421.706 1.73804 0.082655 0
M  V30 4387 O 422.882 2.01133 -0.103633 0
M  V30 4388 C 419.947 3.42936 -0.509459 0
M  V30 4389 C 419.008 3.97474 -1.62213 0
M  V30 4390 C 418.241 5.2019 -1.19321 0
M  V30 4391 O 418.464 5.70369 -0.0597726 0
M  V30 4392 O 417.398 5.67749 -1.99863 0
M  V30 4393 H 421.224 2.37199 -1.89658 0
M  V30 4394 H 418.809 1.12469 -0.983411 0
M  V30 4395 H 420.691 4.20551 -0.267322 0
M  V30 4396 H 419.366 3.21234 0.398821 0
M  V30 4397 H 418.273 3.21161 -1.9185 0
M  V30 4398 H 419.606 4.23555 -2.50723 0
M  V30 4399 N 421.258 1.00505 1.21394 0
M  V30 4400 C 422.505 0.687774 1.90462 0
M  V30 4401 C 422.833 -0.78147 1.7811 0
M  V30 4402 O 422.088 -1.58208 1.1519 0
M  V30 4403 C 422.387 1.0546 3.41486 0
M  V30 4404 C 422.053 2.51812 3.74034 0
M  V30 4405 C 420.715 2.91804 3.82628 0
M  V30 4406 C 423.067 3.46614 3.8924 0
M  V30 4407 C 420.395 4.2556 4.03876 0
M  V30 4408 C 422.747 4.80044 4.11995 0
M  V30 4409 C 421.411 5.19759 4.18816 0
M  V30 4410 H 420.681 0.251674 0.696951 0
M  V30 4411 H 423.328 1.26349 1.43903 0
M  V30 4412 H 421.633 0.397133 3.89782 0
M  V30 4413 H 423.33 0.786976 3.93202 0
M  V30 4414 H 419.92 2.1982 3.67936 0
M  V30 4415 H 424.104 3.16883 3.81967 0
M  V30 4416 H 419.36 4.55901 4.07387 0
M  V30 4417 H 423.534 5.53439 4.22704 0
M  V30 4418 H 421.161 6.23418 4.35033 0
M  V30 4419 N 422.737 -1.36956 0.779787 0
M  V30 4420 C 423.667 -2.32761 0.185651 0
M  V30 4421 C 424.648 -1.56177 -0.673989 0
M  V30 4422 O 425.833 -1.84378 -0.609797 0
M  V30 4423 C 422.963 -3.40418 -0.687964 0
M  V30 4424 C 421.917 -4.27941 0.0710102 0
M  V30 4425 C 421.243 -5.26681 -0.922573 0
M  V30 4426 C 422.543 -5.07006 1.25467 0
M  V30 4427 H 424.237 -2.82698 0.986008 0
M  V30 4428 H 421.783 -1.3592 0.475592 0
M  V30 4429 H 423.736 -4.06423 -1.11348 0
M  V30 4430 H 422.46 -2.89025 -1.52093 0
M  V30 4431 H 421.119 -3.63478 0.47739 0
M  V30 4432 H 420.767 -4.71565 -1.7503 0
M  V30 4433 H 420.467 -5.86103 -0.419237 0
M  V30 4434 H 421.991 -5.9556 -1.34686 0
M  V30 4435 H 423.405 -5.66105 0.905401 0
M  V30 4436 H 421.802 -5.75793 1.69063 0
M  V30 4437 H 422.872 -4.3921 2.05481 0
M  V30 4438 N 424.215 -0.530993 -1.48385 0
M  V30 4439 C 425.463 0.00273189 -2.021 0
M  V30 4440 C 425.784 1.34672 -1.41027 0
M  V30 4441 O 425.054 1.8724 -0.576012 0
M  V30 4442 H 423.634 0.00399774 -0.746989 0
M  V30 4443 H 426.296 -0.695054 -1.82085 0
M  V30 4444 H 425.392 0.11031 -3.11905 0
M  V30 4445 N 425.693 1.55336 -0.266172 0
M  V30 4446 C 426.941 1.99003 0.35246 0
M  V30 4447 C 427.262 1.15591 1.57047 0
M  V30 4448 O 426.532 0.243268 1.94384 0
M  V30 4449 H 425.112 0.735025 0.133217 0
M  V30 4450 H 427.774 1.91367 -0.369434 0
M  V30 4451 H 426.87 3.05289 0.648453 0
M  V30 4452 N 427.171 -0.0066808 1.57599 0
M  V30 4453 C 428.419 -0.691552 1.899 0
M  V30 4454 C 428.74 -1.74682 0.866672 0
M  V30 4455 O 428.01 -1.95661 -0.0968189 0
M  V30 4456 H 426.59 -0.258416 0.700878 0
M  V30 4457 H 429.252 0.0326655 1.94873 0
M  V30 4458 H 428.348 -1.16702 2.8946 0
M  V30 4459 N 428.649 -1.55105 -0.279332 0
M  V30 4460 C 430.065 -1.46803 -0.626187 0
M  V30 4461 C 430.265 -0.676939 -1.89789 0
M  V30 4462 O 429.321 -0.19326 -2.51759 0
M  V30 4463 C 430.634 -2.90962 -0.759034 0
M  V30 4464 C 432.182 -3.01138 -0.853504 0
M  V30 4465 C 432.657 -4.46539 -1.01818 0
M  V30 4466 N 434.148 -4.50341 -1.08386 0
M  V30 4467 C 434.883 -5.60053 -1.22996 0
M  V30 4468 N 434.379 -6.79645 -1.34366 0
M  V30 4469 N 436.172 -5.47783 -1.26056 0
M  V30 4470 H 428.323 -2.04996 0.555921 0
M  V30 4471 H 430.586 -0.929325 0.187239 0
M  V30 4472 H 430.292 -3.51544 0.104852 0
M  V30 4473 H 430.166 -3.39619 -1.64131 0
M  V30 4474 H 432.553 -2.40658 -1.70786 0
M  V30 4475 H 432.634 -2.55745 0.0532466 0
M  V30 4476 H 432.278 -5.0762 -0.168504 0
M  V30 4477 H 432.208 -4.89583 -1.93948 0
M  V30 4478 H 434.699 -3.64191 -1.00864 0
M  V30 4479 H 435.012 -7.59012 -1.4533 0
M  V30 4480 H 433.357 -6.82469 -1.31382 0
M  V30 4481 H 436.548 -4.53294 -1.168 0
M  V30 4482 H 436.721 -6.33331 -1.37098 0
M  V30 4483 O 430.166 0.425144 -1.55804 0
M  V30 4484 H 430.857 1.07829 -1.60912 0
M  V30 END ATOM
M  V30 BEGIN BOND
M  V30 END BOND
M  V30 END CTAB
M  END
$$$$
