drugbank_target|P9WNL5 Probable arabinosyltransferase C (DB00330)
 OpenBabel12092119353D

  0  0  0     0  0            999 V3000
M  V30 BEGIN CTAB
M  V30 COUNTS 16705 16930 0 0 0
M  V30 BEGIN ATOM
M  V30 1 H -0.908 1.98254 -0.117106 0
M  V30 2 N 0 1.576 0 0
M  V30 3 C 0.933 2.03868 1.02534 0
M  V30 4 C 1.911 0.928543 1.3348 0
M  V30 5 O 3.095 1.19667 1.45644 0
M  V30 6 C 0.222 2.43627 2.35294 0
M  V30 7 C -0.732 3.65373 2.2001 0
M  V30 8 S 0.101 5.13292 1.52614 0
M  V30 9 C 1.257 5.56322 2.86805 0
M  V30 10 H 1.49 2.90518 0.631377 0
M  V30 11 H -0.977 1.52953 0.210867 0
M  V30 12 H 0.981 2.67203 3.11629 0
M  V30 13 H -0.358 1.57376 2.7183 0
M  V30 14 H -1.165 3.90944 3.18086 0
M  V30 15 H -1.563 3.418 1.51819 0
M  V30 16 H 0.729 5.58782 3.83104 0
M  V30 17 H 1.672 6.56266 2.65933 0
M  V30 18 H 2.08 4.83886 2.90714 0
M  V30 19 N 1.4781 -0.272755 1.55222 0
M  V30 20 C 2.4411 -1.32041 1.87344 0
M  V30 21 C 3.4411 -1.42342 0.74803 0
M  V30 22 O 4.6311 -1.41488 1.0162 0
M  V30 23 C 1.7631 -2.70173 2.07893 0
M  V30 24 H 2.9561 -1.04789 2.80997 0
M  V30 25 H 0.5091 -0.51083 1.47717 0
M  V30 26 H 1.2441 -3.02605 1.16622 0
M  V30 27 H 1.0291 -2.64082 2.89833 0
M  V30 28 H 2.5191 -3.45869 2.34017 0
M  V30 29 N 2.9562 -1.48159 -0.537278 0
M  V30 30 C 4.1842 -1.59454 -1.31841 0
M  V30 31 C 4.5992 -0.252065 -1.8711 0
M  V30 32 O 3.9562 0.757621 -1.66031 0
M  V30 33 C 4.0072 -2.63546 -2.47439 0
M  V30 34 O 3.7282 -3.92583 -1.94449 0
M  V30 35 C 5.2292 -2.85212 -3.39366 0
M  V30 36 H 2.4492 -0.53785 -0.401196 0
M  V30 37 H 4.9932 -1.93932 -0.648891 0
M  V30 38 H 3.1482 -2.31946 -3.1029 0
M  V30 39 H 3.5622 -4.49629 -2.70063 0
M  V30 40 H 5.0362 -3.61863 -4.16844 0
M  V30 41 H 5.5132 -1.93765 -3.94147 0
M  V30 42 H 6.1192 -3.18086 -2.82314 0
M  V30 43 N 4.4343 0.785586 -1.36625 0
M  V30 44 C 5.3443 1.92964 -1.33425 0
M  V30 45 C 6.3603 1.72394 -0.235851 0
M  V30 46 O 7.5363 1.95866 -0.468878 0
M  V30 47 C 4.6013 3.27884 -1.12662 0
M  V30 48 C 3.6623 3.61204 -2.32013 0
M  V30 49 C 2.8953 4.89687 -2.12231 0
M  V30 50 O 3.1183 5.59704 -1.09945 0
M  V30 51 O 2.0523 5.21752 -3.00098 0
M  V30 52 H 5.8783 1.98613 -2.29753 0
M  V30 53 H 3.4633 0.926384 -1.17211 0
M  V30 54 H 5.3453 4.08614 -1.03016 0
M  V30 55 H 4.0203 3.23118 -0.193991 0
M  V30 56 H 2.9273 2.80765 -2.47228 0
M  V30 57 H 4.2603 3.70698 -3.23796 0
M  V30 58 N 5.9124 1.20967 1.01018 0
M  V30 59 C 6.8754 0.965918 2.07853 0
M  V30 60 C 7.8754 -0.0610545 1.60684 0
M  V30 61 O 9.0654 0.175681 1.73312 0
M  V30 62 C 6.1974 0.455513 3.37843 0
M  V30 63 H 7.3904 1.91365 2.3091 0
M  V30 64 H 4.9434 1.02594 1.17916 0
M  V30 65 H 5.6784 -0.497381 3.20463 0
M  V30 66 H 5.4634 1.19622 3.73407 0
M  V30 67 H 6.9534 0.304667 4.16487 0
M  V30 68 N 7.3905 -1.2043 1.01659 0
M  V30 69 C 8.3535 -2.21433 0.591616 0
M  V30 70 C 9.3535 -1.57203 -0.338226 0
M  V30 71 O 10.5435 -1.73737 -0.126918 0
M  V30 72 C 7.6755 -3.40628 -0.136058 0
M  V30 73 H 8.8685 -2.60545 1.48514 0
M  V30 74 H 6.4215 -1.33893 0.806379 0
M  V30 75 H 7.1565 -3.07019 -1.04449 0
M  V30 76 H 6.9415 -3.88475 0.531917 0
M  V30 77 H 8.4315 -4.15475 -0.420735 0
M  V30 78 N 8.8686 -0.792821 -1.36206 0
M  V30 79 C 10.2796 -0.429513 -1.81692 0
M  V30 80 C 10.6306 1.04695 -1.65932 0
M  V30 81 O 9.7556 1.81256 -1.18218 0
M  V30 82 C 10.3506 -0.772831 -3.29868 0
M  V30 83 C 8.9096 -0.462307 -3.7355 0
M  V30 84 C 8.0566 -1.00569 -2.5842 0
M  V30 85 H 11.0076 -0.985672 -1.24379 0
M  V30 86 H 11.0286 -0.0651928 -3.80444 0
M  V30 87 H 10.5406 -1.84747 -3.41307 0
M  V30 88 H 8.6416 0.604158 -3.67669 0
M  V30 89 H 8.7546 -0.985299 -4.68859 0
M  V30 90 H 7.1186 -0.428734 -2.51066 0
M  V30 91 H 7.9016 -2.08616 -2.72643 0
M  V30 92 N 10.3467 1.47872 -0.545128 0
M  V30 93 C 11.7577 1.86384 -0.108581 0
M  V30 94 C 12.1087 1.45309 1.31832 0
M  V30 95 O 11.2337 0.850641 1.9898 0
M  V30 96 C 11.8287 3.38265 -0.190274 0
M  V30 97 C 10.3877 3.75914 0.191164 0
M  V30 98 C 9.5347 2.71926 -0.543273 0
M  V30 99 H 12.4857 1.39561 -0.755537 0
M  V30 100 H 12.5067 3.75831 0.594217 0
M  V30 101 H 12.0187 3.6813 -1.2289 0
M  V30 102 H 10.1197 3.51665 1.23136 0
M  V30 103 H 10.2327 4.78836 -0.158987 0
M  V30 104 H 8.5967 2.54697 0.0122495 0
M  V30 105 H 9.3797 3.04634 -1.58282 0
M  V30 106 N 11.8248 0.280983 1.55075 0
M  V30 107 C 13.2408 -0.0729964 1.59433 0
M  V30 108 C 13.4408 -1.5411 1.29817 0
M  V30 109 O 12.4968 -2.29086 1.06187 0
M  V30 110 C 13.8098 0.306921 2.9913 0
M  V30 111 C 15.3578 0.254023 3.11968 0
M  V30 112 C 15.8328 0.608467 4.5394 0
M  V30 113 N 17.3238 0.560241 4.59799 0
M  V30 114 C 18.0588 0.80722 5.6769 0
M  V30 115 N 17.5548 1.11912 6.83701 0
M  V30 116 N 19.3478 0.735623 5.57266 0
M  V30 117 H 11.4988 1.238 1.7259 0
M  V30 118 H 13.7618 0.500547 0.805082 0
M  V30 119 H 13.4678 1.32816 3.25657 0
M  V30 120 H 13.3418 -0.349363 3.75579 0
M  V30 121 H 15.7288 -0.75794 2.852 0
M  V30 122 H 15.8098 0.944649 2.37718 0
M  V30 123 H 15.4538 1.61814 4.81434 0
M  V30 124 H 15.3838 -0.104013 5.26497 0
M  V30 125 H 17.8748 0.329288 3.76463 0
M  V30 126 H 18.1878 1.29409 7.61888 0
M  V30 127 H 16.5328 1.15695 6.85303 0
M  V30 128 H 19.7238 0.491752 4.6551 0
M  V30 129 H 19.8968 0.931482 6.4127 0
M  V30 130 N 13.3029 -1.57598 0.00835791 0
M  V30 131 C 14.5519 -1.90107 -0.673968 0
M  V30 132 C 14.8649 -0.884275 -1.7447 0
M  V30 133 O 16.0709 -1.09987 -2.48224 0
M  V30 134 C 14.5269 -3.37497 -1.24995 0
M  V30 135 C 14.1349 -4.47491 -0.2136 0
M  V30 136 C 15.8789 -3.79104 -1.90999 0
M  V30 137 C 13.7859 -5.85963 -0.80005 0
M  V30 138 H 12.7159 -0.709393 -0.255495 0
M  V30 139 H 15.3669 -1.83365 0.0702693 0
M  V30 140 H 13.7489 -3.39102 -2.04513 0
M  V30 141 H 14.9229 -4.57414 0.557596 0
M  V30 142 H 13.2379 -4.14956 0.346474 0
M  V30 143 H 15.8349 -4.79901 -2.35795 0
M  V30 144 H 16.1779 -3.1306 -2.74407 0
M  V30 145 H 16.7109 -3.79833 -1.18203 0
M  V30 146 H 13.4499 -6.555 -0.00456708 0
M  V30 147 H 12.9699 -5.79687 -1.54021 0
M  V30 148 H 14.6489 -6.33884 -1.29615 0
M  V30 149 N 14.781 0.264519 -1.55364 0
M  V30 150 C 15.744 1.31046 -1.88042 0
M  V30 151 C 16.744 1.41943 -0.755569 0
M  V30 152 O 17.934 1.40947 -1.02369 0
M  V30 153 C 15.066 2.69067 -2.09323 0
M  V30 154 H 16.259 1.03297 -2.81549 0
M  V30 155 H 13.812 0.502989 -1.47986 0
M  V30 156 H 14.547 3.01982 -1.18226 0
M  V30 157 H 14.332 2.62542 -2.91229 0
M  V30 158 H 15.822 3.44623 -2.35848 0
M  V30 159 N 16.2591 1.48442 0.529413 0
M  V30 160 C 17.5051 1.5672 1.28711 0
M  V30 161 C 17.8381 0.2406 1.92704 0
M  V30 162 O 17.1131 -0.753454 1.79313 0
M  V30 163 C 17.3961 2.70587 2.37603 0
M  V30 164 C 17.2491 4.12953 1.78297 0
M  V30 165 C 18.5681 2.80212 3.39366 0
M  V30 166 H 15.6871 0.570474 0.466613 0
M  V30 167 H 18.3291 1.80617 0.589706 0
M  V30 168 H 16.4791 2.50342 2.97088 0
M  V30 169 H 18.1511 4.44639 1.22858 0
M  V30 170 H 16.3941 4.19927 1.0883 0
M  V30 171 H 17.0651 4.88448 2.57144 0
M  V30 172 H 19.5411 2.98553 2.89836 0
M  V30 173 H 18.4171 3.61611 4.12951 0
M  V30 174 H 18.6781 1.88393 3.99951 0
M  V30 175 N 17.7372 -0.778329 1.37039 0
M  V30 176 C 19.1532 -1.07796 1.17695 0
M  V30 177 C 19.3532 -2.01498 0.00860115 0
M  V30 178 O 18.4092 -2.43901 -0.653352 0
M  V30 179 C 19.7222 -1.68178 2.49272 0
M  V30 180 C 21.2702 -1.80467 2.55735 0
M  V30 181 C 21.7452 -2.44263 3.87427 0
M  V30 182 N 23.2362 -2.51721 3.88833 0
M  V30 183 C 23.9712 -3.01919 4.87476 0
M  V30 184 N 23.4672 -3.5234 5.96513 0
M  V30 185 N 25.2602 -3.00733 4.74885 0
M  V30 186 H 17.4112 -0.156032 2.11826 0
M  V30 187 H 19.6742 -0.131844 0.938787 0
M  V30 188 H 19.3802 -1.06796 3.35093 0
M  V30 189 H 19.2542 -2.67554 2.65885 0
M  V30 190 H 21.6412 -2.40984 1.70325 0
M  V30 191 H 21.7222 -0.798656 2.43013 0
M  V30 192 H 21.3662 -1.84388 4.73248 0
M  V30 193 H 21.2962 -3.45458 3.9745 0
M  V30 194 H 23.7872 -2.1603 3.10063 0
M  V30 195 H 24.1002 -3.89027 6.67741 0
M  V30 196 H 22.4452 -3.50462 6.00168 0
M  V30 197 H 25.6362 -2.60638 3.88826 0
M  V30 198 H 25.8092 -3.39545 5.51918 0
M  V30 199 N 19.2153 -1.21501 -1.00376 0
M  V30 200 C 20.1453 -0.999478 -2.11028 0
M  V30 201 C 21.1263 0.0759671 -1.6993 0
M  V30 202 O 22.3113 -0.0841106 -1.94018 0
M  V30 203 C 19.4413 -0.564709 -3.42678 0
M  V30 204 C 18.3953 -1.58486 -3.97576 0
M  V30 205 C 17.7213 -1.00628 -5.25146 0
M  V30 206 C 19.0213 -2.97204 -4.29496 0
M  V30 207 H 20.7153 -1.92495 -2.29317 0
M  V30 208 H 18.2613 -0.92693 -1.102 0
M  V30 209 H 20.2143 -0.401091 -4.19487 0
M  V30 210 H 18.9383 0.396411 -3.24185 0
M  V30 211 H 17.5973 -1.73606 -3.22888 0
M  V30 212 H 17.2453 -0.0368439 -5.02987 0
M  V30 213 H 16.9453 -1.68771 -5.62841 0
M  V30 214 H 18.4693 -0.854015 -6.04598 0
M  V30 215 H 19.8833 -2.8552 -4.97143 0
M  V30 216 H 18.2803 -3.62372 -4.78338 0
M  V30 217 H 19.3503 -3.47956 -3.3772 0
M  V30 218 N 20.6934 1.19889 -1.02296 0
M  V30 219 C 22.1044 1.71124 -0.746568 0
M  V30 220 C 22.4554 1.81939 0.734335 0
M  V30 221 O 21.5804 1.48639 1.57275 0
M  V30 222 C 22.1754 3.10804 -1.34857 0
M  V30 223 C 20.7344 3.59323 -1.1209 0
M  V30 224 C 19.8814 2.3635 -1.45031 0
M  V30 225 H 22.8324 1.04813 -1.19163 0
M  V30 226 H 22.8534 3.73186 -0.742437 0
M  V30 227 H 22.3654 3.029 -2.42638 0
M  V30 228 H 20.4664 3.7255 -0.0610337 0
M  V30 229 H 20.5794 4.4378 -1.80544 0
M  V30 230 H 18.9434 2.39399 -0.869487 0
M  V30 231 H 19.7264 2.31081 -2.53883 0
M  V30 232 N 22.1715 0.800033 1.35784 0
M  V30 233 C 23.3965 0.388511 2.03729 0
M  V30 234 C 23.8215 -0.990481 1.5991 0
M  V30 235 O 23.1795 -1.64013 0.772612 0
M  V30 236 C 23.2275 0.4726 3.5749 0
M  V30 237 O 22.3315 -0.51646 4.09153 0
M  V30 238 H 21.6725 0.163271 0.643614 0
M  V30 239 H 24.2025 1.0841 1.73518 0
M  V30 240 H 24.2125 0.34003 4.06581 0
M  V30 241 H 22.8875 1.47848 3.88734 0
M  V30 242 H 21.4645 -0.344673 3.71304 0
M  V30 243 N 23.6496 -1.47581 0.552962 0
M  V30 244 C 24.8776 -2.06875 0.0320556 0
M  V30 245 C 25.2926 -1.40625 -1.25976 0
M  V30 246 O 24.6496 -0.501349 -1.75479 0
M  V30 247 C 24.7006 -3.61092 -0.17167 0
M  V30 248 O 24.4216 -4.24858 1.06899 0
M  V30 249 C 25.9226 -4.37242 -0.730344 0
M  V30 250 H 23.1426 -0.669561 0.043915 0
M  V30 251 H 25.6866 -1.89646 0.765163 0
M  V30 252 H 23.8416 -3.7785 -0.854894 0
M  V30 253 H 24.2556 -5.17334 0.864059 0
M  V30 254 H 25.7296 -5.45842 -0.822203 0
M  V30 255 H 26.2066 -4.03235 -1.74064 0
M  V30 256 H 26.8126 -4.25219 -0.0829543 0
M  V30 257 N 25.1277 -0.289203 -1.54924 0
M  V30 258 C 26.3527 0.329299 -2.04769 0
M  V30 259 C 26.7777 1.4763 -1.16564 0
M  V30 260 O 26.1357 1.80527 -0.167186 0
M  V30 261 C 26.1837 0.774438 -3.52186 0
M  V30 262 O 25.2877 1.88038 -3.67036 0
M  V30 263 H 24.6287 0.0659259 -0.660719 0
M  V30 264 H 27.1587 -0.42761 -2.00082 0
M  V30 265 H 27.1687 1.06642 -3.93816 0
M  V30 266 H 25.8437 -0.0646707 -4.1585 0
M  V30 267 H 24.4207 1.58985 -3.3731 0
M  V30 268 N 26.6058 1.57591 -0.0167156 0
M  V30 269 C 27.8518 1.91567 0.665582 0
M  V30 270 C 28.1848 0.892298 1.72487 0
M  V30 271 O 27.4598 -0.0867127 1.94307 0
M  V30 272 C 27.7428 3.36069 1.29342 0
M  V30 273 C 27.5958 4.49135 0.244541 0
M  V30 274 C 28.9148 3.803 2.21495 0
M  V30 275 H 26.0338 0.69666 0.240488 0
M  V30 276 H 28.6758 1.89866 -0.0714356 0
M  V30 277 H 26.8258 3.3765 1.92158 0
M  V30 278 H 28.4978 4.59689 -0.385228 0
M  V30 279 H 26.7408 4.3165 -0.431379 0
M  V30 280 H 27.4118 5.47242 0.723207 0
M  V30 281 H 29.8878 3.80377 1.68678 0
M  V30 282 H 28.7638 4.82127 2.62382 0
M  V30 283 H 29.0248 3.15104 3.101 0
M  V30 284 N 28.0839 -0.256276 1.55502 0
M  V30 285 C 29.4999 -0.604325 1.47716 0
M  V30 286 C 29.6999 -1.88763 0.705039 0
M  V30 287 O 28.7559 -2.51445 0.230613 0
M  V30 288 C 30.0689 -0.715756 2.92057 0
M  V30 289 C 31.6169 -0.808706 3.02372 0
M  V30 290 C 32.0919 -0.951777 4.48001 0
M  V30 291 N 33.5829 -1.01688 4.519 0
M  V30 292 C 34.3179 -1.14668 5.61817 0
M  V30 293 N 33.8139 -1.24261 6.81565 0
M  V30 294 N 35.6069 -1.1791 5.49594 0
M  V30 295 H 27.7579 0.586291 2.04148 0
M  V30 296 H 30.0209 0.201015 0.926443 0
M  V30 297 H 29.7269 0.157027 3.51349 0
M  V30 298 H 29.6009 -1.59071 3.42018 0
M  V30 299 H 31.9879 -1.67195 2.43166 0
M  V30 300 H 32.0689 0.0912063 2.55637 0
M  V30 301 H 31.7129 -0.0931291 5.07815 0
M  V30 302 H 31.6429 -1.86659 4.92408 0
M  V30 303 H 34.1339 -0.954468 3.65648 0
M  V30 304 H 34.4469 -1.34046 7.61086 0
M  V30 305 H 32.7919 -1.21236 6.84344 0
M  V30 306 H 35.9829 -1.10057 4.54978 0
M  V30 307 H 36.1559 -1.27681 6.35296 0
M  V30 308 N 29.562 -1.4872 -0.521534 0
M  V30 309 C 30.839 -1.4766 -1.2828 0
M  V30 310 C 31.219 -0.19292 -2.10217 0
M  V30 311 O 30.567 0.825193 -2.13079 0
M  V30 312 C 30.777 -2.74358 -2.15705 0
M  V30 313 C 32.125 -3.23028 -2.75569 0
M  V30 314 O 33.149 -2.75333 -2.25987 0
M  V30 315 O 32.008 -4.0604 -3.65778 0
M  V30 316 H 29.102 -0.590085 -0.579421 0
M  V30 317 H 31.648 -1.60963 -0.537492 0
M  V30 318 H 30.42 -3.59292 -1.54999 0
M  V30 319 H 30.043 -2.63816 -2.97467 0
M  V30 320 N 31.0401 0.771051 -1.3745 0
M  V30 321 C 32.0031 1.86598 -1.33093 0
M  V30 322 C 33.0031 1.59076 -0.234845 0
M  V30 323 O 34.1931 1.67145 -0.490732 0
M  V30 324 C 31.3251 3.23747 -1.06773 0
M  V30 325 H 32.5181 1.91873 -2.30488 0
M  V30 326 H 30.0711 0.970876 -1.2249 0
M  V30 327 H 30.8061 3.24148 -0.099129 0
M  V30 328 H 30.5911 3.45115 -1.86112 0
M  V30 329 H 32.0811 4.03824 -1.06377 0
M  V30 330 N 32.5182 1.22032 0.997298 0
M  V30 331 C 33.7662 1.04016 1.73278 0
M  V30 332 C 34.0872 -0.426255 1.90284 0
M  V30 333 O 33.3572 -1.30694 1.45931 0
M  V30 334 H 31.9372 0.381897 0.642 0
M  V30 335 H 34.5992 1.5347 1.20137 0
M  V30 336 H 33.6952 1.51441 2.72896 0
M  V30 337 N 33.9963 -1.19345 1.0293 0
M  V30 338 C 34.9593 -2.20793 0.615069 0
M  V30 339 C 35.9593 -1.57553 -0.321533 0
M  V30 340 O 37.1493 -1.73862 -0.108483 0
M  V30 341 C 34.2813 -3.40754 -0.0999222 0
M  V30 342 H 35.4743 -2.58955 1.51269 0
M  V30 343 H 33.0273 -1.3303 0.820534 0
M  V30 344 H 33.7623 -3.0811 -1.01187 0
M  V30 345 H 33.5473 -3.87889 0.57309 0
M  V30 346 H 35.0373 -4.15898 -0.376645 0
M  V30 347 N 35.4744 -0.807222 -1.35358 0
M  V30 348 C 36.4224 -0.20614 -2.31685 0
M  V30 349 C 37.4164 0.644445 -1.56663 0
M  V30 350 O 38.6224 0.537538 -1.71786 0
M  V30 351 H 34.9974 -0.0479006 -0.750473 0
M  V30 352 H 36.9684 -1.03369 -2.79924 0
M  V30 353 C 35.7174 0.630212 -3.41941 0
M  V30 354 H 35.0404 -0.0149558 -3.99797 0
M  V30 355 H 36.4804 1.01716 -4.11619 0
M  V30 356 C 34.9394 1.79601 -2.85035 0
M  V30 357 O 35.4694 2.89351 -2.78637 0
M  V30 358 N 33.6754 1.60774 -2.42074 0
M  V30 359 H 33.2224 0.715009 -2.47478 0
M  V30 360 H 33.1804 2.38933 -2.04349 0
M  V30 361 N 36.9525 1.47285 -0.560781 0
M  V30 362 C 38.1825 2.06555 -0.0429638 0
M  V30 363 C 38.5905 1.41339 1.25777 0
M  V30 364 O 37.9335 0.505182 1.76617 0
M  V30 365 C 37.9955 3.58827 0.219887 0
M  V30 366 C 37.6595 4.46105 -0.991944 0
M  V30 367 C 38.6565 4.84 -1.89843 0
M  V30 368 C 36.3415 4.87567 -1.20762 0
M  V30 369 C 38.3355 5.6216 -3.00425 0
M  V30 370 C 36.0225 5.65491 -2.31653 0
M  V30 371 C 37.0205 6.02699 -3.21315 0
M  V30 372 O 36.7085 6.79052 -4.30283 0
M  V30 373 H 36.4405 0.674537 -0.0444468 0
M  V30 374 H 38.9945 1.90225 -0.774818 0
M  V30 375 H 37.2245 3.73383 1.00609 0
M  V30 376 H 38.9135 4.00103 0.683522 0
M  V30 377 H 39.6795 4.52564 -1.74387 0
M  V30 378 H 35.5585 4.5807 -0.518893 0
M  V30 379 H 39.1025 5.9112 -3.70436 0
M  V30 380 H 34.9995 5.9634 -2.47081 0
M  V30 381 H 35.7675 6.9745 -4.28376 0
M  V30 382 N 38.4306 0.297415 1.54768 0
M  V30 383 C 39.8466 -0.0560823 1.59501 0
M  V30 384 C 40.0466 -1.52725 1.31444 0
M  V30 385 O 39.1026 -2.27947 1.08611 0
M  V30 386 C 40.4156 0.338631 2.98787 0
M  V30 387 C 41.9636 0.287097 3.11681 0
M  V30 388 C 42.4386 0.656579 4.53269 0
M  V30 389 N 43.9296 0.608977 4.59179 0
M  V30 390 C 44.6646 0.867385 5.66802 0
M  V30 391 N 44.1606 1.19157 6.82476 0
M  V30 392 N 45.9536 0.794687 5.56454 0
M  V30 393 H 38.1046 1.25624 1.71267 0
M  V30 394 H 40.3676 0.509057 0.799728 0
M  V30 395 H 40.0736 1.36263 3.2423 0
M  V30 396 H 39.9476 -0.309508 3.75928 0
M  V30 397 H 42.3346 -0.727649 2.85988 0
M  V30 398 H 42.4156 0.969809 2.36703 0
M  V30 399 H 42.0596 1.66912 4.7969 0
M  V30 400 H 41.9896 -0.0481649 5.26578 0
M  V30 401 H 44.4806 0.369198 3.76092 0
M  V30 402 H 44.7936 1.37482 7.60473 0
M  V30 403 H 43.1386 1.22958 6.84037 0
M  V30 404 H 46.3296 0.541098 4.64962 0
M  V30 405 H 46.5026 0.999445 6.40246 0
M  V30 406 N 39.9087 -1.5758 0.0250728 0
M  V30 407 C 41.1577 -1.90811 -0.653767 0
M  V30 408 C 41.4707 -0.90273 -1.73523 0
M  V30 409 O 42.6767 -1.12614 -2.47043 0
M  V30 410 C 41.1327 -3.38804 -1.21409 0
M  V30 411 C 40.7407 -4.47692 -0.166126 0
M  V30 412 C 42.4847 -3.81108 -1.86967 0
M  V30 413 C 40.3917 -5.86779 -0.737856 0
M  V30 414 H 39.3217 -0.712063 -0.247956 0
M  V30 415 H 41.9727 -1.83281 0.0897137 0
M  V30 416 H 40.3547 -3.41252 -2.00905 0
M  V30 417 H 41.5287 -4.56797 0.606079 0
M  V30 418 H 39.8437 -4.14565 0.390466 0
M  V30 419 H 42.4407 -4.82375 -2.30692 0
M  V30 420 H 42.7837 -3.15953 -2.71071 0
M  V30 421 H 43.3167 -3.81065 -1.14167 0
M  V30 422 H 40.0557 -6.55468 0.0649577 0
M  V30 423 H 39.5757 -5.81288 -1.47864 0
M  V30 424 H 41.2547 -6.35223 -1.22884 0
M  V30 425 N 41.3868 0.248026 -1.55636 0
M  V30 426 C 42.3498 1.29044 -1.89421 0
M  V30 427 C 43.3498 1.41134 -0.770581 0
M  V30 428 O 44.5398 1.39854 -1.03858 0
M  V30 429 C 41.6718 2.66831 -2.12165 0
M  V30 430 H 42.8648 1.00305 -2.82629 0
M  V30 431 H 40.4178 0.487265 -1.48511 0
M  V30 432 H 41.1528 3.00711 -1.21422 0
M  V30 433 H 40.9378 2.59438 -2.93997 0
M  V30 434 H 42.4278 3.42103 -2.3949 0
M  V30 435 N 42.8649 1.48995 0.513639 0
M  V30 436 C 44.2809 1.35478 0.843682 0
M  V30 437 C 44.4809 0.378213 1.97919 0
M  V30 438 O 43.5369 -0.194689 2.51748 0
M  V30 439 C 44.8499 2.75901 1.1958 0
M  V30 440 C 46.3979 2.84509 1.30474 0
M  V30 441 C 46.8729 4.25671 1.69021 0
M  V30 442 N 48.3639 4.28422 1.76094 0
M  V30 443 C 49.0989 5.34601 2.07338 0
M  V30 444 N 48.5949 6.5104 2.36894 0
M  V30 445 N 50.3879 5.22007 2.08483 0
M  V30 446 H 42.5389 2.11092 -0.235328 0
M  V30 447 H 44.8019 0.947039 -0.0426669 0
M  V30 448 H 44.5079 3.49001 0.434913 0
M  V30 449 H 44.3819 3.10467 2.1422 0
M  V30 450 H 46.7689 2.11655 2.05637 0
M  V30 451 H 46.8499 2.53542 0.339155 0
M  V30 452 H 46.4939 4.99048 0.944135 0
M  V30 453 H 46.4239 4.54094 2.66658 0
M  V30 454 H 48.9149 3.44441 1.55464 0
M  V30 455 H 49.2279 7.2779 2.59887 0
M  V30 456 H 47.5729 6.54287 2.34378 0
M  V30 457 H 50.7639 4.30051 1.84861 0
M  V30 458 H 50.9369 6.04854 2.325 0
M  V30 459 N 44.343 -0.763751 1.37857 0
M  V30 460 C 45.573 -1.55067 1.3652 0
M  V30 461 C 45.981 -1.89135 -0.0494227 0
M  V30 462 O 45.324 -1.52529 -1.02375 0
M  V30 463 C 45.386 -2.8838 2.14656 0
M  V30 464 C 45.05 -2.76905 3.63555 0
M  V30 465 C 46.047 -2.4739 4.57268 0
M  V30 466 C 43.732 -2.94676 4.06781 0
M  V30 467 C 45.726 -2.35786 5.92186 0
M  V30 468 C 43.413 -2.82692 5.41782 0
M  V30 469 C 44.411 -2.53289 6.34298 0
M  V30 470 O 44.099 -2.41345 7.66817 0
M  V30 471 H 43.831 -0.486776 0.469069 0
M  V30 472 H 46.385 -0.953812 1.81911 0
M  V30 473 H 44.615 -3.50217 1.63967 0
M  V30 474 H 46.304 -3.49828 2.05852 0
M  V30 475 H 47.07 -2.33339 4.2518 0
M  V30 476 H 42.949 -3.16563 3.35126 0
M  V30 477 H 46.493 -2.12757 6.64365 0
M  V30 478 H 42.39 -2.96314 5.7347 0
M  V30 479 H 43.158 -2.56634 7.77226 0
M  V30 480 N 45.8211 -1.22559 -0.990812 0
M  V30 481 C 47.0671 -1.05297 -1.73322 0
M  V30 482 C 47.4001 0.410655 -1.89808 0
M  V30 483 O 46.6751 1.30439 -1.44277 0
M  V30 484 C 46.9581 -1.76713 -3.13759 0
M  V30 485 C 46.8111 -3.30684 -3.04907 0
M  V30 486 C 48.1301 -1.52121 -4.12974 0
M  V30 487 H 45.2491 -0.38392 -0.629106 0
M  V30 488 H 47.8911 -1.50926 -1.15418 0
M  V30 489 H 46.0411 -1.37924 -3.63193 0
M  V30 490 H 47.7131 -3.7893 -2.63077 0
M  V30 491 H 45.9561 -3.60253 -2.41661 0
M  V30 492 H 46.6271 -3.75833 -4.04294 0
M  V30 493 H 49.1031 -1.85819 -3.72304 0
M  V30 494 H 47.9791 -2.04582 -5.0935 0
M  V30 495 H 48.2401 -0.454257 -4.3976 0
M  V30 496 N 47.2992 1.18797 -1.03562 0
M  V30 497 C 48.2622 2.20464 -0.626769 0
M  V30 498 C 49.2622 1.57721 0.313173 0
M  V30 499 O 50.4522 1.73917 0.0992615 0
M  V30 500 C 47.5842 3.40802 0.0818498 0
M  V30 501 H 48.7772 2.58149 -1.5264 0
M  V30 502 H 46.3302 1.32593 -0.827578 0
M  V30 503 H 47.0652 3.08642 0.995518 0
M  V30 504 H 46.8502 3.8758 -0.593652 0
M  V30 505 H 48.3402 4.16092 0.354584 0
M  V30 506 N 48.7773 0.814389 1.34928 0
M  V30 507 C 50.0233 0.399013 1.98836 0
M  V30 508 C 50.3563 -1.03314 1.64438 0
M  V30 509 O 49.6313 -1.71811 0.911659 0
M  V30 510 C 49.9143 0.591629 3.55207 0
M  V30 511 C 49.7673 2.06928 3.99376 0
M  V30 512 C 51.0863 0.022199 4.40094 0
M  V30 513 H 48.2053 0.146451 0.722303 0
M  V30 514 H 50.8473 1.02537 1.59957 0
M  V30 515 H 48.9973 0.0584441 3.88456 0
M  V30 516 H 50.6693 2.66544 3.76499 0
M  V30 517 H 48.9123 2.56287 3.49999 0
M  V30 518 H 49.5833 2.1549 5.08201 0
M  V30 519 H 52.0593 0.477643 4.13349 0
M  V30 520 H 50.9353 0.186832 5.48582 0
M  V30 521 H 51.1963 -1.07215 4.28902 0
M  V30 522 N 50.2554 -1.46986 0.568584 0
M  V30 523 C 51.5014 -2.02741 0.0488709 0
M  V30 524 C 51.8344 -1.44077 -1.30214 0
M  V30 525 O 51.1094 -0.600552 -1.84996 0
M  V30 526 C 51.3924 -3.60086 -0.032047 0
M  V30 527 C 51.2454 -4.29162 1.34686 0
M  V30 528 C 52.5644 -4.33838 -0.739798 0
M  V30 529 H 49.6834 -0.736749 0.0192338 0
M  V30 530 H 52.3254 -1.75289 0.733065 0
M  V30 531 H 50.4754 -3.83606 -0.61473 0
M  V30 532 H 52.1474 -4.16948 1.97362 0
M  V30 533 H 50.3904 -3.89073 1.91846 0
M  V30 534 H 51.0614 -5.37826 1.24285 0
M  V30 535 H 53.5374 -4.15378 -0.244939 0
M  V30 536 H 52.4134 -5.43537 -0.765406 0
M  V30 537 H 52.6744 -4.03875 -1.79827 0
M  V30 538 N 51.7335 -0.305618 -1.54608 0
M  V30 539 C 52.6965 0.555591 -2.22364 0
M  V30 540 C 53.6965 1.05768 -1.21119 0
M  V30 541 O 54.8865 0.952972 -1.45822 0
M  V30 542 C 52.0185 1.76974 -2.91364 0
M  V30 543 H 53.2115 -0.0364572 -2.99878 0
M  V30 544 H 50.7645 -0.0565007 -1.56198 0
M  V30 545 H 51.4995 2.40151 -2.17941 0
M  V30 546 H 51.2845 1.41732 -3.65588 0
M  V30 547 H 52.7745 2.38148 -3.43038 0
M  V30 548 N 53.2116 1.57565 -0.0334293 0
M  V30 549 C 54.4596 1.91598 0.642999 0
M  V30 550 C 54.7806 0.910847 1.7242 0
M  V30 551 O 54.0506 -0.0469931 1.95844 0
M  V30 552 H 52.6306 0.707228 0.240496 0
M  V30 553 H 55.2926 1.94726 -0.0822488 0
M  V30 554 H 54.3886 2.92336 1.09298 0
M  V30 555 N 54.6897 -0.239769 1.55765 0
M  V30 556 C 55.6197 -1.30052 1.9393 0
M  V30 557 C 56.6007 -1.49839 0.805132 0
M  V30 558 O 57.7857 -1.62328 1.06599 0
M  V30 559 C 54.9157 -2.65391 2.2402 0
M  V30 560 C 53.8697 -2.60289 3.39755 0
M  V30 561 C 53.1957 -3.99489 3.55405 0
M  V30 562 C 54.4957 -2.16654 4.75246 0
M  V30 563 H 56.1897 -0.983573 2.82783 0
M  V30 564 H 53.7357 -0.471701 1.36055 0
M  V30 565 H 55.6887 -3.3974 2.49308 0
M  V30 566 H 54.4127 -2.98736 1.32 0
M  V30 567 H 53.0717 -1.88398 3.14487 0
M  V30 568 H 52.7197 -4.30112 2.60793 0
M  V30 569 H 52.4197 -3.96962 4.33238 0
M  V30 570 H 53.9437 -4.75528 3.83022 0
M  V30 571 H 55.3577 -2.80737 4.99859 0
M  V30 572 H 53.7547 -2.25223 5.56232 0
M  V30 573 H 54.8247 -1.11835 4.71827 0
M  V30 574 N 56.1678 -1.49265 -0.50573 0
M  V30 575 C 57.0978 -1.68495 -1.61653 0
M  V30 576 C 58.0788 -0.53366 -1.61512 0
M  V30 577 O 59.2638 -0.76897 -1.78327 0
M  V30 578 C 56.3938 -1.74709 -3.00157 0
M  V30 579 C 55.3478 -2.89581 -3.15162 0
M  V30 580 C 54.6738 -2.80903 -4.5497 0
M  V30 581 C 55.9738 -4.30578 -2.95634 0
M  V30 582 H 57.6678 -2.61493 -1.45814 0
M  V30 583 H 55.2138 -1.25838 -0.70005 0
M  V30 584 H 57.1668 -1.86748 -3.77761 0
M  V30 585 H 55.8908 -0.783067 -3.17074 0
M  V30 586 H 54.5498 -2.77136 -2.39982 0
M  V30 587 H 54.1978 -1.82419 -4.68756 0
M  V30 588 H 53.8978 -3.57999 -4.65951 0
M  V30 589 H 55.4218 -2.94944 -5.34641 0
M  V30 590 H 56.8358 -4.4373 -3.63011 0
M  V30 591 H 55.2328 -5.0886 -3.18091 0
M  V30 592 H 56.3028 -4.45352 -1.91806 0
M  V30 593 N 57.6459 0.756429 -1.3826 0
M  V30 594 C 58.8939 1.51248 -1.34047 0
M  V30 595 C 59.2149 1.94875 0.0698372 0
M  V30 596 O 58.4849 1.67436 1.01696 0
M  V30 597 H 57.0649 0.561018 -0.493222 0
M  V30 598 H 59.7269 0.899347 -1.7291 0
M  V30 599 H 58.8229 2.40472 -1.98947 0
M  V30 600 N 59.124 1.23083 0.984299 0
M  V30 601 C 60.087 1.00979 2.05757 0
M  V30 602 C 61.087 -0.0269573 1.60777 0
M  V30 603 O 62.277 0.212403 1.729 0
M  V30 604 C 59.409 0.527072 3.36801 0
M  V30 605 H 60.602 1.9622 2.26799 0
M  V30 606 H 58.155 1.05072 1.15714 0
M  V30 607 H 58.89 -0.429294 3.21446 0
M  V30 608 H 58.675 1.27515 3.70786 0
M  V30 609 H 60.165 0.392942 4.15747 0
M  V30 610 N 60.6021 -1.18246 1.0419 0
M  V30 611 C 61.8481 -1.88536 0.747122 0
M  V30 612 C 62.1811 -1.80223 -0.723409 0
M  V30 613 O 61.4561 -1.20337 -1.52804 0
M  V30 614 C 61.7391 -3.38968 1.21544 0
M  V30 615 C 61.5921 -3.56084 2.74816 0
M  V30 616 C 62.9111 -4.32648 0.806482 0
M  V30 617 H 60.0301 -0.684619 0.272883 0
M  V30 618 H 62.6721 -1.39113 1.29413 0
M  V30 619 H 60.8221 -3.8119 0.750081 0
M  V30 620 H 62.4941 -3.22946 3.29399 0
M  V30 621 H 60.7371 -2.98699 3.14582 0
M  V30 622 H 61.4081 -4.61639 3.02644 0
M  V30 623 H 63.8841 -3.98211 1.20695 0
M  V30 624 H 62.7601 -5.36462 1.1619 0
M  V30 625 H 63.0211 -4.41146 -0.29029 0
M  V30 626 N 62.0802 -0.821533 -1.34494 0
M  V30 627 C 63.0102 -0.257138 -2.3208 0
M  V30 628 C 63.9912 0.625645 -1.58176 0
M  V30 629 O 65.1762 0.552811 -1.86166 0
M  V30 630 C 62.3062 0.582958 -3.42372 0
M  V30 631 C 61.2602 -0.202571 -4.2752 0
M  V30 632 C 60.5862 0.760179 -5.29269 0
M  V30 633 C 61.8862 -1.40998 -5.02908 0
M  V30 634 H 63.5802 -1.07247 -2.79532 0
M  V30 635 H 61.1262 -0.517163 -1.34393 0
M  V30 636 H 63.0792 0.987972 -4.09655 0
M  V30 637 H 61.8032 1.43133 -2.93565 0
M  V30 638 H 60.4622 -0.588936 -3.61838 0
M  V30 639 H 60.1102 1.60447 -4.76724 0
M  V30 640 H 59.8102 0.238809 -5.87115 0
M  V30 641 H 61.3342 1.16308 -5.9942 0
M  V30 642 H 62.7482 -1.07905 -5.63054 0
M  V30 643 H 61.1452 -1.86689 -5.70322 0
M  V30 644 H 62.2152 -2.1889 -4.32684 0
M  V30 645 N 63.5583 1.46682 -0.576371 0
M  V30 646 C 64.5213 2.28707 0.150239 0
M  V30 647 C 65.5213 1.38035 0.824794 0
M  V30 648 O 66.7113 1.60476 0.677719 0
M  V30 649 C 63.8433 3.18248 1.22192 0
M  V30 650 H 65.0363 2.94423 -0.570521 0
M  V30 651 H 62.5893 1.52688 -0.334078 0
M  V30 652 H 63.3243 2.57265 1.97447 0
M  V30 653 H 63.1093 3.85 0.742812 0
M  V30 654 H 64.5993 3.80001 1.73172 0
M  V30 655 N 65.0364 0.313813 1.54444 0
M  V30 656 C 66.2854 -0.292519 1.99568 0
M  V30 657 C 66.5984 -1.54011 1.20582 0
M  V30 658 O 67.8044 -2.22183 1.56035 0
M  V30 659 C 66.2604 -0.571752 3.55329 0
M  V30 660 C 65.8684 0.658229 4.43138 0
M  V30 661 C 67.6124 -1.13857 4.08946 0
M  V30 662 C 65.5194 0.351439 5.90355 0
M  V30 663 H 64.4494 -0.113079 0.745472 0
M  V30 664 H 67.1004 0.424518 1.78522 0
M  V30 665 H 65.4824 -1.34872 3.72325 0
M  V30 666 H 66.6564 1.43403 4.37918 0
M  V30 667 H 64.9714 1.14458 4.0036 0
M  V30 668 H 67.5684 -1.38257 5.16516 0
M  V30 669 H 67.9114 -2.08489 3.6033 0
M  V30 670 H 68.4444 -0.423015 3.95544 0
M  V30 671 H 65.1834 1.26667 6.43145 0
M  V30 672 H 64.7034 -0.386842 5.98551 0
M  V30 673 H 66.3824 -0.0423134 6.46986 0
M  V30 674 N 66.5145 -1.57545 0.0417849 0
M  V30 675 C 67.4775 -2.09885 -0.92093 0
M  V30 676 C 68.4775 -1.01648 -1.24596 0
M  V30 677 O 69.6675 -1.27759 -1.1842 0
M  V30 678 C 66.7995 -2.57527 -2.23367 0
M  V30 679 H 67.9925 -2.96236 -0.467382 0
M  V30 680 H 65.5455 -1.5493 -0.206467 0
M  V30 681 H 66.2805 -1.74542 -2.73323 0
M  V30 682 H 66.0655 -3.36613 -2.01083 0
M  V30 683 H 67.5555 -2.98201 -2.92346 0
M  V30 684 N 67.9926 0.231505 -1.5589 0
M  V30 685 C 69.2206 0.974505 -1.82513 0
M  V30 686 C 69.6356 1.78344 -0.619591 0
M  V30 687 O 68.9926 1.77792 0.411848 0
M  V30 688 C 69.0436 1.90007 -3.07538 0
M  V30 689 O 68.7646 1.12385 -4.2344 0
M  V30 690 C 70.2656 2.75779 -3.47075 0
M  V30 691 H 67.4856 0.286065 -0.606966 0
M  V30 692 H 70.0296 0.249739 -2.02969 0
M  V30 693 H 68.1846 2.57891 -2.89086 0
M  V30 694 H 68.5986 1.75125 -4.944 0
M  V30 695 H 70.0726 3.36443 -4.37619 0
M  V30 696 H 70.5496 3.47672 -2.68367 0
M  V30 697 H 71.1556 2.13323 -3.67931 0
M  V30 698 N 69.4707 1.49531 0.497807 0
M  V30 699 C 70.8817 1.52344 1.07927 0
M  V30 700 C 71.2327 0.311469 1.93712 0
M  V30 701 O 70.3577 -0.578405 2.08527 0
M  V30 702 C 70.9527 2.76062 1.96405 0
M  V30 703 C 69.5117 2.81643 2.49709 0
M  V30 704 C 68.6587 2.46299 1.27404 0
M  V30 705 H 71.6097 1.56182 0.281576 0
M  V30 706 H 71.6307 2.56405 2.81135 0
M  V30 707 H 71.1427 3.64254 1.33943 0
M  V30 708 H 69.2437 1.97739 3.15801 0
M  V30 709 H 69.3567 3.83891 2.86643 0
M  V30 710 H 67.7207 1.98148 1.60029 0
M  V30 711 H 68.5037 3.36769 0.66645 0
M  V30 712 N 70.9488 -0.749086 1.3866 0
M  V30 713 C 71.8788 -1.8764 1.38973 0
M  V30 714 C 72.8598 -1.68178 0.255004 0
M  V30 715 O 74.0448 -1.88704 0.458754 0
M  V30 716 C 71.1748 -3.25222 1.21851 0
M  V30 717 C 70.1288 -3.59295 2.32575 0
M  V30 718 C 69.4548 -4.95663 2.00555 0
M  V30 719 C 70.7548 -3.63709 3.7485 0
M  V30 720 H 72.4488 -1.87635 2.3331 0
M  V30 721 H 69.9948 -0.901329 1.12303 0
M  V30 722 H 71.9478 -4.03746 1.20695 0
M  V30 723 H 70.6718 -3.25719 0.239775 0
M  V30 724 H 69.3308 -2.83093 2.32925 0
M  V30 725 H 68.9788 -4.92724 1.01154 0
M  V30 726 H 68.6788 -5.19429 2.74714 0
M  V30 727 H 70.2028 -5.7656 2.01024 0
M  V30 728 H 71.6168 -4.32338 3.76506 0
M  V30 729 H 70.0138 -3.98986 4.48252 0
M  V30 730 H 71.0838 -2.63834 4.06841 0
M  V30 731 N 72.4269 -1.23603 -0.977757 0
M  V30 732 C 73.3569 -1.04401 -2.0886 0
M  V30 733 C 74.3379 0.0399052 -1.70053 0
M  V30 734 O 75.5229 -0.125246 -1.93796 0
M  V30 735 C 72.6529 -0.637269 -3.41403 0
M  V30 736 C 71.6069 -1.66883 -3.94124 0
M  V30 737 C 70.9329 -1.11745 -5.22893 0
M  V30 738 C 72.2329 -3.06247 -4.23096 0
M  V30 739 H 73.9269 -1.97316 -2.25182 0
M  V30 740 H 71.4729 -0.950096 -1.08209 0
M  V30 741 H 73.4259 -0.48998 -4.18542 0
M  V30 742 H 72.1499 0.327557 -3.24953 0
M  V30 743 H 70.8089 -1.80416 -3.19133 0
M  V30 744 H 70.4569 -0.143527 -5.02795 0
M  V30 745 H 70.1569 -1.80672 -5.59134 0
M  V30 746 H 71.6809 -0.982067 -6.02651 0
M  V30 747 H 73.0949 -2.96001 -4.90975 0
M  V30 748 H 71.4919 -3.72436 -4.70544 0
M  V30 749 H 72.5619 -3.55041 -3.30263 0
M  V30 750 N 73.905 1.17692 -1.04816 0
M  V30 751 C 75.316 1.69501 -0.782698 0
M  V30 752 C 75.667 1.83456 0.695577 0
M  V30 753 O 74.792 1.51942 1.54086 0
M  V30 754 C 75.387 3.07874 -1.41419 0
M  V30 755 C 73.946 3.56864 -1.19686 0
M  V30 756 C 73.093 2.3322 -1.50012 0
M  V30 757 H 76.044 1.02262 -1.2136 0
M  V30 758 H 76.065 3.71528 -0.821428 0
M  V30 759 H 75.577 2.97685 -2.49009 0
M  V30 760 H 73.678 3.72337 -0.140043 0
M  V30 761 H 73.791 4.39851 -1.89916 0
M  V30 762 H 72.155 2.37501 -0.920071 0
M  V30 763 H 72.938 2.25644 -2.58727 0
M  V30 764 N 75.3831 0.828654 1.34056 0
M  V30 765 C 76.6291 0.42008 1.98402 0
M  V30 766 C 76.9621 -1.01564 1.65525 0
M  V30 767 O 76.2371 -1.70834 0.929831 0
M  V30 768 C 76.5201 0.62927 3.54559 0
M  V30 769 C 76.3731 2.11152 3.97159 0
M  V30 770 C 77.6921 0.0688756 4.40046 0
M  V30 771 H 74.8111 0.154104 0.720709 0
M  V30 772 H 77.4531 1.04228 1.5886 0
M  V30 773 H 75.6031 0.0996418 3.88372 0
M  V30 774 H 77.2751 2.70522 3.73651 0
M  V30 775 H 75.5181 2.59985 3.47261 0
M  V30 776 H 76.1891 2.20868 5.05887 0
M  V30 777 H 78.6651 0.521458 4.1282 0
M  V30 778 H 77.5411 0.245006 5.48353 0
M  V30 779 H 77.8021 -1.0266 4.30015 0
M  V30 780 N 76.8612 -1.46375 0.584142 0
M  V30 781 C 77.8092 -2.32042 -0.161047 0
M  V30 782 C 78.8032 -1.44569 -0.882966 0
M  V30 783 O 80.0092 -1.61186 -0.801191 0
M  V30 784 H 76.3842 -0.748659 -0.0708033 0
M  V30 785 H 78.3552 -2.92704 0.580269 0
M  V30 786 C 77.1042 -3.27762 -1.1605 0
M  V30 787 H 76.4272 -3.95051 -0.614419 0
M  V30 788 H 77.8672 -3.90481 -1.65228 0
M  V30 789 C 76.3262 -2.53218 -2.22221 0
M  V30 790 O 76.8562 -2.29628 -3.29597 0
M  V30 791 N 75.0622 -2.13756 -1.96868 0
M  V30 792 H 74.6092 -2.33142 -1.09557 0
M  V30 793 H 74.5672 -1.642 -2.68115 0
M  V30 794 N 78.3393 -0.321999 -1.54275 0
M  V30 795 C 79.2713 0.578671 -2.21775 0
M  V30 796 C 80.2843 1.08109 -1.21722 0
M  V30 797 O 81.4733 0.994938 -1.482 0
M  V30 798 C 78.5733 1.80661 -2.86731 0
M  V30 799 C 77.7463 1.44314 -4.12907 0
M  V30 800 C 76.8053 2.52845 -4.61472 0
M  V30 801 O 75.8313 2.17054 -5.2619 0
M  V30 802 N 77.0333 3.83748 -4.35566 0
M  V30 803 H 79.7983 0.000709447 -2.997 0
M  V30 804 H 77.3593 -0.145132 -1.61248 0
M  V30 805 H 79.3513 2.52655 -3.16145 0
M  V30 806 H 77.9213 2.29245 -2.12521 0
M  V30 807 H 77.1413 0.554906 -3.90275 0
M  V30 808 H 78.4293 1.17598 -4.95023 0
M  V30 809 H 77.8273 4.15625 -3.83761 0
M  V30 810 H 76.3843 4.51977 -4.69638 0
M  V30 811 N 79.8174 1.5752 -0.0501392 0
M  V30 812 C 81.0454 1.96963 0.633492 0
M  V30 813 C 81.4604 0.927631 1.6444 0
M  V30 814 O 80.8174 -0.0882665 1.82286 0
M  V30 815 C 80.8684 3.36487 1.32132 0
M  V30 816 O 80.5894 4.36693 0.350894 0
M  V30 817 C 82.0904 3.90682 2.09481 0
M  V30 818 H 79.3104 0.648244 0.173266 0
M  V30 819 H 81.8544 2.0417 -0.116134 0
M  V30 820 H 80.0094 3.30434 2.02218 0
M  V30 821 H 80.4234 5.17702 0.841735 0
M  V30 822 H 81.8974 4.90591 2.5303 0
M  V30 823 H 82.3744 3.26053 2.94255 0
M  V30 824 H 82.9804 4.00069 1.44307 0
M  V30 825 N 81.2955 -0.223234 1.56011 0
M  V30 826 C 82.5235 -0.964812 1.83027 0
M  V30 827 C 82.9385 -1.78013 0.62904 0
M  V30 828 O 82.2955 -1.78008 -0.402414 0
M  V30 829 C 82.3465 -1.88373 3.08542 0
M  V30 830 O 82.0675 -1.10137 4.2403 0
M  V30 831 C 83.5685 -2.73934 3.48533 0
M  V30 832 H 80.7885 -0.282842 0.608475 0
M  V30 833 H 83.3325 -0.238971 2.03099 0
M  V30 834 H 81.4875 -2.56354 2.9045 0
M  V30 835 H 81.9015 -1.72501 4.95322 0
M  V30 836 H 83.3755 -3.34117 4.39397 0
M  V30 837 H 83.8525 -3.46244 2.70207 0
M  V30 838 H 84.4585 -2.11369 3.69057 0
M  V30 839 N 82.7736 -1.49793 -0.48987 0
M  V30 840 C 83.7366 -1.66752 -1.57246 0
M  V30 841 C 84.7366 -0.538867 -1.51502 0
M  V30 842 O 85.9266 -0.805545 -1.54456 0
M  V30 843 C 83.0586 -1.67528 -2.96896 0
M  V30 844 H 84.2516 -2.63321 -1.43534 0
M  V30 845 H 81.8046 -1.38992 -0.714914 0
M  V30 846 H 82.5396 -0.725837 -3.16073 0
M  V30 847 H 82.3246 -2.49504 -3.02473 0
M  V30 848 H 83.8146 -1.82667 -3.7553 0
M  V30 849 N 84.2517 0.741722 -1.39055 0
M  V30 850 C 85.1837 1.8657 -1.33133 0
M  V30 851 C 86.1967 1.61001 -0.241329 0
M  V30 852 O 87.3857 1.7136 -0.499784 0
M  V30 853 C 84.4857 3.22457 -1.04283 0
M  V30 854 C 83.6587 3.75435 -2.24427 0
M  V30 855 C 82.7177 4.89867 -1.92138 0
M  V30 856 O 81.7437 5.03879 -2.64754 0
M  V30 857 N 82.9457 5.73738 -0.88347 0
M  V30 858 H 85.7107 1.92156 -2.29991 0
M  V30 859 H 83.2717 0.922172 -1.3307 0
M  V30 860 H 85.2637 3.9657 -0.807128 0
M  V30 861 H 83.8337 3.12181 -0.161807 0
M  V30 862 H 83.0537 2.92751 -2.6399 0
M  V30 863 H 84.3417 4.07563 -3.04581 0
M  V30 864 H 83.7397 5.64999 -0.281517 0
M  V30 865 H 82.2967 6.47947 -0.707662 0
M  V30 866 N 85.7298 1.2412 0.971189 0
M  V30 867 C 86.6598 1.05508 2.08304 0
M  V30 868 C 87.6408 -0.0308864 1.70072 0
M  V30 869 O 88.8258 0.135521 1.93727 0
M  V30 870 C 85.9558 0.655365 3.4106 0
M  V30 871 C 84.9098 1.68971 3.93234 0
M  V30 872 C 84.2358 1.14516 5.22293 0
M  V30 873 C 85.5358 3.08487 4.21465 0
M  V30 874 H 87.2298 1.98507 2.24132 0
M  V30 875 H 84.7758 0.955821 1.07704 0
M  V30 876 H 86.7288 0.51217 4.18276 0
M  V30 877 H 85.4528 -0.31032 3.25122 0
M  V30 878 H 84.1118 1.82106 3.18171 0
M  V30 879 H 83.7598 0.170189 5.02712 0
M  V30 880 H 83.4598 1.83635 5.58168 0
M  V30 881 H 84.9838 1.01401 6.02121 0
M  V30 882 H 86.3978 2.98601 4.89398 0
M  V30 883 H 84.7948 3.74926 4.68562 0
M  V30 884 H 85.8648 3.56787 3.28376 0
M  V30 885 N 87.2079 -1.17134 1.05439 0
M  V30 886 C 88.1559 -2.23289 0.651511 0
M  V30 887 C 89.1499 -1.66186 -0.328411 0
M  V30 888 O 90.3559 -1.78949 -0.194206 0
M  V30 889 H 86.7309 -0.726938 0.192523 0
M  V30 890 H 88.7019 -2.54565 1.55689 0
M  V30 891 C 87.4509 -3.47671 0.0448436 0
M  V30 892 H 86.7739 -3.91918 0.78996 0
M  V30 893 H 88.2139 -4.2353 -0.19964 0
M  V30 894 C 86.6729 -3.14453 -1.20918 0
M  V30 895 O 87.2029 -3.29459 -2.29825 0
M  V30 896 N 85.4089 -2.68657 -1.10779 0
M  V30 897 H 84.9559 -2.56646 -0.221526 0
M  V30 898 H 84.9139 -2.46804 -1.9477 0
M  V30 899 N 88.686 -0.835752 -1.33615 0
M  V30 900 C 89.932 -0.439817 -1.98588 0
M  V30 901 C 90.287 0.989274 -1.65019 0
M  V30 902 O 89.58 1.68168 -0.918159 0
M  V30 903 C 89.774 -0.593925 -3.52431 0
M  V30 904 C 89.603 -2.03644 -4.00948 0
M  V30 905 C 88.373 -2.67103 -4.28934 0
M  V30 906 C 90.571 -3.00479 -4.17393 0
M  V30 907 N 88.553 -4.02462 -4.6357 0
M  V30 908 C 89.924 -4.20777 -4.55353 0
M  V30 909 C 91.979 -2.96926 -3.99674 0
M  V30 910 C 90.682 -5.37994 -4.77447 0
M  V30 911 C 92.708 -4.1337 -4.22941 0
M  V30 912 C 92.07 -5.32422 -4.61201 0
M  V30 913 H 88.169 -0.209303 -0.75347 0
M  V30 914 H 90.753 -1.08316 -1.61789 0
M  V30 915 H 88.924 0.019599 -3.88395 0
M  V30 916 H 90.656 -0.169738 -4.04344 0
M  V30 917 H 87.411 -2.18259 -4.20309 0
M  V30 918 H 87.835 -4.72232 -4.85104 0
M  V30 919 H 92.477 -2.06015 -3.69212 0
M  V30 920 H 90.195 -6.29451 -5.06771 0
M  V30 921 H 93.781 -4.12034 -4.10754 0
M  V30 922 H 92.661 -6.21027 -4.78848 0
M  V30 923 N 90.1641 1.46063 -0.591896 0
M  V30 924 C 91.5751 1.85944 -0.167822 0
M  V30 925 C 91.9261 1.49429 1.27143 0
M  V30 926 O 91.0511 0.913515 1.96173 0
M  V30 927 C 91.6461 3.37489 -0.297794 0
M  V30 928 C 90.2051 3.76332 0.0714732 0
M  V30 929 C 89.3521 2.7006 -0.629509 0
M  V30 930 H 92.3031 1.37087 -0.799555 0
M  V30 931 H 92.3241 3.77532 0.474349 0
M  V30 932 H 91.8361 3.64034 -1.3454 0
M  V30 933 H 89.9371 3.55405 1.11886 0
M  V30 934 H 90.0501 4.78088 -0.311245 0
M  V30 935 H 88.4141 2.54607 -0.0687867 0
M  V30 936 H 89.1971 2.99444 -1.67894 0
M  V30 937 N 91.6422 0.330177 1.54103 0
M  V30 938 C 92.5742 -0.566902 2.22079 0
M  V30 939 C 93.5872 -1.07462 1.22294 0
M  V30 940 O 94.7762 -0.987065 1.48726 0
M  V30 941 C 91.8762 -1.79138 2.87685 0
M  V30 942 C 91.0492 -1.42123 4.13666 0
M  V30 943 C 90.1082 -2.50394 4.62806 0
M  V30 944 O 89.1342 -2.14261 5.27334 0
M  V30 945 N 90.3362 -3.81433 4.37595 0
M  V30 946 H 93.1012 0.0151844 2.99696 0
M  V30 947 H 90.6622 0.153681 1.61169 0
M  V30 948 H 92.6542 -2.50975 3.1748 0
M  V30 949 H 91.2242 -2.28115 2.13734 0
M  V30 950 H 90.4442 -0.534201 3.90564 0
M  V30 951 H 91.7322 -1.14971 4.9564 0
M  V30 952 H 91.1302 -4.13584 3.8596 0
M  V30 953 H 89.6872 -4.4948 4.72029 0
M  V30 954 N 93.1203 -1.57491 0.0584922 0
M  V30 955 C 94.0683 -2.13148 -0.931168 0
M  V30 956 C 95.0623 -1.06507 -1.31729 0
M  V30 957 O 96.2683 -1.24906 -1.29609 0
M  V30 958 H 92.6433 -0.68137 -0.31818 0
M  V30 959 H 94.6143 -2.95187 -0.436707 0
M  V30 960 C 93.3633 -2.69732 -2.19408 0
M  V30 961 H 92.6863 -3.51454 -1.90578 0
M  V30 962 H 94.1263 -3.12287 -2.86798 0
M  V30 963 C 92.5853 -1.63855 -2.94369 0
M  V30 964 O 93.1153 -1.05565 -3.87581 0
M  V30 965 N 91.3213 -1.35202 -2.57233 0
M  V30 966 H 90.8683 -1.82791 -1.81508 0
M  V30 967 H 90.8263 -0.645922 -3.07693 0
M  V30 968 N 94.5984 0.214957 -1.56127 0
M  V30 969 C 95.8464 0.936518 -1.79091 0
M  V30 970 C 96.1674 1.84606 -0.628148 0
M  V30 971 O 95.4374 1.92664 0.35462 0
M  V30 972 H 94.0174 0.3488 -0.660566 0
M  V30 973 H 96.6794 0.22523 -1.93594 0
M  V30 974 H 95.7754 1.53943 -2.71492 0
M  V30 975 N 96.0765 1.50051 0.48192 0
M  V30 976 C 97.3045 1.64237 1.25832 0
M  V30 977 C 97.7195 0.321336 1.86045 0
M  V30 978 O 97.0765 -0.695478 1.68729 0
M  V30 979 C 97.1275 2.72548 2.37487 0
M  V30 980 O 96.8485 3.99529 1.79745 0
M  V30 981 C 98.3495 2.9761 3.28547 0
M  V30 982 H 95.5695 0.55237 0.380957 0
M  V30 983 H 98.1135 1.96207 0.576467 0
M  V30 984 H 96.2685 2.43303 3.01467 0
M  V30 985 H 96.6825 4.59342 2.5319 0
M  V30 986 H 98.1565 3.77084 4.03127 0
M  V30 987 H 98.6335 2.0826 3.86684 0
M  V30 988 H 99.2395 3.28345 2.70314 0
M  V30 989 N 97.5546 -0.734337 1.39446 0
M  V30 990 C 98.8016 -1.49391 1.36706 0
M  V30 991 C 99.1296 -1.94465 -0.0367813 0
M  V30 992 O 98.3846 -1.67154 -1.01774 0
M  V30 993 C 98.6836 -2.74711 2.28623 0
M  V30 994 C 98.3496 -2.48501 3.76242 0
M  V30 995 C 97.0116 -2.41062 4.16464 0
M  V30 996 C 99.3636 -2.26098 4.69606 0
M  V30 997 C 96.6916 -2.09262 5.48112 0
M  V30 998 C 99.0436 -1.95814 6.01531 0
M  V30 999 C 97.7076 -1.86845 6.40816 0
M  V30 1000 H 96.9776 -0.546661 0.500243 0
M  V30 1001 H 99.6246 -0.842788 1.71957 0
M  V30 1002 H 97.9296 -3.44569 1.86492 0
M  V30 1003 H 99.6266 -3.32741 2.23796 0
M  V30 1004 H 96.2166 -2.55169 3.44364 0
M  V30 1005 H 100.401 -2.30812 4.39363 0
M  V30 1006 H 95.6566 -2.00841 5.77471 0
M  V30 1007 H 99.8306 -1.77488 6.73403 0
M  V30 1008 H 97.4576 -1.6197 7.42745 0
M  V30 1009 N 99.0327 -1.24633 -0.964593 0
M  V30 1010 C 99.9957 -1.0424 -2.04124 0
M  V30 1011 C 100.996 0.00137563 -1.608 0
M  V30 1012 O 102.186 -0.239883 -1.7254 0
M  V30 1013 C 99.3177 -0.580588 -3.3592 0
M  V30 1014 H 100.511 -1.99803 -2.23649 0
M  V30 1015 H 98.0637 -1.06899 -1.14027 0
M  V30 1016 H 98.7987 0.3781 -3.22088 0
M  V30 1017 H 98.5837 -1.33398 -3.6871 0
M  V30 1018 H 100.074 -0.459034 -4.15069 0
M  V30 1019 N 100.511 1.16574 -1.06058 0
M  V30 1020 C 101.736 1.91493 -0.796562 0
M  V30 1021 C 102.161 1.76773 0.642868 0
M  V30 1022 O 101.519 1.09142 1.44768 0
M  V30 1023 C 101.567 3.40293 -1.19303 0
M  V30 1024 O 100.671 4.11074 -0.330394 0
M  V30 1025 H 100.012 0.596678 -0.291326 0
M  V30 1026 H 102.542 1.47708 -1.41575 0
M  V30 1027 H 102.552 3.91057 -1.16356 0
M  V30 1028 H 101.227 3.50326 -2.24153 0
M  V30 1029 H 99.8038 3.70513 -0.421225 0
M  V30 1030 N 101.989 0.842826 1.3317 0
M  V30 1031 C 103.235 0.441099 1.97945 0
M  V30 1032 C 103.568 -0.998024 1.66593 0
M  V30 1033 O 102.843 -1.69839 0.947898 0
M  V30 1034 C 103.126 0.666841 3.53872 0
M  V30 1035 C 102.979 2.15352 3.94897 0
M  V30 1036 C 104.298 0.115544 4.39948 0
M  V30 1037 H 101.417 0.161739 0.719034 0
M  V30 1038 H 104.059 1.05907 1.57746 0
M  V30 1039 H 102.209 0.140828 3.88245 0
M  V30 1040 H 103.881 2.7447 3.70761 0
M  V30 1041 H 102.124 2.63653 3.44484 0
M  V30 1042 H 102.795 2.26221 5.03516 0
M  V30 1043 H 105.271 0.565213 4.12243 0
M  V30 1044 H 104.147 0.303152 5.48062 0
M  V30 1045 H 104.408 -0.980935 4.3108 0
M  V30 1046 N 103.467 -1.45747 0.599634 0
M  V30 1047 C 104.377 -2.34262 -0.125888 0
M  V30 1048 C 105.393 -1.50768 -0.868625 0
M  V30 1049 O 106.569 -1.83592 -0.828003 0
M  V30 1050 C 103.634 -3.28252 -1.11587 0
M  V30 1051 C 102.695 -4.27651 -0.375956 0
M  V30 1052 C 101.928 -5.1715 -1.31877 0
M  V30 1053 O 102.151 -5.09916 -2.55621 0
M  V30 1054 O 101.085 -5.96286 -0.820157 0
M  V30 1055 H 104.911 -2.97688 0.601315 0
M  V30 1056 H 102.496 -1.44999 0.359934 0
M  V30 1057 H 104.378 -3.86191 -1.68626 0
M  V30 1058 H 103.053 -2.67401 -1.82424 0
M  V30 1059 H 101.96 -3.7335 0.236698 0
M  V30 1060 H 103.293 -4.91334 0.29177 0
M  V30 1061 N 104.945 -0.338344 -1.53925 0
M  V30 1062 C 105.908 0.508299 -2.23493 0
M  V30 1063 C 106.908 1.03175 -1.23335 0
M  V30 1064 O 108.098 0.921826 -1.47811 0
M  V30 1065 C 105.23 1.70754 -2.95052 0
M  V30 1066 H 106.423 -0.100058 -2.99733 0
M  V30 1067 H 103.976 -0.0896198 -1.56043 0
M  V30 1068 H 104.711 2.35474 -2.22986 0
M  V30 1069 H 104.496 1.33946 -3.68512 0
M  V30 1070 H 105.986 2.30818 -3.48013 0
M  V30 1071 N 106.423 1.57458 -0.0668435 0
M  V30 1072 C 107.834 1.80776 0.466558 0
M  V30 1073 C 108.185 0.980361 1.69951 0
M  V30 1074 O 107.31 0.201441 2.1546 0
M  V30 1075 C 107.905 3.27881 0.85321 0
M  V30 1076 C 106.464 3.52062 1.3315 0
M  V30 1077 C 105.611 2.75513 0.314264 0
M  V30 1078 H 108.562 1.5598 -0.292588 0
M  V30 1079 H 108.583 3.39659 1.715 0
M  V30 1080 H 108.095 3.88075 -0.0443439 0
M  V30 1081 H 106.196 2.97167 2.24772 0
M  V30 1082 H 106.309 4.60762 1.31285 0
M  V30 1083 H 104.673 2.42123 0.790492 0
M  V30 1084 H 105.456 3.38442 -0.575477 0
M  V30 1085 N 107.901 -0.206675 1.56239 0
M  V30 1086 C 108.831 -1.25909 1.96645 0
M  V30 1087 C 109.812 -1.48097 0.836734 0
M  V30 1088 O 110.997 -1.6003 1.10019 0
M  V30 1089 C 108.127 -2.6058 2.29599 0
M  V30 1090 C 107.081 -2.53024 3.452 0
M  V30 1091 C 106.407 -3.91861 3.63798 0
M  V30 1092 C 107.707 -2.06524 4.79734 0
M  V30 1093 H 109.401 -0.923369 2.84806 0
M  V30 1094 H 106.947 -0.442735 1.37025 0
M  V30 1095 H 108.9 -3.34375 2.56459 0
M  V30 1096 H 107.624 -2.95869 1.38307 0
M  V30 1097 H 106.283 -1.81684 3.18412 0
M  V30 1098 H 105.931 -4.24483 2.69857 0
M  V30 1099 H 105.631 -3.87683 4.4156 0
M  V30 1100 H 107.155 -4.67296 3.93022 0
M  V30 1101 H 108.569 -2.70072 5.05702 0
M  V30 1102 H 106.966 -2.13374 5.60885 0
M  V30 1103 H 108.036 -1.01802 4.74093 0
M  V30 1104 N 109.379 -1.50304 -0.473955 0
M  V30 1105 C 110.628 -1.60392 -1.22301 0
M  V30 1106 C 110.941 -0.308411 -1.93153 0
M  V30 1107 O 112.147 -0.288156 -2.69966 0
M  V30 1108 C 110.603 -2.83109 -2.2221 0
M  V30 1109 C 110.211 -4.19524 -1.57173 0
M  V30 1110 C 111.955 -3.0254 -2.97775 0
M  V30 1111 C 109.862 -5.33431 -2.55353 0
M  V30 1112 H 108.792 -0.597286 -0.460179 0
M  V30 1113 H 111.443 -1.76731 -0.493803 0
M  V30 1114 H 109.825 -2.60322 -2.9841 0
M  V30 1115 H 110.999 -4.52554 -0.867824 0
M  V30 1116 H 109.314 -4.05674 -0.939002 0
M  V30 1117 H 111.911 -3.84811 -3.71248 0
M  V30 1118 H 112.254 -2.14154 -3.56992 0
M  V30 1119 H 112.787 -3.25494 -2.28688 0
M  V30 1120 H 109.526 -6.23962 -2.00878 0
M  V30 1121 H 109.046 -5.04823 -3.23904 0
M  V30 1122 H 110.725 -5.63887 -3.17239 0
M  V30 1123 N 110.857 0.726932 -1.39834 0
M  V30 1124 C 112.105 1.4837 -1.37225 0
M  V30 1125 C 112.426 1.94979 0.0284857 0
M  V30 1126 O 111.696 1.69555 0.981213 0
M  V30 1127 H 110.276 0.55043 -0.505011 0
M  V30 1128 H 112.938 0.862468 -1.74778 0
M  V30 1129 H 112.034 2.36198 -2.04003 0
M  V30 1130 N 112.336 1.25143 0.95797 0
M  V30 1131 C 113.566 1.12261 1.73439 0
M  V30 1132 C 113.974 -0.326715 1.86358 0
M  V30 1133 O 113.317 -1.2367 1.35836 0
M  V30 1134 C 113.379 1.69966 3.16784 0
M  V30 1135 C 113.043 3.18936 3.27305 0
M  V30 1136 C 114.04 4.15968 3.11877 0
M  V30 1137 C 111.725 3.59083 3.51234 0
M  V30 1138 C 113.719 5.51126 3.20217 0
M  V30 1139 C 111.406 4.9438 3.5921 0
M  V30 1140 C 112.404 5.90211 3.43716 0
M  V30 1141 O 112.092 7.23046 3.51368 0
M  V30 1142 H 111.824 0.392476 0.550399 0
M  V30 1143 H 114.378 1.65927 1.21068 0
M  V30 1144 H 112.608 1.10744 3.70503 0
M  V30 1145 H 114.297 1.52232 3.76272 0
M  V30 1146 H 115.063 3.86292 2.93264 0
M  V30 1147 H 110.942 2.84989 3.62356 0
M  V30 1148 H 114.486 6.25905 3.0804 0
M  V30 1149 H 110.383 5.23723 3.77339 0
M  V30 1150 H 111.151 7.31097 3.6802 0
M  V30 1151 N 113.814 -1.1601 1.06675 0
M  V30 1152 C 115.06 -1.86909 0.786945 0
M  V30 1153 C 115.393 -1.81717 -0.685018 0
M  V30 1154 O 114.668 -1.23551 -1.50218 0
M  V30 1155 C 114.951 -3.36313 1.28707 0
M  V30 1156 C 114.804 -3.50175 2.82308 0
M  V30 1157 C 116.123 -4.3084 0.898071 0
M  V30 1158 H 113.242 -0.678677 0.287343 0
M  V30 1159 H 115.884 -1.36336 1.32334 0
M  V30 1160 H 114.034 -3.79513 0.830768 0
M  V30 1161 H 115.706 -3.15886 3.36175 0
M  V30 1162 H 113.949 -2.91959 3.20847 0
M  V30 1163 H 114.62 -4.55116 3.12368 0
M  V30 1164 H 117.096 -3.95561 1.29114 0
M  V30 1165 H 115.972 -5.33876 1.27543 0
M  V30 1166 H 116.233 -4.41662 -0.196651 0
M  V30 1167 N 115.292 -0.849877 -1.32721 0
M  V30 1168 C 116.255 -0.296122 -2.27279 0
M  V30 1169 C 117.255 0.541458 -1.5141 0
M  V30 1170 O 118.445 0.353658 -1.70572 0
M  V30 1171 C 115.577 0.581579 -3.35902 0
M  V30 1172 H 116.77 -1.13064 -2.77771 0
M  V30 1173 H 114.323 -0.62383 -1.43311 0
M  V30 1174 H 115.058 1.43809 -2.9067 0
M  V30 1175 H 114.843 -0.0178814 -3.92096 0
M  V30 1176 H 116.333 0.961951 -4.0637 0
M  V30 1177 N 116.77 1.45427 -0.607355 0
M  V30 1178 C 117.998 2.06614 -0.108814 0
M  V30 1179 C 118.413 1.45204 1.2067 0
M  V30 1180 O 117.77 0.566132 1.73497 0
M  V30 1181 C 117.821 3.61481 0.0375347 0
M  V30 1182 O 117.542 4.20598 -1.22593 0
M  V30 1183 C 119.043 4.39652 0.567561 0
M  V30 1184 H 116.263 0.66747 -0.0687351 0
M  V30 1185 H 118.807 1.86675 -0.835022 0
M  V30 1186 H 116.962 3.80762 0.714068 0
M  V30 1187 H 117.376 5.1377 -1.05547 0
M  V30 1188 H 118.85 5.48518 0.61905 0
M  V30 1189 H 119.327 4.09417 1.58978 0
M  V30 1190 H 119.933 4.25234 -0.0749202 0
M  V30 1191 N 118.248 0.346503 1.53744 0
M  V30 1192 C 119.525 -0.304532 1.93215 0
M  V30 1193 C 119.905 -1.67993 1.27834 0
M  V30 1194 O 119.253 -2.24411 0.430352 0
M  V30 1195 C 119.463 -0.373852 3.46992 0
M  V30 1196 C 120.811 -0.62329 4.2 0
M  V30 1197 O 121.835 -0.455847 3.53271 0
M  V30 1198 O 120.694 -0.947879 5.38217 0
M  V30 1199 H 117.788 -0.178318 0.807547 0
M  V30 1200 H 120.334 0.397895 1.64969 0
M  V30 1201 H 119.106 0.591224 3.86808 0
M  V30 1202 H 118.729 -1.12294 3.81413 0
M  V30 1203 N 119.726 -1.57421 0.075193 0
M  V30 1204 C 120.656 -2.15942 -0.888324 0
M  V30 1205 C 121.637 -1.08737 -1.30806 0
M  V30 1206 O 122.822 -1.36787 -1.37851 0
M  V30 1207 C 119.952 -2.72379 -2.1547 0
M  V30 1208 C 118.906 -3.8478 -1.87425 0
M  V30 1209 C 118.232 -4.27834 -3.20721 0
M  V30 1210 C 119.532 -5.08869 -1.17684 0
M  V30 1211 H 121.226 -2.96705 -0.400799 0
M  V30 1212 H 118.772 -1.42723 -0.191342 0
M  V30 1213 H 120.725 -3.11965 -2.83295 0
M  V30 1214 H 119.449 -1.88841 -2.6647 0
M  V30 1215 H 118.108 -3.45703 -1.22004 0
M  V30 1216 H 117.756 -3.41214 -3.6957 0
M  V30 1217 H 117.456 -5.03605 -3.02746 0
M  V30 1218 H 118.98 -4.70039 -3.89738 0
M  V30 1219 H 120.394 -5.4575 -1.75584 0
M  V30 1220 H 118.791 -5.8994 -1.09956 0
M  V30 1221 H 119.861 -4.84648 -0.156453 0
M  V30 1222 N 121.204 0.198386 -1.56346 0
M  V30 1223 C 122.152 1.26538 -1.95169 0
M  V30 1224 C 123.146 1.47295 -0.836685 0
M  V30 1225 O 124.352 1.48195 -1.02167 0
M  V30 1226 H 120.727 0.424744 -0.620561 0
M  V30 1227 H 122.698 0.910904 -2.84157 0
M  V30 1228 C 121.447 2.6035 -2.30463 0
M  V30 1229 H 120.77 2.45192 -3.15786 0
M  V30 1230 H 122.21 3.33762 -2.61494 0
M  V30 1231 C 120.669 3.17096 -1.13806 0
M  V30 1232 O 121.199 3.99588 -0.41135 0
M  V30 1233 N 119.405 2.75795 -0.915736 0
M  V30 1234 H 118.952 2.08816 -1.50843 0
M  V30 1235 H 118.91 3.14101 -0.136979 0
M  V30 1236 N 122.682 1.50554 0.465978 0
M  V30 1237 C 123.931 1.61038 1.21448 0
M  V30 1238 C 124.244 0.31865 1.92987 0
M  V30 1239 O 125.45 0.302469 2.6981 0
M  V30 1240 C 123.906 2.84283 2.20706 0
M  V30 1241 C 123.514 4.20352 1.54946 0
M  V30 1242 C 125.258 3.04115 2.96166 0
M  V30 1243 C 123.165 5.34778 2.5252 0
M  V30 1244 H 122.095 0.599718 0.457005 0
M  V30 1245 H 124.746 1.7699 0.484424 0
M  V30 1246 H 123.128 2.61901 2.97025 0
M  V30 1247 H 124.302 4.53008 0.843811 0
M  V30 1248 H 122.617 4.06167 0.917475 0
M  V30 1249 H 125.214 3.86774 3.69202 0
M  V30 1250 H 125.557 2.16045 3.55852 0
M  V30 1251 H 126.09 3.26702 2.26959 0
M  V30 1252 H 122.829 6.25018 1.97566 0
M  V30 1253 H 122.349 5.06534 3.21222 0
M  V30 1254 H 124.028 5.65561 3.14245 0
M  V30 1255 N 124.16 -0.719506 1.40217 0
M  V30 1256 C 125.388 -1.50864 1.41589 0
M  V30 1257 C 125.803 -1.88794 0.0145275 0
M  V30 1258 O 125.16 -1.55174 -0.960594 0
M  V30 1259 C 125.211 -2.78646 2.30302 0
M  V30 1260 O 124.932 -2.42321 3.64983 0
M  V30 1261 C 126.433 -3.72569 2.40224 0
M  V30 1262 H 123.653 -0.465709 0.48307 0
M  V30 1263 H 126.197 -0.88785 1.84221 0
M  V30 1264 H 124.352 -3.37019 1.91042 0
M  V30 1265 H 124.766 -3.24514 4.12057 0
M  V30 1266 H 126.24 -4.5908 3.06512 0
M  V30 1267 H 126.717 -4.15403 1.42608 0
M  V30 1268 H 127.323 -3.20109 2.80019 0
M  V30 1269 N 125.638 -1.25649 -0.95132 0
M  V30 1270 C 126.884 -1.10757 -1.69884 0
M  V30 1271 C 127.217 0.350061 -1.91019 0
M  V30 1272 O 126.492 1.25783 -1.48354 0
M  V30 1273 C 126.775 -1.86606 -3.07978 0
M  V30 1274 C 126.628 -3.40217 -2.94232 0
M  V30 1275 C 127.947 -1.65182 -4.07925 0
M  V30 1276 H 125.066 -0.40374 -0.616574 0
M  V30 1277 H 127.708 -1.54521 -1.10558 0
M  V30 1278 H 125.858 -1.49409 -3.58621 0
M  V30 1279 H 127.53 -3.87108 -2.50889 0
M  V30 1280 H 125.773 -3.67759 -2.30078 0
M  V30 1281 H 126.444 -3.88505 -3.92133 0
M  V30 1282 H 128.92 -1.9757 -3.66204 0
M  V30 1283 H 127.796 -2.20683 -5.02583 0
M  V30 1284 H 128.057 -0.593933 -4.38092 0
M  V30 1285 N 127.117 1.15442 -1.07289 0
M  V30 1286 C 128.528 1.67803 -0.818475 0
M  V30 1287 C 128.879 1.8489 0.656507 0
M  V30 1288 O 128.004 1.55176 1.50829 0
M  V30 1289 C 128.599 3.04805 -1.47917 0
M  V30 1290 C 127.158 3.54245 -1.27229 0
M  V30 1291 C 126.305 2.29986 -1.54925 0
M  V30 1292 H 129.256 0.996646 -1.23502 0
M  V30 1293 H 129.277 3.69702 -0.90005 0
M  V30 1294 H 128.789 2.92336 -2.55267 0
M  V30 1295 H 126.89 3.71956 -0.21899 0
M  V30 1296 H 127.003 4.35723 -1.99203 0
M  V30 1297 H 125.367 2.35496 -0.970242 0
M  V30 1298 H 126.15 2.20105 -2.63455 0
M  V30 1299 N 128.595 0.856903 1.32268 0
M  V30 1300 C 129.835 0.467705 1.98977 0
M  V30 1301 C 130.199 -0.959231 1.66321 0
M  V30 1302 O 131.4 -1.4531 2.26138 0
M  V30 1303 C 129.671 0.70256 3.50427 0
M  V30 1304 S 131.23 0.411269 4.36868 0
M  V30 1305 H 128.048 0.175121 0.689096 0
M  V30 1306 H 130.65 1.1101 1.60925 0
M  V30 1307 H 129.354 1.74012 3.71683 0
M  V30 1308 H 128.885 0.0466707 3.93372 0
M  V30 1309 H 130.9 -0.761799 4.90317 0
M  V30 1310 N 130.073 -1.45103 0.615059 0
M  V30 1311 C 131.005 -2.28786 -0.13762 0
M  V30 1312 C 132.018 -1.40376 -0.824525 0
M  V30 1313 O 133.207 -1.64681 -0.688662 0
M  V30 1314 C 130.307 -3.16322 -1.21628 0
M  V30 1315 C 129.48 -4.33054 -0.615039 0
M  V30 1316 C 128.539 -5.01743 -1.58556 0
M  V30 1317 O 127.565 -5.58293 -1.10895 0
M  V30 1318 N 128.767 -5.01714 -2.91998 0
M  V30 1319 H 131.532 -2.94025 0.580483 0
M  V30 1320 H 129.093 -1.55373 0.45507 0
M  V30 1321 H 131.085 -3.59139 -1.86552 0
M  V30 1322 H 129.655 -2.52943 -1.83681 0
M  V30 1323 H 128.875 -3.93627 0.21245 0
M  V30 1324 H 130.163 -5.08431 -0.193704 0
M  V30 1325 H 129.561 -4.57075 -3.33316 0
M  V30 1326 H 128.118 -5.48371 -3.52325 0
M  V30 1327 N 131.551 -0.354651 -1.53558 0
M  V30 1328 C 132.514 0.484566 -2.24019 0
M  V30 1329 C 133.514 1.01861 -1.24422 0
M  V30 1330 O 134.704 0.906097 -1.4878 0
M  V30 1331 C 131.836 1.67615 -2.96847 0
M  V30 1332 H 133.029 -0.131843 -2.9961 0
M  V30 1333 H 130.582 -0.106165 -1.55939 0
M  V30 1334 H 131.317 2.33095 -2.25471 0
M  V30 1335 H 131.102 1.30029 -3.69912 0
M  V30 1336 H 132.592 2.27114 -3.50441 0
M  V30 1337 N 133.029 1.57378 -0.0835403 0
M  V30 1338 C 133.992 2.12252 0.864959 0
M  V30 1339 C 134.992 1.04916 1.21858 0
M  V30 1340 O 136.182 1.30853 1.14991 0
M  V30 1341 C 133.314 2.63358 2.16461 0
M  V30 1342 H 134.507 2.97371 0.388676 0
M  V30 1343 H 132.06 1.55423 0.165317 0
M  V30 1344 H 132.795 1.81727 2.686 0
M  V30 1345 H 132.58 3.41826 1.92087 0
M  V30 1346 H 134.07 3.05847 2.84337 0
M  V30 1347 N 134.507 -0.190092 1.56449 0
M  V30 1348 C 135.47 -1.21925 1.9408 0
M  V30 1349 C 136.47 -1.38176 0.822431 0
M  V30 1350 O 137.66 -1.35903 1.08977 0
M  V30 1351 C 134.792 -2.58773 2.21922 0
M  V30 1352 H 135.985 -0.897464 2.86157 0
M  V30 1353 H 133.538 -0.43181 1.50217 0
M  V30 1354 H 134.273 -2.95998 1.32499 0
M  V30 1355 H 134.058 -2.48348 3.03424 0
M  V30 1356 H 135.548 -3.32978 2.52022 0
M  V30 1357 N 135.985 -1.50799 -0.457987 0
M  V30 1358 C 137.233 -1.62121 -1.2067 0
M  V30 1359 C 137.554 -0.329793 -1.92191 0
M  V30 1360 O 136.824 0.653409 -1.84682 0
M  V30 1361 H 135.404 -0.597441 -0.448411 0
M  V30 1362 H 138.066 -1.87637 -0.527096 0
M  V30 1363 H 137.162 -2.43882 -1.94751 0
M  V30 1364 N 137.463 0.71206 -1.40597 0
M  V30 1365 C 138.393 1.83889 -1.43899 0
M  V30 1366 C 139.374 1.67442 -0.299504 0
M  V30 1367 O 140.559 1.87421 -0.508624 0
M  V30 1368 C 137.689 3.21877 -1.30431 0
M  V30 1369 C 136.643 3.53002 -2.42019 0
M  V30 1370 C 135.969 4.90172 -2.13626 0
M  V30 1371 C 137.269 3.53643 -3.84362 0
M  V30 1372 H 138.963 1.81383 -2.38203 0
M  V30 1373 H 136.509 0.871237 -1.14654 0
M  V30 1374 H 138.462 4.00404 -1.31357 0
M  V30 1375 H 137.186 3.24968 -0.326049 0
M  V30 1376 H 135.845 2.76818 -2.40349 0
M  V30 1377 H 135.493 4.89869 -1.14182 0
M  V30 1378 H 135.193 5.11962 -2.88389 0
M  V30 1379 H 136.717 5.71028 -2.1624 0
M  V30 1380 H 138.131 4.22203 -3.87837 0
M  V30 1381 H 136.528 3.86961 -4.58673 0
M  V30 1382 H 137.598 2.52954 -4.13693 0
M  V30 1383 N 138.941 1.26152 0.944643 0
M  V30 1384 C 139.904 1.07474 2.0244 0
M  V30 1385 C 140.904 0.0242064 1.60782 0
M  V30 1386 O 142.094 0.267302 1.72137 0
M  V30 1387 C 139.226 0.633956 3.34953 0
M  V30 1388 H 140.419 2.03336 2.20442 0
M  V30 1389 H 137.972 1.087 1.12312 0
M  V30 1390 H 138.707 -0.326811 3.22649 0
M  V30 1391 H 138.492 1.39247 3.66542 0
M  V30 1392 H 139.982 0.52501 4.14287 0
M  V30 1393 N 140.419 -1.14872 1.07899 0
M  V30 1394 C 141.667 -1.85422 0.803941 0
M  V30 1395 C 141.988 -1.83051 -0.67211 0
M  V30 1396 O 141.258 -1.27532 -1.48703 0
M  V30 1397 H 139.838 -0.686537 0.294408 0
M  V30 1398 H 142.5 -1.39226 1.3639 0
M  V30 1399 H 141.596 -2.90399 1.14346 0
M  V30 1400 N 141.898 -0.863906 -1.31812 0
M  V30 1401 C 143.123 -0.48527 -2.01643 0
M  V30 1402 C 143.548 0.913058 -1.64453 0
M  V30 1403 O 142.906 1.6014 -0.849985 0
M  V30 1404 C 142.954 -0.642625 -3.54828 0
M  V30 1405 O 142.058 0.320659 -4.11151 0
M  V30 1406 H 141.399 -0.193793 -0.635091 0
M  V30 1407 H 143.929 -1.16565 -1.68148 0
M  V30 1408 H 143.939 -0.533628 -4.04495 0
M  V30 1409 H 142.614 -1.66227 -3.81237 0
M  V30 1410 H 141.191 0.167126 -3.72525 0
M  V30 1411 N 143.376 1.44774 -0.622745 0
M  V30 1412 C 144.308 2.28856 0.125485 0
M  V30 1413 C 145.321 1.40811 0.817069 0
M  V30 1414 O 146.51 1.65044 0.679918 0
M  V30 1415 C 143.61 3.16963 1.19949 0
M  V30 1416 C 142.783 4.33374 0.592064 0
M  V30 1417 C 141.842 5.02577 1.55893 0
M  V30 1418 O 140.868 5.58873 1.07933 0
M  V30 1419 N 142.07 5.03256 2.89334 0
M  V30 1420 H 144.835 2.93713 -0.596068 0
M  V30 1421 H 142.396 1.55129 -0.463303 0
M  V30 1422 H 144.388 3.60123 1.84644 0
M  V30 1423 H 142.958 2.53913 1.82337 0
M  V30 1424 H 142.178 3.93509 -0.233322 0
M  V30 1425 H 143.466 5.08527 0.166738 0
M  V30 1426 H 142.864 4.58836 3.30887 0
M  V30 1427 H 141.421 5.50232 3.49412 0
M  V30 1428 N 144.854 0.36279 1.53368 0
M  V30 1429 C 145.802 -0.500155 2.27159 0
M  V30 1430 C 146.796 -1.08575 1.3003 0
M  V30 1431 O 148.002 -1.02927 1.47668 0
M  V30 1432 H 144.377 -0.180009 0.730138 0
M  V30 1433 H 146.348 0.14401 2.98052 0
M  V30 1434 C 145.097 -1.62937 3.07159 0
M  V30 1435 H 144.42 -1.18806 3.8174 0
M  V30 1436 H 145.86 -2.20795 3.61975 0
M  V30 1437 C 144.319 -2.57007 2.17829 0
M  V30 1438 O 144.849 -3.59752 1.78721 0
M  V30 1439 N 143.055 -2.26131 1.82518 0
M  V30 1440 H 142.602 -1.42616 2.14519 0
M  V30 1441 H 142.56 -2.89327 1.23034 0
M  V30 1442 N 146.332 -1.57332 0.0918853 0
M  V30 1443 C 147.56 -1.98574 -0.581048 0
M  V30 1444 C 147.975 -0.970903 -1.61923 0
M  V30 1445 O 147.332 0.0399054 -1.82456 0
M  V30 1446 C 147.383 -3.39872 -1.23164 0
M  V30 1447 O 147.104 -4.37469 -0.234989 0
M  V30 1448 C 148.605 -3.96099 -1.99049 0
M  V30 1449 H 145.825 -0.65261 -0.156018 0
M  V30 1450 H 148.369 -2.0379 0.170225 0
M  V30 1451 H 146.524 -3.35679 -1.93386 0
M  V30 1452 H 146.938 -5.19751 -0.70418 0
M  V30 1453 H 148.412 -4.97127 -2.39934 0
M  V30 1454 H 148.889 -3.3374 -2.85507 0
M  V30 1455 H 149.495 -4.03755 -1.3365 0
M  V30 1456 N 147.81 0.181792 -1.56548 0
M  V30 1457 C 149.058 0.89832 -1.81038 0
M  V30 1458 C 149.379 1.83232 -0.667164 0
M  V30 1459 O 148.649 1.93372 0.313673 0
M  V30 1460 H 147.229 0.33471 -0.667816 0
M  V30 1461 H 149.891 0.184116 -1.94028 0
M  V30 1462 H 148.987 1.4815 -2.74696 0
M  V30 1463 N 149.288 1.51039 0.449983 0
M  V30 1464 C 150.235 1.71439 1.54523 0
M  V30 1465 C 151.205 0.555871 1.56522 0
M  V30 1466 O 152.39 0.788871 1.73728 0
M  V30 1467 C 149.53 1.83384 2.92343 0
M  V30 1468 C 148.643 3.10873 2.9997 0
M  V30 1469 C 147.778 3.13488 4.28834 0
M  V30 1470 C 146.817 4.35343 4.30282 0
M  V30 1471 N 145.954 4.35579 5.5065 0
M  V30 1472 H 150.794 2.64934 1.36433 0
M  V30 1473 H 148.331 1.31312 0.662982 0
M  V30 1474 H 150.289 1.88291 3.72293 0
M  V30 1475 H 148.919 0.933086 3.0902 0
M  V30 1476 H 147.971 3.15336 2.12761 0
M  V30 1477 H 149.283 4.00814 2.96901 0
M  V30 1478 H 148.437 3.17241 5.17149 0
M  V30 1479 H 147.176 2.21414 4.34543 0
M  V30 1480 H 146.181 4.3178 3.40362 0
M  V30 1481 H 147.406 5.28668 4.26248 0
M  V30 1482 H 145.352 3.46369 5.57104 0
M  V30 1483 H 145.269 5.19313 5.49409 0
M  V30 1484 H 146.537 4.43507 6.41032 0
M  V30 1485 N 150.766 -0.704594 1.40972 0
M  V30 1486 C 151.994 -1.49354 1.43182 0
M  V30 1487 C 152.409 -1.88768 0.0345508 0
M  V30 1488 O 151.766 -1.56184 -0.944081 0
M  V30 1489 C 151.817 -2.76187 2.33244 0
M  V30 1490 O 151.538 -2.38436 3.67532 0
M  V30 1491 C 153.039 -3.7 2.44162 0
M  V30 1492 H 150.259 -0.460559 0.487982 0
M  V30 1493 H 152.803 -0.868261 1.85153 0
M  V30 1494 H 150.958 -3.34974 1.94606 0
M  V30 1495 H 151.372 -3.20126 4.15475 0
M  V30 1496 H 152.846 -4.55803 3.11364 0
M  V30 1497 H 153.323 -4.13867 1.47006 0
M  V30 1498 H 153.929 -3.17121 2.83398 0
M  V30 1499 N 152.244 -1.26651 -0.937939 0
M  V30 1500 C 153.49 -1.12553 -1.687 0
M  V30 1501 C 153.823 0.329782 -1.91379 0
M  V30 1502 O 153.098 1.24202 -1.4968 0
M  V30 1503 C 153.381 -1.89862 -3.05981 0
M  V30 1504 C 153.234 -3.43318 -2.90607 0
M  V30 1505 C 154.553 -1.69499 -4.0615 0
M  V30 1506 H 151.672 -0.410257 -0.612257 0
M  V30 1507 H 154.314 -1.55685 -1.08913 0
M  V30 1508 H 152.464 -1.53204 -3.57017 0
M  V30 1509 H 154.136 -3.89747 -2.46769 0
M  V30 1510 H 152.379 -3.70179 -2.26164 0
M  V30 1511 H 153.05 -3.92642 -3.8799 0
M  V30 1512 H 155.526 -2.01442 -3.64088 0
M  V30 1513 H 154.402 -2.26002 -5.00214 0
M  V30 1514 H 154.663 -0.640365 -4.37438 0
M  V30 1515 N 153.722 1.14298 -1.08507 0
M  V30 1516 C 154.652 2.21542 -0.737646 0
M  V30 1517 C 155.633 1.67773 0.280377 0
M  V30 1518 O 156.818 1.93616 0.150521 0
M  V30 1519 C 153.948 3.46988 -0.147259 0
M  V30 1520 C 152.902 4.13789 -1.09374 0
M  V30 1521 C 152.228 5.33449 -0.365524 0
M  V30 1522 C 153.528 4.62208 -2.4323 0
M  V30 1523 H 155.222 2.5086 -1.6343 0
M  V30 1524 H 152.768 1.20576 -0.787243 0
M  V30 1525 H 154.721 4.21262 0.107808 0
M  V30 1526 H 153.445 3.17037 0.784538 0
M  V30 1527 H 152.104 3.4147 -1.33393 0
M  V30 1528 H 151.752 4.99759 0.57011 0
M  V30 1529 H 151.452 5.79088 -0.996512 0
M  V30 1530 H 152.976 6.10485 -0.118534 0
M  V30 1531 H 154.39 5.27952 -2.23472 0
M  V30 1532 H 152.787 5.18553 -3.02031 0
M  V30 1533 H 153.857 3.77224 -3.04681 0
M  V30 1534 N 155.201 0.870884 1.31352 0
M  V30 1535 C 156.131 0.343096 2.30966 0
M  V30 1536 C 157.112 -0.566507 1.60389 0
M  V30 1537 O 158.297 -0.483336 1.88089 0
M  V30 1538 C 155.427 -0.455487 3.443 0
M  V30 1539 C 154.381 0.361103 4.26474 0
M  V30 1540 C 153.707 -0.563221 5.31725 0
M  V30 1541 C 155.007 1.59566 4.97329 0
M  V30 1542 H 156.701 1.17548 2.75359 0
M  V30 1543 H 154.247 0.566686 1.32381 0
M  V30 1544 H 156.2 -0.83525 4.13039 0
M  V30 1545 H 154.924 -1.32139 2.98675 0
M  V30 1546 H 153.583 0.722825 3.59403 0
M  V30 1547 H 153.231 -1.42643 4.82351 0
M  V30 1548 H 152.931 -0.0207409 5.87596 0
M  V30 1549 H 154.455 -0.939808 6.03324 0
M  V30 1550 H 155.869 1.28728 5.58661 0
M  V30 1551 H 154.266 2.07728 5.63 0
M  V30 1552 H 155.336 2.34798 4.24262 0
M  V30 1553 N 156.679 -1.44442 0.630414 0
M  V30 1554 C 157.904 -2.06927 0.139944 0
M  V30 1555 C 158.329 -1.46795 -1.17613 0
M  V30 1556 O 157.687 -0.569144 -1.72135 0
M  V30 1557 C 157.735 -3.6058 0.0379581 0
M  V30 1558 O 156.839 -3.99937 -1.0062 0
M  V30 1559 H 156.18 -0.658608 0.0844483 0
M  V30 1560 H 158.71 -1.85327 0.866891 0
M  V30 1561 H 158.72 -4.07714 -0.152856 0
M  V30 1562 H 157.395 -4.03728 0.998809 0
M  V30 1563 H 155.972 -3.64436 -0.79001 0
M  V30 1564 N 158.157 -0.370918 -1.53173 0
M  V30 1565 C 159.385 0.217704 -2.05751 0
M  V30 1566 C 159.8 1.42018 -1.24404 0
M  V30 1567 O 159.157 1.80245 -0.286033 0
M  V30 1568 C 159.208 0.605954 -3.56385 0
M  V30 1569 O 158.929 -0.548734 -4.3465 0
M  V30 1570 C 160.43 1.2524 -4.25241 0
M  V30 1571 H 157.65 0.0371659 -0.66997 0
M  V30 1572 H 160.194 -0.530832 -1.9749 0
M  V30 1573 H 158.349 1.3044 -3.6478 0
M  V30 1574 H 158.763 -0.23376 -5.23979 0
M  V30 1575 H 160.237 1.47458 -5.3194 0
M  V30 1576 H 160.714 2.2143 -3.79296 0
M  V30 1577 H 161.32 0.595233 -4.21114 0
M  V30 1578 N 159.635 1.57281 -0.100228 0
M  V30 1579 C 160.881 1.94826 0.563101 0
M  V30 1580 C 161.214 0.982475 1.67514 0
M  V30 1581 O 160.489 0.0164069 1.94493 0
M  V30 1582 C 160.772 3.42453 1.11346 0
M  V30 1583 C 160.625 4.498 0.00612081 0
M  V30 1584 C 161.944 3.91506 2.01024 0
M  V30 1585 H 159.063 0.708428 0.203221 0
M  V30 1586 H 161.705 1.8922 -0.171979 0
M  V30 1587 H 159.855 3.47361 1.7399 0
M  V30 1588 H 161.527 4.57 -0.628357 0
M  V30 1589 H 159.77 4.28756 -0.659581 0
M  V30 1590 H 160.441 5.50306 0.432109 0
M  V30 1591 H 162.917 3.88784 1.48278 0
M  V30 1592 H 161.793 4.95358 2.36457 0
M  V30 1593 H 162.054 3.31099 2.92961 0
M  V30 1594 N 161.113 -0.173488 1.56642 0
M  V30 1595 C 162.524 -0.736155 1.71574 0
M  V30 1596 C 162.875 -1.82888 0.710389 0
M  V30 1597 O 162 -2.16017 -0.1287 0
M  V30 1598 C 162.595 -1.34211 3.11083 0
M  V30 1599 C 161.154 -1.85162 3.27707 0
M  V30 1600 C 160.301 -0.729765 2.67525 0
M  V30 1601 H 163.252 0.0518786 1.58615 0
M  V30 1602 H 163.273 -2.21178 3.09613 0
M  V30 1603 H 162.785 -0.546579 3.84232 0
M  V30 1604 H 160.886 -2.67366 2.59512 0
M  V30 1605 H 160.999 -1.99855 4.35425 0
M  V30 1606 H 159.363 -1.14965 2.27278 0
M  V30 1607 H 160.146 0.0538806 3.43258 0
M  V30 1608 N 162.591 -1.51276 -0.441967 0
M  V30 1609 C 163.538 -1.72256 -1.53612 0
M  V30 1610 C 164.508 -0.564164 -1.56225 0
M  V30 1611 O 165.693 -0.798074 -1.73307 0
M  V30 1612 C 162.833 -1.84932 -2.91366 0
M  V30 1613 C 161.946 -3.12459 -2.98317 0
M  V30 1614 C 161.081 -3.15758 -4.27166 0
M  V30 1615 C 160.12 -4.37619 -4.27967 0
M  V30 1616 N 159.257 -4.38493 -5.48333 0
M  V30 1617 H 164.097 -2.65654 -1.35026 0
M  V30 1618 H 161.634 -1.31662 -0.656009 0
M  V30 1619 H 163.592 -1.90263 -3.7129 0
M  V30 1620 H 162.222 -0.949461 -3.08521 0
M  V30 1621 H 161.274 -3.1646 -2.11086 0
M  V30 1622 H 162.586 -4.02382 -2.94771 0
M  V30 1623 H 161.74 -3.19979 -5.15459 0
M  V30 1624 H 160.479 -2.23715 -4.33362 0
M  V30 1625 H 159.484 -4.33579 -3.38067 0
M  V30 1626 H 160.709 -5.30921 -4.23438 0
M  V30 1627 H 158.655 -3.49318 -5.55259 0
M  V30 1628 H 158.572 -5.22219 -5.46647 0
M  V30 1629 H 159.84 -4.469 -6.38671 0
M  V30 1630 N 164.069 0.697108 -1.41344 0
M  V30 1631 C 165.001 1.8224 -1.39001 0
M  V30 1632 C 166.014 1.60152 -0.292428 0
M  V30 1633 O 167.203 1.69684 -0.554048 0
M  V30 1634 C 164.303 3.18976 -1.14489 0
M  V30 1635 C 163.476 3.68105 -2.36258 0
M  V30 1636 C 162.535 4.83506 -2.07625 0
M  V30 1637 O 161.561 4.95201 -2.8065 0
M  V30 1638 N 162.763 5.70637 -1.06555 0
M  V30 1639 H 165.528 1.84742 -2.35988 0
M  V30 1640 H 163.089 0.87937 -1.35936 0
M  V30 1641 H 165.081 3.93801 -0.932885 0
M  V30 1642 H 163.651 3.11508 -0.261043 0
M  V30 1643 H 162.871 2.84204 -2.7317 0
M  V30 1644 H 164.159 3.97667 -3.17393 0
M  V30 1645 H 163.557 5.63817 -0.461125 0
M  V30 1646 H 162.114 6.45368 -0.913444 0
M  V30 1647 N 165.547 1.27147 0.931209 0
M  V30 1648 C 166.51 1.09615 2.01289 0
M  V30 1649 C 167.51 0.0412581 1.60747 0
M  V30 1650 O 168.7 0.285545 1.71844 0
M  V30 1651 C 165.832 0.669447 3.34262 0
M  V30 1652 H 167.025 2.05662 2.18273 0
M  V30 1653 H 164.578 1.09885 1.11153 0
M  V30 1654 H 165.313 -0.292572 3.22978 0
M  V30 1655 H 165.098 1.43127 3.65044 0
M  V30 1656 H 166.588 0.568921 4.13706 0
M  V30 1657 N 167.025 -1.13721 1.09112 0
M  V30 1658 C 168.436 -1.6648 0.845068 0
M  V30 1659 C 168.787 -1.85911 -0.62701 0
M  V30 1660 O 167.912 -1.57556 -1.48341 0
M  V30 1661 C 168.507 -3.02413 1.52748 0
M  V30 1662 C 167.066 -3.52176 1.32849 0
M  V30 1663 C 166.213 -2.27492 1.58564 0
M  V30 1664 H 169.164 -0.976872 1.25072 0
M  V30 1665 H 169.185 -3.68223 0.958752 0
M  V30 1666 H 168.697 -2.88238 2.59885 0
M  V30 1667 H 166.798 -3.7156 0.278137 0
M  V30 1668 H 166.911 -4.32499 2.0611 0
M  V30 1669 H 165.275 -2.33923 1.00758 0
M  V30 1670 H 166.058 -2.15886 2.66924 0
M  V30 1671 N 168.503 -0.877838 -1.30888 0
M  V30 1672 C 169.45 -0.337538 -2.28318 0
M  V30 1673 C 170.42 0.568346 -1.56074 0
M  V30 1674 O 171.605 0.498298 -1.84178 0
M  V30 1675 C 168.745 0.448142 -3.42178 0
M  V30 1676 C 167.858 -0.48615 -4.29256 0
M  V30 1677 C 166.993 0.314427 -5.30269 0
M  V30 1678 C 166.032 -0.615791 -6.08995 0
M  V30 1679 N 165.169 0.14902 -7.01942 0
M  V30 1680 H 170.009 -1.17356 -2.73919 0
M  V30 1681 H 167.546 -0.590094 -1.34745 0
M  V30 1682 H 169.504 0.919517 -4.06941 0
M  V30 1683 H 168.134 1.24879 -2.97666 0
M  V30 1684 H 167.186 -1.076 -3.64865 0
M  V30 1685 H 168.498 -1.19909 -4.84173 0
M  V30 1686 H 167.652 0.847969 -6.00745 0
M  V30 1687 H 166.391 1.06062 -4.76027 0
M  V30 1688 H 165.396 -1.16102 -5.37401 0
M  V30 1689 H 166.621 -1.36097 -6.65323 0
M  V30 1690 H 164.567 0.877884 -6.50099 0
M  V30 1691 H 164.484 -0.504433 -7.54315 0
M  V30 1692 H 165.752 0.663537 -7.76671 0
M  V30 1693 N 169.982 1.44106 -0.638065 0
M  V30 1694 C 170.945 2.29138 0.0531013 0
M  V30 1695 C 171.945 1.41409 0.765506 0
M  V30 1696 O 173.135 1.63206 0.609046 0
M  V30 1697 C 170.267 3.23144 1.08584 0
M  V30 1698 H 171.46 2.91739 -0.694883 0
M  V30 1699 H 169.013 1.51134 -0.398538 0
M  V30 1700 H 169.748 2.65408 1.86357 0
M  V30 1701 H 169.533 3.87804 0.578852 0
M  V30 1702 H 171.023 3.87004 1.56899 0
M  V30 1703 N 171.46 0.379036 1.52974 0
M  V30 1704 C 172.706 -0.206727 2.01744 0
M  V30 1705 C 173.039 -1.47314 1.26539 0
M  V30 1706 O 172.314 -1.91084 0.362903 0
M  V30 1707 C 172.597 -0.485066 3.56818 0
M  V30 1708 C 172.45 0.795919 4.42702 0
M  V30 1709 C 173.769 -1.28003 4.21074 0
M  V30 1710 H 170.888 -0.0736607 0.73331 0
M  V30 1711 H 173.53 0.506581 1.83122 0
M  V30 1712 H 171.68 -1.09272 3.72816 0
M  V30 1713 H 173.352 1.43307 4.38476 0
M  V30 1714 H 171.595 1.41344 4.10127 0
M  V30 1715 H 172.266 0.555947 5.49193 0
M  V30 1716 H 174.742 -0.765867 4.08991 0
M  V30 1717 H 173.618 -1.44352 5.29579 0
M  V30 1718 H 173.879 -2.29236 3.78026 0
M  V30 1719 N 172.938 -1.57226 0.108567 0
M  V30 1720 C 174.215 -1.86333 -0.594939 0
M  V30 1721 C 174.595 -1.00788 -1.85486 0
M  V30 1722 O 173.943 -0.0839293 -2.28346 0
M  V30 1723 C 174.153 -3.37265 -0.897405 0
M  V30 1724 C 175.501 -4.05629 -1.25501 0
M  V30 1725 O 176.525 -3.42224 -0.987998 0
M  V30 1726 O 175.384 -5.17531 -1.75567 0
M  V30 1727 H 172.478 -0.771018 -0.2991 0
M  V30 1728 H 175.024 -1.69102 0.142283 0
M  V30 1729 H 173.796 -3.913 -0.00413806 0
M  V30 1730 H 173.419 -3.59889 -1.69014 0
M  V30 1731 N 174.416 0.165178 -1.56732 0
M  V30 1732 C 175.832 0.517174 -1.50988 0
M  V30 1733 C 176.032 1.84331 -0.813894 0
M  V30 1734 O 175.088 2.49672 -0.37682 0
M  V30 1735 C 176.401 0.544261 -2.95733 0
M  V30 1736 C 177.949 0.631039 -3.06573 0
M  V30 1737 C 178.424 0.68896 -4.52788 0
M  V30 1738 N 179.915 0.751683 -4.5706 0
M  V30 1739 C 180.65 0.817177 -5.67547 0
M  V30 1740 N 180.146 0.843129 -6.8765 0
M  V30 1741 N 181.939 0.856668 -5.55534 0
M  V30 1742 H 174.09 -0.704318 -2.00382 0
M  V30 1743 H 176.353 -0.254687 -0.913148 0
M  V30 1744 H 176.059 -0.361607 -3.49836 0
M  V30 1745 H 175.933 1.3886 -3.5071 0
M  V30 1746 H 178.32 1.52733 -2.52501 0
M  V30 1747 H 178.401 -0.240095 -2.54671 0
M  V30 1748 H 178.045 -0.2031 -5.07494 0
M  V30 1749 H 177.975 1.57633 -5.02454 0
M  V30 1750 H 180.466 0.739661 -3.70591 0
M  V30 1751 H 180.779 0.894448 -7.67606 0
M  V30 1752 H 179.124 0.811304 -6.90248 0
M  V30 1753 H 182.315 0.833437 -4.60621 0
M  V30 1754 H 182.488 0.904247 -6.4166 0
M  V30 1755 N 175.894 1.51508 0.433938 0
M  V30 1756 C 177.142 1.6402 1.18075 0
M  V30 1757 C 177.463 0.360328 1.91642 0
M  V30 1758 O 176.733 -0.623945 1.85698 0
M  V30 1759 H 175.313 0.6045 0.43885 0
M  V30 1760 H 177.975 1.88452 0.497178 0
M  V30 1761 H 177.071 2.46949 1.90847 0
M  V30 1762 N 177.372 -0.689602 1.41712 0
M  V30 1763 C 178.302 -1.81577 1.46806 0
M  V30 1764 C 179.283 -1.66945 0.326105 0
M  V30 1765 O 180.468 -1.86588 0.538377 0
M  V30 1766 C 177.598 -3.19762 1.35535 0
M  V30 1767 C 176.552 -3.49107 2.47605 0
M  V30 1768 C 175.878 -4.86711 2.21397 0
M  V30 1769 C 177.178 -3.47483 3.89939 0
M  V30 1770 H 178.872 -1.7757 2.41058 0
M  V30 1771 H 176.418 -0.852887 1.16025 0
M  V30 1772 H 178.371 -3.98263 1.3771 0
M  V30 1773 H 177.095 -3.24409 0.377708 0
M  V30 1774 H 175.754 -2.72959 2.44722 0
M  V30 1775 H 175.402 -4.8799 1.21961 0
M  V30 1776 H 175.102 -5.0731 2.96497 0
M  V30 1777 H 176.626 -5.67515 2.25297 0
M  V30 1778 H 178.04 -4.1598 3.94505 0
M  V30 1779 H 176.437 -3.79615 4.64771 0
M  V30 1780 H 177.507 -2.46341 4.17665 0
M  V30 1781 N 178.85 -1.27639 -0.924453 0
M  V30 1782 C 179.78 -1.13166 -2.04244 0
M  V30 1783 C 180.761 -0.032256 -1.70069 0
M  V30 1784 O 181.946 -0.207328 -1.9309 0
M  V30 1785 C 179.076 -0.781496 -3.38393 0
M  V30 1786 C 178.03 -1.83449 -3.86692 0
M  V30 1787 C 177.356 -1.33822 -5.17683 0
M  V30 1788 C 178.656 -3.23917 -4.09726 0
M  V30 1789 H 180.35 -2.06689 -2.1661 0
M  V30 1790 H 177.896 -0.995136 -1.04082 0
M  V30 1791 H 179.849 -0.667057 -4.16087 0
M  V30 1792 H 178.573 0.189439 -3.2605 0
M  V30 1793 H 177.232 -1.93789 -3.11193 0
M  V30 1794 H 176.88 -0.35665 -5.01734 0
M  V30 1795 H 176.58 -2.04224 -5.50968 0
M  V30 1796 H 178.104 -1.23679 -5.97943 0
M  V30 1797 H 179.518 -3.16559 -4.77978 0
M  V30 1798 H 177.915 -3.92059 -4.54324 0
M  V30 1799 H 178.985 -3.68729 -3.14908 0
M  V30 1800 N 180.328 1.1314 -1.09713 0
M  V30 1801 C 181.258 2.20748 -0.761102 0
M  V30 1802 C 182.239 1.68061 0.262566 0
M  V30 1803 O 183.424 1.93765 0.129977 0
M  V30 1804 C 180.554 3.46812 -0.184054 0
M  V30 1805 C 179.508 4.12606 -1.13757 0
M  V30 1806 C 178.834 5.33031 -0.422083 0
M  V30 1807 C 180.134 4.59603 -2.48118 0
M  V30 1808 H 181.828 2.49113 -1.66082 0
M  V30 1809 H 179.374 1.19734 -0.799987 0
M  V30 1810 H 181.327 4.21353 0.0631215 0
M  V30 1811 H 180.051 3.17851 0.750868 0
M  V30 1812 H 178.71 3.40036 -1.37007 0
M  V30 1813 H 178.358 5.00335 0.517072 0
M  V30 1814 H 178.058 5.77999 -1.05788 0
M  V30 1815 H 179.582 6.10325 -0.183277 0
M  V30 1816 H 180.996 5.25552 -2.29059 0
M  V30 1817 H 179.393 5.15321 -3.07514 0
M  V30 1818 H 180.463 3.73971 -3.08665 0
M  V30 1819 N 181.806 0.884767 1.30421 0
M  V30 1820 C 182.738 0.308655 2.27112 0
M  V30 1821 C 183.751 -0.536655 1.53701 0
M  V30 1822 O 184.94 -0.35624 1.74909 0
M  V30 1823 C 182.04 -0.579782 3.33904 0
M  V30 1824 C 181.213 0.236417 4.36761 0
M  V30 1825 C 180.272 -0.582482 5.22966 0
M  V30 1826 O 179.298 -0.00525502 5.692 0
M  V30 1827 N 180.5 -1.89163 5.48815 0
M  V30 1828 H 183.265 1.13964 2.77186 0
M  V30 1829 H 180.826 0.747731 1.43599 0
M  V30 1830 H 182.818 -1.13366 3.88497 0
M  V30 1831 H 181.388 -1.31144 2.83761 0
M  V30 1832 H 180.608 0.97174 3.82035 0
M  V30 1833 H 181.896 0.795924 5.02536 0
M  V30 1834 H 181.294 -2.38352 5.13035 0
M  V30 1835 H 179.851 -2.39296 6.06284 0
M  V30 1836 N 183.284 -1.43765 0.645699 0
M  V30 1837 C 184.7 -1.56509 0.312591 0
M  V30 1838 C 184.9 -1.6307 -1.18365 0
M  V30 1839 O 183.956 -1.58167 -1.96824 0
M  V30 1840 C 185.269 -2.82968 1.01733 0
M  V30 1841 C 186.817 -2.96701 0.996865 0
M  V30 1842 C 187.292 -4.25982 1.68236 0
M  V30 1843 N 188.783 -4.32829 1.64964 0
M  V30 1844 C 189.518 -5.31613 2.14885 0
M  V30 1845 N 189.014 -6.36718 2.73061 0
M  V30 1846 N 190.807 -5.23217 2.05428 0
M  V30 1847 H 182.958 -1.3775 1.61675 0
M  V30 1848 H 185.221 -0.661067 0.679481 0
M  V30 1849 H 184.927 -2.84156 2.0724 0
M  V30 1850 H 184.801 -3.72957 0.564177 0
M  V30 1851 H 187.188 -2.95058 -0.0497719 0
M  V30 1852 H 187.269 -2.08022 1.48865 0
M  V30 1853 H 186.913 -4.28386 2.72852 0
M  V30 1854 H 186.843 -5.13545 1.16529 0
M  V30 1855 H 189.334 -3.57493 1.22503 0
M  V30 1856 H 189.647 -7.08401 3.08848 0
M  V30 1857 H 187.992 -6.37362 2.77118 0
M  V30 1858 H 191.183 -4.40019 1.59689 0
M  V30 1859 H 191.356 -6.00045 2.44643 0
M  V30 1860 N 184.763 -0.387143 -1.52771 0
M  V30 1861 C 185.726 0.436939 -2.24997 0
M  V30 1862 C 186.726 0.991991 -1.26555 0
M  V30 1863 O 187.916 0.874335 -1.50669 0
M  V30 1864 C 185.048 1.61281 -3.00335 0
M  V30 1865 H 186.241 -0.195365 -2.99263 0
M  V30 1866 H 183.794 -0.139218 -1.55679 0
M  V30 1867 H 184.529 2.2826 -2.30364 0
M  V30 1868 H 184.314 1.22154 -3.72587 0
M  V30 1869 H 185.804 2.19629 -3.5518 0
M  V30 1870 N 186.241 1.57166 -0.116904 0
M  V30 1871 C 187.189 2.16457 0.851418 0
M  V30 1872 C 188.183 1.11323 1.27686 0
M  V30 1873 O 189.389 1.2963 1.24884 0
M  V30 1874 H 185.764 0.69271 0.292672 0
M  V30 1875 H 187.735 2.96605 0.32685 0
M  V30 1876 C 186.484 2.77689 2.09246 0
M  V30 1877 H 185.807 3.58285 1.77402 0
M  V30 1878 H 187.247 3.22716 2.7501 0
M  V30 1879 C 185.706 1.74667 2.88085 0
M  V30 1880 O 186.236 1.19877 3.83396 0
M  V30 1881 N 184.442 1.44656 2.52038 0
M  V30 1882 H 183.989 1.89402 1.74599 0
M  V30 1883 H 183.947 0.759675 3.05084 0
M  V30 1884 N 187.719 -0.156864 1.56817 0
M  V30 1885 C 188.996 -0.899244 1.73704 0
M  V30 1886 C 189.376 -1.99771 0.682254 0
M  V30 1887 O 188.724 -2.26515 -0.300522 0
M  V30 1888 C 188.934 -1.45075 3.17418 0
M  V30 1889 C 190.282 -1.91802 3.7881 0
M  V30 1890 O 191.306 -1.54838 3.20786 0
M  V30 1891 O 190.165 -2.5994 4.80722 0
M  V30 1892 H 187.259 -0.424267 0.709878 0
M  V30 1893 H 189.805 -0.143561 1.69092 0
M  V30 1894 H 188.577 -0.660846 3.85679 0
M  V30 1895 H 188.2 -2.27021 3.26416 0
M  V30 1896 N 189.197 -1.51736 -0.425897 0
M  V30 1897 C 190.474 -1.55519 -1.1863 0
M  V30 1898 C 190.854 -0.326219 -2.08564 0
M  V30 1899 O 190.202 0.688012 -2.17896 0
M  V30 1900 C 190.412 -2.87521 -1.9782 0
M  V30 1901 C 191.76 -3.39899 -2.54468 0
M  V30 1902 O 192.784 -2.89148 -2.08019 0
M  V30 1903 O 191.643 -4.2848 -3.39215 0
M  V30 1904 H 188.737 -0.625739 -0.540721 0
M  V30 1905 H 191.283 -1.64055 -0.434038 0
M  V30 1906 H 190.055 -3.68422 -1.31836 0
M  V30 1907 H 189.678 -2.822 -2.80088 0
M  V30 1908 N 190.675 0.682077 -1.42076 0
M  V30 1909 C 191.605 1.80796 -1.47767 0
M  V30 1910 C 192.586 1.6677 -0.334954 0
M  V30 1911 O 193.771 1.863 -0.548264 0
M  V30 1912 C 190.901 3.19038 -1.37229 0
M  V30 1913 C 189.855 3.47789 -2.49453 0
M  V30 1914 C 189.181 4.8553 -2.23975 0
M  V30 1915 C 190.481 3.45411 -3.91776 0
M  V30 1916 H 192.175 1.7629 -2.41997 0
M  V30 1917 H 189.721 0.846721 -1.16476 0
M  V30 1918 H 191.674 3.97528 -1.39821 0
M  V30 1919 H 190.398 3.24204 -0.394907 0
M  V30 1920 H 189.057 2.71657 -2.46166 0
M  V30 1921 H 188.705 4.87337 -1.24547 0
M  V30 1922 H 188.405 5.0573 -2.99184 0
M  V30 1923 H 189.929 5.66312 -2.28304 0
M  V30 1924 H 191.343 4.13882 -3.96705 0
M  V30 1925 H 189.74 3.77145 -4.66778 0
M  V30 1926 H 190.81 2.44122 -4.18966 0
M  V30 1927 N 192.153 1.28127 0.917671 0
M  V30 1928 C 193.399 1.15223 1.66888 0
M  V30 1929 C 193.732 -0.299293 1.9188 0
M  V30 1930 O 193.007 -1.21805 1.51637 0
M  V30 1931 C 193.29 1.94706 3.02922 0
M  V30 1932 C 193.143 3.47898 2.85109 0
M  V30 1933 C 194.462 1.75939 4.03402 0
M  V30 1934 H 191.581 0.419946 0.605652 0
M  V30 1935 H 194.223 1.57398 1.06423 0
M  V30 1936 H 192.373 1.58864 3.54534 0
M  V30 1937 H 194.045 3.93624 2.40537 0
M  V30 1938 H 192.288 3.7373 2.20246 0
M  V30 1939 H 192.959 3.98765 3.81694 0
M  V30 1940 H 195.435 2.07209 3.60837 0
M  V30 1941 H 194.311 2.33931 4.96556 0
M  V30 1942 H 194.572 0.709877 4.36364 0
M  V30 1943 N 193.631 -1.12557 1.10312 0
M  V30 1944 C 194.561 -2.20341 0.772798 0
M  V30 1945 C 195.542 -1.68198 -0.25365 0
M  V30 1946 O 196.727 -1.93831 -0.119699 0
M  V30 1947 C 193.857 -3.46709 0.202443 0
M  V30 1948 C 192.811 -4.11996 1.15943 0
M  V30 1949 C 192.137 -5.328 0.450345 0
M  V30 1950 C 193.437 -4.5828 2.50552 0
M  V30 1951 H 195.131 -2.48229 1.674 0
M  V30 1952 H 192.677 -1.19308 0.806326 0
M  V30 1953 H 194.63 -4.2138 -0.0407752 0
M  V30 1954 H 193.354 -3.18245 -0.734001 0
M  V30 1955 H 192.013 -3.39305 1.38808 0
M  V30 1956 H 191.661 -5.00602 -0.490531 0
M  V30 1957 H 191.361 -5.7743 1.08851 0
M  V30 1958 H 192.885 -6.10219 0.215642 0
M  V30 1959 H 194.299 -5.2433 2.31843 0
M  V30 1960 H 192.696 -5.13683 3.10242 0
M  V30 1961 H 193.766 -3.72329 3.10643 0
M  V30 1962 N 195.109 -0.891671 -1.2995 0
M  V30 1963 C 196.355 -0.514261 -1.96171 0
M  V30 1964 C 196.688 0.935506 -1.70182 0
M  V30 1965 O 195.963 1.66204 -1.01028 0
M  V30 1966 C 196.246 -0.797719 -3.51153 0
M  V30 1967 C 196.099 -2.2986 -3.86632 0
M  V30 1968 C 197.418 -0.278749 -4.39216 0
M  V30 1969 H 194.537 -0.188314 -0.712535 0
M  V30 1970 H 197.179 -1.11689 -1.53706 0
M  V30 1971 H 195.329 -0.284826 -3.87455 0
M  V30 1972 H 197.001 -2.88042 -3.60319 0
M  V30 1973 H 195.244 -2.76257 -3.34462 0
M  V30 1974 H 195.915 -2.44753 -4.94773 0
M  V30 1975 H 198.391 -0.717825 -4.09862 0
M  V30 1976 H 197.267 -0.506353 -5.46559 0
M  V30 1977 H 197.528 0.820266 -4.34424 0
M  V30 1978 N 196.587 1.43421 -0.653314 0
M  V30 1979 C 197.833 2.02111 -0.166992 0
M  V30 1980 C 198.166 1.51423 1.21592 0
M  V30 1981 O 197.441 0.707389 1.8118 0
M  V30 1982 C 197.724 3.5966 -0.177948 0
M  V30 1983 C 197.577 4.20579 -1.59478 0
M  V30 1984 C 198.896 4.37413 0.4856 0
M  V30 1985 H 196.015 0.734374 -0.0621557 0
M  V30 1986 H 198.657 1.70717 -0.834016 0
M  V30 1987 H 196.807 3.86537 0.390032 0
M  V30 1988 H 198.479 4.04732 -2.21336 0
M  V30 1989 H 196.722 3.77226 -2.14204 0
M  V30 1990 H 197.393 5.29665 -1.5543 0
M  V30 1991 H 199.869 4.161 0.00234528 0
M  V30 1992 H 198.745 5.47075 0.447207 0
M  V30 1993 H 199.006 4.13672 1.55974 0
M  V30 1994 N 198.065 0.39524 1.52563 0
M  V30 1995 C 199.481 0.0454682 1.59535 0
M  V30 1996 C 199.681 -1.44056 1.4089 0
M  V30 1997 O 198.737 -2.20579 1.22888 0
M  V30 1998 C 200.05 0.527963 2.96029 0
M  V30 1999 C 201.598 0.484733 3.09224 0
M  V30 2000 C 202.073 0.943512 4.48176 0
M  V30 2001 N 203.564 0.899765 4.54377 0
M  V30 2002 C 204.299 1.22609 5.60138 0
M  V30 2003 N 203.795 1.62319 6.73516 0
M  V30 2004 N 205.588 1.14696 5.50274 0
M  V30 2005 H 197.739 1.36261 1.62931 0
M  V30 2006 H 200.002 0.558887 0.765735 0
M  V30 2007 H 199.708 1.56607 3.14908 0
M  V30 2008 H 199.582 -0.0698056 3.77135 0
M  V30 2009 H 201.969 -0.544298 2.90037 0
M  V30 2010 H 202.05 1.11838 2.30056 0
M  V30 2011 H 201.694 1.9708 4.68104 0
M  V30 2012 H 201.624 0.286817 5.25818 0
M  V30 2013 H 204.115 0.607632 3.72983 0
M  V30 2014 H 204.428 1.85567 7.5019 0
M  V30 2015 H 202.773 1.66211 6.74833 0
M  V30 2016 H 205.964 0.835701 4.6058 0
M  V30 2017 H 206.137 1.40459 6.32594 0
M  V30 2018 N 199.544 -1.57102 0.125237 0
M  V30 2019 C 200.492 -2.16905 -0.839927 0
M  V30 2020 C 201.486 -1.11998 -1.27094 0
M  V30 2021 O 202.692 -1.3029 -1.24195 0
M  V30 2022 H 199.067 -0.694252 -0.288995 0
M  V30 2023 H 201.038 -2.96774 -0.311115 0
M  V30 2024 C 199.787 -2.78795 -2.07771 0
M  V30 2025 H 199.11 -3.59221 -1.755 0
M  V30 2026 H 200.55 -3.2417 -2.73295 0
M  V30 2027 C 199.009 -1.76193 -2.87155 0
M  V30 2028 O 199.539 -1.21909 -3.82755 0
M  V30 2029 N 197.745 -1.45991 -2.51267 0
M  V30 2030 H 197.292 -1.90325 -1.73592 0
M  V30 2031 H 197.25 -0.775844 -3.04677 0
M  V30 2032 N 201.022 0.148545 -1.56898 0
M  V30 2033 C 202.268 0.862694 -1.83536 0
M  V30 2034 C 202.601 1.80889 -0.706604 0
M  V30 2035 O 201.876 1.92328 0.289885 0
M  V30 2036 C 202.159 1.63853 -3.20662 0
M  V30 2037 C 202.012 0.713925 -4.44098 0
M  V30 2038 C 203.331 2.60133 -3.54991 0
M  V30 2039 H 200.45 0.312179 -0.667618 0
M  V30 2040 H 203.092 0.127953 -1.89569 0
M  V30 2041 H 201.242 2.26489 -3.1565 0
M  V30 2042 H 202.914 0.098686 -4.61194 0
M  V30 2043 H 201.157 0.0234019 -4.33794 0
M  V30 2044 H 201.828 1.29278 -5.36648 0
M  V30 2045 H 204.304 2.07616 -3.60603 0
M  V30 2046 H 203.18 3.11468 -4.51972 0
M  V30 2047 H 203.441 3.41417 -2.80868 0
M  V30 2048 N 202.5 1.5196 0.417844 0
M  V30 2049 C 203.911 1.57851 0.997 0
M  V30 2050 C 204.262 0.413714 1.91789 0
M  V30 2051 O 203.387 -0.467057 2.113 0
M  V30 2052 C 203.982 2.86085 1.81496 0
M  V30 2053 C 202.541 2.94483 2.34428 0
M  V30 2054 C 201.688 2.52707 1.14169 0
M  V30 2055 H 204.639 1.57455 0.198392 0
M  V30 2056 H 204.66 2.70947 2.67148 0
M  V30 2057 H 204.172 3.70842 1.14446 0
M  V30 2058 H 202.273 2.142 3.04875 0
M  V30 2059 H 202.386 3.98546 2.65891 0
M  V30 2060 H 200.75 2.06353 1.49301 0
M  V30 2061 H 201.533 3.39828 0.486999 0
M  V30 2062 N 203.978 -0.674533 1.42435 0
M  V30 2063 C 204.908 -1.80009 1.48724 0
M  V30 2064 C 205.889 -1.6659 0.343793 0
M  V30 2065 O 207.074 -1.86007 0.558137 0
M  V30 2066 C 204.204 -3.18306 1.38919 0
M  V30 2067 C 203.158 -3.46461 2.51294 0
M  V30 2068 C 202.484 -4.84335 2.26547 0
M  V30 2069 C 203.784 -3.43328 3.93603 0
M  V30 2070 H 205.478 -1.75004 2.42928 0
M  V30 2071 H 203.024 -0.840533 1.16923 0
M  V30 2072 H 204.977 -3.9678 1.41927 0
M  V30 2073 H 203.701 -3.2399 0.412094 0
M  V30 2074 H 202.36 -2.70348 2.47604 0
M  V30 2075 H 202.008 -4.86669 1.2713 0
M  V30 2076 H 201.708 -5.04136 3.01861 0
M  V30 2077 H 203.232 -5.65094 2.31304 0
M  V30 2078 H 204.646 -4.11772 3.98894 0
M  V30 2079 H 203.043 -3.74664 4.68771 0
M  V30 2080 H 204.113 -2.41897 4.20255 0
M  V30 2081 N 205.456 -1.28612 -0.910864 0
M  V30 2082 C 206.702 -1.16106 -1.66274 0
M  V30 2083 C 207.035 0.289113 -1.92036 0
M  V30 2084 O 206.31 1.21 -1.52281 0
M  V30 2085 C 206.593 -1.96309 -3.01885 0
M  V30 2086 C 206.446 -3.49405 -2.8326 0
M  V30 2087 C 207.765 -1.78076 -4.02463 0
M  V30 2088 H 204.884 -0.423152 -0.603417 0
M  V30 2089 H 207.526 -1.57961 -1.05586 0
M  V30 2090 H 205.676 -1.60742 -3.53687 0
M  V30 2091 H 207.348 -3.94894 -2.38446 0
M  V30 2092 H 205.591 -3.74893 -2.18261 0
M  V30 2093 H 206.262 -4.00784 -3.79574 0
M  V30 2094 H 208.738 -2.0912 -3.59733 0
M  V30 2095 H 207.614 -2.36561 -4.95308 0
M  V30 2096 H 207.875 -0.733008 -4.35981 0
M  V30 2097 N 206.934 1.1197 -1.10907 0
M  V30 2098 C 208.162 1.87402 -0.876824 0
M  V30 2099 C 208.577 1.79894 0.573025 0
M  V30 2100 O 207.934 1.17629 1.39534 0
M  V30 2101 C 207.985 3.36428 -1.32282 0
M  V30 2102 O 207.706 3.43765 -2.71582 0
M  V30 2103 C 209.207 4.28783 -1.12518 0
M  V30 2104 H 206.427 0.592793 -0.314384 0
M  V30 2105 H 208.971 1.41649 -1.47499 0
M  V30 2106 H 207.126 3.79706 -0.768229 0
M  V30 2107 H 207.54 4.3652 -2.90776 0
M  V30 2108 H 209.014 5.31613 -1.48633 0
M  V30 2109 H 209.491 4.39153 -0.0642394 0
M  V30 2110 H 210.097 3.91291 -1.66648 0
M  V30 2111 N 208.412 0.89855 1.29475 0
M  V30 2112 C 209.375 0.380272 2.26023 0
M  V30 2113 C 210.375 -0.484891 1.53315 0
M  V30 2114 O 211.565 -0.290108 1.71767 0
M  V30 2115 C 208.697 -0.45651 3.3783 0
M  V30 2116 H 209.89 1.23295 2.73383 0
M  V30 2117 H 207.443 0.676589 1.40897 0
M  V30 2118 H 208.178 -1.32922 2.95808 0
M  V30 2119 H 207.963 0.163393 3.91759 0
M  V30 2120 H 209.453 -0.810466 4.0966 0
M  V30 2121 N 209.89 -1.43072 0.660911 0
M  V30 2122 C 211.301 -1.84932 0.256348 0
M  V30 2123 C 211.652 -1.55325 -1.19868 0
M  V30 2124 O 210.777 -1.00607 -1.91591 0
M  V30 2125 C 211.372 -3.35684 0.458475 0
M  V30 2126 C 209.931 -3.76245 0.108161 0
M  V30 2127 C 209.078 -2.66749 0.757641 0
M  V30 2128 H 212.029 -1.33116 0.864051 0
M  V30 2129 H 212.05 -3.79365 -0.293683 0
M  V30 2130 H 211.562 -3.572 1.51755 0
M  V30 2131 H 209.663 -3.60338 -0.948014 0
M  V30 2132 H 209.776 -4.76058 0.538992 0
M  V30 2133 H 208.14 -2.53989 0.190185 0
M  V30 2134 H 208.923 -2.91092 1.81989 0
M  V30 2135 N 211.368 -0.403325 -1.52352 0
M  V30 2136 C 212.298 0.416205 -2.29761 0
M  V30 2137 C 213.279 1.05123 -1.33728 0
M  V30 2138 O 214.464 1.06134 -1.62632 0
M  V30 2139 C 211.594 1.53624 -3.11475 0
M  V30 2140 C 210.548 1.02653 -4.15507 0
M  V30 2141 C 209.874 2.23971 -4.85532 0
M  V30 2142 C 211.174 0.08463 -5.22231 0
M  V30 2143 H 212.868 -0.229701 -2.98518 0
M  V30 2144 H 210.414 -0.111913 -1.43564 0
M  V30 2145 H 212.367 2.1165 -3.64393 0
M  V30 2146 H 211.091 2.20994 -2.40477 0
M  V30 2147 H 209.75 0.46871 -3.63591 0
M  V30 2148 H 209.398 2.89883 -4.11068 0
M  V30 2149 H 209.098 1.90521 -5.55856 0
M  V30 2150 H 210.622 2.82614 -5.41259 0
M  V30 2151 H 212.036 0.573509 -5.70424 0
M  V30 2152 H 210.433 -0.160783 -5.99885 0
M  V30 2153 H 211.503 -0.86237 -4.7717 0
M  V30 2154 N 212.846 1.57033 -0.133567 0
M  V30 2155 C 214.071 2.00475 0.531477 0
M  V30 2156 C 214.496 1.01291 1.58499 0
M  V30 2157 O 213.854 -0.0133279 1.81295 0
M  V30 2158 C 213.902 3.42729 1.12113 0
M  V30 2159 O 213.006 3.46498 2.23636 0
M  V30 2160 H 212.347 0.650876 0.131362 0
M  V30 2161 H 214.877 2.03344 -0.22634 0
M  V30 2162 H 214.887 3.81246 1.4531 0
M  V30 2163 H 213.562 4.14428 0.349557 0
M  V30 2164 H 212.139 3.19811 1.91769 0
M  V30 2165 N 214.325 -0.140222 1.56975 0
M  V30 2166 C 215.257 -1.19818 1.95388 0
M  V30 2167 C 216.27 -1.38816 0.850525 0
M  V30 2168 O 217.459 -1.38267 1.12891 0
M  V30 2169 C 214.559 -2.56189 2.21857 0
M  V30 2170 C 213.732 -2.58077 3.5315 0
M  V30 2171 C 212.791 -3.76037 3.6808 0
M  V30 2172 O 211.817 -3.60598 4.40406 0
M  V30 2173 N 213.019 -4.93763 3.05251 0
M  V30 2174 H 215.784 -0.871609 2.86746 0
M  V30 2175 H 213.345 -0.32972 1.58507 0
M  V30 2176 H 215.337 -3.33623 2.2908 0
M  V30 2177 H 213.907 -2.81111 1.36731 0
M  V30 2178 H 213.127 -1.6651 3.57307 0
M  V30 2179 H 214.415 -2.56377 4.39486 0
M  V30 2180 H 213.813 -5.09209 2.46419 0
M  V30 2181 H 212.37 -5.68949 3.18026 0
M  V30 2182 N 215.803 -1.52179 -0.40978 0
M  V30 2183 C 217.049 -1.66453 -1.15851 0
M  V30 2184 C 217.382 -0.392972 -1.90182 0
M  V30 2185 O 216.657 0.608579 -1.84734 0
M  V30 2186 C 216.94 -2.88612 -2.15349 0
M  V30 2187 C 216.793 -4.25815 -1.44918 0
M  V30 2188 C 218.112 -3.06294 -3.16026 0
M  V30 2189 H 215.231 -0.60575 -0.419805 0
M  V30 2190 H 217.873 -1.84732 -0.444314 0
M  V30 2191 H 216.023 -2.73158 -2.76255 0
M  V30 2192 H 217.695 -4.52995 -0.871365 0
M  V30 2193 H 215.938 -4.27247 -0.751159 0
M  V30 2194 H 216.609 -5.07337 -2.17516 0
M  V30 2195 H 219.085 -3.20641 -2.65195 0
M  V30 2196 H 217.961 -3.93283 -3.8291 0
M  V30 2197 H 218.222 -2.19579 -3.83715 0
M  V30 2198 N 217.281 0.66697 -1.42791 0
M  V30 2199 C 218.211 1.79218 -1.49677 0
M  V30 2200 C 219.192 1.66405 -0.352623 0
M  V30 2201 O 220.377 1.85708 -0.567993 0
M  V30 2202 C 217.507 3.17565 -1.40605 0
M  V30 2203 C 216.461 3.45124 -2.53127 0
M  V30 2204 C 215.787 4.83127 -2.29112 0
M  V30 2205 C 217.087 3.41236 -3.95418 0
M  V30 2206 H 218.781 1.73713 -2.43853 0
M  V30 2207 H 216.327 0.83432 -1.17367 0
M  V30 2208 H 218.28 3.96022 -1.44029 0
M  V30 2209 H 217.004 3.23767 -0.429271 0
M  V30 2210 H 215.663 2.69031 -2.49034 0
M  V30 2211 H 215.311 4.85988 -1.29709 0
M  V30 2212 H 215.011 5.02528 -3.04531 0
M  V30 2213 H 216.535 5.63859 -2.34297 0
M  V30 2214 H 217.949 4.09651 -4.01073 0
M  V30 2215 H 216.346 3.72173 -4.70752 0
M  V30 2216 H 217.416 2.39665 -4.21532 0
M  V30 2217 N 218.759 1.29093 0.90403 0
M  V30 2218 C 220.007 1.16583 1.65085 0
M  V30 2219 C 220.328 -0.283933 1.92922 0
M  V30 2220 O 219.598 -1.19509 1.55224 0
M  V30 2221 H 218.178 0.428467 0.611903 0
M  V30 2222 H 220.84 1.61959 1.08422 0
M  V30 2223 H 219.936 1.71266 2.6091 0
M  V30 2224 N 220.237 -1.11381 1.11499 0
M  V30 2225 C 221.648 -1.6465 0.880191 0
M  V30 2226 C 221.999 -1.87199 -0.587434 0
M  V30 2227 O 221.124 -1.60667 -1.44966 0
M  V30 2228 C 221.719 -2.99105 1.59128 0
M  V30 2229 C 220.278 -3.49279 1.40289 0
M  V30 2230 C 219.425 -2.24077 1.63354 0
M  V30 2231 H 222.376 -0.950123 1.27116 0
M  V30 2232 H 222.397 -3.66107 1.03664 0
M  V30 2233 H 221.909 -2.82661 2.65941 0
M  V30 2234 H 220.01 -3.70887 0.356888 0
M  V30 2235 H 220.123 -4.2803 2.15238 0
M  V30 2236 H 218.487 -2.31733 1.05698 0
M  V30 2237 H 219.27 -2.10175 2.71443 0
M  V30 2238 N 221.715 -0.905404 -1.28997 0
M  V30 2239 C 222.943 -0.549846 -1.9946 0
M  V30 2240 C 223.358 0.866834 -1.67724 0
M  V30 2241 O 222.715 1.57298 -0.925404 0
M  V30 2242 C 222.766 -0.739387 -3.53858 0
M  V30 2243 O 222.487 -2.10031 -3.84472 0
M  V30 2244 C 223.988 -0.389541 -4.41585 0
M  V30 2245 H 221.208 -0.210429 -0.637151 0
M  V30 2246 H 223.752 -1.21632 -1.64396 0
M  V30 2247 H 221.907 -0.120023 -3.87214 0
M  V30 2248 H 222.321 -2.13385 -4.79132 0
M  V30 2249 H 223.795 -0.572972 -5.49018 0
M  V30 2250 H 224.272 0.673756 -4.34001 0
M  V30 2251 H 224.878 -0.986089 -4.1371 0
M  V30 2252 N 223.193 1.4272 -0.668489 0
M  V30 2253 C 224.433 2.03497 -0.19194 0
M  V30 2254 C 224.797 1.51684 1.17712 0
M  V30 2255 O 225.998 2.04205 1.74796 0
M  V30 2256 C 224.269 3.56734 -0.218032 0
M  V30 2257 S 225.828 4.38395 0.188438 0
M  V30 2258 H 222.646 0.706542 -0.0794959 0
M  V30 2259 H 225.248 1.74563 -0.880235 0
M  V30 2260 H 223.952 3.91943 -1.2169 0
M  V30 2261 H 223.483 3.90333 0.490303 0
M  V30 2262 H 225.498 4.75345 1.42345 0
M  V30 2263 N 224.671 0.411399 1.52136 0
M  V30 2264 C 225.603 -0.448386 2.24771 0
M  V30 2265 C 226.616 -1.00828 1.27818 0
M  V30 2266 O 227.805 -0.906841 1.53749 0
M  V30 2267 C 224.905 -1.63636 2.96777 0
M  V30 2268 C 224.078 -1.19995 4.20618 0
M  V30 2269 C 223.137 -2.25509 4.75428 0
M  V30 2270 O 222.163 -1.86007 5.3795 0
M  V30 2271 N 223.365 -3.577 4.57199 0
M  V30 2272 H 226.13 0.174025 2.99194 0
M  V30 2273 H 223.691 0.238897 1.60128 0
M  V30 2274 H 225.683 -2.33793 3.30338 0
M  V30 2275 H 224.253 -2.16465 2.25526 0
M  V30 2276 H 223.473 -0.326421 3.92846 0
M  V30 2277 H 224.761 -0.885365 5.01038 0
M  V30 2278 H 224.159 -3.92543 4.07341 0
M  V30 2279 H 222.716 -4.23827 4.95191 0
M  V30 2280 N 226.149 -1.5696 0.141893 0
M  V30 2281 C 227.565 -1.58151 -0.21456 0
M  V30 2282 C 227.765 -1.1559 -1.65049 0
M  V30 2283 O 226.821 -0.853832 -2.37626 0
M  V30 2284 C 228.134 -3.00674 0.0395576 0
M  V30 2285 C 229.682 -3.1299 -0.0245529 0
M  V30 2286 C 230.157 -4.57554 0.202167 0
M  V30 2287 N 231.648 -4.62961 0.148919 0
M  V30 2288 C 232.383 -5.7262 0.298924 0
M  V30 2289 N 231.879 -6.90947 0.50637 0
M  V30 2290 N 233.672 -5.61601 0.236886 0
M  V30 2291 H 225.823 -1.8292 1.07953 0
M  V30 2292 H 228.086 -0.846425 0.42693 0
M  V30 2293 H 227.792 -3.36183 1.03315 0
M  V30 2294 H 227.666 -3.70981 -0.682143 0
M  V30 2295 H 230.053 -2.77326 -1.00869 0
M  V30 2296 H 230.134 -2.4518 0.729396 0
M  V30 2297 H 229.778 -4.93922 1.18338 0
M  V30 2298 H 229.708 -5.23484 -0.572044 0
M  V30 2299 H 232.199 -3.77899 -0.00697015 0
M  V30 2300 H 232.512 -7.7038 0.611076 0
M  V30 2301 H 230.857 -6.92878 0.542628 0
M  V30 2302 H 234.048 -4.68039 0.0756209 0
M  V30 2303 H 234.221 -6.47015 0.357227 0
M  V30 2304 N 227.627 0.131896 -1.57047 0
M  V30 2305 C 228.557 1.16384 -2.02428 0
M  V30 2306 C 229.538 1.43936 -0.90644 0
M  V30 2307 O 230.723 1.54599 -1.17528 0
M  V30 2308 C 227.853 2.49328 -2.4177 0
M  V30 2309 C 226.807 2.36266 -3.56879 0
M  V30 2310 C 226.133 3.74057 -3.8208 0
M  V30 2311 C 227.433 1.834 -4.89042 0
M  V30 2312 H 229.127 0.786433 -2.88887 0
M  V30 2313 H 226.673 0.376855 -1.38981 0
M  V30 2314 H 228.626 3.21759 -2.7212 0
M  V30 2315 H 227.35 2.88934 -1.52266 0
M  V30 2316 H 226.009 1.66286 -3.26718 0
M  V30 2317 H 225.657 4.11125 -2.89803 0
M  V30 2318 H 225.357 3.66174 -4.59554 0
M  V30 2319 H 226.881 4.48012 -4.1487 0
M  V30 2320 H 228.295 2.45636 -5.18011 0
M  V30 2321 H 226.692 1.8637 -5.70426 0
M  V30 2322 H 227.762 0.790662 -4.7841 0
M  V30 2323 N 229.106 1.52395 0.401703 0
M  V30 2324 C 230.334 1.70676 1.16949 0
M  V30 2325 C 230.749 0.419503 1.8408 0
M  V30 2326 O 230.106 -0.605061 1.72178 0
M  V30 2327 C 230.157 2.84753 2.22706 0
M  V30 2328 O 229.878 4.08495 1.58314 0
M  V30 2329 C 231.379 3.14608 3.12309 0
M  V30 2330 H 228.599 0.571787 0.351142 0
M  V30 2331 H 231.143 1.98987 0.471652 0
M  V30 2332 H 229.298 2.58941 2.88147 0
M  V30 2333 H 229.712 4.72117 2.28485 0
M  V30 2334 H 231.186 3.97923 3.82572 0
M  V30 2335 H 231.663 2.28464 3.75101 0
M  V30 2336 H 232.269 3.42212 2.52529 0
M  V30 2337 N 230.584 -0.659388 1.43143 0
M  V30 2338 C 231.831 -1.41935 1.44433 0
M  V30 2339 C 232.159 -1.94387 0.0663522 0
M  V30 2340 O 231.414 -1.72314 -0.927706 0
M  V30 2341 C 231.713 -2.62206 2.42864 0
M  V30 2342 C 231.379 -2.28208 3.88886 0
M  V30 2343 C 230.041 -2.18647 4.28657 0
M  V30 2344 C 232.393 -2.00887 4.8093 0
M  V30 2345 C 229.721 -1.79914 5.58433 0
M  V30 2346 C 232.073 -1.63653 6.11065 0
M  V30 2347 C 230.737 -1.52614 6.49819 0
M  V30 2348 H 230.007 -0.519376 0.528517 0
M  V30 2349 H 232.654 -0.750453 1.76183 0
M  V30 2350 H 230.959 -3.34199 2.04495 0
M  V30 2351 H 232.656 -3.2041 2.41119 0
M  V30 2352 H 229.246 -2.36557 3.57406 0
M  V30 2353 H 233.43 -2.07198 4.5098 0
M  V30 2354 H 228.686 -1.69948 5.87305 0
M  V30 2355 H 232.86 -1.41543 6.81864 0
M  V30 2356 H 230.487 -1.22371 7.50286 0
M  V30 2357 N 232.062 -1.29571 -0.897171 0
M  V30 2358 C 233.29 -1.20583 -1.68129 0
M  V30 2359 C 233.705 0.233181 -1.87354 0
M  V30 2360 O 233.062 1.15579 -1.41236 0
M  V30 2361 C 233.113 -1.91772 -3.06441 0
M  V30 2362 O 232.834 -3.30053 -2.88091 0
M  V30 2363 C 234.335 -1.89291 -4.00854 0
M  V30 2364 H 231.555 -0.417826 -0.525036 0
M  V30 2365 H 234.099 -1.70987 -1.12177 0
M  V30 2366 H 232.254 -1.45196 -3.59161 0
M  V30 2367 H 232.668 -3.65942 -3.75748 0
M  V30 2368 H 234.142 -2.43662 -4.95311 0
M  V30 2369 H 234.619 -0.869014 -4.30517 0
M  V30 2370 H 235.225 -2.35622 -3.54066 0
M  V30 2371 N 233.54 1.10788 -1.12088 0
M  V30 2372 C 234.503 2.15207 -0.788577 0
M  V30 2373 C 235.503 1.59609 0.195317 0
M  V30 2374 O 236.693 1.74174 -0.0300193 0
M  V30 2375 C 233.825 3.4047 -0.171174 0
M  V30 2376 H 235.018 2.46116 -1.71368 0
M  V30 2377 H 232.571 1.26089 -0.923652 0
M  V30 2378 H 233.306 3.15176 0.763832 0
M  V30 2379 H 233.091 3.82109 -0.879514 0
M  V30 2380 H 234.581 4.17576 0.04496 0
M  V30 2381 N 235.018 0.912232 1.28515 0
M  V30 2382 C 235.968 0.370649 2.24967 0
M  V30 2383 C 236.952 -0.516375 1.52389 0
M  V30 2384 O 238.144 -0.356345 1.73376 0
M  V30 2385 C 235.273 -0.389526 3.41083 0
M  V30 2386 C 234.359 0.51313 4.20984 0
M  V30 2387 N 234.75 1.62604 4.78951 0
M  V30 2388 C 233.048 0.313235 4.44899 0
M  V30 2389 C 233.749 2.18619 5.39055 0
M  V30 2390 N 232.725 1.47765 5.23132 0
M  V30 2391 H 236.527 1.22061 2.67354 0
M  V30 2392 H 234.041 0.764712 1.43269 0
M  V30 2393 H 236.038 -0.794353 4.09262 0
M  V30 2394 H 234.698 -1.2366 3.0023 0
M  V30 2395 H 235.709 2.00864 4.77362 0
M  V30 2396 H 232.386 -0.494452 4.14562 0
M  V30 2397 H 233.776 3.12228 5.94948 0
M  V30 2398 N 236.496 -1.42363 0.676048 0
M  V30 2399 C 237.459 -2.29199 0.00766941 0
M  V30 2400 C 238.459 -1.43389 -0.727745 0
M  V30 2401 O 239.649 -1.64764 -0.56556 0
M  V30 2402 C 236.781 -3.2591 -0.999785 0
M  V30 2403 H 237.974 -2.89794 0.771988 0
M  V30 2404 H 235.527 -1.50024 0.438468 0
M  V30 2405 H 236.262 -2.70256 -1.79255 0
M  V30 2406 H 236.047 -3.89202 -0.475829 0
M  V30 2407 H 237.537 -3.91028 -1.46583 0
M  V30 2408 N 237.974 -0.419461 -1.51915 0
M  V30 2409 C 239.251 0.211999 -1.94448 0
M  V30 2410 C 239.631 1.61703 -1.35703 0
M  V30 2411 O 238.979 2.22102 -0.536931 0
M  V30 2412 C 239.189 0.207872 -3.4838 0
M  V30 2413 C 240.537 0.422192 -4.22496 0
M  V30 2414 O 241.561 0.286778 -3.55044 0
M  V30 2415 O 240.42 0.690009 -5.42126 0
M  V30 2416 H 237.514 0.139586 -0.815135 0
M  V30 2417 H 240.06 -0.476151 -1.62883 0
M  V30 2418 H 238.832 -0.775102 -3.83546 0
M  V30 2419 H 238.455 0.939688 -3.86336 0
M  V30 2420 N 239.452 1.56882 -0.150215 0
M  V30 2421 C 240.868 1.58263 0.20617 0
M  V30 2422 C 241.068 1.16464 1.64434 0
M  V30 2423 O 240.124 0.866422 2.3717 0
M  V30 2424 C 241.437 3.00649 -0.0555025 0
M  V30 2425 C 242.985 3.12999 0.00795388 0
M  V30 2426 C 243.46 4.5744 -0.226429 0
M  V30 2427 N 244.951 4.62875 -0.173469 0
M  V30 2428 C 245.686 5.72454 -0.329288 0
M  V30 2429 N 245.182 6.90669 -0.543005 0
M  V30 2430 N 246.975 5.61467 -0.266666 0
M  V30 2431 H 239.126 1.82345 -1.08922 0
M  V30 2432 H 241.389 0.844149 -0.431413 0
M  V30 2433 H 241.095 3.3563 -1.05096 0
M  V30 2434 H 240.969 3.71337 0.66246 0
M  V30 2435 H 243.356 2.77857 0.993966 0
M  V30 2436 H 243.437 2.4479 -0.742388 0
M  V30 2437 H 243.081 4.93287 -1.20956 0
M  V30 2438 H 243.011 5.2378 0.544274 0
M  V30 2439 H 245.502 3.77898 -0.0130709 0
M  V30 2440 H 245.815 7.70045 -0.651922 0
M  V30 2441 H 244.16 6.92581 -0.579366 0
M  V30 2442 H 247.351 4.67992 -0.100441 0
M  V30 2443 H 247.524 6.46816 -0.391535 0
M  V30 2444 N 240.93 -0.123565 1.57115 0
M  V30 2445 C 242.176 -0.833386 1.84885 0
M  V30 2446 C 242.509 -1.79742 0.735292 0
M  V30 2447 O 241.784 -1.92764 -0.25925 0
M  V30 2448 C 242.067 -1.5873 3.23228 0
M  V30 2449 C 241.92 -0.643183 4.45178 0
M  V30 2450 C 243.239 -2.54453 3.59085 0
M  V30 2451 H 240.358 -0.301518 0.6725 0
M  V30 2452 H 243 -0.097778 1.89748 0
M  V30 2453 H 241.15 -2.21438 3.19214 0
M  V30 2454 H 242.822 -0.0253015 4.61293 0
M  V30 2455 H 241.065 0.0456139 4.33776 0
M  V30 2456 H 241.736 -1.20724 5.38637 0
M  V30 2457 H 244.212 -2.01853 3.63861 0
M  V30 2458 H 243.088 -3.04238 4.5687 0
M  V30 2459 H 243.349 -3.36906 2.86264 0
M  V30 2460 N 242.408 -1.52605 -0.393616 0
M  V30 2461 C 243.371 -1.76415 -1.46323 0
M  V30 2462 C 244.371 -0.634126 -1.47768 0
M  V30 2463 O 245.561 -0.902142 -1.4902 0
M  V30 2464 C 242.693 -1.8607 -2.85641 0
M  V30 2465 H 243.886 -2.71916 -1.26498 0
M  V30 2466 H 241.439 -1.43257 -0.625073 0
M  V30 2467 H 242.174 -0.925378 -3.10817 0
M  V30 2468 H 241.959 -2.68235 -2.85993 0
M  V30 2469 H 243.449 -2.06179 -3.63153 0
M  V30 2470 N 243.887 0.651787 -1.4349 0
M  V30 2471 C 244.85 1.74647 -1.48429 0
M  V30 2472 C 245.85 1.56513 -0.368817 0
M  V30 2473 O 247.04 1.62385 -0.630623 0
M  V30 2474 C 244.172 3.13533 -1.33827 0
M  V30 2475 H 245.365 1.71649 -2.4592 0
M  V30 2476 H 242.918 0.863573 -1.30277 0
M  V30 2477 H 243.653 3.22142 -0.37349 0
M  V30 2478 H 243.438 3.28101 -2.14691 0
M  V30 2479 H 244.928 3.93356 -1.40218 0
M  V30 2480 N 245.365 1.30045 0.890287 0
M  V30 2481 C 246.275 1.17885 2.02831 0
M  V30 2482 C 247.291 0.0999609 1.73713 0
M  V30 2483 O 248.467 0.313867 1.98939 0
M  V30 2484 C 245.532 0.866079 3.35708 0
M  V30 2485 C 244.593 2.02979 3.78283 0
M  V30 2486 C 243.826 1.73184 5.0482 0
M  V30 2487 O 244.049 0.657237 5.66601 0
M  V30 2488 O 242.983 2.58267 5.43674 0
M  V30 2489 H 246.809 2.13474 2.16015 0
M  V30 2490 H 244.394 1.09587 1.01543 0
M  V30 2491 H 246.276 0.706623 4.15433 0
M  V30 2492 H 244.951 -0.0599443 3.23644 0
M  V30 2493 H 243.858 2.24454 2.99285 0
M  V30 2494 H 245.191 2.93734 3.94944 0
M  V30 2495 N 246.843 -1.10192 1.12674 0
M  V30 2496 C 248.09 -1.82205 0.883606 0
M  V30 2497 C 248.418 -1.8532 -0.590492 0
M  V30 2498 O 247.673 -1.31137 -1.45264 0
M  V30 2499 C 247.972 -3.28552 1.4067 0
M  V30 2500 C 247.638 -3.45582 2.89627 0
M  V30 2501 C 246.3 -3.49937 3.30299 0
M  V30 2502 C 248.652 -3.50768 3.85501 0
M  V30 2503 C 245.98 -3.57049 4.65546 0
M  V30 2504 C 248.332 -3.59414 5.20581 0
M  V30 2505 C 246.996 -3.62034 5.60792 0
M  V30 2506 H 246.266 -0.666735 0.323334 0
M  V30 2507 H 248.913 -1.29868 1.40736 0
M  V30 2508 H 247.218 -3.83473 0.80347 0
M  V30 2509 H 248.915 -3.82788 1.19475 0
M  V30 2510 H 245.505 -3.42871 2.57172 0
M  V30 2511 H 249.689 -3.46651 3.55171 0
M  V30 2512 H 244.945 -3.57361 4.96088 0
M  V30 2513 H 249.119 -3.62371 5.94693 0
M  V30 2514 H 246.746 -3.67298 6.6558 0
M  V30 2515 N 248.321 -0.919034 -1.28029 0
M  V30 2516 C 249.567 -0.555757 -1.95036 0
M  V30 2517 C 249.9 0.899198 -1.72128 0
M  V30 2518 O 249.175 1.64023 -1.04531 0
M  V30 2519 C 249.458 -0.872024 -3.49382 0
M  V30 2520 C 249.311 -2.3801 -3.81669 0
M  V30 2521 C 250.63 -0.37185 -4.38526 0
M  V30 2522 H 247.749 -0.203386 -0.708381 0
M  V30 2523 H 250.391 -1.14924 -1.51303 0
M  V30 2524 H 248.541 -0.366946 -3.86763 0
M  V30 2525 H 250.213 -2.9562 -3.54128 0
M  V30 2526 H 248.456 -2.83289 -3.28526 0
M  V30 2527 H 249.127 -2.55192 -4.8947 0
M  V30 2528 H 251.603 -0.804602 -4.08247 0
M  V30 2529 H 250.479 -0.622173 -5.45362 0
M  V30 2530 H 250.74 0.727934 -4.36066 0
M  V30 2531 N 249.799 1.42003 -0.683588 0
M  V30 2532 C 251.047 2.01015 -0.209101 0
M  V30 2533 C 251.368 1.54365 1.19149 0
M  V30 2534 O 250.638 0.769083 1.80172 0
M  V30 2535 H 249.218 0.743294 -0.074315 0
M  V30 2536 H 251.88 1.73798 -0.882066 0
M  V30 2537 H 250.976 3.11343 -0.2172 0
M  V30 2538 N 251.277 0.427512 1.51691 0
M  V30 2539 C 252.207 -0.3796 2.30394 0
M  V30 2540 C 253.188 -1.02982 1.35384 0
M  V30 2541 O 254.373 -1.03534 1.643 0
M  V30 2542 C 251.503 -1.48649 3.1388 0
M  V30 2543 C 250.457 -0.960294 4.17088 0
M  V30 2544 C 249.783 -2.16219 4.89033 0
M  V30 2545 C 251.083 -0.00153679 5.223 0
M  V30 2546 H 252.777 0.277164 2.98114 0
M  V30 2547 H 250.323 0.134739 1.43368 0
M  V30 2548 H 252.276 -2.05826 3.67714 0
M  V30 2549 H 251 -2.1714 2.43962 0
M  V30 2550 H 249.659 -0.410806 3.64291 0
M  V30 2551 H 249.307 -2.83307 4.15628 0
M  V30 2552 H 249.007 -1.81654 5.58816 0
M  V30 2553 H 250.531 -2.73968 5.45687 0
M  V30 2554 H 251.945 -0.482687 5.71264 0
M  V30 2555 H 250.342 0.256199 5.99553 0
M  V30 2556 H 251.412 0.938174 4.75738 0
M  V30 2557 N 252.755 -1.56801 0.158532 0
M  V30 2558 C 254.001 -1.96781 -0.490405 0
M  V30 2559 C 254.334 -1.04397 -1.63753 0
M  V30 2560 O 253.609 -0.0885805 -1.94298 0
M  V30 2561 C 253.892 -3.4635 -0.985594 0
M  V30 2562 C 253.745 -4.49512 0.160824 0
M  V30 2563 C 255.064 -3.98697 -1.86355 0
M  V30 2564 H 252.183 -0.715482 -0.176788 0
M  V30 2565 H 254.825 -1.88451 0.242088 0
M  V30 2566 H 252.975 -3.53579 -1.60978 0
M  V30 2567 H 254.647 -4.54353 0.797537 0
M  V30 2568 H 252.89 -4.26013 0.818256 0
M  V30 2569 H 253.561 -5.51531 -0.227569 0
M  V30 2570 H 256.037 -3.94019 -1.33746 0
M  V30 2571 H 254.913 -5.03792 -2.17909 0
M  V30 2572 H 255.174 -3.41744 -2.8047 0
M  V30 2573 N 254.233 0.115231 -1.57178 0
M  V30 2574 C 255.165 1.16694 -1.97269 0
M  V30 2575 C 256.178 1.37445 -0.872502 0
M  V30 2576 O 257.367 1.36454 -1.15077 0
M  V30 2577 C 254.467 2.52627 -2.25905 0
M  V30 2578 C 253.64 2.52427 -3.57211 0
M  V30 2579 C 252.699 3.70134 -3.74016 0
M  V30 2580 O 251.725 3.53546 -4.46087 0
M  V30 2581 N 252.927 4.88844 -3.13068 0
M  V30 2582 H 255.692 0.82588 -2.88096 0
M  V30 2583 H 253.253 0.304461 -1.59011 0
M  V30 2584 H 255.245 3.29937 -2.34359 0
M  V30 2585 H 253.815 2.789 -1.41186 0
M  V30 2586 H 253.035 1.60805 -3.5991 0
M  V30 2587 H 254.323 2.49353 -4.43509 0
M  V30 2588 H 253.721 5.05225 -2.54489 0
M  V30 2589 H 252.278 5.63817 -3.27037 0
M  V30 2590 N 255.711 1.52812 0.385517 0
M  V30 2591 C 256.959 1.67694 1.12797 0
M  V30 2592 C 257.28 0.421115 1.90399 0
M  V30 2593 O 256.55 -0.564551 1.87589 0
M  V30 2594 H 255.13 0.618155 0.419396 0
M  V30 2595 H 257.792 1.89938 0.436972 0
M  V30 2596 H 256.888 2.52896 1.82894 0
M  V30 2597 N 257.189 -0.644168 1.43834 0
M  V30 2598 C 258.6 -1.22554 1.40845 0
M  V30 2599 C 258.951 -1.9585 0.117115 0
M  V30 2600 O 258.076 -2.01734 -0.783086 0
M  V30 2601 C 258.671 -2.22907 2.55143 0
M  V30 2602 C 257.23 -2.76501 2.5539 0
M  V30 2603 C 256.377 -1.51287 2.32396 0
M  V30 2604 H 259.328 -0.43563 1.52604 0
M  V30 2605 H 259.349 -3.05259 2.2715 0
M  V30 2606 H 258.861 -1.69533 3.49114 0
M  V30 2607 H 256.962 -3.33914 1.65324 0
M  V30 2608 H 257.075 -3.23429 3.53455 0
M  V30 2609 H 255.439 -1.78957 1.81236 0
M  V30 2610 H 256.222 -0.998336 3.28463 0
M  V30 2611 N 258.668 -1.30515 -0.883378 0
M  V30 2612 C 259.616 -1.16941 -2.01066 0
M  V30 2613 C 260.61 -0.0809148 -1.69207 0
M  V30 2614 O 261.816 -0.241877 -1.78367 0
M  V30 2615 H 258.191 -0.361705 -0.659298 0
M  V30 2616 H 260.162 -2.12344 -2.09649 0
M  V30 2617 C 258.911 -0.879694 -3.36388 0
M  V30 2618 H 258.234 -1.70936 -3.61415 0
M  V30 2619 H 259.674 -0.82483 -4.159 0
M  V30 2620 C 258.133 0.417409 -3.34304 0
M  V30 2621 O 258.663 1.43843 -3.75063 0
M  V30 2622 N 256.869 0.429141 -2.87414 0
M  V30 2623 H 256.416 -0.402222 -2.5444 0
M  V30 2624 H 256.374 1.29696 -2.86403 0
M  V30 2625 N 260.146 1.09593 -1.13257 0
M  V30 2626 C 261.109 2.14359 -0.811358 0
M  V30 2627 C 262.109 1.59808 0.178377 0
M  V30 2628 O 263.299 1.74132 -0.0484911 0
M  V30 2629 C 260.431 3.40269 -0.207276 0
M  V30 2630 H 261.624 2.44284 -1.73969 0
M  V30 2631 H 259.177 1.25102 -0.936973 0
M  V30 2632 H 259.912 3.15969 0.73036 0
M  V30 2633 H 259.697 3.81154 -0.919992 0
M  V30 2634 H 261.187 4.176 0.000667944 0
M  V30 2635 N 261.624 0.925811 1.2754 0
M  V30 2636 C 262.534 0.428993 2.30644 0
M  V30 2637 C 263.55 -0.489387 1.66976 0
M  V30 2638 O 264.726 -0.372653 1.97922 0
M  V30 2639 C 261.791 -0.311967 3.45294 0
M  V30 2640 C 260.852 0.641098 4.24486 0
M  V30 2641 C 260.085 -0.0645955 5.33661 0
M  V30 2642 O 260.308 -1.28429 5.55754 0
M  V30 2643 O 259.242 0.606265 5.98839 0
M  V30 2644 H 263.068 1.28504 2.75173 0
M  V30 2645 H 260.653 0.691086 1.32455 0
M  V30 2646 H 262.535 -0.729972 4.15029 0
M  V30 2647 H 261.21 -1.14365 3.02824 0
M  V30 2648 H 260.117 1.10874 3.57292 0
M  V30 2649 H 261.45 1.43995 4.70666 0
M  V30 2650 N 263.102 -1.41638 0.69111 0
M  V30 2651 C 264.052 -2.28 -0.000107832 0
M  V30 2652 C 265.036 -1.41964 -0.757304 0
M  V30 2653 O 266.228 -1.65274 -0.633532 0
M  V30 2654 C 263.357 -3.30209 -0.938983 0
M  V30 2655 C 262.443 -4.23725 -0.17827 0
M  V30 2656 N 262.834 -4.99017 0.825563 0
M  V30 2657 C 261.132 -4.44071 -0.414392 0
M  V30 2658 C 261.833 -5.67431 1.28052 0
M  V30 2659 N 260.809 -5.40197 0.607304 0
M  V30 2660 H 264.611 -2.83644 0.769617 0
M  V30 2661 H 262.125 -1.53797 0.521562 0
M  V30 2662 H 264.122 -3.90898 -1.44929 0
M  V30 2663 H 262.782 -2.76126 -1.70836 0
M  V30 2664 H 263.793 -5.03671 1.20566 0
M  V30 2665 H 260.47 -4.01004 -1.162 0
M  V30 2666 H 261.86 -6.37801 2.11327 0
M  V30 2667 N 264.58 -0.43555 -1.51462 0
M  V30 2668 C 265.991 0.0279871 -1.86679 0
M  V30 2669 C 266.342 1.42104 -1.35281 0
M  V30 2670 O 265.467 2.04667 -0.702878 0
M  V30 2671 C 266.062 0.0575626 -3.38751 0
M  V30 2672 C 264.621 0.465507 -3.7351 0
M  V30 2673 C 263.768 -0.342996 -2.75171 0
M  V30 2674 H 266.719 -0.651473 -1.44712 0
M  V30 2675 H 266.74 0.867421 -3.70481 0
M  V30 2676 H 266.252 -0.956448 -3.7613 0
M  V30 2677 H 264.353 1.48519 -3.41721 0
M  V30 2678 H 264.466 0.191546 -4.78717 0
M  V30 2679 H 262.83 0.198442 -2.53926 0
M  V30 2680 H 263.613 -1.35585 -3.15391 0
M  V30 2681 N 266.058 1.56714 -0.166846 0
M  V30 2682 C 267.306 1.96358 0.478305 0
M  V30 2683 C 267.627 1.0537 1.6408 0
M  V30 2684 O 266.897 0.119154 1.95537 0
M  V30 2685 H 265.477 0.725065 0.179692 0
M  V30 2686 H 268.139 1.93329 -0.246985 0
M  V30 2687 H 267.235 3.00547 0.841292 0
M  V30 2688 N 267.536 -0.106894 1.57237 0
M  V30 2689 C 268.499 -1.11466 2.0027 0
M  V30 2690 C 269.499 -1.33623 0.894519 0
M  V30 2691 O 270.689 -1.29935 1.16028 0
M  V30 2692 C 267.821 -2.46646 2.35327 0
M  V30 2693 H 269.014 -0.744516 2.90512 0
M  V30 2694 H 266.567 -0.351576 1.52295 0
M  V30 2695 H 267.302 -2.88558 1.48003 0
M  V30 2696 H 267.087 -2.31915 3.16161 0
M  V30 2697 H 268.577 -3.19151 2.69318 0
M  V30 2698 N 269.014 -1.53014 -0.377408 0
M  V30 2699 C 270.425 -1.60438 -0.954798 0
M  V30 2700 C 270.776 -0.464418 -1.90624 0
M  V30 2701 O 269.901 0.41087 -2.12464 0
M  V30 2702 C 270.496 -2.90797 -1.73847 0
M  V30 2703 C 269.055 -3.00595 -2.26538 0
M  V30 2704 C 268.202 -2.55645 -1.07429 0
M  V30 2705 H 271.153 -1.57926 -0.156575 0
M  V30 2706 H 271.174 -2.77935 -2.5987 0
M  V30 2707 H 270.686 -3.73746 -1.04574 0
M  V30 2708 H 268.787 -2.22208 -2.99089 0
M  V30 2709 H 268.9 -4.05456 -2.5523 0
M  V30 2710 H 267.264 -2.10239 -1.43777 0
M  V30 2711 H 268.047 -3.41 -0.396728 0
M  V30 2712 N 270.492 0.636531 -1.44174 0
M  V30 2713 C 271.422 1.76003 -1.53444 0
M  V30 2714 C 272.403 1.65619 -0.387841 0
M  V30 2715 O 273.588 1.84461 -0.607257 0
M  V30 2716 C 270.718 3.14511 -1.4731 0
M  V30 2717 C 269.672 3.39677 -2.60391 0
M  V30 2718 C 268.998 4.78159 -2.39308 0
M  V30 2719 C 270.298 3.32772 -4.02567 0
M  V30 2720 H 271.992 1.68501 -2.47483 0
M  V30 2721 H 269.538 0.809237 -1.19111 0
M  V30 2722 H 271.491 3.92878 -1.52397 0
M  V30 2723 H 270.215 3.22783 -0.49785 0
M  V30 2724 H 268.874 2.63688 -2.54684 0
M  V30 2725 H 268.522 4.83128 -1.39988 0
M  V30 2726 H 268.222 4.95956 -3.15122 0
M  V30 2727 H 269.746 5.58762 -2.46205 0
M  V30 2728 H 271.16 4.01051 -4.09672 0
M  V30 2729 H 269.557 3.62104 -4.7854 0
M  V30 2730 H 270.627 2.30669 -4.2652 0
M  V30 2731 N 271.97 1.30982 0.876444 0
M  V30 2732 C 273.386 1.09498 1.16113 0
M  V30 2733 C 273.586 -0.13875 2.01022 0
M  V30 2734 O 272.642 -0.829935 2.38471 0
M  V30 2735 C 273.955 2.36308 1.85954 0
M  V30 2736 C 275.503 2.41856 1.98683 0
M  V30 2737 C 275.978 3.6853 2.71937 0
M  V30 2738 N 277.469 3.69387 2.79477 0
M  V30 2739 C 278.204 4.64096 3.36753 0
M  V30 2740 N 277.7 5.69155 3.95012 0
M  V30 2741 N 279.493 4.51626 3.3465 0
M  V30 2742 H 271.644 2.10118 0.310494 0
M  V30 2743 H 273.907 0.926634 0.200131 0
M  V30 2744 H 273.613 3.26388 1.31011 0
M  V30 2745 H 273.487 2.4561 2.86278 0
M  V30 2746 H 275.874 1.52249 2.52793 0
M  V30 2747 H 275.955 2.36523 0.9742 0
M  V30 2748 H 275.599 4.58499 2.18496 0
M  V30 2749 H 275.529 3.71127 3.73593 0
M  V30 2750 H 278.02 2.93438 2.38123 0
M  V30 2751 H 278.333 6.3751 4.36808 0
M  V30 2752 H 276.678 5.72937 3.93406 0
M  V30 2753 H 279.869 3.68728 2.8837 0
M  V30 2754 H 280.042 5.25614 3.7899 0
M  V30 2755 N 273.449 -1.08991 1.13837 0
M  V30 2756 C 274.697 -1.80899 0.901098 0
M  V30 2757 C 275.018 -1.86356 -0.574134 0
M  V30 2758 O 274.288 -1.35235 -1.41733 0
M  V30 2759 H 272.868 -0.669966 0.330386 0
M  V30 2760 H 275.53 -1.318 1.43578 0
M  V30 2761 H 274.626 -2.83929 1.29578 0
M  V30 2762 N 274.927 -0.932562 -1.27047 0
M  V30 2763 C 275.837 -0.441219 -2.30414 0
M  V30 2764 C 276.853 0.480525 -1.67233 0
M  V30 2765 O 278.029 0.362151 -1.98117 0
M  V30 2766 C 275.094 0.293651 -3.45454 0
M  V30 2767 C 274.155 -0.663601 -4.2414 0
M  V30 2768 C 273.388 0.0362932 -5.33688 0
M  V30 2769 O 273.611 1.2548 -5.56427 0
M  V30 2770 O 272.545 -0.638015 -5.98509 0
M  V30 2771 H 276.371 -1.29962 -2.74488 0
M  V30 2772 H 273.956 -0.6981 -1.32087 0
M  V30 2773 H 275.838 0.707951 -4.15411 0
M  V30 2774 H 274.513 1.12758 -3.03426 0
M  V30 2775 H 273.42 -1.12768 -3.56699 0
M  V30 2776 H 274.753 -1.46489 -4.69896 0
M  V30 2777 N 276.405 1.4127 -0.698611 0
M  V30 2778 C 277.821 1.55241 -0.370462 0
M  V30 2779 C 278.021 1.67351 1.12231 0
M  V30 2780 O 277.077 1.65363 1.90818 0
M  V30 2781 C 278.39 2.78997 -1.12165 0
M  V30 2782 C 279.938 2.92797 -1.1063 0
M  V30 2783 C 280.413 4.19445 -1.8393 0
M  V30 2784 N 281.904 4.26409 -1.80914 0
M  V30 2785 C 282.639 5.23271 -2.34467 0
M  V30 2786 N 282.135 6.26145 -2.96504 0
M  V30 2787 N 283.928 5.15232 -2.24706 0
M  V30 2788 H 276.079 1.31654 -1.66676 0
M  V30 2789 H 278.342 0.635393 -0.703548 0
M  V30 2790 H 278.048 2.76268 -2.17644 0
M  V30 2791 H 277.922 3.70606 -0.702209 0
M  V30 2792 H 280.309 2.95039 -0.0597713 0
M  V30 2793 H 280.39 2.02353 -1.56483 0
M  V30 2794 H 280.034 4.17964 -2.88563 0
M  V30 2795 H 279.964 5.08866 -1.35509 0
M  V30 2796 H 282.455 3.527 -1.35687 0
M  V30 2797 H 282.768 6.96451 -3.34927 0
M  V30 2798 H 281.113 6.26638 -3.00583 0
M  V30 2799 H 284.304 4.33789 -1.7591 0
M  V30 2800 H 284.477 5.90552 -2.66745 0
M  V30 2801 N 277.883 0.443576 1.51229 0
M  V30 2802 C 279.108 -0.121648 2.07043 0
M  V30 2803 C 279.533 -1.35156 1.30823 0
M  V30 2804 O 278.891 -1.7793 0.347934 0
M  V30 2805 C 278.939 -0.41624 3.5819 0
M  V30 2806 O 278.043 -1.50163 3.8409 0
M  V30 2807 H 277.384 0.000871367 0.663999 0
M  V30 2808 H 279.914 0.626706 1.94765 0
M  V30 2809 H 279.924 -0.664867 4.02546 0
M  V30 2810 H 278.599 0.482653 4.1309 0
M  V30 2811 H 277.176 -1.24248 3.51592 0
M  V30 2812 N 279.361 -1.56624 0.175154 0
M  V30 2813 C 280.609 -1.96609 -0.467885 0
M  V30 2814 C 280.93 -1.06238 -1.63519 0
M  V30 2815 O 280.2 -0.129523 -1.95471 0
M  V30 2816 H 278.78 -0.726008 -0.175845 0
M  V30 2817 H 281.442 -1.93195 0.257234 0
M  V30 2818 H 280.538 -3.00989 -0.825342 0
M  V30 2819 N 280.839 0.0985539 -1.57292 0
M  V30 2820 C 282.069 0.815135 -1.8984 0
M  V30 2821 C 282.477 1.7297 -0.766679 0
M  V30 2822 O 281.82 1.81698 0.270483 0
M  V30 2823 C 281.882 1.6842 -3.17608 0
M  V30 2824 C 281.546 0.94182 -4.4719 0
M  V30 2825 C 282.543 0.273212 -5.19182 0
M  V30 2826 C 280.228 0.916927 -4.9386 0
M  V30 2827 C 282.222 -0.410361 -6.36078 0
M  V30 2828 C 279.909 0.229567 -6.10669 0
M  V30 2829 C 280.907 -0.432902 -6.81627 0
M  V30 2830 O 280.595 -1.10925 -7.9621 0
M  V30 2831 H 280.327 0.238501 -0.632529 0
M  V30 2832 H 282.881 0.0812659 -2.05239 0
M  V30 2833 H 281.111 2.46022 -2.98345 0
M  V30 2834 H 282.8 2.27704 -3.36015 0
M  V30 2835 H 283.566 0.283927 -4.84168 0
M  V30 2836 H 279.445 1.42201 -4.3852 0
M  V30 2837 H 282.989 -0.928013 -6.914 0
M  V30 2838 H 278.886 0.216686 -6.45136 0
M  V30 2839 H 279.654 -1.01579 -8.12172 0
M  V30 2840 N 282.317 1.53212 0.369288 0
M  V30 2841 C 283.594 1.59815 1.12776 0
M  V30 2842 C 283.974 0.403402 2.0721 0
M  V30 2843 O 283.322 -0.606667 2.20299 0
M  V30 2844 C 283.532 2.94664 1.87013 0
M  V30 2845 C 284.88 3.49109 2.41677 0
M  V30 2846 O 285.904 2.96669 1.97144 0
M  V30 2847 O 284.763 4.40775 3.23079 0
M  V30 2848 H 281.857 0.645376 0.517125 0
M  V30 2849 H 284.403 1.65553 0.37285 0
M  V30 2850 H 283.175 3.73061 1.18071 0
M  V30 2851 H 282.798 2.92401 2.69421 0
M  V30 2852 N 283.795 -0.628877 1.44509 0
M  V30 2853 C 285.042 -1.38839 1.47411 0
M  V30 2854 C 285.37 -1.94202 0.10757 0
M  V30 2855 O 284.625 -1.74243 -0.890947 0
M  V30 2856 C 284.924 -2.56995 2.48371 0
M  V30 2857 C 284.59 -2.19908 3.93639 0
M  V30 2858 C 283.252 -2.09506 4.33198 0
M  V30 2859 C 285.604 -1.9064 4.85083 0
M  V30 2860 C 282.932 -1.68028 5.62124 0
M  V30 2861 C 285.284 -1.50655 6.14399 0
M  V30 2862 C 283.948 -1.38796 6.5291 0
M  V30 2863 H 283.218 -0.508048 0.539414 0
M  V30 2864 H 285.865 -0.712913 1.77735 0
M  V30 2865 H 284.17 -3.29786 2.11538 0
M  V30 2866 H 285.867 -3.15223 2.47861 0
M  V30 2867 H 282.457 -2.28922 3.62343 0
M  V30 2868 H 286.641 -1.97585 4.55273 0
M  V30 2869 H 281.897 -1.57452 5.90778 0
M  V30 2870 H 286.071 -1.27048 6.84713 0
M  V30 2871 H 283.698 -1.06429 7.52713 0
M  V30 2872 N 285.273 -1.31445 -0.869486 0
M  V30 2873 C 286.689 -1.10113 -1.15531 0
M  V30 2874 C 286.889 0.128087 -2.01092 0
M  V30 2875 O 285.945 0.817276 -2.38908 0
M  V30 2876 C 287.258 -2.37291 -1.84698 0
M  V30 2877 C 288.806 -2.42906 -1.97397 0
M  V30 2878 C 289.281 -3.69967 -2.69979 0
M  V30 2879 N 290.772 -3.70864 -2.77514 0
M  V30 2880 C 291.507 -4.65875 -3.34287 0
M  V30 2881 N 291.003 -5.71242 -3.91988 0
M  V30 2882 N 292.796 -4.53394 -3.3225 0
M  V30 2883 H 284.947 -2.1028 -0.299347 0
M  V30 2884 H 287.21 -0.927683 -0.195214 0
M  V30 2885 H 286.916 -3.27078 -1.29278 0
M  V30 2886 H 286.79 -2.47125 -2.84972 0
M  V30 2887 H 289.177 -1.53588 -2.51982 0
M  V30 2888 H 289.258 -2.37036 -0.961643 0
M  V30 2889 H 288.902 -4.59652 -2.16062 0
M  V30 2890 H 288.832 -3.73103 -3.7162 0
M  V30 2891 H 291.323 -2.94697 -2.36563 0
M  V30 2892 H 291.636 -6.39817 -4.33421 0
M  V30 2893 H 289.981 -5.75015 -3.90362 0
M  V30 2894 H 293.172 -3.70252 -2.8641 0
M  V30 2895 H 293.345 -5.27617 -3.76197 0
M  V30 2896 N 286.751 1.08385 -1.14413 0
M  V30 2897 C 288.162 1.62258 -0.923535 0
M  V30 2898 C 288.513 1.88691 0.537595 0
M  V30 2899 O 287.638 1.64454 1.40655 0
M  V30 2900 C 288.233 2.94781 -1.67002 0
M  V30 2901 C 286.792 3.45437 -1.495 0
M  V30 2902 C 285.939 2.19668 -1.69238 0
M  V30 2903 H 288.89 0.916086 -1.2959 0
M  V30 2904 H 288.911 3.63229 -1.13334 0
M  V30 2905 H 288.423 2.7551 -2.73342 0
M  V30 2906 H 286.524 3.6981 -0.455097 0
M  V30 2907 H 286.637 4.22173 -2.2651 0
M  V30 2908 H 285.001 2.28849 -1.11804 0
M  V30 2909 H 285.784 2.02905 -2.7692 0
M  V30 2910 N 288.23 0.939286 1.26551 0
M  V30 2911 C 289.162 0.404704 2.25599 0
M  V30 2912 C 290.175 -0.470983 1.55838 0
M  V30 2913 O 291.364 -0.281734 1.76263 0
M  V30 2914 C 288.464 -0.43764 3.36062 0
M  V30 2915 C 287.637 0.421449 4.35365 0
M  V30 2916 C 286.696 -0.36015 5.24966 0
M  V30 2917 O 285.722 0.236167 5.6871 0
M  V30 2918 N 286.924 -1.65715 5.56344 0
M  V30 2919 H 289.689 1.25618 2.72103 0
M  V30 2920 H 287.25 0.807963 1.40298 0
M  V30 2921 H 289.242 -0.967866 3.92956 0
M  V30 2922 H 287.812 -1.18991 2.89067 0
M  V30 2923 H 287.032 1.1329 3.7757 0
M  V30 2924 H 288.32 1.00835 4.98708 0
M  V30 2925 H 287.718 -2.16378 5.22682 0
M  V30 2926 H 286.275 -2.13366 6.15888 0
M  V30 2927 N 289.708 -1.40897 0.706093 0
M  V30 2928 C 290.957 -2.00284 0.238574 0
M  V30 2929 C 291.27 -1.56604 -1.17194 0
M  V30 2930 O 292.476 -2.08624 -1.73748 0
M  V30 2931 C 290.932 -3.57934 0.375623 0
M  V30 2932 C 290.54 -4.10591 1.79217 0
M  V30 2933 C 292.284 -4.24488 -0.0315857 0
M  V30 2934 C 290.191 -5.60712 1.88032 0
M  V30 2935 H 289.121 -0.749144 0.0854398 0
M  V30 2936 H 291.772 -1.61251 0.875813 0
M  V30 2937 H 290.154 -3.94622 -0.330042 0
M  V30 2938 H 291.328 -3.85301 2.52745 0
M  V30 2939 H 289.643 -3.56601 2.15 0
M  V30 2940 H 292.24 -5.34698 0.0136842 0
M  V30 2941 H 292.583 -4.02261 -1.072 0
M  V30 2942 H 293.116 -3.92873 0.624181 0
M  V30 2943 H 289.855 -5.87781 2.90161 0
M  V30 2944 H 289.375 -5.87896 1.18903 0
M  V30 2945 H 291.054 -6.25658 1.64805 0
M  V30 2946 N 291.186 -0.45159 -1.50991 0
M  V30 2947 C 292.432 0.110237 -2.025 0
M  V30 2948 C 292.765 1.41109 -1.33424 0
M  V30 2949 O 292.04 1.89135 -0.453659 0
M  V30 2950 C 292.323 0.314271 -3.58726 0
M  V30 2951 C 292.176 -1.00623 -4.38401 0
M  V30 2952 C 293.495 1.07767 -4.26702 0
M  V30 2953 H 290.614 0.0385897 -0.735989 0
M  V30 2954 H 293.256 -0.593374 -1.80497 0
M  V30 2955 H 291.406 0.913601 -3.77605 0
M  V30 2956 H 293.078 -1.64064 -4.31139 0
M  V30 2957 H 291.321 -1.6075 -4.02917 0
M  V30 2958 H 291.992 -0.817341 -5.45915 0
M  V30 2959 H 294.468 0.56986 -4.12179 0
M  V30 2960 H 293.344 1.18921 -5.35863 0
M  V30 2961 H 293.605 2.10939 -3.88532 0
M  V30 2962 N 292.664 1.56529 -0.183458 0
M  V30 2963 C 293.912 1.96855 0.457452 0
M  V30 2964 C 294.233 1.07104 1.62953 0
M  V30 2965 O 293.503 0.139887 1.954 0
M  V30 2966 H 292.083 0.72693 0.171992 0
M  V30 2967 H 294.745 1.93056 -0.267476 0
M  V30 2968 H 293.841 3.01423 0.809368 0
M  V30 2969 N 294.142 -0.090211 1.57342 0
M  V30 2970 C 295.388 -0.793982 1.86611 0
M  V30 2971 C 295.721 -1.78142 0.773252 0
M  V30 2972 O 294.996 -1.93271 -0.218304 0
M  V30 2973 C 295.279 -1.51839 3.26523 0
M  V30 2974 C 295.132 -0.548609 4.46442 0
M  V30 2975 C 296.451 -2.46779 3.64401 0
M  V30 2976 H 293.57 -0.287186 0.678744 0
M  V30 2977 H 296.212 -0.0575076 1.89913 0
M  V30 2978 H 294.362 -2.14617 3.23839 0
M  V30 2979 H 296.034 0.0725513 4.61243 0
M  V30 2980 H 294.277 0.137614 4.33582 0
M  V30 2981 H 294.948 -1.09271 5.41076 0
M  V30 2982 H 297.424 -1.94089 3.68061 0
M  V30 2983 H 296.3 -2.94479 4.63221 0
M  V30 2984 H 296.561 -3.30758 2.93346 0
M  V30 2985 N 295.62 -1.53406 -0.361157 0
M  V30 2986 C 296.867 -1.69802 -1.10333 0
M  V30 2987 C 297.195 -0.452087 -1.89173 0
M  V30 2988 O 296.45 0.566017 -1.87336 0
M  V30 2989 C 296.749 -2.90211 -2.08596 0
M  V30 2990 C 296.415 -4.26539 -1.46203 0
M  V30 2991 C 295.077 -4.6361 -1.28915 0
M  V30 2992 C 297.429 -5.113 -1.01101 0
M  V30 2993 C 294.757 -5.83075 -0.651157 0
M  V30 2994 C 297.109 -6.31415 -0.387007 0
M  V30 2995 C 295.773 -6.67195 -0.201657 0
M  V30 2996 H 295.043 -0.621351 -0.403737 0
M  V30 2997 H 297.69 -1.87598 -0.384609 0
M  V30 2998 H 295.995 -2.66946 -2.86788 0
M  V30 2999 H 297.692 -3.00091 -2.65982 0
M  V30 3000 H 294.282 -3.97352 -1.60653 0
M  V30 3001 H 298.466 -4.83206 -1.13249 0
M  V30 3002 H 293.722 -6.09385 -0.496006 0
M  V30 3003 H 297.896 -6.96394 -0.0293563 0
M  V30 3004 H 295.523 -7.59628 0.294766 0
M  V30 3005 N 297.098 0.621204 -1.44841 0
M  V30 3006 C 298.326 1.40752 -1.51646 0
M  V30 3007 C 298.741 1.88246 -0.144549 0
M  V30 3008 O 298.098 1.61422 0.851416 0
M  V30 3009 C 298.149 2.62119 -2.4895 0
M  V30 3010 O 297.87 2.16602 -3.80808 0
M  V30 3011 C 299.371 3.55135 -2.65319 0
M  V30 3012 H 296.591 0.431325 -0.514004 0
M  V30 3013 H 299.135 0.758835 -1.899 0
M  V30 3014 H 297.29 3.23058 -2.13805 0
M  V30 3015 H 297.704 2.95358 -4.33433 0
M  V30 3016 H 299.178 4.36874 -3.37409 0
M  V30 3017 H 299.655 4.04592 -1.70886 0
M  V30 3018 H 300.261 3.00058 -3.01405 0
M  V30 3019 N 298.576 1.31904 0.862503 0
M  V30 3020 C 299.853 1.12644 1.59908 0
M  V30 3021 C 300.233 -0.316104 2.0872 0
M  V30 3022 O 299.581 -1.31145 1.87118 0
M  V30 3023 C 299.791 2.1472 2.7513 0
M  V30 3024 C 301.139 2.47637 3.44907 0
M  V30 3025 O 302.163 2.13205 2.85346 0
M  V30 3026 O 301.022 3.06632 4.52371 0
M  V30 3027 H 298.116 0.43416 0.703871 0
M  V30 3028 H 300.662 1.43408 0.907314 0
M  V30 3029 H 299.434 3.1172 2.3653 0
M  V30 3030 H 299.057 1.84905 3.51989 0
M  V30 3031 N 300.054 -1.07777 1.14986 0
M  V30 3032 C 300.984 -2.16865 0.865557 0
M  V30 3033 C 301.965 -1.69123 -0.182083 0
M  V30 3034 O 303.15 -1.94164 -0.0373815 0
M  V30 3035 C 300.28 -3.45539 0.349313 0
M  V30 3036 C 299.234 -4.06708 1.33313 0
M  V30 3037 C 298.56 -5.30411 0.675918 0
M  V30 3038 C 299.86 -4.47241 2.69764 0
M  V30 3039 H 301.554 -2.40905 1.77778 0
M  V30 3040 H 299.1 -1.15781 0.856203 0
M  V30 3041 H 301.053 -4.21174 0.137983 0
M  V30 3042 H 299.777 -3.21072 -0.598362 0
M  V30 3043 H 298.436 -3.33112 1.53075 0
M  V30 3044 H 298.084 -5.02232 -0.277767 0
M  V30 3045 H 297.784 -5.72293 1.33244 0
M  V30 3046 H 299.308 -6.08755 0.474262 0
M  V30 3047 H 300.722 -5.14025 2.53873 0
M  V30 3048 H 299.119 -5.00062 3.3175 0
M  V30 3049 H 300.189 -3.58818 3.26156 0
M  V30 3050 N 301.532 -0.945985 -1.26051 0
M  V30 3051 C 302.495 -0.463897 -2.24456 0
M  V30 3052 C 303.495 0.427655 -1.55009 0
M  V30 3053 O 304.685 0.226157 -1.72726 0
M  V30 3054 C 301.817 0.330812 -3.39291 0
M  V30 3055 H 303.01 -1.33357 -2.68619 0
M  V30 3056 H 300.563 -0.728416 -1.38289 0
M  V30 3057 H 301.298 1.21852 -3.00537 0
M  V30 3058 H 301.083 -0.308679 -3.90883 0
M  V30 3059 H 302.573 0.657865 -4.12386 0
M  V30 3060 N 303.011 1.40521 -0.713556 0
M  V30 3061 C 304.259 2.00527 -0.251692 0
M  V30 3062 C 304.58 1.56857 1.15848 0
M  V30 3063 O 303.85 0.807127 1.785 0
M  V30 3064 H 302.43 0.741551 -0.0900646 0
M  V30 3065 H 305.092 1.71887 -0.918733 0
M  V30 3066 H 304.188 3.10813 -0.283192 0
M  V30 3067 N 304.489 0.459591 1.5075 0
M  V30 3068 C 305.9 0.00171547 1.867 0
M  V30 3069 C 306.251 -1.39934 1.37525 0
M  V30 3070 O 305.376 -2.03523 0.735349 0
M  V30 3071 C 305.971 -0.00366298 3.388 0
M  V30 3072 C 304.53 -0.406026 3.74204 0
M  V30 3073 C 303.677 0.38673 2.7459 0
M  V30 3074 H 306.628 0.674413 1.43657 0
M  V30 3075 H 306.649 -0.808371 3.71814 0
M  V30 3076 H 306.161 1.01617 3.74561 0
M  V30 3077 H 304.262 -1.43063 3.4404 0
M  V30 3078 H 304.375 -0.115362 4.78961 0
M  V30 3079 H 302.739 -0.158019 2.54209 0
M  V30 3080 H 303.522 1.40585 3.13194 0
M  V30 3081 N 305.967 -1.56429 0.191757 0
M  V30 3082 C 306.93 -2.17707 -0.716688 0
M  V30 3083 C 307.93 -1.13061 -1.14341 0
M  V30 3084 O 309.12 -1.38464 -1.05704 0
M  V30 3085 C 306.252 -2.77644 -1.97804 0
M  V30 3086 H 307.445 -2.99342 -0.1829 0
M  V30 3087 H 304.998 -1.56193 -0.0578566 0
M  V30 3088 H 305.733 -1.99799 -2.55443 0
M  V30 3089 H 305.518 -3.54246 -1.68083 0
M  V30 3090 H 307.008 -3.24708 -2.62592 0
M  V30 3091 N 307.445 0.0818655 -1.57387 0
M  V30 3092 C 308.856 0.634871 -1.75574 0
M  V30 3093 C 309.207 1.78435 -0.815809 0
M  V30 3094 O 308.332 2.164 0.0025366 0
M  V30 3095 C 308.927 1.15845 -3.18379 0
M  V30 3096 C 307.486 1.65741 -3.37945 0
M  V30 3097 C 306.633 0.572549 -2.71325 0
M  V30 3098 H 309.584 -0.144268 -1.58043 0
M  V30 3099 H 309.605 2.02751 -3.21982 0
M  V30 3100 H 309.117 0.321631 -3.86765 0
M  V30 3101 H 307.218 2.51781 -2.74658 0
M  V30 3102 H 307.331 1.74129 -4.46336 0
M  V30 3103 H 305.695 1.01518 -2.33594 0
M  V30 3104 H 306.478 -0.253918 -3.4236 0
M  V30 3105 N 308.923 1.53595 0.353017 0
M  V30 3106 C 310.334 1.61937 0.929153 0
M  V30 3107 C 310.685 0.494686 1.89861 0
M  V30 3108 O 309.81 -0.377017 2.1309 0
M  V30 3109 C 310.405 2.93526 1.69199 0
M  V30 3110 C 308.964 3.04161 2.21727 0
M  V30 3111 C 308.111 2.57322 1.03348 0
M  V30 3112 H 311.062 1.58155 0.131431 0
M  V30 3113 H 311.083 2.82034 2.55416 0
M  V30 3114 H 310.595 3.75362 0.986144 0
M  V30 3115 H 308.696 2.26938 2.95516 0
M  V30 3116 H 308.809 4.09465 2.48748 0
M  V30 3117 H 307.173 2.12499 1.40414 0
M  V30 3118 H 307.956 3.41588 0.342428 0
M  V30 3119 N 310.401 -0.613514 1.45168 0
M  V30 3120 C 311.649 -1.36997 1.48581 0
M  V30 3121 C 311.97 -1.94589 0.126545 0
M  V30 3122 O 311.24 -1.76816 -0.843372 0
M  V30 3123 H 309.82 -0.508558 0.547154 0
M  V30 3124 H 312.482 -0.720853 1.81079 0
M  V30 3125 H 311.578 -2.1924 2.22127 0
M  V30 3126 N 311.879 -1.3236 -0.855495 0
M  V30 3127 C 312.809 -1.23833 -1.97958 0
M  V30 3128 C 313.79 -0.122361 -1.69659 0
M  V30 3129 O 314.975 -0.30939 -1.9172 0
M  V30 3130 C 312.105 -0.959772 -3.33775 0
M  V30 3131 C 311.059 -2.03689 -3.76424 0
M  V30 3132 C 310.385 -1.61075 -5.09862 0
M  V30 3133 C 311.685 -3.4518 -3.9198 0
M  V30 3134 H 313.379 -2.1788 -2.0535 0
M  V30 3135 H 310.925 -1.04891 -0.986605 0
M  V30 3136 H 312.878 -0.886678 -4.11966 0
M  V30 3137 H 311.602 0.0163404 -3.26596 0
M  V30 3138 H 310.261 -2.10012 -3.00484 0
M  V30 3139 H 309.909 -0.622107 -4.99138 0
M  V30 3140 H 309.609 -2.33143 -5.39368 0
M  V30 3141 H 311.133 -1.55201 -5.90546 0
M  V30 3142 H 312.547 -3.4145 -4.60526 0
M  V30 3143 H 310.944 -4.1559 -4.32903 0
M  V30 3144 H 312.014 -3.84903 -2.94919 0
M  V30 3145 N 313.357 1.07166 -1.15556 0
M  V30 3146 C 314.582 1.84053 -0.955988 0
M  V30 3147 C 315.007 1.81586 0.490739 0
M  V30 3148 O 314.365 1.21018 1.34997 0
M  V30 3149 C 314.413 3.28957 -1.47714 0
M  V30 3150 O 313.517 4.06795 -0.677593 0
M  V30 3151 H 312.858 0.569842 -0.340847 0
M  V30 3152 H 315.388 1.35178 -1.53584 0
M  V30 3153 H 315.398 3.79788 -1.4908 0
M  V30 3154 H 314.073 3.30068 -2.53037 0
M  V30 3155 H 312.65 3.6561 -0.733721 0
M  V30 3156 N 314.835 0.952656 1.25548 0
M  V30 3157 C 316.082 0.606373 1.93208 0
M  V30 3158 C 316.41 -0.85631 1.74636 0
M  V30 3159 O 315.665 -1.62951 1.08376 0
M  V30 3160 C 315.964 0.908818 3.45652 0
M  V30 3161 C 315.63 2.35722 3.84378 0
M  V30 3162 C 314.292 2.75312 3.9466 0
M  V30 3163 C 316.644 3.29793 4.03591 0
M  V30 3164 C 313.972 4.08047 4.21562 0
M  V30 3165 C 316.324 4.62138 4.31985 0
M  V30 3166 C 314.988 5.01528 4.40484 0
M  V30 3167 H 314.258 0.221888 0.706998 0
M  V30 3168 H 316.905 1.20132 1.49133 0
M  V30 3169 H 315.21 0.231456 3.91116 0
M  V30 3170 H 316.907 0.619498 3.96186 0
M  V30 3171 H 313.497 2.04017 3.76928 0
M  V30 3172 H 317.681 3.00397 3.95064 0
M  V30 3173 H 312.937 4.38212 4.26357 0
M  V30 3174 H 317.111 5.35012 4.45797 0
M  V30 3175 H 314.738 6.04406 4.61083 0
M  V30 3176 N 316.313 -1.40141 0.720998 0
M  V30 3177 C 317.538 -2.05618 0.271258 0
M  V30 3178 C 317.963 -1.53978 -1.08039 0
M  V30 3179 O 317.321 -0.677463 -1.68167 0
M  V30 3180 C 317.369 -3.59609 0.267197 0
M  V30 3181 O 316.473 -4.05526 -0.749814 0
M  V30 3182 H 315.814 -0.651904 0.126162 0
M  V30 3183 H 318.344 -1.79439 0.982997 0
M  V30 3184 H 318.354 -4.0786 0.106744 0
M  V30 3185 H 317.029 -3.96559 1.25354 0
M  V30 3186 H 315.606 -3.68722 -0.556644 0
M  V30 3187 N 317.792 -0.46758 -1.50504 0
M  V30 3188 C 318.755 0.317059 -2.26996 0
M  V30 3189 C 319.755 0.923513 -1.31635 0
M  V30 3190 O 320.945 0.793239 -1.55091 0
M  V30 3191 C 318.077 1.45134 -3.08462 0
M  V30 3192 H 319.27 -0.353723 -2.97807 0
M  V30 3193 H 316.823 -0.221545 -1.54722 0
M  V30 3194 H 317.558 2.15728 -2.4214 0
M  V30 3195 H 317.343 1.02232 -3.78538 0
M  V30 3196 H 318.833 2.00493 -3.66323 0
M  V30 3197 N 319.27 1.56325 -0.20005 0
M  V30 3198 C 320.495 2.02548 0.44597 0
M  V30 3199 C 320.92 1.07922 1.5406 0
M  V30 3200 O 320.278 0.0635775 1.81188 0
M  V30 3201 C 320.326 3.47175 0.974761 0
M  V30 3202 O 319.43 3.55671 2.08739 0
M  V30 3203 H 318.771 0.655862 0.103638 0
M  V30 3204 H 321.301 2.02201 -0.312381 0
M  V30 3205 H 321.311 3.87067 1.2901 0
M  V30 3206 H 319.986 4.15538 0.17347 0
M  V30 3207 H 318.563 3.27657 1.78032 0
M  V30 3208 N 320.748 -0.0735177 1.57428 0
M  V30 3209 C 321.994 -0.774145 1.87443 0
M  V30 3210 C 322.327 -1.77311 0.792103 0
M  V30 3211 O 321.602 -1.93492 -0.197793 0
M  V30 3212 C 321.885 -1.48367 3.28115 0
M  V30 3213 C 321.738 -0.501227 4.46999 0
M  V30 3214 C 323.057 -2.429 3.66998 0
M  V30 3215 H 320.176 -0.279971 0.681752 0
M  V30 3216 H 322.818 -0.0373616 1.89963 0
M  V30 3217 H 320.968 -2.11171 3.26097 0
M  V30 3218 H 322.64 0.121468 4.6114 0
M  V30 3219 H 320.883 0.183593 4.33411 0
M  V30 3220 H 321.554 -1.03526 5.42205 0
M  V30 3221 H 324.03 -1.90175 3.70098 0
M  V30 3222 H 322.906 -2.89549 4.66318 0
M  V30 3223 H 323.167 -3.27628 2.96837 0
M  V30 3224 N 322.226 -1.5378 -0.344866 0
M  V30 3225 C 323.503 -1.61589 -1.10219 0
M  V30 3226 C 323.883 -0.436316 -2.06542 0
M  V30 3227 O 323.231 0.571543 -2.21237 0
M  V30 3228 C 323.441 -2.97602 -1.82301 0
M  V30 3229 C 324.789 -3.5291 -2.36093 0
M  V30 3230 O 325.813 -2.99768 -1.924 0
M  V30 3231 O 324.672 -4.45859 -3.16026 0
M  V30 3232 H 321.766 -0.653522 -0.506792 0
M  V30 3233 H 324.312 -1.66126 -0.346465 0
M  V30 3234 H 323.084 -3.74893 -1.12121 0
M  V30 3235 H 322.707 -2.9665 -2.64735 0
M  V30 3236 N 323.704 0.605807 -1.45491 0
M  V30 3237 C 324.932 1.39136 -1.5313 0
M  V30 3238 C 325.347 1.88082 -0.164507 0
M  V30 3239 O 324.704 1.62316 0.834247 0
M  V30 3240 C 324.755 2.59463 -2.51716 0
M  V30 3241 O 324.476 2.12551 -3.83084 0
M  V30 3242 C 325.977 3.52301 -2.6907 0
M  V30 3243 H 323.197 0.425849 -0.51855 0
M  V30 3244 H 325.741 0.73865 -1.90694 0
M  V30 3245 H 323.896 3.20772 -2.17219 0
M  V30 3246 H 324.31 2.90744 -4.36541 0
M  V30 3247 H 325.784 4.33271 -3.42024 0
M  V30 3248 H 326.261 4.02757 -1.75167 0
M  V30 3249 H 326.867 2.96845 -3.04571 0
M  V30 3250 N 325.182 1.32811 0.848464 0
M  V30 3251 C 326.598 1.11937 1.13764 0
M  V30 3252 C 326.798 -0.0960789 2.01271 0
M  V30 3253 O 325.854 -0.779165 2.40178 0
M  V30 3254 C 327.167 2.402 1.809 0
M  V30 3255 C 328.715 2.46016 1.93508 0
M  V30 3256 C 329.19 3.74215 2.64059 0
M  V30 3257 N 330.681 3.75232 2.71579 0
M  V30 3258 C 331.416 4.71134 3.26833 0
M  V30 3259 N 330.912 5.77406 3.8285 0
M  V30 3260 N 332.705 4.58623 3.24995 0
M  V30 3261 H 324.856 2.1073 0.265855 0
M  V30 3262 H 327.119 0.930671 0.180431 0
M  V30 3263 H 326.825 3.29093 1.24058 0
M  V30 3264 H 326.699 2.51628 2.81004 0
M  V30 3265 H 329.086 1.57577 2.49506 0
M  V30 3266 H 329.167 2.38536 0.923811 0
M  V30 3267 H 328.811 4.63031 2.08722 0
M  V30 3268 H 328.741 3.78968 3.65637 0
M  V30 3269 H 331.232 2.98423 2.31845 0
M  V30 3270 H 331.545 6.46632 4.23187 0
M  V30 3271 H 329.89 5.81152 3.81165 0
M  V30 3272 H 333.081 3.74762 2.80484 0
M  V30 3273 H 333.254 5.33535 3.67756 0
M  V30 3274 N 326.66 -1.06551 1.16123 0
M  V30 3275 C 327.89 -1.8274 0.963838 0
M  V30 3276 C 328.298 -1.82712 -0.491228 0
M  V30 3277 O 327.641 -1.24294 -1.35265 0
M  V30 3278 C 327.703 -3.3065 1.41106 0
M  V30 3279 C 327.367 -3.54384 2.88549 0
M  V30 3280 C 328.364 -3.4765 3.86569 0
M  V30 3281 C 326.049 -3.81789 3.26408 0
M  V30 3282 C 328.043 -3.67982 5.2045 0
M  V30 3283 C 325.73 -4.01772 4.60459 0
M  V30 3284 C 326.728 -3.94866 5.57288 0
M  V30 3285 O 326.416 -4.14306 6.88916 0
M  V30 3286 H 326.148 -0.583136 0.341948 0
M  V30 3287 H 328.702 -1.35351 1.54497 0
M  V30 3288 H 326.932 -3.78887 0.773394 0
M  V30 3289 H 328.621 -3.88324 1.1815 0
M  V30 3290 H 329.387 -3.2647 3.58667 0
M  V30 3291 H 325.266 -3.86276 2.51619 0
M  V30 3292 H 328.81 -3.62507 5.96015 0
M  V30 3293 H 324.707 -4.2244 4.88072 0
M  V30 3294 H 325.475 -4.31609 6.95454 0
M  V30 3295 N 328.138 -0.959301 -1.25041 0
M  V30 3296 C 329.363 -0.633507 -1.97488 0
M  V30 3297 C 329.788 0.788555 -1.70773 0
M  V30 3298 O 329.146 1.53394 -0.966431 0
M  V30 3299 C 329.194 -0.904057 -3.49083 0
M  V30 3300 O 328.298 0.0147939 -4.12397 0
M  V30 3301 H 327.639 -0.240368 -0.618966 0
M  V30 3302 H 330.169 -1.28717 -1.59038 0
M  V30 3303 H 330.179 -0.832203 -3.99423 0
M  V30 3304 H 328.854 -1.94048 -3.67856 0
M  V30 3305 H 327.431 -0.109664 -3.72739 0
M  V30 3306 N 329.616 1.39756 -0.72842 0
M  V30 3307 C 330.841 2.05472 -0.282159 0
M  V30 3308 C 331.266 1.54549 1.07221 0
M  V30 3309 O 330.624 0.686372 1.67805 0
M  V30 3310 C 330.672 3.59462 -0.286264 0
M  V30 3311 O 329.776 4.05918 0.728298 0
M  V30 3312 H 329.117 0.651226 -0.129618 0
M  V30 3313 H 331.647 1.78915 -0.992499 0
M  V30 3314 H 331.657 4.07798 -0.128373 0
M  V30 3315 H 330.332 3.95889 -1.27456 0
M  V30 3316 H 328.909 3.69012 0.537081 0
M  V30 3317 N 331.094 0.475555 1.50254 0
M  V30 3318 C 332.319 -0.0777042 2.07254 0
M  V30 3319 C 332.744 -1.3235 1.3366 0
M  V30 3320 O 332.102 -1.77152 0.385597 0
M  V30 3321 C 332.15 -0.340169 3.58992 0
M  V30 3322 O 331.254 -1.41982 3.87188 0
M  V30 3323 H 330.595 0.0149556 0.663832 0
M  V30 3324 H 333.125 0.667878 1.93392 0
M  V30 3325 H 333.135 -0.579332 4.03866 0
M  V30 3326 H 331.81 0.570167 4.11973 0
M  V30 3327 H 330.387 -1.16762 3.54148 0
M  V30 3328 N 332.573 -1.56217 0.208337 0
M  V30 3329 C 333.984 -1.84243 -0.301904 0
M  V30 3330 C 334.335 -1.12939 -1.60434 0
M  V30 3331 O 333.46 -0.39461 -2.12772 0
M  V30 3332 C 334.055 -3.34231 -0.554543 0
M  V30 3333 C 332.614 -3.62621 -1.00912 0
M  V30 3334 C 331.761 -2.77224 -0.064933 0
M  V30 3335 H 334.712 -1.52712 0.431833 0
M  V30 3336 H 334.733 -3.5372 -1.40223 0
M  V30 3337 H 334.245 -3.86099 0.393561 0
M  V30 3338 H 332.346 -3.16197 -1.97104 0
M  V30 3339 H 332.459 -4.7071 -0.892674 0
M  V30 3340 H 330.823 -2.48256 -0.56929 0
M  V30 3341 H 331.606 -3.31887 0.877851 0
M  V30 3342 N 334.051 0.0651679 -1.57465 0
M  V30 3343 C 335.279 0.775808 -1.91804 0
M  V30 3344 C 335.694 1.70782 -0.804916 0
M  V30 3345 O 335.051 1.81153 0.221311 0
M  V30 3346 C 335.102 1.56381 -3.25925 0
M  V30 3347 O 334.823 0.669248 -4.32958 0
M  V30 3348 C 336.324 2.37485 -3.7432 0
M  V30 3349 H 333.544 0.2202 -0.63384 0
M  V30 3350 H 336.088 0.0334587 -2.04473 0
M  V30 3351 H 334.243 2.25837 -3.14764 0
M  V30 3352 H 334.657 1.21801 -5.10162 0
M  V30 3353 H 336.131 2.88223 -4.70778 0
M  V30 3354 H 336.608 3.17307 -3.03666 0
M  V30 3355 H 337.214 1.73173 -3.88447 0
M  V30 3356 N 335.529 1.53961 0.336706 0
M  V30 3357 C 336.94 1.62914 0.911925 0
M  V30 3358 C 337.291 0.514795 1.89326 0
M  V30 3359 O 336.416 -0.354395 2.13478 0
M  V30 3360 C 337.011 2.95304 1.66076 0
M  V30 3361 C 335.57 3.06496 2.18489 0
M  V30 3362 C 334.717 2.58403 1.00613 0
M  V30 3363 H 337.668 1.58285 0.114649 0
M  V30 3364 H 337.689 2.84727 2.5241 0
M  V30 3365 H 337.201 3.76387 0.946276 0
M  V30 3366 H 335.302 2.3006 2.93092 0
M  V30 3367 H 335.415 4.1208 2.44391 0
M  V30 3368 H 333.779 2.13977 1.38152 0
M  V30 3369 H 334.562 3.41932 0.306179 0
M  V30 3370 N 337.007 -0.598083 1.45811 0
M  V30 3371 C 337.937 -1.71873 1.58057 0
M  V30 3372 C 338.918 -1.64533 0.431615 0
M  V30 3373 O 340.103 -1.82787 0.65595 0
M  V30 3374 C 337.233 -3.10495 1.55597 0
M  V30 3375 C 336.187 -3.32654 2.69305 0
M  V30 3376 C 335.513 -4.71646 2.51902 0
M  V30 3377 C 336.813 -3.21981 4.11248 0
M  V30 3378 H 338.507 -1.61881 2.51863 0
M  V30 3379 H 336.053 -0.777372 1.21214 0
M  V30 3380 H 338.006 -3.88699 1.6276 0
M  V30 3381 H 336.73 -3.2135 0.583255 0
M  V30 3382 H 335.389 -2.56843 2.61586 0
M  V30 3383 H 335.037 -4.79246 1.52748 0
M  V30 3384 H 334.737 -4.87426 3.2816 0
M  V30 3385 H 336.261 -5.52038 2.60933 0
M  V30 3386 H 337.675 -3.90049 4.20161 0
M  V30 3387 H 336.072 -3.49289 4.87972 0
M  V30 3388 H 337.142 -2.1928 4.32486 0
M  V30 3389 N 338.485 -1.33259 -0.841409 0
M  V30 3390 C 339.432 -1.23302 -1.95103 0
M  V30 3391 C 340.402 -0.112204 -1.65721 0
M  V30 3392 O 341.587 -0.290038 -1.88583 0
M  V30 3393 C 338.727 -0.975583 -3.31023 0
M  V30 3394 C 337.84 -2.18243 -3.72819 0
M  V30 3395 C 336.975 -1.85936 -4.97595 0
M  V30 3396 C 336.014 -3.02866 -5.3192 0
M  V30 3397 N 335.151 -2.70565 -6.47873 0
M  V30 3398 H 339.991 -2.18207 -2.02952 0
M  V30 3399 H 337.528 -1.0851 -0.993173 0
M  V30 3400 H 339.486 -0.80677 -4.09325 0
M  V30 3401 H 338.116 -0.0632755 -3.22738 0
M  V30 3402 H 337.168 -2.46107 -2.90061 0
M  V30 3403 H 338.48 -3.05666 -3.94169 0
M  V30 3404 H 337.634 -1.65684 -5.83638 0
M  V30 3405 H 336.373 -0.957452 -4.78209 0
M  V30 3406 H 335.378 -3.23736 -4.44382 0
M  V30 3407 H 336.603 -3.93809 -5.53255 0
M  V30 3408 H 334.549 -1.8293 -6.29978 0
M  V30 3409 H 334.466 -3.51519 -6.69306 0
M  V30 3410 H 335.734 -2.53774 -7.37034 0
M  V30 3411 N 339.963 1.05934 -1.16686 0
M  V30 3412 C 340.896 2.1295 -0.820225 0
M  V30 3413 C 341.874 1.61242 0.209722 0
M  V30 3414 O 343.058 1.88271 0.0929688 0
M  V30 3415 C 340.185 3.3797 -0.22223 0
M  V30 3416 C 339.231 4.08488 -1.22637 0
M  V30 3417 S 340.064 4.58015 -2.77457 0
M  V30 3418 C 341.22 5.86292 -2.19117 0
M  V30 3419 H 341.453 2.42025 -1.72659 0
M  V30 3420 H 338.986 1.18423 -0.990722 0
M  V30 3421 H 340.944 4.10335 0.116322 0
M  V30 3422 H 339.605 3.07045 0.66196 0
M  V30 3423 H 338.798 4.98291 -0.756455 0
M  V30 3424 H 338.4 3.42154 -1.51019 0
M  V30 3425 H 340.692 6.59246 -1.56209 0
M  V30 3426 H 341.635 6.38019 -3.07144 0
M  V30 3427 H 342.043 5.40497 -1.62858 0
M  V30 3428 N 341.441 0.965919 1.2453 0
M  V30 3429 C 342.404 0.499547 2.2369 0
M  V30 3430 C 343.404 -0.40294 1.5567 0
M  V30 3431 O 344.594 -0.19865 1.73064 0
M  V30 3432 C 341.726 -0.276792 3.39774 0
M  V30 3433 H 342.919 1.37613 2.66463 0
M  V30 3434 H 340.472 0.750324 1.37112 0
M  V30 3435 H 341.207 -1.17055 3.02438 0
M  V30 3436 H 340.992 0.370826 3.90343 0
M  V30 3437 H 342.482 -0.592175 4.1338 0
M  V30 3438 N 342.919 -1.39368 0.735821 0
M  V30 3439 C 343.882 -2.2896 0.104874 0
M  V30 3440 C 344.882 -1.46347 -0.666274 0
M  V30 3441 O 346.072 -1.67014 -0.49517 0
M  V30 3442 C 343.204 -3.29857 -0.860656 0
M  V30 3443 H 344.397 -2.86259 0.894205 0
M  V30 3444 H 341.95 -1.48029 0.501704 0
M  V30 3445 H 342.685 -2.77615 -1.67631 0
M  V30 3446 H 342.47 -3.9087 -0.310327 0
M  V30 3447 H 343.96 -3.96893 -1.29867 0
M  V30 3448 N 344.397 -0.483516 -1.5 0
M  V30 3449 C 345.33 0.350427 -2.25493 0
M  V30 3450 C 346.308 0.985549 -1.29328 0
M  V30 3451 O 347.492 1.01906 -1.58579 0
M  V30 3452 C 344.619 1.49202 -3.04066 0
M  V30 3453 C 343.665 0.973036 -4.15252 0
M  V30 3454 S 344.498 -0.122237 -5.3536 0
M  V30 3455 C 345.654 1.02294 -6.17484 0
M  V30 3456 H 345.887 -0.290381 -2.95878 0
M  V30 3457 H 343.42 -0.268562 -1.52046 0
M  V30 3458 H 345.378 2.14623 -3.49925 0
M  V30 3459 H 344.039 2.10438 -2.33183 0
M  V30 3460 H 343.232 1.82804 -4.69679 0
M  V30 3461 H 342.834 0.396335 -3.71894 0
M  V30 3462 H 345.126 1.93195 -6.49371 0
M  V30 3463 H 346.069 0.517664 -7.06205 0
M  V30 3464 H 346.477 1.28238 -5.49741 0
M  V30 3465 N 345.875 1.56104 -0.216619 0
M  V30 3466 C 347.124 1.97348 0.416744 0
M  V30 3467 C 347.437 1.10715 1.6125 0
M  V30 3468 O 348.643 1.41836 2.31506 0
M  V30 3469 C 347.099 3.51059 0.792835 0
M  V30 3470 C 346.707 4.46387 -0.379828 0
M  V30 3471 C 348.451 4.01026 1.39208 0
M  V30 3472 C 346.358 5.91397 0.0184223 0
M  V30 3473 H 345.288 0.736942 0.159475 0
M  V30 3474 H 347.939 1.80827 -0.31205 0
M  V30 3475 H 346.321 3.63162 1.57891 0
M  V30 3476 H 347.495 4.46029 -1.15737 0
M  V30 3477 H 345.81 4.06734 -0.891979 0
M  V30 3478 H 348.407 5.0686 1.70286 0
M  V30 3479 H 348.75 3.46587 2.30614 0
M  V30 3480 H 349.283 3.92125 0.669537 0
M  V30 3481 H 346.022 6.49807 -0.862002 0
M  V30 3482 H 345.542 5.94961 0.760384 0
M  V30 3483 H 347.221 6.45455 0.446818 0
M  V30 3484 N 347.353 -0.0568162 1.57498 0
M  V30 3485 C 348.283 -1.06593 2.0775 0
M  V30 3486 C 349.264 -1.39448 0.974082 0
M  V30 3487 O 350.449 -1.48815 1.24771 0
M  V30 3488 C 347.579 -2.37509 2.5339 0
M  V30 3489 C 346.533 -2.1897 3.67745 0
M  V30 3490 C 345.859 -3.55402 3.99492 0
M  V30 3491 C 347.159 -1.59859 4.97235 0
M  V30 3492 H 348.853 -0.647706 2.9231 0
M  V30 3493 H 346.399 -0.310116 1.40621 0
M  V30 3494 H 348.352 -3.08409 2.87162 0
M  V30 3495 H 347.076 -2.8134 1.65878 0
M  V30 3496 H 345.735 -1.50508 3.3428 0
M  V30 3497 H 345.383 -3.9683 3.09088 0
M  V30 3498 H 345.083 -3.43831 4.76502 0
M  V30 3499 H 346.607 -4.27708 4.35773 0
M  V30 3500 H 348.021 -2.20642 5.29141 0
M  V30 3501 H 346.418 -1.58942 5.78669 0
M  V30 3502 H 347.488 -0.561506 4.81638 0
M  V30 3503 N 348.832 -1.54138 -0.328536 0
M  V30 3504 C 350.08 -1.71765 -1.06496 0
M  V30 3505 C 350.401 -0.49149 -1.88704 0
M  V30 3506 O 349.671 0.494539 -1.89555 0
M  V30 3507 H 348.251 -0.633295 -0.396164 0
M  V30 3508 H 350.913 -1.91429 -0.366176 0
M  V30 3509 H 350.009 -2.5951 -1.73381 0
M  V30 3510 N 350.31 0.590341 -1.46126 0
M  V30 3511 C 351.556 1.35082 -1.51264 0
M  V30 3512 C 351.889 1.93534 -0.160711 0
M  V30 3513 O 351.164 1.76045 0.826956 0
M  V30 3514 C 351.447 2.48588 -2.6053 0
M  V30 3515 C 351.3 1.95221 -4.05227 0
M  V30 3516 C 352.619 3.50662 -2.6594 0
M  V30 3517 H 349.738 0.489803 -0.550692 0
M  V30 3518 H 352.38 0.663887 -1.78024 0
M  V30 3519 H 350.53 3.07186 -2.37843 0
M  V30 3520 H 352.202 1.41139 -4.39178 0
M  V30 3521 H 350.445 1.26101 -4.15068 0
M  V30 3522 H 351.116 2.77121 -4.77397 0
M  V30 3523 H 353.592 3.01934 -2.86313 0
M  V30 3524 H 352.468 4.27551 -3.44226 0
M  V30 3525 H 352.729 4.07399 -1.71694 0
M  V30 3526 N 351.788 1.33704 0.83433 0
M  V30 3527 C 352.751 1.24244 1.92603 0
M  V30 3528 C 353.751 0.160383 1.59998 0
M  V30 3529 O 354.941 0.412228 1.69252 0
M  V30 3530 C 352.073 0.91555 3.28376 0
M  V30 3531 H 353.266 2.21287 2.02416 0
M  V30 3532 H 350.819 1.17827 1.02696 0
M  V30 3533 H 351.554 -0.0521886 3.24258 0
M  V30 3534 H 351.339 1.69811 3.53422 0
M  V30 3535 H 352.829 0.874231 4.08347 0
M  V30 3536 N 353.266 -1.05314 1.17247 0
M  V30 3537 C 354.196 -2.1498 0.911362 0
M  V30 3538 C 355.177 -1.69471 -0.146169 0
M  V30 3539 O 356.362 -1.942 0.003812 0
M  V30 3540 C 353.492 -3.4472 0.422528 0
M  V30 3541 C 352.446 -4.03789 1.4191 0
M  V30 3542 C 351.772 -5.28858 0.788274 0
M  V30 3543 C 353.072 -4.41418 2.7919 0
M  V30 3544 H 354.766 -2.3708 1.82848 0
M  V30 3545 H 352.312 -1.13938 0.880569 0
M  V30 3546 H 354.265 -4.20787 0.227289 0
M  V30 3547 H 352.989 -3.22269 -0.530123 0
M  V30 3548 H 351.648 -3.2979 1.60106 0
M  V30 3549 H 351.296 -5.02709 -0.171173 0
M  V30 3550 H 350.996 -5.69338 1.45353 0
M  V30 3551 H 352.52 -6.07612 0.603282 0
M  V30 3552 H 353.934 -5.08524 2.64719 0
M  V30 3553 H 352.331 -4.92913 3.42282 0
M  V30 3554 H 353.401 -3.51819 3.33693 0
M  V30 3555 N 354.744 -0.972509 -1.24016 0
M  V30 3556 C 355.972 -0.654803 -1.96265 0
M  V30 3557 C 356.387 0.776708 -1.72083 0
M  V30 3558 O 355.744 1.52171 -1.00748 0
M  V30 3559 C 355.795 -0.92592 -3.49441 0
M  V30 3560 O 355.516 -2.30116 -3.72798 0
M  V30 3561 C 357.017 -0.623068 -4.38899 0
M  V30 3562 H 354.237 -0.243907 -0.6251 0
M  V30 3563 H 356.781 -1.30175 -1.57717 0
M  V30 3564 H 354.936 -0.325108 -3.86033 0
M  V30 3565 H 355.35 -2.38483 -4.67147 0
M  V30 3566 H 356.824 -0.863189 -5.45209 0
M  V30 3567 H 357.301 0.442754 -4.36963 0
M  V30 3568 H 357.907 -1.204 -4.07902 0
M  V30 3569 N 356.222 1.38976 -0.743202 0
M  V30 3570 C 357.47 1.99948 -0.29417 0
M  V30 3571 C 357.791 1.59279 1.12495 0
M  V30 3572 O 357.061 0.844808 1.76748 0
M  V30 3573 H 355.641 0.739473 -0.105774 0
M  V30 3574 H 358.303 1.699 -0.954986 0
M  V30 3575 H 357.399 3.10142 -0.349056 0
M  V30 3576 N 357.7 0.491464 1.49741 0
M  V30 3577 C 358.663 -0.280906 2.27472 0
M  V30 3578 C 359.663 -0.902454 1.33088 0
M  V30 3579 O 360.853 -0.768465 1.56334 0
M  V30 3580 C 357.985 -1.40209 3.10732 0
M  V30 3581 H 359.178 0.401056 2.97206 0
M  V30 3582 H 356.731 0.246131 1.5435 0
M  V30 3583 H 357.466 -2.11849 2.45541 0
M  V30 3584 H 357.251 -0.961969 3.80117 0
M  V30 3585 H 358.741 -1.9464 3.69466 0
M  V30 3586 N 359.178 -1.55987 0.224894 0
M  V30 3587 C 360.141 -2.19178 -0.670348 0
M  V30 3588 C 361.141 -1.15461 -1.11917 0
M  V30 3589 O 362.331 -1.40675 -1.02743 0
M  V30 3590 C 359.463 -2.81777 -1.9187 0
M  V30 3591 H 360.656 -2.99662 -0.119364 0
M  V30 3592 H 358.209 -1.5628 -0.0247128 0
M  V30 3593 H 358.944 -2.05172 -2.51147 0
M  V30 3594 H 358.729 -3.57732 -1.60531 0
M  V30 3595 H 360.219 -3.30205 -2.55645 0
M  V30 3596 N 360.656 0.0484629 -1.57525 0
M  V30 3597 C 361.586 1.0549 -2.08313 0
M  V30 3598 C 362.567 1.38929 -0.981463 0
M  V30 3599 O 363.752 1.48151 -1.25558 0
M  V30 3600 C 360.882 2.36162 -2.54646 0
M  V30 3601 C 359.836 2.17016 -3.68901 0
M  V30 3602 C 359.162 3.53278 -4.01371 0
M  V30 3603 C 360.462 1.57219 -4.98076 0
M  V30 3604 H 362.156 0.632195 -2.92649 0
M  V30 3605 H 359.702 0.302654 -1.40784 0
M  V30 3606 H 361.655 3.06882 -2.88793 0
M  V30 3607 H 360.379 2.80456 -1.67368 0
M  V30 3608 H 359.038 1.48733 -3.35073 0
M  V30 3609 H 358.686 3.95185 -3.11188 0
M  V30 3610 H 358.386 3.41299 -4.78318 0
M  V30 3611 H 359.91 4.25391 -4.38035 0
M  V30 3612 H 361.324 2.17832 -5.30304 0
M  V30 3613 H 359.721 1.55871 -5.79503 0
M  V30 3614 H 360.791 0.535956 -4.81929 0
M  V30 3615 N 362.134 1.5431 0.320358 0
M  V30 3616 C 363.38 1.72924 1.05949 0
M  V30 3617 C 363.713 0.503185 1.87568 0
M  V30 3618 O 362.988 -0.499839 1.87968 0
M  V30 3619 C 363.271 3.00676 1.98156 0
M  V30 3620 C 363.124 4.3354 1.19845 0
M  V30 3621 C 364.443 3.24198 2.9763 0
M  V30 3622 H 361.562 0.629195 0.383774 0
M  V30 3623 H 364.204 1.87008 0.335854 0
M  V30 3624 H 362.354 2.888 2.59859 0
M  V30 3625 H 364.026 4.57305 0.605773 0
M  V30 3626 H 362.269 4.309 0.500784 0
M  V30 3627 H 362.94 5.19156 1.87567 0
M  V30 3628 H 365.416 3.35557 2.4605 0
M  V30 3629 H 364.292 4.14938 3.59329 0
M  V30 3630 H 364.553 2.41577 3.7026 0
M  V30 3631 N 363.613 -0.582584 1.46437 0
M  V30 3632 C 364.576 -1.67366 1.56592 0
M  V30 3633 C 365.576 -1.54575 0.443072 0
M  V30 3634 O 366.766 -1.59191 0.707381 0
M  V30 3635 C 363.898 -3.06791 1.48634 0
M  V30 3636 H 365.091 -1.5972 2.5383 0
M  V30 3637 H 362.644 -0.800432 1.34249 0
M  V30 3638 H 363.379 -3.19993 0.526763 0
M  V30 3639 H 363.164 -3.17484 2.30101 0
M  V30 3640 H 364.654 -3.86218 1.58826 0
M  V30 3641 N 365.091 -1.34144 -0.827227 0
M  V30 3642 C 366.021 -1.28005 -1.95287 0
M  V30 3643 C 367.002 -0.158321 -1.69362 0
M  V30 3644 O 368.187 -0.349987 -1.9102 0
M  V30 3645 C 365.317 -1.03036 -3.31664 0
M  V30 3646 C 364.271 -2.11628 -3.72019 0
M  V30 3647 C 363.597 -1.71854 -5.0633 0
M  V30 3648 C 364.897 -3.53417 -3.8457 0
M  V30 3649 H 366.591 -2.22187 -2.00682 0
M  V30 3650 H 364.137 -1.0696 -0.964135 0
M  V30 3651 H 366.09 -0.973863 -4.09993 0
M  V30 3652 H 364.814 -0.0529391 -3.26557 0
M  V30 3653 H 363.473 -2.16339 -2.95961 0
M  V30 3654 H 363.121 -0.727841 -4.97706 0
M  V30 3655 H 362.821 -2.44531 -5.34302 0
M  V30 3656 H 364.345 -1.67692 -5.87122 0
M  V30 3657 H 365.759 -3.51142 -4.5318 0
M  V30 3658 H 364.156 -4.24679 -4.2399 0
M  V30 3659 H 365.226 -3.91072 -2.86689 0
M  V30 3660 N 366.569 1.04691 -1.17803 0
M  V30 3661 C 367.519 2.10856 -0.867391 0
M  V30 3662 C 368.503 1.601 0.160206 0
M  V30 3663 O 369.695 1.76948 -0.042947 0
M  V30 3664 C 366.824 3.411 -0.388012 0
M  V30 3665 C 365.91 3.9864 -1.44732 0
M  V30 3666 N 366.301 4.30075 -2.66212 0
M  V30 3667 C 364.599 4.26439 -1.30637 0
M  V30 3668 C 365.3 4.76033 -3.34317 0
M  V30 3669 N 364.276 4.76462 -2.61696 0
M  V30 3670 H 368.078 2.33029 -1.79094 0
M  V30 3671 H 365.592 1.22386 -1.0675 0
M  V30 3672 H 367.589 4.16641 -0.146994 0
M  V30 3673 H 366.249 3.20357 0.529271 0
M  V30 3674 H 367.26 4.19917 -3.03134 0
M  V30 3675 H 363.937 4.15056 -0.451129 0
M  V30 3676 H 365.327 5.09427 -4.38103 0
M  V30 3677 N 368.047 0.979072 1.23499 0
M  V30 3678 C 369.296 0.642751 1.91185 0
M  V30 3679 C 369.609 -0.827253 1.77245 0
M  V30 3680 O 370.815 -1.27458 2.39722 0
M  V30 3681 C 369.271 1.09901 3.42709 0
M  V30 3682 C 368.879 2.59327 3.65313 0
M  V30 3683 C 370.623 0.836371 4.16179 0
M  V30 3684 C 368.53 2.98627 5.10467 0
M  V30 3685 H 367.46 0.236698 0.715884 0
M  V30 3686 H 370.111 1.1868 1.39955 0
M  V30 3687 H 368.493 0.48319 3.93041 0
M  V30 3688 H 369.667 3.26136 3.25533 0
M  V30 3689 H 367.982 2.83323 3.05151 0
M  V30 3690 H 370.579 1.10586 5.23139 0
M  V30 3691 H 370.922 -0.227509 4.15678 0
M  V30 3692 H 371.455 1.41371 3.71832 0
M  V30 3693 H 368.194 4.04133 5.16098 0
M  V30 3694 H 367.714 2.3651 5.51201 0
M  V30 3695 H 369.393 2.89159 5.78788 0
M  V30 3696 N 369.525 -1.3858 0.750561 0
M  V30 3697 C 370.455 -2.33102 0.136237 0
M  V30 3698 C 371.436 -1.54713 -0.706965 0
M  V30 3699 O 372.621 -1.83043 -0.648769 0
M  V30 3700 C 369.751 -3.38882 -0.760017 0
M  V30 3701 C 368.705 -4.27995 -0.0197785 0
M  V30 3702 C 368.031 -5.24605 -1.03408 0
M  V30 3703 C 369.331 -5.09554 1.14684 0
M  V30 3704 H 371.025 -2.84726 0.925822 0
M  V30 3705 H 368.571 -1.36898 0.446654 0
M  V30 3706 H 370.524 -4.0397 -1.19943 0
M  V30 3707 H 369.248 -2.85734 -1.58189 0
M  V30 3708 H 367.907 -3.64409 0.400184 0
M  V30 3709 H 367.555 -4.67746 -1.84994 0
M  V30 3710 H 367.255 -5.85081 -0.543464 0
M  V30 3711 H 368.779 -5.9257 -1.47288 0
M  V30 3712 H 370.193 -5.67899 0.785118 0
M  V30 3713 H 368.59 -5.7925 1.56812 0
M  V30 3714 H 369.66 -4.4347 1.96118 0
M  V30 3715 N 371.003 -0.499398 -1.49478 0
M  V30 3716 C 372.28 0.108629 -1.95298 0
M  V30 3717 C 372.66 1.54282 -1.44084 0
M  V30 3718 O 372.008 2.18944 -0.653908 0
M  V30 3719 C 372.218 0.0229111 -3.48992 0
M  V30 3720 C 373.566 0.197643 -4.2414 0
M  V30 3721 O 374.59 0.0981735 -3.56065 0
M  V30 3722 O 373.449 0.401669 -5.45022 0
M  V30 3723 H 370.543 0.096181 -0.821388 0
M  V30 3724 H 373.089 -0.561822 -1.6013 0
M  V30 3725 H 371.861 -0.977321 -3.78899 0
M  V30 3726 H 371.484 0.733579 -3.90774 0
M  V30 3727 N 372.481 1.55866 -0.233164 0
M  V30 3728 C 373.709 2.02998 0.399905 0
M  V30 3729 C 374.124 1.11274 1.52524 0
M  V30 3730 O 373.481 0.124528 1.82075 0
M  V30 3731 C 373.532 3.4958 0.920639 0
M  V30 3732 O 373.253 4.37808 -0.159834 0
M  V30 3733 C 374.754 4.12411 1.62578 0
M  V30 3734 H 371.974 0.664006 0.0966281 0
M  V30 3735 H 374.518 2.0143 -0.353013 0
M  V30 3736 H 372.673 3.51727 1.62379 0
M  V30 3737 H 373.087 5.23981 0.23337 0
M  V30 3738 H 374.561 5.16711 1.94201 0
M  V30 3739 H 375.038 3.5809 2.54299 0
M  V30 3740 H 375.644 4.14148 0.967553 0
M  V30 3741 N 373.959 -0.0401083 1.57549 0
M  V30 3742 C 374.922 -1.02871 2.04817 0
M  V30 3743 C 375.922 -1.29708 0.950388 0
M  V30 3744 O 377.112 -1.24897 1.21435 0
M  V30 3745 C 374.244 -2.36443 2.45576 0
M  V30 3746 H 375.437 -0.620631 2.93408 0
M  V30 3747 H 372.99 -0.286667 1.53649 0
M  V30 3748 H 373.725 -2.82021 1.60108 0
M  V30 3749 H 373.51 -2.18296 3.25713 0
M  V30 3750 H 375 -3.07441 2.82612 0
M  V30 3751 N 375.437 -1.54477 -0.31217 0
M  V30 3752 C 376.714 -1.63891 -1.06767 0
M  V30 3753 C 377.094 -0.480028 -2.0557 0
M  V30 3754 O 376.442 0.524487 -2.22399 0
M  V30 3755 C 376.652 -3.01402 -1.75948 0
M  V30 3756 C 378 -3.57838 -2.28554 0
M  V30 3757 O 379.024 -3.03782 -1.85998 0
M  V30 3758 O 377.883 -4.52462 -3.06497 0
M  V30 3759 H 374.977 -0.664125 -0.492816 0
M  V30 3760 H 377.523 -1.66823 -0.311149 0
M  V30 3761 H 376.295 -3.77187 -1.04144 0
M  V30 3762 H 375.918 -3.02199 -2.58383 0
M  V30 3763 N 376.915 0.57481 -1.46744 0
M  V30 3764 C 378.163 1.33009 -1.52161 0
M  V30 3765 C 378.484 1.94185 -0.178092 0
M  V30 3766 O 377.754 1.7899 0.796196 0
M  V30 3767 H 376.334 0.493873 -0.560445 0
M  V30 3768 H 378.996 0.672589 -1.82927 0
M  V30 3769 H 378.092 2.13273 -2.27862 0
M  V30 3770 N 378.394 1.34581 0.820102 0
M  V30 3771 C 379.327 1.20735 1.93644 0
M  V30 3772 C 380.305 0.0983343 1.62302 0
M  V30 3773 O 381.489 0.263997 1.86642 0
M  V30 3774 C 378.616 0.856037 3.27704 0
M  V30 3775 C 377.662 1.97521 3.78005 0
M  V30 3776 S 378.495 3.58906 3.97425 0
M  V30 3777 C 379.651 3.25822 5.34407 0
M  V30 3778 H 379.884 2.15231 2.05093 0
M  V30 3779 H 377.417 1.1964 0.97599 0
M  V30 3780 H 379.375 0.660133 4.05157 0
M  V30 3781 H 378.036 -0.0706253 3.14021 0
M  V30 3782 H 377.229 1.68321 4.75062 0
M  V30 3783 H 376.831 2.12875 3.07507 0
M  V30 3784 H 379.123 2.77812 6.17922 0
M  V30 3785 H 380.066 4.22029 5.68592 0
M  V30 3786 H 380.474 2.61932 5.00052 0
M  V30 3787 N 379.872 -1.04064 1.18357 0
M  V30 3788 C 381.288 -1.2947 0.933258 0
M  V30 3789 C 381.488 -1.97466 -0.401169 0
M  V30 3790 O 380.544 -2.25528 -1.13549 0
M  V30 3791 C 381.857 -2.15337 2.09882 0
M  V30 3792 C 383.405 -2.28683 2.13712 0
M  V30 3793 C 383.88 -3.17917 3.29686 0
M  V30 3794 N 385.371 -3.25504 3.29547 0
M  V30 3795 C 386.106 -3.94706 4.15926 0
M  V30 3796 N 385.602 -4.66239 5.12439 0
M  V30 3797 N 387.395 -3.90986 4.0384 0
M  V30 3798 H 379.546 -0.583359 2.04232 0
M  V30 3799 H 381.809 -0.319921 0.892387 0
M  V30 3800 H 381.515 -1.72682 3.06389 0
M  V30 3801 H 381.389 -3.16015 2.05947 0
M  V30 3802 H 383.776 -2.70575 1.17784 0
M  V30 3803 H 383.857 -1.27596 2.21705 0
M  V30 3804 H 383.501 -2.76736 4.25887 0
M  V30 3805 H 383.431 -4.19036 3.1893 0
M  V30 3806 H 385.922 -2.74547 2.59677 0
M  V30 3807 H 386.235 -5.16638 5.74722 0
M  V30 3808 H 384.58 -4.65143 5.16398 0
M  V30 3809 H 387.771 -3.34234 3.27727 0
M  V30 3810 H 387.944 -4.44646 4.71375 0
M  V30 3811 N 381.35 -0.985608 -1.22978 0
M  V30 3812 C 382.3 -0.50118 -2.22423 0
M  V30 3813 C 383.284 0.426649 -1.5514 0
M  V30 3814 O 384.476 0.254656 -1.75159 0
M  V30 3815 C 381.605 0.190003 -3.42774 0
M  V30 3816 C 380.691 -0.757703 -4.17276 0
M  V30 3817 N 381.082 -1.90251 -4.68656 0
M  V30 3818 C 379.38 -0.57209 -4.42316 0
M  V30 3819 C 380.081 -2.49676 -5.25392 0
M  V30 3820 N 379.057 -1.78013 -5.13627 0
M  V30 3821 H 382.859 -1.37441 -2.59783 0
M  V30 3822 H 380.373 -0.846941 -1.38567 0
M  V30 3823 H 382.37 0.55439 -4.13197 0
M  V30 3824 H 381.03 1.05946 -3.06929 0
M  V30 3825 H 382.041 -2.28354 -4.64839 0
M  V30 3826 H 378.718 0.251909 -4.16739 0
M  V30 3827 H 380.108 -3.46384 -5.75732 0
M  V30 3828 N 382.828 1.3818 -0.7579 0
M  V30 3829 C 384.244 1.5353 -0.435972 0
M  V30 3830 C 384.444 1.71961 1.05032 0
M  V30 3831 O 383.5 1.73307 1.83633 0
M  V30 3832 C 384.813 2.73989 -1.23898 0
M  V30 3833 C 386.361 2.87841 -1.22949 0
M  V30 3834 C 386.836 4.11266 -2.01554 0
M  V30 3835 N 388.327 4.18352 -1.98837 0
M  V30 3836 C 389.062 5.12856 -2.5645 0
M  V30 3837 N 388.558 6.13005 -3.22794 0
M  V30 3838 N 390.351 5.05238 -2.46356 0
M  V30 3839 H 382.502 1.24467 -1.7211 0
M  V30 3840 H 384.765 0.604982 -0.729864 0
M  V30 3841 H 384.471 2.66789 -2.29165 0
M  V30 3842 H 384.345 3.67294 -0.858764 0
M  V30 3843 H 386.732 2.9452 -0.184854 0
M  V30 3844 H 386.813 1.95534 -1.64924 0
M  V30 3845 H 386.457 4.05349 -3.06031 0
M  V30 3846 H 386.387 5.02661 -1.5697 0
M  V30 3847 H 388.878 3.46628 -1.50524 0
M  V30 3848 H 389.191 6.81619 -3.64165 0
M  V30 3849 H 387.536 6.13325 -3.2689 0
M  V30 3850 H 390.727 4.25938 -1.9415 0
M  V30 3851 H 390.9 5.78707 -2.91552 0
M  V30 3852 N 384.306 0.507319 1.49211 0
M  V30 3853 C 385.722 0.163682 1.58758 0
M  V30 3854 C 385.922 -1.33208 1.51188 0
M  V30 3855 O 384.978 -2.10855 1.38911 0
M  V30 3856 C 386.291 0.746095 2.91297 0
M  V30 3857 C 387.839 0.712773 3.04776 0
M  V30 3858 C 388.314 1.27336 4.39943 0
M  V30 3859 N 389.805 1.23433 4.46451 0
M  V30 3860 C 390.54 1.63821 5.495 0
M  V30 3861 N 390.036 2.11832 6.5962 0
M  V30 3862 N 391.829 1.55198 5.4025 0
M  V30 3863 H 383.98 1.47972 1.52375 0
M  V30 3864 H 386.243 0.614147 0.722168 0
M  V30 3865 H 385.949 1.79534 3.02424 0
M  V30 3866 H 385.823 0.210137 3.76614 0
M  V30 3867 H 388.21 -0.327656 2.93275 0
M  V30 3868 H 388.291 1.28595 2.21127 0
M  V30 3869 H 387.935 2.3126 4.52196 0
M  V30 3870 H 387.865 0.676066 5.22242 0
M  V30 3871 H 390.356 0.882627 3.67448 0
M  V30 3872 H 390.669 2.40703 7.34358 0
M  V30 3873 H 389.014 2.1581 6.60644 0
M  V30 3874 H 392.205 1.17505 4.53112 0
M  V30 3875 H 392.378 1.86997 6.20432 0
M  V30 3876 N 385.784 -1.5574 0.241426 0
M  V30 3877 C 387.031 -1.9881 -0.384836 0
M  V30 3878 C 387.359 -1.12947 -1.58346 0
M  V30 3879 O 386.614 -0.178993 -1.9488 0
M  V30 3880 C 386.913 -3.47308 -0.843317 0
M  V30 3881 C 386.579 -4.50223 0.246946 0
M  V30 3882 C 385.241 -4.78088 0.546399 0
M  V30 3883 C 387.593 -5.11841 0.983282 0
M  V30 3884 C 384.921 -5.64846 1.58636 0
M  V30 3885 C 387.273 -5.99727 2.01272 0
M  V30 3886 C 385.937 -6.25927 2.31888 0
M  V30 3887 H 385.207 -0.727496 -0.140821 0
M  V30 3888 H 387.854 -1.8831 0.348106 0
M  V30 3889 H 386.159 -3.55112 -1.65537 0
M  V30 3890 H 387.856 -3.78017 -1.33806 0
M  V30 3891 H 384.446 -4.286 0.00340639 0
M  V30 3892 H 388.63 -4.90366 0.765182 0
M  V30 3893 H 383.886 -5.83403 1.82896 0
M  V30 3894 H 388.06 -6.46517 2.58823 0
M  V30 3895 H 385.687 -6.92949 3.12611 0
M  V30 3896 N 387.262 0.0317525 -1.57568 0
M  V30 3897 C 388.192 1.03274 -2.0942 0
M  V30 3898 C 389.173 1.3788 -0.996143 0
M  V30 3899 O 390.358 1.46811 -1.27122 0
M  V30 3900 C 387.488 2.33448 -2.57137 0
M  V30 3901 C 386.442 2.13091 -3.71182 0
M  V30 3902 C 385.768 3.49001 -4.05095 0
M  V30 3903 C 387.068 1.51928 -4.99715 0
M  V30 3904 H 388.762 0.60112 -2.93303 0
M  V30 3905 H 386.308 0.287705 -1.41097 0
M  V30 3906 H 388.261 3.03802 -2.92032 0
M  V30 3907 H 386.985 2.78665 -1.70333 0
M  V30 3908 H 385.644 1.45171 -3.36632 0
M  V30 3909 H 385.292 3.91862 -3.15362 0
M  V30 3910 H 384.992 3.36207 -4.81911 0
M  V30 3911 H 386.516 4.20721 -4.42522 0
M  V30 3912 H 387.93 2.12196 -5.32584 0
M  V30 3913 H 386.327 1.49716 -5.81124 0
M  V30 3914 H 387.397 0.484811 -4.8247 0
M  V30 3915 N 388.74 1.54641 0.303973 0
M  V30 3916 C 390.151 1.64811 0.877163 0
M  V30 3917 C 390.502 0.554838 1.88191 0
M  V30 3918 O 389.627 -0.309033 2.14182 0
M  V30 3919 C 390.222 2.9876 1.59775 0
M  V30 3920 C 388.781 3.11061 2.11938 0
M  V30 3921 C 387.928 2.60479 0.951097 0
M  V30 3922 H 390.879 1.58493 0.0810486 0
M  V30 3923 H 390.9 2.90017 2.46314 0
M  V30 3924 H 390.412 3.7831 0.866226 0
M  V30 3925 H 388.513 2.36225 2.88146 0
M  V30 3926 H 388.626 4.17171 2.35595 0
M  V30 3927 H 386.99 2.16859 1.33583 0
M  V30 3928 H 387.773 3.42504 0.233581 0
M  V30 3929 N 390.218 -0.567019 1.47046 0
M  V30 3930 C 391.181 -1.65696 1.58359 0
M  V30 3931 C 392.181 -1.54097 0.459441 0
M  V30 3932 O 393.371 -1.58432 0.724225 0
M  V30 3933 C 390.503 -3.05197 1.51879 0
M  V30 3934 H 391.696 -1.57019 2.5551 0
M  V30 3935 H 389.249 -0.786148 1.3509 0
M  V30 3936 H 389.984 -3.19417 0.560673 0
M  V30 3937 H 389.769 -3.15025 2.33455 0
M  V30 3938 H 391.259 -3.84511 1.62913 0
M  V30 3939 N 391.696 -1.35014 -0.812953 0
M  V30 3940 C 393.112 -1.14914 -1.10757 0
M  V30 3941 C 393.312 0.0426818 -2.01455 0
M  V30 3942 O 392.368 0.715212 -2.42159 0
M  V30 3943 C 393.681 -2.44911 -1.74468 0
M  V30 3944 C 395.229 -2.5106 -1.86917 0
M  V30 3945 C 395.704 -3.81085 -2.54044 0
M  V30 3946 N 397.195 -3.82301 -2.61535 0
M  V30 3947 C 397.93 -4.79634 -3.14227 0
M  V30 3948 N 397.426 -5.87353 -3.67407 0
M  V30 3949 N 399.219 -4.67078 -3.12721 0
M  V30 3950 H 391.37 -2.1136 -0.20989 0
M  V30 3951 H 393.633 -0.935128 -0.155692 0
M  V30 3952 H 393.339 -3.32267 -1.15289 0
M  V30 3953 H 393.213 -2.58989 -2.74234 0
M  V30 3954 H 395.6 -1.64137 -2.45241 0
M  V30 3955 H 395.681 -2.40901 -0.860242 0
M  V30 3956 H 395.325 -4.68402 -1.96372 0
M  V30 3957 H 395.255 -3.88529 -3.55461 0
M  V30 3958 H 397.746 -3.04465 -2.23851 0
M  V30 3959 H 398.059 -6.57624 -4.05894 0
M  V30 3960 H 396.404 -5.91054 -3.65623 0
M  V30 3961 H 399.595 -3.82067 -2.70449 0
M  V30 3962 H 399.768 -5.43098 -3.53481 0
M  V30 3963 N 393.175 1.03435 -1.18907 0
M  V30 3964 C 394.421 1.7713 -0.99982 0
M  V30 3965 C 394.776 1.86695 0.465049 0
M  V30 3966 O 394.069 1.36866 1.34083 0
M  V30 3967 C 394.263 3.19792 -1.59586 0
M  V30 3968 C 394.092 3.24134 -3.11717 0
M  V30 3969 C 392.862 3.32398 -3.80578 0
M  V30 3970 C 395.06 3.11625 -4.09138 0
M  V30 3971 N 393.042 3.26055 -5.20155 0
M  V30 3972 C 394.413 3.12855 -5.35277 0
M  V30 3973 C 396.468 2.95713 -4.00572 0
M  V30 3974 C 395.171 2.99805 -6.53842 0
M  V30 3975 C 397.197 2.84011 -5.1874 0
M  V30 3976 C 396.559 2.8589 -6.43775 0
M  V30 3977 H 392.658 0.659683 -0.419931 0
M  V30 3978 H 395.242 1.2317 -1.50789 0
M  V30 3979 H 393.413 3.72085 -1.11389 0
M  V30 3980 H 395.145 3.81819 -1.3415 0
M  V30 3981 H 391.9 3.38392 -3.31342 0
M  V30 3982 H 392.324 3.26307 -5.93172 0
M  V30 3983 H 396.966 2.93086 -3.0473 0
M  V30 3984 H 394.684 3.01184 -7.49876 0
M  V30 3985 H 398.27 2.72744 -5.13909 0
M  V30 3986 H 397.15 2.76931 -7.33675 0
M  V30 3987 N 394.653 0.992116 1.22453 0
M  V30 3988 C 395.899 0.678177 1.91761 0
M  V30 3989 C 396.254 -0.781141 1.75829 0
M  V30 3990 O 395.547 -1.55747 1.11595 0
M  V30 3991 C 395.741 1.01832 3.42586 0
M  V30 3992 C 395.57 2.50916 3.73191 0
M  V30 3993 C 394.34 3.17308 3.93248 0
M  V30 3994 C 396.538 3.49032 3.77732 0
M  V30 3995 N 394.52 4.55876 4.11157 0
M  V30 3996 C 395.891 4.73055 4.00773 0
M  V30 3997 C 397.946 3.43349 3.60577 0
M  V30 3998 C 396.649 5.92089 4.0844 0
M  V30 3999 C 398.675 4.61759 3.69503 0
M  V30 4000 C 398.037 5.84582 3.92993 0
M  V30 4001 H 394.136 0.299425 0.722405 0
M  V30 4002 H 396.72 1.27197 1.47408 0
M  V30 4003 H 394.891 0.453118 3.85748 0
M  V30 4004 H 396.623 0.660454 3.99274 0
M  V30 4005 H 393.378 2.67778 3.9063 0
M  V30 4006 H 393.802 5.27748 4.24042 0
M  V30 4007 H 398.444 2.49408 3.41402 0
M  V30 4008 H 396.162 6.86435 4.26418 0
M  V30 4009 H 399.748 4.58951 3.57569 0
M  V30 4010 H 398.628 6.74676 3.99728 0
M  V30 4011 N 396.131 -1.37776 0.765217 0
M  V30 4012 C 397.356 -2.04651 0.336537 0
M  V30 4013 C 397.781 -1.57337 -1.03086 0
M  V30 4014 O 397.139 -0.730621 -1.65927 0
M  V30 4015 C 397.187 -3.58577 0.381468 0
M  V30 4016 O 396.291 -4.07706 -0.62042 0
M  V30 4017 H 395.632 -0.64756 0.146838 0
M  V30 4018 H 398.162 -1.76221 1.03959 0
M  V30 4019 H 398.172 -4.07314 0.236448 0
M  V30 4020 H 396.847 -3.9237 1.37907 0
M  V30 4021 H 395.424 -3.70306 -0.439056 0
M  V30 4022 N 397.609 -0.515225 -1.4894 0
M  V30 4023 C 398.837 0.0206034 -2.0689 0
M  V30 4024 C 399.252 1.29514 -1.37374 0
M  V30 4025 O 398.609 1.76698 -0.456529 0
M  V30 4026 C 398.66 0.26351 -3.60538 0
M  V30 4027 O 398.381 -0.960517 -4.27441 0
M  V30 4028 C 399.882 0.841383 -4.35242 0
M  V30 4029 H 397.102 -0.0268608 -0.670462 0
M  V30 4030 H 399.646 -0.716651 -1.91532 0
M  V30 4031 H 397.801 0.950777 -3.75552 0
M  V30 4032 H 398.215 -0.73212 -5.19365 0
M  V30 4033 H 399.689 0.96085 -5.43573 0
M  V30 4034 H 400.166 1.8427 -3.98674 0
M  V30 4035 H 400.772 0.191143 -4.2487 0
M  V30 4036 N 399.087 1.5561 -0.249682 0
M  V30 4037 C 400.335 1.98618 0.373548 0
M  V30 4038 C 400.656 1.13919 1.58264 0
M  V30 4039 O 399.926 0.222637 1.94631 0
M  V30 4040 H 398.506 0.733571 0.141006 0
M  V30 4041 H 401.168 1.91748 -0.349117 0
M  V30 4042 H 400.264 3.04584 0.680796 0
M  V30 4043 N 400.565 -0.0233959 1.57583 0
M  V30 4044 C 401.813 -0.711654 1.89156 0
M  V30 4045 C 402.134 -1.75591 0.848096 0
M  V30 4046 O 401.404 -1.95547 -0.117566 0
M  V30 4047 H 399.984 -0.265835 0.698098 0
M  V30 4048 H 402.646 0.0119948 1.94896 0
M  V30 4049 H 401.742 -1.19766 2.88206 0
M  V30 4050 N 402.043 -1.548 -0.295768 0
M  V30 4051 C 402.973 -1.89115 -1.36959 0
M  V30 4052 C 403.954 -0.75059 -1.52644 0
M  V30 4053 O 405.139 -1.00678 -1.66065 0
M  V30 4054 C 402.269 -2.14307 -2.73295 0
M  V30 4055 C 401.223 -3.30151 -2.72368 0
M  V30 4056 C 400.549 -3.40772 -4.12042 0
M  V30 4057 C 401.849 -4.67126 -2.33646 0
M  V30 4058 H 403.543 -2.79053 -1.08488 0
M  V30 4059 H 401.089 -1.34266 -0.520443 0
M  V30 4060 H 403.042 -2.36898 -3.48507 0
M  V30 4061 H 401.766 -1.21145 -3.03301 0
M  V30 4062 H 400.425 -3.0749 -1.99613 0
M  V30 4063 H 400.073 -2.45117 -4.39234 0
M  V30 4064 H 399.773 -4.18645 -4.12322 0
M  V30 4065 H 401.297 -3.6563 -4.89027 0
M  V30 4066 H 402.711 -4.89414 -2.98575 0
M  V30 4067 H 401.108 -5.47751 -2.45129 0
M  V30 4068 H 402.178 -4.67489 -1.28772 0
M  V30 4069 N 403.521 0.559213 -1.47345 0
M  V30 4070 C 404.798 1.31997 -1.44348 0
M  V30 4071 C 405.178 2.1064 -0.139358 0
M  V30 4072 O 404.526 2.1091 0.879153 0
M  V30 4073 C 404.736 2.22618 -2.68779 0
M  V30 4074 C 406.084 2.83701 -3.1591 0
M  V30 4075 O 407.108 2.32921 -2.69493 0
M  V30 4076 O 405.967 3.75993 -3.966 0
M  V30 4077 H 403.061 0.594251 -0.575147 0
M  V30 4078 H 405.607 0.578282 -1.59543 0
M  V30 4079 H 404.379 1.64093 -3.55231 0
M  V30 4080 H 404.002 3.04085 -2.5616 0
M  V30 4081 N 404.999 1.35443 0.805782 0
M  V30 4082 C 406.227 1.31878 1.59423 0
M  V30 4083 C 406.642 -0.103562 1.88516 0
M  V30 4084 O 405.999 -1.05575 1.48863 0
M  V30 4085 C 406.05 2.12426 2.92502 0
M  V30 4086 O 405.771 3.49115 2.6467 0
M  V30 4087 C 407.272 2.16455 3.86862 0
M  V30 4088 H 404.492 0.453002 0.495005 0
M  V30 4089 H 407.036 1.78309 1.00131 0
M  V30 4090 H 405.191 1.69593 3.48306 0
M  V30 4091 H 405.605 3.90957 3.49647 0
M  V30 4092 H 407.079 2.77204 4.77349 0
M  V30 4093 H 407.556 1.16352 4.23508 0
M  V30 4094 H 408.162 2.59453 3.36993 0
M  V30 4095 N 406.477 -1.02803 1.19454 0
M  V30 4096 C 407.407 -2.12999 0.956758 0
M  V30 4097 C 408.388 -1.69743 -0.110188 0
M  V30 4098 O 409.573 -1.94148 0.0450038 0
M  V30 4099 C 406.703 -3.43746 0.495553 0
M  V30 4100 C 405.657 -4.00688 1.50443 0
M  V30 4101 C 404.983 -5.27067 0.900275 0
M  V30 4102 C 406.283 -4.35397 2.8849 0
M  V30 4103 H 407.977 -2.33148 1.87836 0
M  V30 4104 H 405.523 -1.12045 0.904539 0
M  V30 4105 H 407.476 -4.2021 0.316493 0
M  V30 4106 H 406.2 -3.23321 -0.461646 0
M  V30 4107 H 404.859 -3.2632 1.67065 0
M  V30 4108 H 404.507 -5.02959 -0.064503 0
M  V30 4109 H 404.207 -5.66127 1.57397 0
M  V30 4110 H 405.731 -6.06196 0.73203 0
M  V30 4111 H 407.145 -5.02795 2.75446 0
M  V30 4112 H 405.542 -4.85541 3.52661 0
M  V30 4113 H 406.612 -3.44662 3.41081 0
M  V30 4114 N 407.956 -0.998596 -1.21925 0
M  V30 4115 C 409.202 -0.678667 -1.91107 0
M  V30 4116 C 409.535 0.78791 -1.77498 0
M  V30 4117 O 408.81 1.57043 -1.1475 0
M  V30 4118 C 409.093 -1.09245 -3.43129 0
M  V30 4119 C 408.946 -2.61801 -3.6576 0
M  V30 4120 C 410.265 -0.649984 -4.35274 0
M  V30 4121 H 407.384 -0.248025 -0.694012 0
M  V30 4122 H 410.026 -1.24314 -1.43688 0
M  V30 4123 H 408.176 -0.612171 -3.83647 0
M  V30 4124 H 409.848 -3.17543 -3.34611 0
M  V30 4125 H 408.091 -3.03609 -3.09845 0
M  V30 4126 H 408.762 -2.85804 -4.7225 0
M  V30 4127 H 411.238 -1.0626 -4.02303 0
M  V30 4128 H 410.114 -0.967743 -5.40302 0
M  V30 4129 H 410.375 0.449139 -4.39813 0
M  V30 4130 N 409.434 1.37368 -0.772513 0
M  V30 4131 C 410.683 1.98918 -0.333861 0
M  V30 4132 C 410.996 1.62017 1.09589 0
M  V30 4133 O 412.202 2.16676 1.63596 0
M  V30 4134 C 410.658 3.55735 -0.545971 0
M  V30 4135 C 410.266 4.01573 -1.98603 0
M  V30 4136 C 412.01 4.24156 -0.170979 0
M  V30 4137 C 409.917 5.51102 -2.1457 0
M  V30 4138 H 408.847 0.744214 -0.121085 0
M  V30 4139 H 411.498 1.56888 -0.95175 0
M  V30 4140 H 409.88 3.95748 0.141387 0
M  V30 4141 H 411.054 3.72803 -2.7084 0
M  V30 4142 H 409.369 3.45937 -2.31769 0
M  V30 4143 H 411.966 5.34024 -0.26878 0
M  V30 4144 H 412.309 4.06917 0.878855 0
M  V30 4145 H 412.842 3.89447 -0.810914 0
M  V30 4146 H 409.581 5.73268 -3.17875 0
M  V30 4147 H 409.101 5.81554 -1.46817 0
M  V30 4148 H 410.78 6.17083 -1.94468 0
M  V30 4149 N 410.912 0.523116 1.48665 0
M  V30 4150 C 411.875 -0.232592 2.28017 0
M  V30 4151 C 412.875 -0.874021 1.34972 0
M  V30 4152 O 414.065 -0.735132 1.57929 0
M  V30 4153 C 411.197 -1.33586 3.13636 0
M  V30 4154 H 412.39 0.464008 2.96289 0
M  V30 4155 H 409.943 0.278816 1.53793 0
M  V30 4156 H 410.678 -2.06593 2.4998 0
M  V30 4157 H 410.463 -0.881125 3.82071 0
M  V30 4158 H 411.953 -1.86759 3.73511 0
M  V30 4159 N 412.39 -1.55475 0.257931 0
M  V30 4160 C 413.636 -1.99502 -0.364266 0
M  V30 4161 C 413.969 -1.146 -1.56782 0
M  V30 4162 O 413.244 -0.211968 -1.93342 0
M  V30 4163 C 413.527 -3.51917 -0.763333 0
M  V30 4164 C 413.38 -4.4758 0.446371 0
M  V30 4165 C 414.699 -4.09742 -1.60623 0
M  V30 4166 H 411.818 -0.725277 -0.130929 0
M  V30 4167 H 414.46 -1.8653 0.361446 0
M  V30 4168 H 412.61 -3.63101 -1.38166 0
M  V30 4169 H 414.282 -4.48362 1.08487 0
M  V30 4170 H 412.525 -4.19947 1.08753 0
M  V30 4171 H 413.196 -5.51862 0.123645 0
M  V30 4172 H 415.672 -4.01727 -1.08418 0
M  V30 4173 H 414.548 -5.16631 -1.85429 0
M  V30 4174 H 414.809 -3.58889 -2.58169 0
M  V30 4175 N 413.868 0.0150385 -1.57593 0
M  V30 4176 C 414.798 1.01047 -2.10503 0
M  V30 4177 C 415.779 1.36816 -1.01071 0
M  V30 4178 O 416.964 1.45455 -1.28672 0
M  V30 4179 C 414.094 2.30708 -2.59598 0
M  V30 4180 C 413.048 2.09142 -3.73421 0
M  V30 4181 C 412.374 3.44685 -4.08774 0
M  V30 4182 C 413.674 1.46619 -5.01298 0
M  V30 4183 H 415.368 0.569978 -2.93925 0
M  V30 4184 H 412.914 0.272724 -1.41394 0
M  V30 4185 H 414.867 3.00687 -2.95238 0
M  V30 4186 H 413.591 2.76843 -1.73279 0
M  V30 4187 H 412.25 1.41592 -3.38153 0
M  V30 4188 H 411.898 3.88495 -3.195 0
M  V30 4189 H 411.598 3.31077 -4.8545 0
M  V30 4190 H 413.122 4.16004 -4.4696 0
M  V30 4191 H 414.536 2.06535 -5.34805 0
M  V30 4192 H 412.933 1.43544 -5.82679 0
M  V30 4193 H 414.003 0.433611 -4.82957 0
M  V30 4194 N 415.346 1.54954 0.287554 0
M  V30 4195 C 416.592 1.75132 1.02257 0
M  V30 4196 C 416.925 0.542858 1.86458 0
M  V30 4197 O 416.2 -0.459856 1.88986 0
M  V30 4198 C 416.483 3.04812 1.91733 0
M  V30 4199 C 416.336 4.35985 1.10622 0
M  V30 4200 C 417.655 3.30438 2.90687 0
M  V30 4201 H 414.774 0.637194 0.370341 0
M  V30 4202 H 417.416 1.87678 0.296111 0
M  V30 4203 H 415.566 2.94247 2.53675 0
M  V30 4204 H 417.238 4.58487 0.508636 0
M  V30 4205 H 415.481 4.31865 0.409271 0
M  V30 4206 H 416.152 5.23017 1.76513 0
M  V30 4207 H 418.628 3.40701 2.38877 0
M  V30 4208 H 417.504 4.22467 3.50447 0
M  V30 4209 H 417.765 2.49377 3.65053 0
M  V30 4210 N 416.824 -0.551391 1.4764 0
M  V30 4211 C 418.07 -1.30789 1.55774 0
M  V30 4212 C 418.425 -1.91143 0.219562 0
M  V30 4213 O 417.718 -1.7521 -0.775375 0
M  V30 4214 C 417.912 -2.43469 2.61644 0
M  V30 4215 C 417.741 -1.94157 4.05627 0
M  V30 4216 C 416.511 -1.77734 4.7301 0
M  V30 4217 C 418.709 -1.48262 4.92466 0
M  V30 4218 N 416.691 -1.22823 6.01488 0
M  V30 4219 C 418.062 -1.05156 6.11017 0
M  V30 4220 C 420.117 -1.36367 4.78862 0
M  V30 4221 C 418.82 -0.513357 7.17466 0
M  V30 4222 C 420.846 -0.839484 5.85411 0
M  V30 4223 C 420.208 -0.418377 7.03156 0
M  V30 4224 H 416.307 -0.470406 0.624694 0
M  V30 4225 H 418.891 -0.624331 1.84419 0
M  V30 4226 H 417.062 -3.09348 2.34859 0
M  V30 4227 H 418.794 -3.10477 2.59589 0
M  V30 4228 H 415.549 -2.00623 4.29007 0
M  V30 4229 H 415.973 -0.974393 6.69951 0
M  V30 4230 H 420.615 -1.67535 3.88191 0
M  V30 4231 H 418.333 -0.189318 8.07878 0
M  V30 4232 H 421.919 -0.750921 5.76934 0
M  V30 4233 H 420.799 -0.0190538 7.84198 0
M  V30 4234 N 418.302 -1.35869 -0.798587 0
M  V30 4235 C 419.548 -1.30788 -1.55775 0
M  V30 4236 C 419.903 0.114558 -1.92059 0
M  V30 4237 O 419.196 1.06691 -1.59147 0
M  V30 4238 C 419.39 -2.1556 -2.85077 0
M  V30 4239 C 419.219 -3.65904 -2.61428 0
M  V30 4240 C 417.989 -4.35112 -2.56915 0
M  V30 4241 C 420.187 -4.59375 -2.31255 0
M  V30 4242 N 418.169 -5.71155 -2.25068 0
M  V30 4243 C 419.54 -5.83598 -2.09316 0
M  V30 4244 C 421.595 -4.48035 -2.17185 0
M  V30 4245 C 420.298 -6.97755 -1.74731 0
M  V30 4246 C 422.324 -5.62049 -1.83998 0
M  V30 4247 C 421.686 -6.85305 -1.629 0
M  V30 4248 H 417.785 -0.533855 -0.571422 0
M  V30 4249 H 420.369 -1.7083 -0.934079 0
M  V30 4250 H 418.54 -1.77776 -3.45326 0
M  V30 4251 H 420.272 -2.01938 -3.50718 0
M  V30 4252 H 417.027 -3.87812 -2.71843 0
M  V30 4253 H 417.451 -6.42978 -2.11916 0
M  V30 4254 H 422.093 -3.53338 -2.3219 0
M  V30 4255 H 419.811 -7.92411 -1.58464 0
M  V30 4256 H 423.397 -5.55232 -1.73808 0
M  V30 4257 H 422.277 -7.72034 -1.37596 0
M  V30 4258 N 419.78 1.02168 -1.19998 0
M  V30 4259 C 420.73 2.08969 -0.911921 0
M  V30 4260 C 421.714 1.60404 0.12621 0
M  V30 4261 O 422.906 1.76817 -0.0804706 0
M  V30 4262 C 420.035 3.402 -0.460277 0
M  V30 4263 C 419.121 3.9548 -1.53155 0
M  V30 4264 N 419.512 4.24332 -2.75275 0
M  V30 4265 C 417.81 4.23572 -1.39653 0
M  V30 4266 C 418.511 4.68834 -3.44339 0
M  V30 4267 N 417.487 4.70804 -2.71744 0
M  V30 4268 H 421.289 2.29178 -1.83997 0
M  V30 4269 H 418.803 1.20094 -1.09322 0
M  V30 4270 H 420.8 4.16235 -0.235337 0
M  V30 4271 H 419.46 3.21408 0.4612 0
M  V30 4272 H 420.471 4.13393 -3.11973 0
M  V30 4273 H 417.148 4.14005 -0.539067 0
M  V30 4274 H 418.538 5.00019 -4.4881 0
M  V30 4275 N 421.258 1.00505 1.21394 0
M  V30 4276 C 422.505 0.687774 1.90462 0
M  V30 4277 C 422.833 -0.78147 1.7811 0
M  V30 4278 O 422.088 -1.58208 1.1519 0
M  V30 4279 C 422.387 1.0546 3.41486 0
M  V30 4280 C 422.053 2.51812 3.74034 0
M  V30 4281 C 420.715 2.91804 3.82628 0
M  V30 4282 C 423.067 3.46614 3.8924 0
M  V30 4283 C 420.395 4.2556 4.03876 0
M  V30 4284 C 422.747 4.80044 4.11995 0
M  V30 4285 C 421.411 5.19759 4.18816 0
M  V30 4286 H 420.681 0.251674 0.696951 0
M  V30 4287 H 423.328 1.26349 1.43903 0
M  V30 4288 H 421.633 0.397133 3.89782 0
M  V30 4289 H 423.33 0.786976 3.93202 0
M  V30 4290 H 419.92 2.1982 3.67936 0
M  V30 4291 H 424.104 3.16883 3.81967 0
M  V30 4292 H 419.36 4.55901 4.07387 0
M  V30 4293 H 423.534 5.53439 4.22704 0
M  V30 4294 H 421.161 6.23418 4.35033 0
M  V30 4295 N 422.737 -1.36956 0.779787 0
M  V30 4296 C 423.983 -1.99787 0.348281 0
M  V30 4297 C 424.316 -1.61756 -1.07465 0
M  V30 4298 O 423.591 -0.867639 -1.74075 0
M  V30 4299 C 423.874 -3.56597 0.50104 0
M  V30 4300 C 423.727 -4.04513 1.96697 0
M  V30 4301 C 425.046 -4.40008 -0.0898097 0
M  V30 4302 H 422.165 -0.725796 0.128022 0
M  V30 4303 H 424.807 -1.62514 0.984331 0
M  V30 4304 H 422.957 -3.88479 -0.0404347 0
M  V30 4305 H 424.629 -3.83161 2.56876 0
M  V30 4306 H 422.872 -3.56408 2.47297 0
M  V30 4307 H 423.543 -5.1352 2.02486 0
M  V30 4308 H 426.019 -4.14431 0.372293 0
M  V30 4309 H 424.895 -5.4888 0.0471605 0
M  V30 4310 H 425.156 -4.26035 -1.18096 0
M  V30 4311 N 424.215 -0.530993 -1.48385 0
M  V30 4312 C 425.463 0.00273189 -2.021 0
M  V30 4313 C 425.784 1.34672 -1.41027 0
M  V30 4314 O 425.054 1.8724 -0.576012 0
M  V30 4315 H 423.634 0.00399774 -0.746989 0
M  V30 4316 H 426.296 -0.695054 -1.82085 0
M  V30 4317 H 425.392 0.11031 -3.11905 0
M  V30 4318 N 425.693 1.55336 -0.266172 0
M  V30 4319 C 426.656 2.20878 0.612001 0
M  V30 4320 C 427.656 1.18388 1.08816 0
M  V30 4321 O 428.846 1.4335 0.989774 0
M  V30 4322 C 425.978 2.86765 1.84332 0
M  V30 4323 H 427.171 2.99873 0.0398718 0
M  V30 4324 H 424.724 1.56291 -0.0167309 0
M  V30 4325 H 425.459 2.11759 2.45619 0
M  V30 4326 H 425.244 3.61862 1.5099 0
M  V30 4327 H 426.734 3.36867 2.46801 0
M  V30 4328 N 427.171 -0.0066808 1.57599 0
M  V30 4329 C 428.119 -1.01851 2.09115 0
M  V30 4330 C 429.113 -1.36021 1.00969 0
M  V30 4331 O 430.319 -1.34663 1.19439 0
M  V30 4332 H 426.694 -0.346083 0.667631 0
M  V30 4333 H 428.665 -0.558394 2.93129 0
M  V30 4334 C 427.414 -2.30374 2.60429 0
M  V30 4335 H 426.737 -2.04947 3.43273 0
M  V30 4336 H 428.177 -2.99466 3.00161 0
M  V30 4337 C 426.636 -3.00893 1.51542 0
M  V30 4338 O 427.166 -3.91614 0.894484 0
M  V30 4339 N 425.372 -2.62603 1.2445 0
M  V30 4340 H 424.919 -1.88911 1.75129 0
M  V30 4341 H 424.877 -3.10101 0.518137 0
M  V30 4342 N 428.649 -1.55105 -0.279332 0
M  V30 4343 C 429.877 -1.7943 -1.03017 0
M  V30 4344 C 430.292 -0.564456 -1.80165 0
M  V30 4345 O 429.649 0.466326 -1.76442 0
M  V30 4346 C 429.7 -3.0155 -1.99374 0
M  V30 4347 O 429.421 -4.19784 -1.25352 0
M  V30 4348 C 430.922 -3.3843 -2.86321 0
M  V30 4349 H 428.142 -0.597882 -0.304594 0
M  V30 4350 H 430.686 -2.02105 -0.312035 0
M  V30 4351 H 428.841 -2.81019 -2.66659 0
M  V30 4352 H 429.255 -4.88781 -1.90246 0
M  V30 4353 H 430.729 -4.27066 -3.49741 0
M  V30 4354 H 431.206 -2.57549 -3.5576 0
M  V30 4355 H 431.812 -3.61197 -2.24536 0
M  V30 4356 N 430.127 0.543554 -1.4793 0
M  V30 4357 C 431.352 1.32995 -1.59145 0
M  V30 4358 C 431.777 1.86472 -0.246956 0
M  V30 4359 O 431.135 1.63696 0.779324 0
M  V30 4360 C 431.183 2.46623 -2.63077 0
M  V30 4361 O 430.287 3.49261 -2.19295 0
M  V30 4362 H 429.628 0.394472 -0.534124 0
M  V30 4363 H 432.158 0.655489 -1.93816 0
M  V30 4364 H 432.168 2.93001 -2.83926 0
M  V30 4365 H 430.843 2.07059 -3.60693 0
M  V30 4366 H 429.42 3.09094 -2.08603 0
M  V30 4367 N 431.605 1.3629 0.791371 0
M  V30 4368 C 432.882 1.20962 1.53712 0
M  V30 4369 C 433.262 -0.205021 2.10102 0
M  V30 4370 O 432.61 -1.21042 1.93807 0
M  V30 4371 C 432.82 2.29002 2.63361 0
M  V30 4372 C 434.168 2.65572 3.31295 0
M  V30 4373 O 435.192 2.2803 2.73643 0
M  V30 4374 O 434.051 3.3018 4.35481 0
M  V30 4375 H 431.145 0.47086 0.679867 0
M  V30 4376 H 433.691 1.48016 0.830021 0
M  V30 4377 H 432.463 3.2382 2.19674 0
M  V30 4378 H 432.086 2.03303 3.41692 0
M  V30 4379 N 433.083 -1.0153 1.20538 0
M  V30 4380 C 434.36 -1.72327 0.925343 0
M  V30 4381 C 434.74 -2.03383 -0.565547 0
M  V30 4382 O 434.088 -1.69934 -1.52757 0
M  V30 4383 C 434.298 -2.9902 1.79967 0
M  V30 4384 C 435.646 -3.72258 2.04228 0
M  V30 4385 O 436.67 -3.08979 1.77231 0
M  V30 4386 O 435.529 -4.86053 2.4983 0
M  V30 4387 H 432.623 -0.751099 0.346092 0
M  V30 4388 H 435.169 -1.07366 1.31417 0
M  V30 4389 H 433.941 -2.72402 2.80915 0
M  V30 4390 H 433.564 -3.71721 1.41099 0
M  V30 4391 N 434.561 -1.01147 -1.20859 0
M  V30 4392 C 435.809 -0.696486 -1.89719 0
M  V30 4393 C 436.13 0.775788 -1.78904 0
M  V30 4394 O 435.4 1.55759 -1.18811 0
M  V30 4395 H 433.98 -0.254628 -0.702263 0
M  V30 4396 H 436.642 -1.28197 -1.46804 0
M  V30 4397 H 435.738 -0.975357 -2.96468 0
M  V30 4398 N 436.039 1.36541 -0.78704 0
M  V30 4399 C 437.269 2.03266 -0.369662 0
M  V30 4400 C 437.677 1.59481 1.01796 0
M  V30 4401 O 437.02 0.778612 1.66383 0
M  V30 4402 C 437.082 3.57779 -0.351371 0
M  V30 4403 C 436.746 4.24756 -1.68617 0
M  V30 4404 C 437.743 4.47811 -2.64124 0
M  V30 4405 C 435.428 4.62277 -1.96481 0
M  V30 4406 C 437.422 5.07464 -3.85693 0
M  V30 4407 C 435.109 5.21649 -3.18317 0
M  V30 4408 C 436.107 5.44182 -4.12741 0
M  V30 4409 O 435.795 6.02307 -5.32429 0
M  V30 4410 H 435.527 0.658977 -0.150751 0
M  V30 4411 H 438.081 1.75548 -1.0664 0
M  V30 4412 H 436.311 3.84606 0.401847 0
M  V30 4413 H 438 4.05879 0.0410147 0
M  V30 4414 H 438.766 4.19221 -2.43883 0
M  V30 4415 H 434.645 4.44065 -1.23805 0
M  V30 4416 H 438.189 5.24968 -4.59407 0
M  V30 4417 H 434.086 5.49664 -3.38437 0
M  V30 4418 H 434.854 6.20775 -5.33461 0
M  V30 4419 N 437.518 0.538854 1.48102 0
M  V30 4420 C 438.767 0.0059532 2.01699 0
M  V30 4421 C 439.08 -1.34476 1.42041 0
M  V30 4422 O 440.286 -1.96653 1.87189 0
M  V30 4423 C 438.742 -0.0397627 3.59878 0
M  V30 4424 C 438.35 1.30659 4.28523 0
M  V30 4425 C 440.094 -0.521024 4.2129 0
M  V30 4426 C 438.001 1.22098 5.78659 0
M  V30 4427 H 436.931 -0.00154456 0.753998 0
M  V30 4428 H 439.582 0.683963 1.70277 0
M  V30 4429 H 437.964 -0.783037 3.88181 0
M  V30 4430 H 439.138 2.06613 4.11883 0
M  V30 4431 H 437.453 1.7243 3.79021 0
M  V30 4432 H 440.05 -0.603184 5.31287 0
M  V30 4433 H 440.393 -1.52885 3.8721 0
M  V30 4434 H 440.926 0.166834 3.9745 0
M  V30 4435 H 437.665 2.20424 6.17328 0
M  V30 4436 H 437.185 0.50295 5.97688 0
M  V30 4437 H 438.864 0.915345 6.40492 0
M  V30 4438 N 438.996 -1.55193 0.274407 0
M  V30 4439 C 439.926 -2.25471 -0.607032 0
M  V30 4440 C 440.907 -1.24461 -1.15946 0
M  V30 4441 O 442.092 -1.53179 -1.19373 0
M  V30 4442 C 439.222 -2.97526 -1.79153 0
M  V30 4443 C 438.176 -4.05459 -1.37067 0
M  V30 4444 C 437.502 -4.65084 -2.6382 0
M  V30 4445 C 438.802 -5.19691 -0.521389 0
M  V30 4446 H 440.496 -2.99393 -0.0209343 0
M  V30 4447 H 438.042 -1.43997 -0.00862866 0
M  V30 4448 H 439.995 -3.45402 -2.41404 0
M  V30 4449 H 438.719 -2.21138 -2.40344 0
M  V30 4450 H 437.378 -3.58393 -0.771355 0
M  V30 4451 H 437.026 -3.85365 -3.23268 0
M  V30 4452 H 436.726 -5.37961 -2.36372 0
M  V30 4453 H 438.25 -5.15708 -3.26921 0
M  V30 4454 H 439.664 -5.63623 -1.04889 0
M  V30 4455 H 438.061 -5.99126 -0.341825 0
M  V30 4456 H 439.131 -4.82713 0.46 0
M  V30 4457 N 440.474 -0.00167713 -1.576 0
M  V30 4458 C 441.702 0.693759 -1.94922 0
M  V30 4459 C 442.117 1.67215 -0.876626 0
M  V30 4460 O 441.474 1.81929 0.144279 0
M  V30 4461 C 441.525 1.42416 -3.32265 0
M  V30 4462 O 441.246 0.485014 -4.35407 0
M  V30 4463 C 442.747 2.21395 -3.84056 0
M  V30 4464 H 439.967 0.193118 -0.642609 0
M  V30 4465 H 442.511 -0.0532952 -2.04431 0
M  V30 4466 H 440.666 2.12284 -3.24059 0
M  V30 4467 H 441.08 1.00053 -5.14868 0
M  V30 4468 H 442.554 2.67996 -4.82578 0
M  V30 4469 H 443.031 3.04142 -3.16851 0
M  V30 4470 H 443.637 1.56542 -3.95443 0
M  V30 4471 N 441.952 1.55251 0.271103 0
M  V30 4472 C 442.885 1.83191 1.36075 0
M  V30 4473 C 443.863 0.685091 1.47463 0
M  V30 4474 O 445.047 0.928292 1.64058 0
M  V30 4475 C 442.174 1.99521 2.73696 0
M  V30 4476 C 441.22 3.22081 2.79582 0
M  V30 4477 S 442.053 4.79388 2.38636 0
M  V30 4478 C 443.209 4.98693 3.78228 0
M  V30 4479 H 443.442 2.75327 1.12171 0
M  V30 4480 H 440.975 1.47046 0.470833 0
M  V30 4481 H 442.933 2.09613 3.52948 0
M  V30 4482 H 441.594 1.0827 2.9485 0
M  V30 4483 H 440.787 3.304 3.80594 0
M  V30 4484 H 440.389 3.10589 2.08352 0
M  V30 4485 H 442.681 4.84551 4.73515 0
M  V30 4486 H 443.624 6.00738 3.7486 0
M  V30 4487 H 444.032 4.26665 3.69618 0
M  V30 4488 N 443.43 -0.535701 1.48216 0
M  V30 4489 C 444.393 -1.623 1.61838 0
M  V30 4490 C 445.393 -1.53087 0.492024 0
M  V30 4491 O 446.583 -1.5686 0.757668 0
M  V30 4492 C 443.715 -3.01907 1.58319 0
M  V30 4493 H 444.908 -1.51564 2.58783 0
M  V30 4494 H 442.461 -0.757317 1.36727 0
M  V30 4495 H 443.196 -3.18155 0.628299 0
M  V30 4496 H 442.981 -3.10003 2.40085 0
M  V30 4497 H 444.471 -3.80969 1.71033 0
M  V30 4498 N 444.908 -1.36708 -0.784132 0
M  V30 4499 C 446.324 -1.17237 -1.08294 0
M  V30 4500 C 446.524 -5.93947e-05 -2.015 0
M  V30 4501 O 445.58 0.663686 -2.43622 0
M  V30 4502 C 446.893 -2.48557 -1.69233 0
M  V30 4503 C 448.441 -2.54968 -1.8155 0
M  V30 4504 C 448.916 -3.86388 -2.45904 0
M  V30 4505 N 450.407 -3.87762 -2.53367 0
M  V30 4506 C 451.142 -4.86191 -3.03983 0
M  V30 4507 N 450.638 -5.95015 -3.54866 0
M  V30 4508 N 452.431 -4.73606 -3.02743 0
M  V30 4509 H 444.582 -2.11758 -0.16501 0
M  V30 4510 H 446.845 -0.93822 -0.135822 0
M  V30 4511 H 446.551 -3.34638 -1.08215 0
M  V30 4512 H 446.425 -2.64748 -2.68679 0
M  V30 4513 H 448.812 -1.69302 -2.41704 0
M  V30 4514 H 448.893 -2.42672 -0.80895 0
M  V30 4515 H 448.537 -4.72462 -1.86392 0
M  V30 4516 H 448.467 -3.95982 -3.4714 0
M  V30 4517 H 450.958 -3.09145 -2.17343 0
M  V30 4518 H 451.271 -6.66086 -3.91854 0
M  V30 4519 H 449.616 -5.98676 -3.53003 0
M  V30 4520 H 452.807 -3.87717 -2.62284 0
M  V30 4521 H 452.98 -5.50473 -3.41881 0
M  V30 4522 N 446.386 1.0089 -1.21074 0
M  V30 4523 C 447.632 1.74866 -1.02712 0
M  V30 4524 C 447.965 1.89178 0.438787 0
M  V30 4525 O 447.24 1.42325 1.32567 0
M  V30 4526 C 447.523 3.16347 -1.72036 0
M  V30 4527 C 447.376 3.09782 -3.26121 0
M  V30 4528 C 448.695 4.15187 -1.45973 0
M  V30 4529 H 445.814 0.634736 -0.374539 0
M  V30 4530 H 448.456 1.17646 -1.49196 0
M  V30 4531 H 446.606 3.65201 -1.32517 0
M  V30 4532 H 448.278 2.68673 -3.74983 0
M  V30 4533 H 446.521 2.46982 -3.56626 0
M  V30 4534 H 447.192 4.09829 -3.6979 0
M  V30 4535 H 449.668 3.75022 -1.80272 0
M  V30 4536 H 448.544 5.12331 -1.96999 0
M  V30 4537 H 448.805 4.40386 -0.388924 0
M  V30 4538 N 447.864 1.01787 1.20321 0
M  V30 4539 C 449.089 0.727009 1.9424 0
M  V30 4540 C 449.514 -0.706179 1.74341 0
M  V30 4541 O 448.872 -1.48609 1.03852 0
M  V30 4542 C 448.92 1.06958 3.44372 0
M  V30 4543 O 448.024 0.181983 4.11998 0
M  V30 4544 H 447.365 0.269626 0.606793 0
M  V30 4545 H 449.895 1.36158 1.52716 0
M  V30 4546 H 449.905 1.02182 3.94997 0
M  V30 4547 H 448.58 2.11378 3.58179 0
M  V30 4548 H 447.157 0.287378 3.71791 0
M  V30 4549 N 449.342 -1.36122 0.79427 0
M  V30 4550 C 450.252 -2.33769 0.197296 0
M  V30 4551 C 451.268 -1.61276 -0.653153 0
M  V30 4552 O 452.444 -1.9323 -0.5678 0
M  V30 4553 C 449.509 -3.40474 -0.654098 0
M  V30 4554 C 448.57 -4.28759 0.215411 0
M  V30 4555 C 447.803 -5.30368 -0.595443 0
M  V30 4556 O 448.026 -5.40211 -1.83107 0
M  V30 4557 O 446.96 -6.019 0.00721351 0
M  V30 4558 H 450.786 -2.86597 1.00478 0
M  V30 4559 H 448.371 -1.38676 0.555818 0
M  V30 4560 H 450.253 -4.05703 -1.13944 0
M  V30 4561 H 448.928 -2.89937 -1.43938 0
M  V30 4562 H 447.835 -3.66554 0.747615 0
M  V30 4563 H 449.168 -4.82661 0.964332 0
M  V30 4564 N 450.82 -0.546701 -1.47814 0
M  V30 4565 C 451.77 0.227042 -2.26867 0
M  V30 4566 C 452.754 0.894844 -1.33721 0
M  V30 4567 O 453.946 0.794887 -1.58147 0
M  V30 4568 C 451.075 1.26299 -3.19223 0
M  V30 4569 C 450.161 0.59913 -4.19847 0
M  V30 4570 N 450.552 -0.324777 -5.04756 0
M  V30 4571 C 448.85 0.854331 -4.37741 0
M  V30 4572 C 449.551 -0.709386 -5.77358 0
M  V30 4573 N 448.527 -0.0666153 -5.43559 0
M  V30 4574 H 452.329 -0.483476 -2.89896 0
M  V30 4575 H 449.843 -0.365893 -1.58224 0
M  V30 4576 H 451.84 1.83116 -3.74532 0
M  V30 4577 H 450.5 1.97471 -2.57751 0
M  V30 4578 H 451.511 -0.698351 -5.1317 0
M  V30 4579 H 448.188 1.55536 -3.87447 0
M  V30 4580 H 449.578 -1.46796 -6.55668 0
M  V30 4581 N 452.299 1.55045 -0.282633 0
M  V30 4582 C 453.262 2.21515 0.588539 0
M  V30 4583 C 454.262 1.19535 1.07554 0
M  V30 4584 O 455.452 1.44391 0.974514 0
M  V30 4585 C 452.584 2.88704 1.8128 0
M  V30 4586 H 453.777 2.99899 0.00806397 0
M  V30 4587 H 451.33 1.56265 -0.0333067 0
M  V30 4588 H 452.065 2.14352 2.43359 0
M  V30 4589 H 451.85 3.63443 1.47144 0
M  V30 4590 H 453.34 3.39465 2.43214 0
M  V30 4591 N 453.777 0.010035 1.57597 0
M  V30 4592 C 455.025 -0.671371 1.90623 0
M  V30 4593 C 455.346 -1.73753 0.885151 0
M  V30 4594 O 454.616 -1.95752 -0.0760611 0
M  V30 4595 H 453.196 -0.250968 0.703579 0
M  V30 4596 H 455.858 0.0533325 1.94827 0
M  V30 4597 H 454.954 -1.13626 2.90681 0
M  V30 4598 N 455.255 -1.55392 -0.262866 0
M  V30 4599 C 456.485 -1.80251 -1.00961 0
M  V30 4600 C 456.893 -0.58117 -1.80053 0
M  V30 4601 O 456.236 0.459427 -1.77862 0
M  V30 4602 C 456.298 -2.98207 -2.00781 0
M  V30 4603 C 455.962 -4.34856 -1.40533 0
M  V30 4604 C 456.959 -5.13459 -0.815853 0
M  V30 4605 C 454.644 -4.8153 -1.42948 0
M  V30 4606 C 456.638 -6.36875 -0.258562 0
M  V30 4607 C 454.325 -6.04899 -0.868334 0
M  V30 4608 C 455.323 -6.8241 -0.283884 0
M  V30 4609 O 455.011 -8.03451 0.268644 0
M  V30 4610 H 454.743 -0.604049 -0.303482 0
M  V30 4611 H 457.297 -2.03257 -0.295926 0
M  V30 4612 H 455.527 -2.70917 -2.75936 0
M  V30 4613 H 457.216 -3.10299 -2.61667 0
M  V30 4614 H 457.982 -4.78526 -0.789812 0
M  V30 4615 H 453.861 -4.21201 -1.87378 0
M  V30 4616 H 457.405 -6.97318 0.198257 0
M  V30 4617 H 453.302 -6.39312 -0.891649 0
M  V30 4618 H 454.07 -8.18346 0.158974 0
M  V30 4619 N 456.733 0.527833 -1.48498 0
M  V30 4620 C 457.666 1.64892 -1.57753 0
M  V30 4621 C 458.644 1.5687 -0.427867 0
M  V30 4622 O 459.828 1.77311 -0.639764 0
M  V30 4623 C 456.955 3.03301 -1.50752 0
M  V30 4624 C 456.001 3.29675 -2.70586 0
M  V30 4625 S 456.834 3.15712 -4.32535 0
M  V30 4626 C 457.99 4.56564 -4.28136 0
M  V30 4627 H 458.223 1.56792 -2.52594 0
M  V30 4628 H 455.756 0.710959 -1.37057 0
M  V30 4629 H 457.714 3.83123 -1.474 0
M  V30 4630 H 456.375 3.08839 -0.572454 0
M  V30 4631 H 455.568 4.3065 -2.61833 0
M  V30 4632 H 455.17 2.57526 -2.71212 0
M  V30 4633 H 457.462 5.48126 -3.98201 0
M  V30 4634 H 458.405 4.70371 -5.29298 0
M  V30 4635 H 458.813 4.35987 -3.58574 0
M  V30 4636 N 458.211 1.37122 0.776871 0
M  V30 4637 C 459.174 1.32301 1.8716 0
M  V30 4638 C 460.174 0.228099 1.59174 0
M  V30 4639 O 461.364 0.483642 1.67352 0
M  V30 4640 C 458.496 1.054 3.24197 0
M  V30 4641 H 459.689 2.29673 1.92848 0
M  V30 4642 H 457.242 1.22077 0.97606 0
M  V30 4643 H 457.977 0.0853872 3.24188 0
M  V30 4644 H 457.762 1.84648 3.45901 0
M  V30 4645 H 459.252 1.04664 4.04271 0
M  V30 4646 N 459.689 -1.00246 1.21608 0
M  V30 4647 C 460.637 -2.11193 0.97469 0
M  V30 4648 C 461.631 -1.69216 -0.0789303 0
M  V30 4649 O 462.837 -1.79853 0.0726806 0
M  V30 4650 H 459.212 -0.690455 0.297953 0
M  V30 4651 H 461.183 -2.2873 1.91638 0
M  V30 4652 C 459.932 -3.43182 0.558717 0
M  V30 4653 H 459.255 -3.75918 1.3611 0
M  V30 4654 H 460.695 -4.21823 0.429154 0
M  V30 4655 C 459.154 -3.28882 -0.730648 0
M  V30 4656 O 459.684 -3.59835 -1.78554 0
M  V30 4657 N 457.89 -2.8209 -0.698131 0
M  V30 4658 H 457.437 -2.57099 0.16061 0
M  V30 4659 H 457.395 -2.72903 -1.56113 0
M  V30 4660 N 461.167 -1.02423 -1.1978 0
M  V30 4661 C 462.397 -0.736387 -1.93031 0
M  V30 4662 C 462.805 0.708023 -1.75453 0
M  V30 4663 O 462.148 1.4927 -1.07071 0
M  V30 4664 C 462.21 -1.00194 -3.45255 0
M  V30 4665 C 461.874 -2.43698 -3.86601 0
M  V30 4666 C 462.871 -3.41814 -3.91738 0
M  V30 4667 C 460.556 -2.77975 -4.18372 0
M  V30 4668 C 462.55 -4.72265 -4.28071 0
M  V30 4669 C 460.237 -4.08636 -4.54378 0
M  V30 4670 C 461.235 -5.05592 -4.59201 0
M  V30 4671 O 460.923 -6.33914 -4.94376 0
M  V30 4672 H 460.655 -0.269116 -0.620123 0
M  V30 4673 H 463.209 -1.37043 -1.52998 0
M  V30 4674 H 461.439 -0.310747 -3.85449 0
M  V30 4675 H 463.128 -0.704488 -3.9974 0
M  V30 4676 H 463.894 -3.16671 -3.67348 0
M  V30 4677 H 459.773 -2.0319 -4.13805 0
M  V30 4678 H 463.317 -5.4794 -4.3175 0
M  V30 4679 H 459.214 -4.33556 -4.78226 0
M  V30 4680 H 459.982 -6.38317 -5.12341 0
M  V30 4681 N 462.645 1.35699 -0.801477 0
M  V30 4682 C 463.875 2.02862 -0.3912 0
M  V30 4683 C 464.283 1.60552 1.00099 0
M  V30 4684 O 463.626 0.796215 1.65548 0
M  V30 4685 C 463.688 3.57386 -0.389299 0
M  V30 4686 C 463.352 4.22943 -1.73113 0
M  V30 4687 C 464.349 4.44984 -2.68859 0
M  V30 4688 C 462.034 4.60167 -2.01373 0
M  V30 4689 C 464.028 5.03345 -3.91053 0
M  V30 4690 C 461.715 5.18243 -3.23832 0
M  V30 4691 C 462.713 5.39773 -4.1849 0
M  V30 4692 O 462.401 5.96626 -5.38788 0
M  V30 4693 H 462.133 0.657341 -0.157732 0
M  V30 4694 H 464.687 1.74407 -1.08496 0
M  V30 4695 H 462.917 3.85011 0.361031 0
M  V30 4696 H 464.606 4.059 -0.0020365 0
M  V30 4697 H 465.372 4.1661 -2.48316 0
M  V30 4698 H 461.251 4.42726 -1.28508 0
M  V30 4699 H 464.795 5.20065 -4.64949 0
M  V30 4700 H 460.692 5.46044 -3.44248 0
M  V30 4701 H 461.46 6.15082 -5.40015 0
M  V30 4702 N 464.123 0.554532 1.47522 0
M  V30 4703 C 465.539 0.214107 1.58157 0
M  V30 4704 C 465.739 -1.28331 1.55349 0
M  V30 4705 O 464.795 -2.06329 1.45549 0
M  V30 4706 C 466.108 0.838391 2.88776 0
M  V30 4707 C 467.656 0.809374 3.02354 0
M  V30 4708 C 468.131 1.41268 4.35669 0
M  V30 4709 N 469.622 1.37574 4.42298 0
M  V30 4710 C 470.357 1.8122 5.4401 0
M  V30 4711 N 469.853 2.3271 6.52547 0
M  V30 4712 N 471.646 1.72307 5.35039 0
M  V30 4713 H 463.797 1.52744 1.4759 0
M  V30 4714 H 466.06 0.636812 0.702264 0
M  V30 4715 H 465.766 1.89065 2.96559 0
M  V30 4716 H 465.64 0.329847 3.75755 0
M  V30 4717 H 468.027 -0.234187 2.94169 0
M  V30 4718 H 468.108 1.35565 2.16924 0
M  V30 4719 H 467.752 2.45529 4.4461 0
M  V30 4720 H 467.682 0.841871 5.19827 0
M  V30 4721 H 470.173 0.999081 3.64454 0
M  V30 4722 H 470.486 2.63944 7.26329 0
M  V30 4723 H 468.831 2.36719 6.53444 0
M  V30 4724 H 472.022 1.3186 4.49144 0
M  V30 4725 H 472.195 2.06641 6.14169 0
M  V30 4726 N 465.601 -1.54893 0.290851 0
M  V30 4727 C 466.847 -2.00949 -0.314784 0
M  V30 4728 C 467.202 -1.1757 -1.52299 0
M  V30 4729 O 466.495 -0.241558 -1.90071 0
M  V30 4730 C 466.689 -3.49815 -0.732397 0
M  V30 4731 C 466.518 -4.47603 0.433799 0
M  V30 4732 C 465.288 -4.96806 0.922599 0
M  V30 4733 C 467.486 -4.98233 1.27546 0
M  V30 4734 N 465.468 -5.78426 2.05662 0
M  V30 4735 C 466.839 -5.77455 2.25712 0
M  V30 4736 C 468.894 -4.80439 1.307 0
M  V30 4737 C 467.597 -6.40778 3.26796 0
M  V30 4738 C 469.623 -5.44574 2.30637 0
M  V30 4739 C 468.985 -6.23619 3.27533 0
M  V30 4740 H 465.084 -0.777905 -0.0799257 0
M  V30 4741 H 467.668 -1.9015 0.418458 0
M  V30 4742 H 465.839 -3.60925 -1.43483 0
M  V30 4743 H 467.571 -3.82681 -1.31671 0
M  V30 4744 H 464.326 -4.70961 0.49926 0
M  V30 4745 H 464.75 -6.23923 2.62772 0
M  V30 4746 H 469.392 -4.18918 0.571622 0
M  V30 4747 H 467.11 -7.01439 4.01258 0
M  V30 4748 H 470.696 -5.32739 2.33838 0
M  V30 4749 H 469.576 -6.72367 4.03599 0
M  V30 4750 N 467.08 -0.0183926 -1.57589 0
M  V30 4751 C 468.327 0.662562 -1.91354 0
M  V30 4752 C 468.655 1.72747 -0.893788 0
M  V30 4753 O 467.91 1.9545 0.0988509 0
M  V30 4754 C 468.209 1.32676 -3.31861 0
M  V30 4755 C 467.875 0.393267 -4.49182 0
M  V30 4756 C 466.537 0.136302 -4.81007 0
M  V30 4757 C 468.889 -0.248366 -5.20608 0
M  V30 4758 C 466.217 -0.770282 -5.81621 0
M  V30 4759 C 468.569 -1.14294 -6.22189 0
M  V30 4760 C 467.233 -1.4089 -6.52462 0
M  V30 4761 H 466.503 0.242448 -0.700214 0
M  V30 4762 H 469.15 -0.0778629 -1.91342 0
M  V30 4763 H 467.455 2.14168 -3.28084 0
M  V30 4764 H 469.152 1.86001 -3.55253 0
M  V30 4765 H 465.742 0.603723 -4.24327 0
M  V30 4766 H 469.926 -0.062883 -4.9626 0
M  V30 4767 H 465.182 -0.984154 -6.03427 0
M  V30 4768 H 469.356 -1.64637 -6.76659 0
M  V30 4769 H 466.983 -2.11306 -7.30242 0
M  V30 4770 N 468.558 1.5553 0.254621 0
M  V30 4771 C 469.806 1.7665 0.981793 0
M  V30 4772 C 470.127 0.580963 1.86145 0
M  V30 4773 O 469.397 -0.403537 1.91699 0
M  V30 4774 H 467.977 0.651475 0.365498 0
M  V30 4775 H 470.639 1.92958 0.274426 0
M  V30 4776 H 469.735 2.67486 1.60802 0
M  V30 4777 N 470.036 -0.519951 1.48776 0
M  V30 4778 C 471.264 -1.29971 1.60982 0
M  V30 4779 C 471.679 -1.86803 0.273885 0
M  V30 4780 O 471.036 -1.66904 -0.738193 0
M  V30 4781 C 471.087 -2.44346 2.66415 0
M  V30 4782 O 470.808 -1.89855 3.94825 0
M  V30 4783 C 472.309 -3.36014 2.89153 0
M  V30 4784 H 469.529 -0.394891 0.542496 0
M  V30 4785 H 472.073 -0.626214 1.94676 0
M  V30 4786 H 470.228 -3.07562 2.35552 0
M  V30 4787 H 470.642 -2.64798 4.5275 0
M  V30 4788 H 472.116 -4.12593 3.66703 0
M  V30 4789 H 472.593 -3.91859 1.98351 0
M  V30 4790 H 473.199 -2.78582 3.21359 0
M  V30 4791 N 471.514 -1.37532 -0.769588 0
M  V30 4792 C 472.925 -1.29382 -1.346 0
M  V30 4793 C 473.276 0.0576039 -1.96115 0
M  V30 4794 O 472.401 0.95947 -1.93967 0
M  V30 4795 C 472.996 -2.34298 -2.44724 0
M  V30 4796 C 471.555 -2.29776 -2.98128 0
M  V30 4797 C 470.702 -2.18013 -1.71364 0
M  V30 4798 H 473.653 -1.48123 -0.56968 0
M  V30 4799 H 473.674 -1.99089 -3.24259 0
M  V30 4800 H 473.186 -3.32645 -1.99922 0
M  V30 4801 H 471.287 -1.34959 -3.47299 0
M  V30 4802 H 471.4 -3.23276 -3.53595 0
M  V30 4803 H 469.764 -1.64595 -1.94372 0
M  V30 4804 H 470.547 -3.18278 -1.28662 0
M  V30 4805 N 472.992 0.995999 -1.22138 0
M  V30 4806 C 473.902 2.11985 -1.00496 0
M  V30 4807 C 474.918 1.7394 0.0457701 0
M  V30 4808 O 476.094 2.00868 -0.146273 0
M  V30 4809 C 473.159 3.41779 -0.582086 0
M  V30 4810 C 472.22 3.93943 -1.70608 0
M  V30 4811 C 471.453 5.17542 -1.30328 0
M  V30 4812 O 471.676 5.70114 -0.180743 0
M  V30 4813 O 470.61 5.63382 -2.11861 0
M  V30 4814 H 474.436 2.33123 -1.94647 0
M  V30 4815 H 472.021 1.10358 -1.00705 0
M  V30 4816 H 473.903 4.1989 -0.356467 0
M  V30 4817 H 472.578 3.22007 0.330592 0
M  V30 4818 H 471.485 3.17019 -1.98619 0
M  V30 4819 H 472.818 4.18141 -2.59651 0
M  V30 4820 N 474.47 1.03057 1.19235 0
M  V30 4821 C 475.433 0.617418 2.20727 0
M  V30 4822 C 476.433 -0.319856 1.57587 0
M  V30 4823 O 477.623 -0.106633 1.73873 0
M  V30 4824 C 474.755 -0.096296 3.40764 0
M  V30 4825 H 475.948 1.51544 2.58794 0
M  V30 4826 H 473.501 0.821949 1.32942 0
M  V30 4827 H 474.236 -1.00859 3.08217 0
M  V30 4828 H 474.021 0.577217 3.87828 0
M  V30 4829 H 475.511 -0.372219 4.15938 0
M  V30 4830 N 475.948 -1.35272 0.808662 0
M  V30 4831 C 477.359 -1.81179 0.450688 0
M  V30 4832 C 477.71 -1.67143 -1.02751 0
M  V30 4833 O 476.835 -1.20325 -1.79864 0
M  V30 4834 C 477.43 -3.28943 0.811275 0
M  V30 4835 C 475.989 -3.72985 0.505871 0
M  V30 4836 C 475.136 -2.57229 1.03578 0
M  V30 4837 H 478.087 -1.2322 1.00012 0
M  V30 4838 H 478.108 -3.80342 0.109588 0
M  V30 4839 H 477.62 -3.39127 1.88718 0
M  V30 4840 H 475.721 -3.68349 -0.561209 0
M  V30 4841 H 475.834 -4.67677 1.03995 0
M  V30 4842 H 474.198 -2.50548 0.458005 0
M  V30 4843 H 474.981 -2.7019 2.11784 0
M  V30 4844 N 477.426 -0.562348 -1.47226 0
M  V30 4845 C 478.673 -0.0402165 -2.0246 0
M  V30 4846 C 479.001 1.31169 -1.43614 0
M  V30 4847 O 478.256 1.86805 -0.5833 0
M  V30 4848 C 478.555 0.0969817 -3.57268 0
M  V30 4849 C 478.221 -1.1847 -4.35058 0
M  V30 4850 C 476.883 -1.53588 -4.56031 0
M  V30 4851 C 479.235 -2.03378 -4.79882 0
M  V30 4852 C 476.563 -2.73452 -5.19077 0
M  V30 4853 C 478.915 -3.2245 -5.44251 0
M  V30 4854 C 477.579 -3.57876 -5.63455 0
M  V30 4855 H 476.849 -0.0147163 -0.740854 0
M  V30 4856 H 479.496 -0.734895 -1.76838 0
M  V30 4857 H 477.801 0.87466 -3.81912 0
M  V30 4858 H 479.498 0.516408 -3.97661 0
M  V30 4859 H 476.088 -0.90126 -4.19017 0
M  V30 4860 H 480.272 -1.77553 -4.63453 0
M  V30 4861 H 475.528 -3.01062 -5.32139 0
M  V30 4862 H 479.702 -3.88526 -5.77945 0
M  V30 4863 H 477.329 -4.50849 -6.12078 0
M  V30 4864 N 478.904 1.54736 -0.299062 0
M  V30 4865 C 480.152 1.99706 0.31017 0
M  V30 4866 C 480.473 1.18896 1.54559 0
M  V30 4867 O 479.743 0.284445 1.93824 0
M  V30 4868 H 478.323 0.737686 0.117596 0
M  V30 4869 H 480.985 1.9054 -0.409943 0
M  V30 4870 H 480.081 3.06596 0.58355 0
M  V30 4871 N 480.382 0.0267497 1.57577 0
M  V30 4872 C 481.628 -0.647596 1.92815 0
M  V30 4873 C 481.983 -1.69872 0.903396 0
M  V30 4874 O 481.276 -1.91429 -0.0808881 0
M  V30 4875 C 481.47 -1.30914 3.3256 0
M  V30 4876 C 481.299 -0.323621 4.48534 0
M  V30 4877 C 480.069 0.0756607 5.05243 0
M  V30 4878 C 482.267 0.42112 5.12573 0
M  V30 4879 N 480.249 1.0566 6.04739 0
M  V30 4880 C 481.62 1.25589 6.07147 0
M  V30 4881 C 483.675 0.482077 4.95561 0
M  V30 4882 C 482.378 2.1461 6.86538 0
M  V30 4883 C 484.404 1.35962 5.75559 0
M  V30 4884 C 483.766 2.18217 6.69747 0
M  V30 4885 H 479.865 -0.209357 0.753454 0
M  V30 4886 H 482.449 0.0933695 1.94476 0
M  V30 4887 H 480.62 -2.02026 3.31723 0
M  V30 4888 H 482.352 -1.94033 3.55153 0
M  V30 4889 H 479.107 -0.298294 4.7266 0
M  V30 4890 H 479.531 1.54324 6.59176 0
M  V30 4891 H 484.173 -0.139609 4.22569 0
M  V30 4892 H 481.891 2.77835 7.58837 0
M  V30 4893 H 485.477 1.41105 5.6443 0
M  V30 4894 H 484.357 2.85022 7.3057 0
M  V30 4895 N 481.861 -1.55662 -0.24637 0
M  V30 4896 C 483.091 -1.81312 -0.990438 0
M  V30 4897 C 483.499 -0.600234 -1.79426 0
M  V30 4898 O 482.842 0.440537 -1.78339 0
M  V30 4899 C 482.904 -3.0032 -1.97607 0
M  V30 4900 C 482.568 -4.36322 -1.35912 0
M  V30 4901 C 483.565 -5.14295 -0.761348 0
M  V30 4902 C 481.25 -4.83019 -1.37833 0
M  V30 4903 C 483.244 -6.37114 -0.190998 0
M  V30 4904 C 480.931 -6.05786 -0.804128 0
M  V30 4905 C 481.929 -6.82672 -0.211489 0
M  V30 4906 O 481.617 -8.03121 0.353845 0
M  V30 4907 H 481.349 -0.607233 -0.297058 0
M  V30 4908 H 483.903 -2.0356 -0.274351 0
M  V30 4909 H 482.133 -2.73829 -2.73047 0
M  V30 4910 H 483.822 -3.13057 -2.58361 0
M  V30 4911 H 484.588 -4.79337 -0.739013 0
M  V30 4912 H 480.467 -4.23165 -1.829 0
M  V30 4913 H 484.011 -6.97069 0.272206 0
M  V30 4914 H 479.908 -6.40222 -0.823792 0
M  V30 4915 H 480.676 -8.18131 0.245761 0
M  V30 4916 N 483.339 0.512053 -1.4905 0
M  V30 4917 C 484.569 1.28928 -1.61434 0
M  V30 4918 C 484.977 1.87107 -0.280647 0
M  V30 4919 O 484.32 1.68024 0.742537 0
M  V30 4920 C 484.382 2.466 -2.61588 0
M  V30 4921 C 484.046 2.09375 -4.06216 0
M  V30 4922 C 485.043 1.63994 -4.93358 0
M  V30 4923 C 482.728 2.19348 -4.51876 0
M  V30 4924 C 484.722 1.29076 -6.24194 0
M  V30 4925 C 482.409 1.84041 -5.82728 0
M  V30 4926 C 483.407 1.38978 -6.68711 0
M  V30 4927 O 483.095 1.04144 -7.97126 0
M  V30 4928 H 482.827 0.397668 -0.546659 0
M  V30 4929 H 485.381 0.622507 -1.9574 0
M  V30 4930 H 483.611 3.16318 -2.22441 0
M  V30 4931 H 485.3 3.08642 -2.63619 0
M  V30 4932 H 486.066 1.55744 -4.59313 0
M  V30 4933 H 481.945 2.53376 -3.85125 0
M  V30 4934 H 485.489 0.938303 -6.91261 0
M  V30 4935 H 481.386 1.91938 -6.16304 0
M  V30 4936 H 482.154 1.17387 -8.10039 0
M  V30 4937 N 484.817 1.37938 0.762283 0
M  V30 4938 C 486.094 1.24196 1.51112 0
M  V30 4939 C 486.474 -0.160409 2.1049 0
M  V30 4940 O 485.822 -1.16904 1.96331 0
M  V30 4941 C 486.032 2.34537 2.58445 0
M  V30 4942 C 487.38 2.7254 3.25588 0
M  V30 4943 O 488.404 2.33783 2.68745 0
M  V30 4944 O 487.263 3.39343 4.28379 0
M  V30 4945 H 484.357 0.485175 0.669727 0
M  V30 4946 H 486.903 1.49743 0.798438 0
M  V30 4947 H 485.675 3.28406 2.12756 0
M  V30 4948 H 485.298 2.10505 3.37303 0
M  V30 4949 N 486.295 -0.989507 1.22664 0
M  V30 4950 C 487.225 -2.09847 1.02404 0
M  V30 4951 C 488.206 -1.70007 -0.0561303 0
M  V30 4952 O 489.391 -1.93906 0.106748 0
M  V30 4953 C 486.521 -3.41996 0.604663 0
M  V30 4954 C 485.475 -3.95699 1.63115 0
M  V30 4955 C 484.801 -5.23936 1.0675 0
M  V30 4956 C 486.101 -4.25999 3.02196 0
M  V30 4957 H 487.795 -2.27054 1.95158 0
M  V30 4958 H 485.341 -1.09111 0.939727 0
M  V30 4959 H 487.294 -4.1899 0.45002 0
M  V30 4960 H 486.018 -3.24626 -0.35855 0
M  V30 4961 H 484.677 -3.2084 1.77362 0
M  V30 4962 H 484.325 -5.02909 0.0955422 0
M  V30 4963 H 484.025 -5.60833 1.75328 0
M  V30 4964 H 485.549 -6.0356 0.924516 0
M  V30 4965 H 486.963 -4.93777 2.91303 0
M  V30 4966 H 485.36 -4.74076 3.67929 0
M  V30 4967 H 486.43 -3.33636 3.51873 0
M  V30 4968 N 487.773 -1.03688 -1.18687 0
M  V30 4969 C 488.703 -0.645407 -2.24403 0
M  V30 4970 C 489.684 0.349511 -1.66471 0
M  V30 4971 O 490.869 0.230453 -1.92828 0
M  V30 4972 C 487.999 -0.00365337 -3.473 0
M  V30 4973 C 486.953 -0.921705 -4.17958 0
M  V30 4974 C 486.279 -0.144629 -5.34504 0
M  V30 4975 C 487.579 -2.23909 -4.71871 0
M  V30 4976 H 489.273 -1.52917 -2.57404 0
M  V30 4977 H 486.819 -0.736711 -1.23728 0
M  V30 4978 H 488.772 0.281908 -4.20456 0
M  V30 4979 H 487.496 0.914963 -3.13522 0
M  V30 4980 H 486.155 -1.19159 -3.46694 0
M  V30 4981 H 485.803 0.776274 -4.96974 0
M  V30 4982 H 485.503 -0.756206 -5.82714 0
M  V30 4983 H 487.027 0.134004 -6.10453 0
M  V30 4984 H 488.441 -2.0145 -5.36741 0
M  V30 4985 H 486.838 -2.8033 -5.30599 0
M  V30 4986 H 487.908 -2.88822 -3.895 0
M  V30 4987 N 489.251 1.34841 -0.815825 0
M  V30 4988 C 490.214 2.27959 -0.238185 0
M  V30 4989 C 491.214 1.49983 0.579816 0
M  V30 4990 O 492.404 1.69617 0.396953 0
M  V30 4991 C 489.536 3.34314 0.666876 0
M  V30 4992 H 490.729 2.80558 -1.05958 0
M  V30 4993 H 488.282 1.44852 -0.587156 0
M  V30 4994 H 489.017 2.86916 1.5116 0
M  V30 4995 H 488.802 3.92014 0.0819106 0
M  V30 4996 H 490.292 4.0379 1.06506 0
M  V30 4997 N 490.729 0.570148 1.46925 0
M  V30 4998 C 491.659 -0.158274 2.32963 0
M  V30 4999 C 492.64 -0.896093 1.44583 0
M  V30 5000 O 493.825 -0.874022 1.7342 0
M  V30 5001 C 490.955 -1.18055 3.26619 0
M  V30 5002 C 489.909 -0.558379 4.24342 0
M  V30 5003 C 489.235 -1.68623 5.07415 0
M  V30 5004 C 490.535 0.496295 5.19937 0
M  V30 5005 H 492.229 0.560046 2.94115 0
M  V30 5006 H 489.775 0.270775 1.41431 0
M  V30 5007 H 491.728 -1.69841 3.85658 0
M  V30 5008 H 490.452 -1.92899 2.63548 0
M  V30 5009 H 489.111 -0.0617157 3.66548 0
M  V30 5010 H 488.759 -2.42402 4.40738 0
M  V30 5011 H 488.459 -1.27564 5.73586 0
M  V30 5012 H 489.983 -2.20709 5.69315 0
M  V30 5013 H 491.397 0.0640052 5.73264 0
M  V30 5014 H 489.794 0.82649 5.94381 0
M  V30 5015 H 490.864 1.38735 4.6463 0
M  V30 5016 N 492.207 -1.54576 0.307264 0
M  V30 5017 C 493.453 -2.01272 -0.293453 0
M  V30 5018 C 493.808 -1.19178 -1.51044 0
M  V30 5019 O 493.101 -0.261704 -1.89804 0
M  V30 5020 C 493.295 -3.50572 -0.695253 0
M  V30 5021 C 493.124 -4.47118 0.481249 0
M  V30 5022 C 491.894 -4.958 0.97524 0
M  V30 5023 C 494.092 -4.96853 1.32823 0
M  V30 5024 N 492.074 -5.76212 2.11785 0
M  V30 5025 C 493.445 -5.75028 2.31824 0
M  V30 5026 C 495.5 -4.79026 1.35788 0
M  V30 5027 C 494.203 -6.37276 3.33574 0
M  V30 5028 C 496.229 -5.42097 2.364 0
M  V30 5029 C 495.591 -6.2011 3.34129 0
M  V30 5030 H 491.69 -0.778709 -0.0716705 0
M  V30 5031 H 494.274 -1.89695 0.438602 0
M  V30 5032 H 492.445 -3.62427 -1.39647 0
M  V30 5033 H 494.177 -3.84056 -1.27604 0
M  V30 5034 H 490.932 -4.70405 0.549184 0
M  V30 5035 H 491.356 -6.21101 2.69375 0
M  V30 5036 H 495.998 -4.18288 0.616021 0
M  V30 5037 H 493.716 -6.97144 4.08676 0
M  V30 5038 H 497.302 -5.30229 2.39475 0
M  V30 5039 H 496.182 -6.68049 4.10707 0
M  V30 5040 N 493.685 -0.035106 -1.57561 0
M  V30 5041 C 494.648 0.929819 -2.09492 0
M  V30 5042 C 495.648 1.25026 -1.01119 0
M  V30 5043 O 496.838 1.18961 -1.27255 0
M  V30 5044 C 493.97 2.24457 -2.56577 0
M  V30 5045 H 495.163 0.479935 -2.96035 0
M  V30 5046 H 492.716 0.213033 -1.54841 0
M  V30 5047 H 493.451 2.74061 -1.73382 0
M  V30 5048 H 493.236 2.02508 -3.35757 0
M  V30 5049 H 494.726 2.93607 -2.96959 0
M  V30 5050 N 495.163 1.55791 0.238111 0
M  V30 5051 C 496.113 1.87444 1.29803 0
M  V30 5052 C 497.097 0.736043 1.43078 0
M  V30 5053 O 498.289 0.998146 1.46171 0
M  V30 5054 C 495.418 2.18028 2.65177 0
M  V30 5055 C 494.504 3.38217 2.55871 0
M  V30 5056 N 494.895 4.57264 2.16202 0
M  V30 5057 C 493.193 3.41502 2.86866 0
M  V30 5058 C 493.894 5.3941 2.17744 0
M  V30 5059 N 492.87 4.78695 2.57589 0
M  V30 5060 H 496.672 2.7701 0.981965 0
M  V30 5061 H 494.186 1.56135 0.44672 0
M  V30 5062 H 496.183 2.38873 3.4168 0
M  V30 5063 H 494.843 1.29765 2.97643 0
M  V30 5064 H 495.854 4.82727 1.87602 0
M  V30 5065 H 492.531 2.63536 3.23813 0
M  V30 5066 H 493.921 6.44671 1.89339 0
M  V30 5067 N 496.642 -0.504142 1.49319 0
M  V30 5068 C 497.888 -1.26033 1.58882 0
M  V30 5069 C 498.221 -1.92268 0.273274 0
M  V30 5070 O 497.496 -1.80567 -0.72291 0
M  V30 5071 C 497.779 -2.32976 2.7458 0
M  V30 5072 C 497.632 -1.71263 4.1592 0
M  V30 5073 C 498.951 -3.34561 2.85932 0
M  V30 5074 H 496.07 -0.456863 0.578312 0
M  V30 5075 H 498.712 -0.558965 1.81592 0
M  V30 5076 H 496.862 -2.92796 2.55348 0
M  V30 5077 H 498.534 -1.15294 4.4666 0
M  V30 5078 H 496.777 -1.01686 4.21714 0
M  V30 5079 H 497.448 -2.48816 4.92742 0
M  V30 5080 H 499.924 -2.84727 3.0343 0
M  V30 5081 H 498.8 -4.06754 3.68568 0
M  V30 5082 H 499.061 -3.96695 1.95154 0
M  V30 5083 N 498.12 -1.38341 -0.754957 0
M  V30 5084 C 499.345 -1.37882 -1.5493 0
M  V30 5085 C 499.77 0.0296385 -1.88077 0
M  V30 5086 O 499.128 1.01133 -1.50472 0
M  V30 5087 C 499.176 -2.23996 -2.82592 0
M  V30 5088 O 498.28 -1.65612 -3.77686 0
M  V30 5089 H 497.621 -0.470384 -0.468652 0
M  V30 5090 H 500.151 -1.82084 -0.933082 0
M  V30 5091 H 500.161 -2.37806 -3.3153 0
M  V30 5092 H 498.836 -3.26365 -2.57796 0
M  V30 5093 H 497.413 -1.60936 -3.36384 0
M  V30 5094 N 499.598 0.982988 -1.23187 0
M  V30 5095 C 500.826 1.75921 -1.08901 0
M  V30 5096 C 501.241 1.85341 0.359719 0
M  V30 5097 O 500.598 1.33072 1.24892 0
M  V30 5098 C 500.649 3.18742 -1.70545 0
M  V30 5099 O 500.37 3.09814 -3.09753 0
M  V30 5100 C 501.871 4.1277 -1.61667 0
M  V30 5101 H 499.091 0.552166 -0.381252 0
M  V30 5102 H 501.635 1.23516 -1.62985 0
M  V30 5103 H 499.79 3.68182 -1.20501 0
M  V30 5104 H 500.204 3.99703 -3.39614 0
M  V30 5105 H 501.678 5.10697 -2.09506 0
M  V30 5106 H 502.155 4.3542 -0.575009 0
M  V30 5107 H 502.761 3.69232 -2.11064 0
M  V30 5108 N 501.076 1.04316 1.18135 0
M  V30 5109 C 502.039 0.640794 2.2006 0
M  V30 5110 C 503.039 -0.303124 1.57917 0
M  V30 5111 O 504.229 -0.0881855 1.73977 0
M  V30 5112 C 501.361 -0.060148 3.40847 0
M  V30 5113 H 502.554 1.54281 2.57172 0
M  V30 5114 H 500.107 0.836004 1.32063 0
M  V30 5115 H 500.842 -0.975845 3.0927 0
M  V30 5116 H 500.627 0.618319 3.87194 0
M  V30 5117 H 502.117 -0.328082 4.16309 0
M  V30 5118 N 502.554 -1.34406 0.822964 0
M  V30 5119 C 503.779 -2.0304 0.423034 0
M  V30 5120 C 504.204 -1.61568 -0.963196 0
M  V30 5121 O 503.562 -0.800339 -1.62678 0
M  V30 5122 C 503.61 -3.56636 0.53321 0
M  V30 5123 O 502.714 -4.09971 -0.446939 0
M  V30 5124 H 502.055 -0.64075 0.174171 0
M  V30 5125 H 504.585 -1.71653 1.11339 0
M  V30 5126 H 504.595 -4.05945 0.408991 0
M  V30 5127 H 503.27 -3.86168 1.54425 0
M  V30 5128 H 501.847 -3.71835 -0.281601 0
M  V30 5129 N 504.032 -0.577932 -1.46621 0
M  V30 5130 C 505.281 -0.0594281 -2.01612 0
M  V30 5131 C 505.594 1.30663 -1.45556 0
M  V30 5132 O 506.8 1.91621 -1.92337 0
M  V30 5133 C 505.256 -0.0556666 -3.59857 0
M  V30 5134 C 504.864 -1.41975 -4.24908 0
M  V30 5135 C 506.608 0.409143 -4.22524 0
M  V30 5136 C 504.515 -1.37397 -5.75218 0
M  V30 5137 H 503.445 -0.0184469 -0.753774 0
M  V30 5138 H 506.096 -0.728869 -1.68404 0
M  V30 5139 H 504.478 0.679843 -3.90121 0
M  V30 5140 H 505.652 -2.17461 -4.0626 0
M  V30 5141 H 503.967 -1.82419 -3.74316 0
M  V30 5142 H 506.564 0.46211 -5.32699 0
M  V30 5143 H 506.907 1.42565 -3.91128 0
M  V30 5144 H 507.44 -0.272152 -3.96868 0
M  V30 5145 H 504.179 -2.36714 -6.11267 0
M  V30 5146 H 503.699 -0.661239 -5.96144 0
M  V30 5147 H 505.378 -1.08484 -6.3784 0
M  V30 5148 N 505.51 1.54411 -0.315457 0
M  V30 5149 C 506.756 2.01425 0.282775 0
M  V30 5150 C 507.111 1.19978 1.5041 0
M  V30 5151 O 506.404 0.271766 1.89663 0
M  V30 5152 C 506.598 3.50936 0.676652 0
M  V30 5153 C 506.427 4.46856 -0.504954 0
M  V30 5154 C 505.197 4.95275 -1.00152 0
M  V30 5155 C 507.395 4.96141 -1.35456 0
M  V30 5156 N 505.377 5.75081 -2.14838 0
M  V30 5157 C 506.748 5.73791 -2.3487 0
M  V30 5158 C 508.803 4.78299 -1.38327 0
M  V30 5159 C 507.506 6.35498 -3.36949 0
M  V30 5160 C 509.532 5.40836 -2.39271 0
M  V30 5161 C 508.894 6.1833 -3.37413 0
M  V30 5162 H 504.993 0.779078 0.0675398 0
M  V30 5163 H 507.577 1.8946 -0.448656 0
M  V30 5164 H 505.748 3.63162 1.37723 0
M  V30 5165 H 507.48 3.84728 1.25566 0
M  V30 5166 H 504.235 4.70107 -0.574123 0
M  V30 5167 H 504.659 6.19664 -2.72665 0
M  V30 5168 H 509.301 4.17956 -0.638196 0
M  V30 5169 H 507.019 6.94967 -4.12367 0
M  V30 5170 H 510.605 5.28952 -2.42284 0
M  V30 5171 H 509.485 6.65861 -4.14244 0
M  V30 5172 N 506.988 0.0434614 1.5754 0
M  V30 5173 C 507.921 -0.968729 2.06618 0
M  V30 5174 C 508.899 -1.30868 0.965 0
M  V30 5175 O 510.083 -1.42288 1.23638 0
M  V30 5176 C 507.21 -2.28486 2.50023 0
M  V30 5177 C 506.256 -2.09851 3.71302 0
M  V30 5178 S 507.089 -1.38401 5.17306 0
M  V30 5179 C 508.245 -2.71354 5.64019 0
M  V30 5180 H 508.478 -0.551021 2.92149 0
M  V30 5181 H 506.011 -0.168607 1.53477 0
M  V30 5182 H 507.969 -3.04142 2.75695 0
M  V30 5183 H 506.63 -2.67387 1.64812 0
M  V30 5184 H 505.823 -3.07184 3.99567 0
M  V30 5185 H 505.425 -1.42336 3.45856 0
M  V30 5186 H 507.717 -3.67549 5.69134 0
M  V30 5187 H 508.66 -2.47734 6.6335 0
M  V30 5188 H 509.068 -2.77259 4.91719 0
M  V30 5189 N 508.466 -1.55915 -0.229846 0
M  V30 5190 C 509.882 -1.48721 -0.579166 0
M  V30 5191 C 510.082 -0.736976 -1.87539 0
M  V30 5192 O 509.138 -0.273258 -2.51017 0
M  V30 5193 C 510.451 -2.9323 -0.666082 0
M  V30 5194 C 511.999 -3.03701 -0.757267 0
M  V30 5195 C 512.474 -4.49552 -0.8756 0
M  V30 5196 N 513.965 -4.53561 -0.940035 0
M  V30 5197 C 514.7 -5.63683 -1.05116 0
M  V30 5198 N 514.196 -6.83576 -1.12675 0
M  V30 5199 N 515.989 -5.51516 -1.08565 0
M  V30 5200 H 508.14 -2.03123 0.620857 0
M  V30 5201 H 510.403 -0.922898 0.21671 0
M  V30 5202 H 510.109 -3.51032 0.21664 0
M  V30 5203 H 509.983 -3.44668 -1.53243 0
M  V30 5204 H 512.37 -2.45969 -1.63043 0
M  V30 5205 H 512.451 -2.55446 0.134583 0
M  V30 5206 H 512.095 -5.079 -0.00692351 0
M  V30 5207 H 512.025 -4.95506 -1.78274 0
M  V30 5208 H 514.516 -3.67215 -0.892269 0
M  V30 5209 H 514.829 -7.63251 -1.21109 0
M  V30 5210 H 513.174 -6.86303 -1.09603 0
M  V30 5211 H 516.365 -4.5678 -1.02319 0
M  V30 5212 H 516.538 -6.37372 -1.1688 0
M  V30 5213 N 509.944 0.496216 -1.49584 0
M  V30 5214 C 510.874 1.60576 -1.69521 0
M  V30 5215 C 511.855 1.61169 -0.543933 0
M  V30 5216 O 513.04 1.77834 -0.78031 0
M  V30 5217 C 510.17 2.99038 -1.76616 0
M  V30 5218 C 509.124 3.13312 -2.91581 0
M  V30 5219 C 508.45 4.53172 -2.83794 0
M  V30 5220 C 509.75 2.92886 -4.32452 0
M  V30 5221 H 511.444 1.44146 -2.62416 0
M  V30 5222 H 508.99 0.692024 -1.26282 0
M  V30 5223 H 510.943 3.76564 -1.8915 0
M  V30 5224 H 509.667 3.16568 -0.80324 0
M  V30 5225 H 508.326 2.38213 -2.78658 0
M  V30 5226 H 507.974 4.67585 -1.854 0
M  V30 5227 H 507.674 4.63662 -3.60958 0
M  V30 5228 H 509.198 5.32752 -2.98342 0
M  V30 5229 H 510.612 3.60178 -4.46032 0
M  V30 5230 H 509.009 3.14844 -5.10875 0
M  V30 5231 H 510.079 1.88966 -4.46565 0
M  V30 5232 N 511.423 1.38739 0.74761 0
M  V30 5233 C 512.834 1.31507 1.32524 0
M  V30 5234 C 513.185 -0.0263963 1.96182 0
M  V30 5235 O 512.31 -0.92849 1.95469 0
M  V30 5236 C 512.905 2.38162 2.40966 0
M  V30 5237 C 511.464 2.34489 2.94434 0
M  V30 5238 C 510.611 2.20712 1.67873 0
M  V30 5239 H 513.562 1.4901 0.546043 0
M  V30 5240 H 513.583 2.04222 3.21051 0
M  V30 5241 H 513.095 3.35783 1.94605 0
M  V30 5242 H 511.196 1.40467 3.45108 0
M  V30 5243 H 511.309 3.28861 3.48407 0
M  V30 5244 H 509.673 1.67667 1.91729 0
M  V30 5245 H 510.456 3.20285 1.23582 0
M  V30 5246 N 512.901 -0.976442 1.23707 0
M  V30 5247 C 514.129 -1.75341 1.09833 0
M  V30 5248 C 514.544 -1.8553 -0.349885 0
M  V30 5249 O 513.901 -1.33732 -1.24185 0
M  V30 5250 C 513.952 -3.17833 1.72233 0
M  V30 5251 O 513.673 -3.08167 3.11391 0
M  V30 5252 C 515.174 -4.11906 1.63853 0
M  V30 5253 H 512.394 -0.550137 0.384175 0
M  V30 5254 H 514.938 -1.2265 1.63638 0
M  V30 5255 H 513.093 -3.67538 1.22452 0
M  V30 5256 H 513.507 -3.97897 3.41729 0
M  V30 5257 H 514.981 -5.09579 2.12211 0
M  V30 5258 H 515.458 -4.35109 0.598092 0
M  V30 5259 H 516.064 -3.68107 2.13019 0
M  V30 5260 N 514.379 -1.04941 -1.1758 0
M  V30 5261 C 515.309 -0.669172 -2.23706 0
M  V30 5262 C 516.29 0.331835 -1.66832 0
M  V30 5263 O 517.475 0.209988 -1.93061 0
M  V30 5264 C 514.605 -0.0404889 -3.47276 0
M  V30 5265 C 513.559 -0.965983 -4.16957 0
M  V30 5266 C 512.885 -0.201312 -5.34321 0
M  V30 5267 C 514.185 -2.28902 -4.69469 0
M  V30 5268 H 515.879 -1.55639 -2.55767 0
M  V30 5269 H 513.425 -0.749793 -1.22939 0
M  V30 5270 H 515.378 0.237298 -4.20731 0
M  V30 5271 H 514.102 0.881658 -3.14475 0
M  V30 5272 H 512.761 -1.22829 -3.45411 0
M  V30 5273 H 512.409 0.723519 -4.97769 0
M  V30 5274 H 512.109 -0.817968 -5.81879 0
M  V30 5275 H 513.633 0.0692499 -6.10561 0
M  V30 5276 H 515.047 -2.07132 -5.34574 0
M  V30 5277 H 513.444 -2.85942 -5.27596 0
M  V30 5278 H 514.514 -2.92937 -3.86414 0
M  V30 5279 N 515.857 1.33968 -0.830081 0
M  V30 5280 C 516.82 2.27694 -0.26235 0
M  V30 5281 C 517.82 1.50589 0.563876 0
M  V30 5282 O 519.01 1.70028 0.378941 0
M  V30 5283 C 516.142 3.35002 0.63138 0
M  V30 5284 H 517.335 2.79419 -1.08928 0
M  V30 5285 H 514.888 1.44221 -0.602486 0
M  V30 5286 H 515.623 2.88504 1.48109 0
M  V30 5287 H 515.408 3.92079 0.0403276 0
M  V30 5288 H 516.898 4.04897 1.02217 0
M  V30 5289 N 517.335 0.585699 1.46312 0
M  V30 5290 C 518.268 -0.194257 2.27372 0
M  V30 5291 C 519.246 -0.894116 1.3581 0
M  V30 5292 O 520.43 -0.907402 1.65222 0
M  V30 5293 C 517.557 -1.27901 3.13622 0
M  V30 5294 C 516.603 -0.684666 4.20969 0
M  V30 5295 S 517.436 0.490745 5.33247 0
M  V30 5296 C 518.592 -0.595137 6.23064 0
M  V30 5297 H 518.825 0.493515 2.93175 0
M  V30 5298 H 516.358 0.372666 1.49835 0
M  V30 5299 H 518.316 -1.90008 3.63878 0
M  V30 5300 H 516.977 -1.93875 2.47126 0
M  V30 5301 H 516.17 -1.50015 4.81156 0
M  V30 5302 H 515.772 -0.139204 3.73741 0
M  V30 5303 H 518.064 -1.48002 6.61137 0
M  V30 5304 H 519.007 -0.0299446 7.08094 0
M  V30 5305 H 519.415 -0.900627 5.57269 0
M  V30 5306 N 518.813 -1.54241 0.323641 0
M  V30 5307 C 519.776 -2.22997 -0.529602 0
M  V30 5308 C 520.776 -1.22345 -1.04347 0
M  V30 5309 O 521.966 -1.46924 -0.935889 0
M  V30 5310 C 519.098 -2.93409 -1.73562 0
M  V30 5311 H 520.291 -2.99815 0.0714518 0
M  V30 5312 H 517.844 -1.56121 0.0747258 0
M  V30 5313 H 518.579 -2.20729 -2.37591 0
M  V30 5314 H 518.364 -3.67217 -1.37456 0
M  V30 5315 H 519.854 -3.45794 -2.34128 0
M  V30 5316 N 520.291 -0.0518155 -1.57515 0
M  V30 5317 C 521.221 0.920283 -2.146 0
M  V30 5318 C 522.202 1.32406 -1.06783 0
M  V30 5319 O 523.387 1.39866 -1.34726 0
M  V30 5320 C 520.517 2.1949 -2.6915 0
M  V30 5321 C 519.471 1.93116 -3.81956 0
M  V30 5322 C 518.797 3.27037 -4.23026 0
M  V30 5323 C 520.097 1.25225 -5.07066 0
M  V30 5324 H 521.791 0.444801 -2.96077 0
M  V30 5325 H 519.337 0.212508 -1.42423 0
M  V30 5326 H 521.29 2.87894 -3.07725 0
M  V30 5327 H 520.014 2.69244 -1.84865 0
M  V30 5328 H 518.673 1.27123 -3.43854 0
M  V30 5329 H 518.321 3.74595 -3.3569 0
M  V30 5330 H 518.021 3.10189 -4.99056 0
M  V30 5331 H 519.545 3.96673 -4.64202 0
M  V30 5332 H 520.959 1.83666 -5.43083 0
M  V30 5333 H 519.356 1.18702 -5.88243 0
M  V30 5334 H 520.426 0.228382 -4.84362 0
M  V30 5335 N 521.769 1.56035 0.221574 0
M  V30 5336 C 522.997 1.8313 0.962864 0
M  V30 5337 C 523.412 0.630934 1.77946 0
M  V30 5338 O 522.769 -0.400519 1.78051 0
M  V30 5339 C 522.82 3.08742 1.88045 0
M  V30 5340 O 522.541 4.24147 1.09686 0
M  V30 5341 C 524.042 3.48824 2.73563 0
M  V30 5342 H 521.262 0.608775 0.282194 0
M  V30 5343 H 523.806 2.03124 0.23681 0
M  V30 5344 H 521.961 2.90723 2.56045 0
M  V30 5345 H 522.375 4.95505 1.71974 0
M  V30 5346 H 523.849 4.39752 3.3365 0
M  V30 5347 H 524.326 2.70575 3.45956 0
M  V30 5348 H 524.932 3.69282 2.10976 0
M  V30 5349 N 523.247 -0.488276 1.49845 0
M  V30 5350 C 524.487 -1.2516 1.61599 0
M  V30 5351 C 524.851 -1.89615 0.301706 0
M  V30 5352 O 526.052 -2.67182 0.29453 0
M  V30 5353 C 524.323 -2.2805 2.75187 0
M  V30 5354 S 525.882 -3.13552 3.0697 0
M  V30 5355 H 522.7 -0.425178 0.569864 0
M  V30 5356 H 525.302 -0.551545 1.87559 0
M  V30 5357 H 524.006 -1.7925 3.69185 0
M  V30 5358 H 523.537 -3.02708 2.5126 0
M  V30 5359 H 525.552 -4.28927 2.49471 0
M  V30 5360 N 524.725 -1.39134 -0.740242 0
M  V30 5361 C 525.971 -1.37278 -1.50088 0
M  V30 5362 C 526.326 0.0329967 -1.92372 0
M  V30 5363 O 525.619 0.998447 -1.63529 0
M  V30 5364 C 525.813 -2.27457 -2.75678 0
M  V30 5365 C 525.642 -3.76662 -2.45674 0
M  V30 5366 C 524.412 -4.45617 -2.38229 0
M  V30 5367 C 526.61 -4.6877 -2.11563 0
M  V30 5368 N 524.592 -5.80187 -2.00641 0
M  V30 5369 C 525.963 -5.91951 -1.84376 0
M  V30 5370 C 528.018 -4.56843 -1.97987 0
M  V30 5371 C 526.721 -7.04538 -1.4498 0
M  V30 5372 C 528.747 -5.69347 -1.59994 0
M  V30 5373 C 528.109 -6.91597 -1.33687 0
M  V30 5374 H 524.208 -0.557611 -0.548265 0
M  V30 5375 H 526.792 -1.74638 -0.860784 0
M  V30 5376 H 524.963 -1.92263 -3.37475 0
M  V30 5377 H 526.695 -2.16631 -3.41838 0
M  V30 5378 H 523.45 -3.98993 -2.5515 0
M  V30 5379 H 523.874 -6.51387 -1.84454 0
M  V30 5380 H 528.516 -3.62868 -2.16995 0
M  V30 5381 H 526.234 -7.98419 -1.24712 0
M  V30 5382 H 529.82 -5.62104 -1.50102 0
M  V30 5383 H 528.7 -7.77176 -1.04728 0
M  V30 5384 N 526.204 0.969867 -1.24223 0
M  V30 5385 C 527.45 1.71582 -1.09231 0
M  V30 5386 C 527.805 1.88898 0.365432 0
M  V30 5387 O 527.098 1.43781 1.2664 0
M  V30 5388 C 527.292 3.10883 -1.76314 0
M  V30 5389 C 527.121 3.07155 -3.2846 0
M  V30 5390 C 525.891 3.11757 -3.97663 0
M  V30 5391 C 528.089 2.895 -4.25082 0
M  V30 5392 N 526.071 2.98025 -5.36707 0
M  V30 5393 C 527.442 2.84041 -5.51109 0
M  V30 5394 C 529.497 2.74064 -4.15684 0
M  V30 5395 C 528.2 2.64725 -6.68815 0
M  V30 5396 C 530.226 2.56115 -5.33066 0
M  V30 5397 C 529.588 2.51363 -6.58024 0
M  V30 5398 H 525.687 0.636496 -0.454309 0
M  V30 5399 H 528.271 1.15004 -1.57106 0
M  V30 5400 H 526.442 3.65657 -1.30955 0
M  V30 5401 H 528.174 3.74171 -1.54201 0
M  V30 5402 H 524.929 3.20352 -3.48814 0
M  V30 5403 H 525.353 2.94405 -6.09635 0
M  V30 5404 H 529.995 2.76521 -3.19837 0
M  V30 5405 H 527.713 2.61011 -7.64787 0
M  V30 5406 H 531.299 2.45119 -5.27644 0
M  V30 5407 H 530.179 2.37651 -7.47323 0
M  V30 5408 N 527.682 1.05563 1.17022 0
M  V30 5409 C 528.928 0.769074 1.87652 0
M  V30 5410 C 529.261 -0.702326 1.81055 0
M  V30 5411 O 528.536 -1.5139 1.22112 0
M  V30 5412 C 528.819 1.25492 3.37526 0
M  V30 5413 C 528.672 2.78953 3.52853 0
M  V30 5414 C 529.991 0.856919 4.31677 0
M  V30 5415 H 527.11 0.280854 0.681388 0
M  V30 5416 H 529.752 1.31027 1.37593 0
M  V30 5417 H 527.902 0.794516 3.80289 0
M  V30 5418 H 529.574 3.33146 3.19079 0
M  V30 5419 H 527.817 3.18046 2.95007 0
M  V30 5420 H 528.488 3.08011 4.58076 0
M  V30 5421 H 530.964 1.25334 3.96775 0
M  V30 5422 H 529.84 1.22443 5.35069 0
M  V30 5423 H 530.101 -0.238787 4.41455 0
M  V30 5424 N 529.16 -1.33526 0.837174 0
M  V30 5425 C 530.409 -1.97098 0.428387 0
M  V30 5426 C 530.722 -1.67062 -1.01734 0
M  V30 5427 O 531.928 -2.24235 -1.53072 0
M  V30 5428 C 530.384 -3.52725 0.715075 0
M  V30 5429 C 529.992 -3.9164 2.17537 0
M  V30 5430 C 531.736 -4.22857 0.373154 0
M  V30 5431 C 529.643 -5.40237 2.40619 0
M  V30 5432 H 528.573 -0.737589 0.156455 0
M  V30 5433 H 531.224 -1.52169 1.02552 0
M  V30 5434 H 529.606 -3.95971 0.0475904 0
M  V30 5435 H 530.78 -3.59456 2.88319 0
M  V30 5436 H 529.095 -3.34485 2.4801 0
M  V30 5437 H 531.692 -5.32133 0.523264 0
M  V30 5438 H 532.035 -4.10647 -0.683708 0
M  V30 5439 H 532.568 -3.85135 0.995801 0
M  V30 5440 H 529.307 -5.57449 3.44864 0
M  V30 5441 H 528.827 -5.73887 1.74396 0
M  V30 5442 H 530.506 -6.07102 2.23688 0
M  V30 5443 N 530.638 -0.59345 -1.46 0
M  V30 5444 C 531.863 -0.0872365 -2.07216 0
M  V30 5445 C 532.288 1.2131 -1.43755 0
M  V30 5446 O 531.646 1.73528 -0.525152 0
M  V30 5447 C 531.694 0.0538197 -3.6056 0
M  V30 5448 O 530.798 1.10765 -3.97247 0
M  V30 5449 H 530.139 -0.0676598 -0.660544 0
M  V30 5450 H 532.669 -0.819445 -1.87473 0
M  V30 5451 H 532.679 0.256567 -4.07193 0
M  V30 5452 H 531.354 -0.895739 -4.0614 0
M  V30 5453 H 529.931 0.882501 -3.62307 0
M  V30 5454 N 532.116 1.54067 -0.331816 0
M  V30 5455 C 533.532 1.59587 0.0205388 0
M  V30 5456 C 533.732 1.34813 1.49759 0
M  V30 5457 O 532.788 1.13661 2.25471 0
M  V30 5458 C 534.101 2.97959 -0.405103 0
M  V30 5459 C 535.649 3.10964 -0.356454 0
M  V30 5460 C 536.124 4.51694 -0.757384 0
M  V30 5461 N 537.615 4.57709 -0.71111 0
M  V30 5462 C 538.35 5.64729 -0.993427 0
M  V30 5463 N 537.846 6.79652 -1.3433 0
M  V30 5464 N 539.639 5.54546 -0.918442 0
M  V30 5465 H 531.79 1.68426 -1.29407 0
M  V30 5466 H 534.053 0.78819 -0.526745 0
M  V30 5467 H 533.759 3.21115 -1.43451 0
M  V30 5468 H 533.633 3.76524 0.225692 0
M  V30 5469 H 536.02 2.87538 0.663763 0
M  V30 5470 H 536.101 2.34484 -1.02229 0
M  V30 5471 H 535.745 4.75853 -1.77555 0
M  V30 5472 H 535.675 5.26555 -0.0691444 0
M  V30 5473 H 538.166 3.75176 -0.452883 0
M  V30 5474 H 538.479 7.57221 -1.54388 0
M  V30 5475 H 536.824 6.81128 -1.38164 0
M  V30 5476 H 540.015 4.63641 -0.644536 0
M  V30 5477 H 540.188 6.37861 -1.14181 0
M  V30 5478 N 533.594 0.0601682 1.57485 0
M  V30 5479 C 534.504 -0.926121 2.15546 0
M  V30 5480 C 535.52 -1.33532 1.11558 0
M  V30 5481 O 536.696 -1.4104 1.4377 0
M  V30 5482 C 533.761 -2.17952 2.69625 0
M  V30 5483 C 532.822 -1.82783 3.88444 0
M  V30 5484 C 532.055 -3.02148 4.39935 0
M  V30 5485 O 532.278 -4.15803 3.90466 0
M  V30 5486 O 531.212 -2.82639 5.31412 0
M  V30 5487 H 535.038 -0.462289 3.00161 0
M  V30 5488 H 532.623 -0.162246 1.48516 0
M  V30 5489 H 534.505 -2.91474 3.04337 0
M  V30 5490 H 533.18 -2.63456 1.88077 0
M  V30 5491 H 532.087 -1.06549 3.58606 0
M  V30 5492 H 533.42 -1.42072 4.7125 0
M  V30 5493 N 535.072 -1.5615 -0.213296 0
M  V30 5494 C 536.318 -1.79812 -0.937849 0
M  V30 5495 C 536.651 -0.631201 -1.83656 0
M  V30 5496 O 535.926 0.369165 -1.90964 0
M  V30 5497 C 536.209 -3.13613 -1.76972 0
M  V30 5498 C 536.062 -4.40766 -0.89695 0
M  V30 5499 C 537.381 -3.43931 -2.7459 0
M  V30 5500 H 534.5 -0.654138 -0.339518 0
M  V30 5501 H 537.142 -1.88877 -0.20623 0
M  V30 5502 H 535.292 -3.06015 -2.39347 0
M  V30 5503 H 536.964 -4.60392 -0.289306 0
M  V30 5504 H 535.207 -4.33326 -0.202756 0
M  V30 5505 H 535.878 -5.30843 -1.51358 0
M  V30 5506 H 538.354 -3.5171 -2.22349 0
M  V30 5507 H 537.23 -4.38706 -3.29891 0
M  V30 5508 H 537.491 -2.6651 -3.52739 0
M  V30 5509 N 536.55 0.480323 -1.50102 0
M  V30 5510 C 537.799 1.22979 -1.59872 0
M  V30 5511 C 538.112 1.93282 -0.30022 0
M  V30 5512 O 539.318 2.70086 -0.276709 0
M  V30 5513 C 537.774 2.23408 -2.82164 0
M  V30 5514 C 537.382 1.5895 -4.18854 0
M  V30 5515 C 539.126 2.99055 -3.01275 0
M  V30 5516 C 537.033 2.57611 -5.32344 0
M  V30 5517 H 535.963 0.462707 -0.59533 0
M  V30 5518 H 538.614 0.501291 -1.7652 0
M  V30 5519 H 536.996 2.99511 -2.59055 0
M  V30 5520 H 538.17 0.887 -4.52182 0
M  V30 5521 H 536.485 0.956191 -4.05273 0
M  V30 5522 H 539.082 3.72876 -3.83233 0
M  V30 5523 H 539.425 3.57897 -2.12639 0
M  V30 5524 H 539.958 2.30066 -3.24522 0
M  V30 5525 H 536.697 2.03521 -6.23105 0
M  V30 5526 H 536.217 3.26041 -5.03445 0
M  V30 5527 H 537.896 3.19627 -5.62537 0
M  V30 5528 N 538.028 1.39524 0.732853 0
M  V30 5529 C 539.439 1.32905 1.31122 0
M  V30 5530 C 539.79 -0.00558708 1.96199 0
M  V30 5531 O 538.915 -0.907706 1.96443 0
M  V30 5532 C 539.51 2.40704 2.38426 0
M  V30 5533 C 538.069 2.37599 2.91931 0
M  V30 5534 C 537.216 2.2248 1.65523 0
M  V30 5535 H 540.167 1.49581 0.530207 0
M  V30 5536 H 540.188 2.07616 3.18867 0
M  V30 5537 H 539.7 3.37829 1.91033 0
M  V30 5538 H 537.801 1.44119 3.43599 0
M  V30 5539 H 537.914 3.32538 3.44899 0
M  V30 5540 H 536.278 1.69691 1.8994 0
M  V30 5541 H 537.061 3.21577 1.20178 0
M  V30 5542 N 539.506 -0.963266 1.24736 0
M  V30 5543 C 540.922 -1.23273 1.01371 0
M  V30 5544 C 541.122 -1.99618 -0.274776 0
M  V30 5545 O 540.178 -2.32293 -0.989769 0
M  V30 5546 C 541.491 -2.01554 2.23152 0
M  V30 5547 C 543.039 -2.14629 2.27823 0
M  V30 5548 C 543.514 -2.96307 3.49237 0
M  V30 5549 N 545.005 -3.03887 3.49581 0
M  V30 5550 C 545.74 -3.67456 4.40186 0
M  V30 5551 N 545.236 -4.32706 5.41052 0
M  V30 5552 N 547.029 -3.64511 4.27888 0
M  V30 5553 H 539.18 -0.452294 2.07528 0
M  V30 5554 H 541.443 -0.262521 0.910926 0
M  V30 5555 H 541.149 -1.52847 3.1675 0
M  V30 5556 H 541.023 -3.02278 2.25628 0
M  V30 5557 H 543.41 -2.62537 1.34753 0
M  V30 5558 H 543.491 -1.13238 2.2937 0
M  V30 5559 H 543.135 -2.49091 4.42624 0
M  V30 5560 H 543.065 -3.97905 3.44933 0
M  V30 5561 H 545.556 -2.57477 2.76611 0
M  V30 5562 H 545.869 -4.79042 6.06415 0
M  V30 5563 H 544.214 -4.31361 5.44934 0
M  V30 5564 H 547.405 -3.12715 3.4832 0
M  V30 5565 H 547.578 -4.13768 4.98698 0
M  V30 5566 N 540.985 -1.06182 -1.16461 0
M  V30 5567 C 541.915 -0.692861 -2.22984 0
M  V30 5568 C 542.896 0.314122 -1.67174 0
M  V30 5569 O 544.081 0.189499 -1.93273 0
M  V30 5570 C 541.211 -0.07732 -3.47214 0
M  V30 5571 C 540.165 -1.01015 -4.15909 0
M  V30 5572 C 539.491 -0.257973 -5.34077 0
M  V30 5573 C 540.791 -2.33868 -4.67015 0
M  V30 5574 H 542.485 -1.58343 -2.54102 0
M  V30 5575 H 540.031 -0.76279 -1.22137 0
M  V30 5576 H 541.984 0.19266 -4.20959 0
M  V30 5577 H 540.708 0.848254 -3.15392 0
M  V30 5578 H 539.367 -1.26486 -3.44088 0
M  V30 5579 H 539.015 0.670684 -4.98509 0
M  V30 5580 H 538.715 -0.879638 -5.80979 0
M  V30 5581 H 540.239 0.00448788 -6.106 0
M  V30 5582 H 541.653 -2.1279 -5.32347 0
M  V30 5583 H 540.05 -2.91522 -5.24533 0
M  V30 5584 H 541.12 -2.97019 -3.83286 0
M  V30 5585 N 542.463 1.3308 -0.844243 0
M  V30 5586 C 543.711 1.97215 -0.441676 0
M  V30 5587 C 544.032 1.67185 1.0037 0
M  V30 5588 O 543.302 0.973588 1.69994 0
M  V30 5589 H 541.882 0.72959 -0.160335 0
M  V30 5590 H 544.544 1.62348 -1.07838 0
M  V30 5591 H 543.64 3.06698 -0.57815 0
M  V30 5592 N 543.941 0.601185 1.45683 0
M  V30 5593 C 544.891 -0.142686 2.27553 0
M  V30 5594 C 545.875 -0.844598 1.3695 0
M  V30 5595 O 547.067 -0.735644 1.60988 0
M  V30 5596 C 544.196 -1.14364 3.23691 0
M  V30 5597 C 543.282 -0.442894 4.21781 0
M  V30 5598 N 543.673 0.51189 5.03203 0
M  V30 5599 C 541.971 -0.691277 4.4061 0
M  V30 5600 C 542.672 0.92318 5.74328 0
M  V30 5601 N 541.648 0.268308 5.42937 0
M  V30 5602 H 545.45 0.590736 2.87902 0
M  V30 5603 H 542.964 0.424365 1.56757 0
M  V30 5604 H 544.961 -1.6909 3.8107 0
M  V30 5605 H 543.621 -1.87768 2.64902 0
M  V30 5606 H 544.632 0.888329 5.10225 0
M  V30 5607 H 541.309 -1.41049 3.92952 0
M  V30 5608 H 542.699 1.71029 6.49768 0
M  V30 5609 N 545.419 -1.53889 0.339982 0
M  V30 5610 C 546.382 -2.23547 -0.50592 0
M  V30 5611 C 547.382 -1.23445 -1.03044 0
M  V30 5612 O 548.572 -1.47909 -0.920253 0
M  V30 5613 C 545.704 -2.95234 -1.7044 0
M  V30 5614 H 546.897 -2.99722 0.103247 0
M  V30 5615 H 544.45 -1.56033 0.0912804 0
M  V30 5616 H 545.185 -2.23236 -2.35236 0
M  V30 5617 H 544.97 -3.68654 -1.33553 0
M  V30 5618 H 546.46 -3.48258 -2.30447 0
M  V30 5619 N 546.897 -0.0685191 -1.57451 0
M  V30 5620 C 548.143 0.602239 -1.93652 0
M  V30 5621 C 548.476 1.6946 -0.948526 0
M  V30 5622 O 547.751 1.94487 0.022782 0
M  V30 5623 C 548.034 1.18223 -3.4014 0
M  V30 5624 C 547.887 0.0967431 -4.49696 0
M  V30 5625 C 549.206 2.08872 -3.87377 0
M  V30 5626 H 546.325 0.217453 -0.70419 0
M  V30 5627 H 548.967 -0.133821 -1.89528 0
M  V30 5628 H 547.117 1.80953 -3.43785 0
M  V30 5629 H 548.789 -0.536155 -4.58174 0
M  V30 5630 H 547.032 -0.573063 -4.29998 0
M  V30 5631 H 547.703 0.542894 -5.49324 0
M  V30 5632 H 550.179 1.56081 -3.85717 0
M  V30 5633 H 549.055 2.46389 -4.90493 0
M  V30 5634 H 549.316 2.99572 -3.25129 0
M  V30 5635 N 548.375 1.56261 0.205012 0
M  V30 5636 C 549.322 1.93754 1.25411 0
M  V30 5637 C 550.292 0.796826 1.45739 0
M  V30 5638 O 551.477 1.05414 1.59036 0
M  V30 5639 C 548.617 2.27383 2.59598 0
M  V30 5640 C 547.73 3.5447 2.46931 0
M  V30 5641 C 546.865 3.77468 3.73753 0
M  V30 5642 C 545.904 4.98014 3.55877 0
M  V30 5643 N 545.041 5.17316 4.74688 0
M  V30 5644 H 549.881 2.83203 0.92737 0
M  V30 5645 H 547.418 1.40158 0.446574 0
M  V30 5646 H 549.376 2.44895 3.37761 0
M  V30 5647 H 548.006 1.41088 2.90335 0
M  V30 5648 H 547.058 3.45061 1.60116 0
M  V30 5649 H 548.37 4.42789 2.29651 0
M  V30 5650 H 547.524 3.95165 4.60358 0
M  V30 5651 H 546.263 2.87461 3.93976 0
M  V30 5652 H 545.268 4.80249 2.67657 0
M  V30 5653 H 546.493 5.8952 3.37109 0
M  V30 5654 H 544.439 4.30255 4.95194 0
M  V30 5655 H 544.356 5.99796 4.60197 0
M  V30 5656 H 545.624 5.39463 5.62672 0
M  V30 5657 N 549.853 -0.472356 1.50355 0
M  V30 5658 C 551.081 -1.24784 1.65035 0
M  V30 5659 C 551.496 -1.85837 0.333176 0
M  V30 5660 O 550.853 -1.69168 -0.68472 0
M  V30 5661 C 550.904 -2.35747 2.74054 0
M  V30 5662 O 550.625 -1.77197 4.00665 0
M  V30 5663 C 552.126 -3.26645 2.99696 0
M  V30 5664 H 549.346 -0.377432 0.554785 0
M  V30 5665 H 551.89 -0.563962 1.9657 0
M  V30 5666 H 550.045 -2.99912 2.45217 0
M  V30 5667 H 550.459 -2.5026 4.60945 0
M  V30 5668 H 551.933 -4.00718 3.79644 0
M  V30 5669 H 552.41 -3.8535 2.10718 0
M  V30 5670 H 553.016 -2.68218 3.3006 0
M  V30 5671 N 551.331 -1.39911 -0.725443 0
M  V30 5672 C 552.556 -1.41137 -1.5197 0
M  V30 5673 C 552.981 -0.010262 -1.88097 0
M  V30 5674 O 552.339 0.979184 -1.52583 0
M  V30 5675 C 552.387 -2.2994 -2.77777 0
M  V30 5676 O 551.491 -1.73586 -3.74088 0
M  V30 5677 H 550.832 -0.480219 -0.458569 0
M  V30 5678 H 553.362 -1.84023 -0.894249 0
M  V30 5679 H 553.372 -2.44785 -3.26411 0
M  V30 5680 H 552.047 -3.31759 -2.50816 0
M  V30 5681 H 550.624 -1.68035 -3.32894 0
M  V30 5682 N 552.809 0.956637 -1.25245 0
M  V30 5683 C 554.225 1.22733 -1.02023 0
M  V30 5684 C 554.425 1.99761 0.264186 0
M  V30 5685 O 553.481 2.32814 0.977436 0
M  V30 5686 C 554.794 2.00367 -2.24217 0
M  V30 5687 C 556.342 2.13418 -2.28958 0
M  V30 5688 C 556.817 2.9445 -3.50803 0
M  V30 5689 N 558.308 3.02029 -3.51187 0
M  V30 5690 C 559.043 3.65116 -4.42129 0
M  V30 5691 N 558.539 4.2983 -5.43339 0
M  V30 5692 N 560.332 3.62237 -4.29815 0
M  V30 5693 H 552.483 0.441282 -2.07765 0
M  V30 5694 H 554.746 0.257686 -0.912306 0
M  V30 5695 H 554.452 1.51165 -3.17556 0
M  V30 5696 H 554.326 3.01077 -2.27228 0
M  V30 5697 H 556.713 2.61819 -1.36143 0
M  V30 5698 H 556.794 1.1202 -2.29968 0
M  V30 5699 H 556.438 2.46741 -4.43939 0
M  V30 5700 H 556.368 3.9607 -3.47039 0
M  V30 5701 H 558.859 2.56007 -2.77973 0
M  V30 5702 H 559.172 4.75819 -6.08947 0
M  V30 5703 H 557.517 4.28465 -5.47214 0
M  V30 5704 H 560.708 3.10863 -3.49974 0
M  V30 5705 H 560.881 4.11117 -5.00886 0
M  V30 5706 N 554.287 1.06798 1.15896 0
M  V30 5707 C 555.25 0.687328 2.18651 0
M  V30 5708 C 556.25 -0.269559 1.58524 0
M  V30 5709 O 557.44 -0.0512627 1.74125 0
M  V30 5710 C 554.572 0.0121642 3.40898 0
M  V30 5711 H 555.765 1.59701 2.53842 0
M  V30 5712 H 553.318 0.863828 1.3026 0
M  V30 5713 H 554.053 -0.910025 3.1127 0
M  V30 5714 H 553.838 0.700309 3.85795 0
M  V30 5715 H 555.328 -0.239703 4.16911 0
M  V30 5716 N 555.766 -1.3263 0.851289 0
M  V30 5717 C 556.729 -2.27247 0.298541 0
M  V30 5718 C 557.729 -1.51467 -0.539847 0
M  V30 5719 O 558.919 -1.7061 -0.351843 0
M  V30 5720 C 556.051 -3.35964 -0.578004 0
M  V30 5721 H 557.244 -2.7765 1.13359 0
M  V30 5722 H 554.797 -1.43245 0.625354 0
M  V30 5723 H 555.532 -2.90823 -1.435 0
M  V30 5724 H 555.317 -3.92094 0.0220539 0
M  V30 5725 H 556.807 -4.06472 -0.957626 0
M  V30 5726 N 557.244 -0.608902 -1.45362 0
M  V30 5727 C 558.207 0.0992563 -2.28985 0
M  V30 5728 C 559.207 0.793841 -1.39838 0
M  V30 5729 O 560.397 0.641804 -1.61946 0
M  V30 5730 C 557.529 1.15073 -3.20891 0
M  V30 5731 H 558.722 -0.635964 -2.93079 0
M  V30 5732 H 556.275 -0.368007 -1.51906 0
M  V30 5733 H 557.01 1.91667 -2.616 0
M  V30 5734 H 556.795 0.656867 -3.86559 0
M  V30 5735 H 558.285 1.64665 -3.83765 0
M  V30 5736 N 558.722 1.53707 -0.348139 0
M  V30 5737 C 559.968 2.01979 0.239986 0
M  V30 5738 C 560.323 1.23141 1.47831 0
M  V30 5739 O 559.616 0.311936 1.89044 0
M  V30 5740 C 559.81 3.52292 0.602061 0
M  V30 5741 C 559.639 4.45684 -0.599625 0
M  V30 5742 C 558.409 4.9304 -1.10635 0
M  V30 5743 C 560.607 4.93156 -1.4595 0
M  V30 5744 N 558.589 5.70394 -2.26988 0
M  V30 5745 C 559.96 5.6868 -2.46988 0
M  V30 5746 C 562.015 4.75257 -1.48441 0
M  V30 5747 C 560.718 6.28208 -3.50353 0
M  V30 5748 C 562.744 5.35639 -2.50689 0
M  V30 5749 C 562.106 6.11034 -3.50453 0
M  V30 5750 H 558.205 0.780335 0.0509992 0
M  V30 5751 H 560.789 1.88466 -0.488742 0
M  V30 5752 H 558.96 3.66002 1.29989 0
M  V30 5753 H 560.692 3.87304 1.17377 0
M  V30 5754 H 557.447 4.68784 -0.67371 0
M  V30 5755 H 557.871 6.13741 -2.85747 0
M  V30 5756 H 562.513 4.16508 -0.726707 0
M  V30 5757 H 560.231 6.86064 -4.27015 0
M  V30 5758 H 563.817 5.23693 -2.53449 0
M  V30 5759 H 562.697 6.56925 -4.28275 0
M  V30 5760 N 560.2 0.0768682 1.57412 0
M  V30 5761 C 561.428 -0.59997 1.9801 0
M  V30 5762 C 561.843 -1.62842 0.955408 0
M  V30 5763 O 561.2 -1.8241 -0.057314 0
M  V30 5764 C 561.251 -1.26401 3.38681 0
M  V30 5765 O 560.972 -0.276723 4.37225 0
M  V30 5766 C 562.473 -2.0282 3.94182 0
M  V30 5767 H 559.693 -0.162239 0.651091 0
M  V30 5768 H 562.237 0.150771 2.03943 0
M  V30 5769 H 560.392 -1.96581 3.33819 0
M  V30 5770 H 560.806 -0.753744 5.19056 0
M  V30 5771 H 562.28 -2.44667 4.94815 0
M  V30 5772 H 562.757 -2.88678 3.31001 0
M  V30 5773 H 563.363 -1.37496 4.02461 0
M  V30 5774 N 561.678 -1.56367 -0.196722 0
M  V30 5775 C 562.641 -1.93561 -1.22746 0
M  V30 5776 C 563.641 -0.816566 -1.38524 0
M  V30 5777 O 564.831 -1.084 -1.36363 0
M  V30 5778 C 561.963 -2.20823 -2.59712 0
M  V30 5779 H 563.156 -2.85774 -0.909586 0
M  V30 5780 H 560.709 -1.50032 -0.438174 0
M  V30 5781 H 561.444 -1.31243 -2.96557 0
M  V30 5782 H 561.229 -3.02368 -2.49632 0
M  V30 5783 H 562.719 -2.50608 -3.34044 0
M  V30 5784 N 563.156 0.464375 -1.50603 0
M  V30 5785 C 564.119 1.54393 -1.69397 0
M  V30 5786 C 565.119 1.50566 -0.564504 0
M  V30 5787 O 566.309 1.53066 -0.831645 0
M  V30 5788 C 563.441 2.9401 -1.72543 0
M  V30 5789 H 564.634 1.39044 -2.65719 0
M  V30 5790 H 562.187 0.69122 -1.40185 0
M  V30 5791 H 562.922 3.14795 -0.77938 0
M  V30 5792 H 562.707 2.98195 -2.54602 0
M  V30 5793 H 564.197 3.72375 -1.89015 0
M  V30 5794 N 564.634 1.40294 0.718013 0
M  V30 5795 C 565.882 1.38167 1.47494 0
M  V30 5796 C 566.203 -0.01607 1.94993 0
M  V30 5797 O 565.473 -0.970396 1.70177 0
M  V30 5798 H 564.053 0.508505 0.547203 0
M  V30 5799 H 566.715 1.75324 0.851322 0
M  V30 5800 H 565.811 2.05503 2.34894 0
M  V30 5801 N 566.112 -0.949982 1.2575 0
M  V30 5802 C 567.045 -2.047 1.00862 0
M  V30 5803 C 568.023 -1.62475 -0.0636982 0
M  V30 5804 O 569.207 -1.88343 0.0769153 0
M  V30 5805 C 566.334 -3.34597 0.525613 0
M  V30 5806 C 565.38 -3.95788 1.58916 0
M  V30 5807 S 566.213 -4.31175 3.17567 0
M  V30 5808 C 567.369 -5.64183 2.71013 0
M  V30 5809 H 567.602 -2.25497 1.93749 0
M  V30 5810 H 565.135 -1.09022 1.09332 0
M  V30 5811 H 567.093 -4.09716 0.25359 0
M  V30 5812 H 565.754 -3.11758 -0.382828 0
M  V30 5813 H 564.947 -4.89457 1.20201 0
M  V30 5814 H 564.549 -3.27168 1.81211 0
M  V30 5815 H 566.841 -6.42504 2.14928 0
M  V30 5816 H 567.784 -6.07774 3.6334 0
M  V30 5817 H 568.192 -5.2364 2.1086 0
M  V30 5818 N 567.59 -1.07411 -1.15328 0
M  V30 5819 C 568.837 -0.797649 -1.86128 0
M  V30 5820 C 569.165 0.676298 -1.82364 0
M  V30 5821 O 568.42 1.51223 -1.24218 0
M  V30 5822 C 568.719 -1.25191 -3.34757 0
M  V30 5823 C 568.385 -2.73191 -3.58716 0
M  V30 5824 C 567.047 -3.13616 -3.64964 0
M  V30 5825 C 569.399 -3.68718 -3.6837 0
M  V30 5826 C 566.727 -4.48383 -3.78377 0
M  V30 5827 C 569.079 -5.03248 -3.83306 0
M  V30 5828 C 567.743 -5.43293 -3.878 0
M  V30 5829 H 567.013 -0.29188 -0.681092 0
M  V30 5830 H 569.66 -1.34524 -1.36292 0
M  V30 5831 H 567.965 -0.623712 -3.86804 0
M  V30 5832 H 569.662 -1.01489 -3.87945 0
M  V30 5833 H 566.252 -2.40898 -3.54494 0
M  V30 5834 H 570.436 -3.38614 -3.62842 0
M  V30 5835 H 565.692 -4.78877 -3.80114 0
M  V30 5836 H 569.866 -5.77142 -3.89718 0
M  V30 5837 H 567.493 -6.47721 -3.97946 0
M  V30 5838 N 569.068 1.32177 -0.85831 0
M  V30 5839 C 569.998 2.31282 -0.321041 0
M  V30 5840 C 570.979 1.59841 0.581786 0
M  V30 5841 O 572.164 1.87619 0.501262 0
M  V30 5842 C 569.294 3.4385 0.48832 0
M  V30 5843 C 568.248 4.26799 -0.320391 0
M  V30 5844 C 567.574 5.31164 0.613934 0
M  V30 5845 C 568.874 4.98829 -1.54813 0
M  V30 5846 H 570.568 2.76469 -1.14915 0
M  V30 5847 H 568.114 1.32916 -0.554028 0
M  V30 5848 H 570.067 4.12224 0.874626 0
M  V30 5849 H 568.791 2.97401 1.34983 0
M  V30 5850 H 567.45 3.60077 -0.688497 0
M  V30 5851 H 567.098 4.80967 1.47239 0
M  V30 5852 H 566.798 5.8755 0.0768097 0
M  V30 5853 H 568.322 6.024 0.997336 0
M  V30 5854 H 569.736 5.59864 -1.23392 0
M  V30 5855 H 568.133 5.64957 -2.02346 0
M  V30 5856 H 569.203 4.26483 -2.30739 0
M  V30 5857 N 570.547 0.616602 1.45037 0
M  V30 5858 C 571.51 -0.0871112 2.29034 0
M  V30 5859 C 572.51 -0.786414 1.40258 0
M  V30 5860 O 573.7 -0.633207 1.62284 0
M  V30 5861 C 570.832 -1.13369 3.21497 0
M  V30 5862 H 572.025 0.651497 2.92738 0
M  V30 5863 H 569.578 0.376058 1.51709 0
M  V30 5864 H 570.313 -1.90277 2.62612 0
M  V30 5865 H 570.098 -0.636358 3.86902 0
M  V30 5866 H 571.588 -1.62627 3.84633 0
M  V30 5867 N 572.025 -1.5352 0.356285 0
M  V30 5868 C 573.271 -2.01414 -0.236653 0
M  V30 5869 C 573.604 -1.24339 -1.49176 0
M  V30 5870 O 572.879 -0.334496 -1.91602 0
M  V30 5871 C 573.162 -3.56059 -0.537982 0
M  V30 5872 C 573.015 -4.43835 0.730112 0
M  V30 5873 C 574.334 -4.19127 -1.34239 0
M  V30 5874 H 571.453 -0.732135 -0.0845386 0
M  V30 5875 H 574.095 -1.83854 0.479341 0
M  V30 5876 H 572.245 -3.71153 -1.14795 0
M  V30 5877 H 573.917 -4.40555 1.36782 0
M  V30 5878 H 572.16 -4.1218 1.3524 0
M  V30 5879 H 572.831 -5.49958 0.474358 0
M  V30 5880 H 575.307 -4.07809 -0.826498 0
M  V30 5881 H 574.183 -5.27378 -1.52198 0
M  V30 5882 H 574.444 -3.74581 -2.34822 0
M  V30 5883 N 573.503 -0.0852151 -1.57369 0
M  V30 5884 C 574.749 0.575588 -1.95086 0
M  V30 5885 C 575.104 1.66402 -0.96582 0
M  V30 5886 O 574.397 1.91598 0.00978463 0
M  V30 5887 C 574.591 1.18482 -3.3719 0
M  V30 5888 C 574.42 0.156928 -4.49426 0
M  V30 5889 C 573.19 -0.263126 -5.04614 0
M  V30 5890 C 575.388 -0.611068 -5.10657 0
M  V30 5891 N 573.37 -1.28032 -6.00401 0
M  V30 5892 C 574.741 -1.48036 -6.02068 0
M  V30 5893 C 576.796 -0.665669 -4.9343 0
M  V30 5894 C 575.499 -2.39943 -6.781 0
M  V30 5895 C 577.525 -1.5723 -5.70116 0
M  V30 5896 C 576.887 -2.42924 -6.61186 0
M  V30 5897 H 572.986 0.181249 -0.760705 0
M  V30 5898 H 575.57 -0.165484 -1.93995 0
M  V30 5899 H 573.741 1.89575 -3.38992 0
M  V30 5900 H 575.473 1.80718 -3.62109 0
M  V30 5901 H 572.228 0.122664 -4.73441 0
M  V30 5902 H 572.652 -1.78682 -6.52994 0
M  V30 5903 H 577.294 -0.0173214 -4.22796 0
M  V30 5904 H 575.012 -3.05807 -7.48002 0
M  V30 5905 H 578.598 -1.61956 -5.58804 0
M  V30 5906 H 577.478 -3.1194 -7.19488 0
M  V30 5907 N 574.981 1.5647 0.188427 0
M  V30 5908 C 575.911 1.98101 1.23606 0
M  V30 5909 C 576.892 0.853961 1.47111 0
M  V30 5910 O 578.077 1.11879 1.58735 0
M  V30 5911 C 575.207 2.32624 2.57882 0
M  V30 5912 C 574.161 3.48129 2.48978 0
M  V30 5913 C 573.487 3.68347 3.87588 0
M  V30 5914 C 574.787 4.82112 2.00911 0
M  V30 5915 H 576.481 2.85864 0.890068 0
M  V30 5916 H 574.027 1.37532 0.426714 0
M  V30 5917 H 575.98 2.60343 3.3136 0
M  V30 5918 H 574.704 1.41751 2.94235 0
M  V30 5919 H 573.363 3.20511 1.77956 0
M  V30 5920 H 573.011 2.74793 4.21305 0
M  V30 5921 H 572.711 4.46055 3.82503 0
M  V30 5922 H 574.235 3.98449 4.62678 0
M  V30 5923 H 575.649 5.08819 2.64151 0
M  V30 5924 H 574.046 5.63337 2.06814 0
M  V30 5925 H 575.116 4.75249 0.96262 0
M  V30 5926 N 576.459 -0.456382 1.50847 0
M  V30 5927 C 577.87 -1.03685 1.55262 0
M  V30 5928 C 578.221 -1.92779 0.364771 0
M  V30 5929 O 577.346 -2.10043 -0.52068 0
M  V30 5930 C 577.941 -1.88718 2.81374 0
M  V30 5931 C 576.5 -2.41847 2.88422 0
M  V30 5932 C 575.647 -1.20564 2.49719 0
M  V30 5933 H 578.598 -0.238399 1.56899 0
M  V30 5934 H 578.619 -2.73957 2.6406 0
M  V30 5935 H 578.131 -1.23847 3.67809 0
M  V30 5936 H 576.232 -3.10228 2.06372 0
M  V30 5937 H 576.345 -2.75947 3.9165 0
M  V30 5938 H 574.709 -1.54504 2.02486 0
M  V30 5939 H 575.492 -0.573326 3.38479 0
M  V30 5940 N 577.937 -1.40673 -0.710563 0
M  V30 5941 C 578.867 -1.44095 -1.83736 0
M  V30 5942 C 579.848 -0.301286 -1.67411 0
M  V30 5943 O 581.033 -0.510618 -1.87367 0
M  V30 5944 C 578.163 -1.30773 -3.21738 0
M  V30 5945 C 577.117 -2.42395 -3.52745 0
M  V30 5946 C 576.443 -2.14147 -4.89944 0
M  V30 5947 C 577.743 -3.84738 -3.53234 0
M  V30 5948 H 579.437 -2.38396 -1.81129 0
M  V30 5949 H 576.983 -1.14746 -0.870017 0
M  V30 5950 H 578.936 -1.31783 -4.00264 0
M  V30 5951 H 577.66 -0.329507 -3.24934 0
M  V30 5952 H 576.319 -2.40643 -2.76562 0
M  V30 5953 H 575.967 -1.14703 -4.89747 0
M  V30 5954 H 575.667 -2.88934 -5.11655 0
M  V30 5955 H 577.191 -2.16848 -5.70797 0
M  V30 5956 H 578.605 -3.88286 -4.2179 0
M  V30 5957 H 577.002 -4.59085 -3.86473 0
M  V30 5958 H 578.072 -4.13962 -2.52514 0
M  V30 5959 N 579.415 0.9433 -1.26252 0
M  V30 5960 C 580.692 1.66639 -1.02424 0
M  V30 5961 C 581.072 2.06335 0.446006 0
M  V30 5962 O 580.42 1.78551 1.42589 0
M  V30 5963 C 580.63 2.88019 -1.97094 0
M  V30 5964 C 581.978 3.59718 -2.25584 0
M  V30 5965 O 583.002 2.9812 -1.94943 0
M  V30 5966 O 581.861 4.7066 -2.77743 0
M  V30 5967 H 578.955 0.729643 -0.389294 0
M  V30 5968 H 581.501 0.995218 -1.37454 0
M  V30 5969 H 580.273 2.5556 -2.96319 0
M  V30 5970 H 579.896 3.62863 -1.62532 0
M  V30 5971 N 580.893 1.08022 1.14757 0
M  V30 5972 C 581.841 0.701088 2.21783 0
M  V30 5973 C 582.835 -0.291311 1.66876 0
M  V30 5974 O 584.041 -0.154296 1.79337 0
M  V30 5975 H 580.416 0.208668 0.722469 0
M  V30 5976 H 582.387 1.61321 2.51034 0
M  V30 5977 C 581.136 0.122278 3.47485 0
M  V30 5978 H 580.459 0.877065 3.90061 0
M  V30 5979 H 581.899 -0.105248 4.23869 0
M  V30 5980 C 580.358 -1.13883 3.17068 0
M  V30 5981 O 580.888 -2.22429 3.34497 0
M  V30 5982 N 579.094 -1.04767 2.71058 0
M  V30 5983 H 578.641 -0.164302 2.57075 0
M  V30 5984 H 578.599 -1.89224 2.51081 0
M  V30 5985 N 582.371 -1.3172 0.865308 0
M  V30 5986 C 583.619 -1.96487 0.472995 0
M  V30 5987 C 583.94 -1.68761 -0.976975 0
M  V30 5988 O 583.21 -1.00051 -1.68424 0
M  V30 5989 H 581.79 -0.726947 0.171922 0
M  V30 5990 H 584.452 -1.60612 1.10407 0
M  V30 5991 H 583.548 -3.0574 0.62687 0
M  V30 5992 N 583.85 -0.624285 -1.44708 0
M  V30 5993 C 584.779 0.0717025 -2.3339 0
M  V30 5994 C 585.76 0.841814 -1.47809 0
M  V30 5995 O 586.946 0.809056 -1.76544 0
M  V30 5996 C 584.076 1.05852 -3.30776 0
M  V30 5997 C 583.029 0.400503 -4.26122 0
M  V30 5998 C 582.356 1.49674 -5.13324 0
M  V30 5999 C 583.656 -0.688924 -5.17737 0
M  V30 6000 H 585.35 -0.668819 -2.91834 0
M  V30 6001 H 582.896 -0.32308 -1.40329 0
M  V30 6002 H 584.849 1.5541 -3.91696 0
M  V30 6003 H 583.572 1.82984 -2.70526 0
M  V30 6004 H 582.231 -0.0743687 -3.66525 0
M  V30 6005 H 581.88 2.25877 -4.49431 0
M  V30 6006 H 581.58 1.06188 -5.77926 0
M  V30 6007 H 583.104 1.99427 -5.77115 0
M  V30 6008 H 584.518 -0.276724 -5.72632 0
M  V30 6009 H 582.915 -1.04652 -5.90904 0
M  V30 6010 H 583.985 -1.55884 -4.5916 0
M  V30 6011 N 585.328 1.53329 -0.364422 0
M  V30 6012 C 586.744 1.59594 -0.0133165 0
M  V30 6013 C 586.944 1.37959 1.46865 0
M  V30 6014 O 586 1.18418 2.2301 0
M  V30 6015 C 587.313 2.97032 -0.468213 0
M  V30 6016 C 588.861 3.10138 -0.422334 0
M  V30 6017 C 589.336 4.49986 -0.853024 0
M  V30 6018 N 590.827 4.56098 -0.808037 0
M  V30 6019 C 591.562 5.62495 -1.11299 0
M  V30 6020 N 591.058 6.7665 -1.48717 0
M  V30 6021 N 592.851 5.52473 -1.03586 0
M  V30 6022 H 585.002 1.65644 -1.32951 0
M  V30 6023 H 587.265 0.77684 -0.543345 0
M  V30 6024 H 586.971 3.18 -1.5023 0
M  V30 6025 H 586.845 3.76918 0.145775 0
M  V30 6026 H 589.232 2.88881 0.602622 0
M  V30 6027 H 589.313 2.32263 -1.0718 0
M  V30 6028 H 588.957 4.7198 -1.87609 0
M  V30 6029 H 588.887 5.26289 -0.180819 0
M  V30 6030 H 591.378 3.74131 -0.532361 0
M  V30 6031 H 591.691 7.53776 -1.70415 0
M  V30 6032 H 590.036 6.78044 -1.52581 0
M  V30 6033 H 593.227 4.6217 -0.742736 0
M  V30 6034 H 593.4 6.35295 -1.27686 0
M  V30 6035 N 586.806 0.0935595 1.57322 0
M  V30 6036 C 588.217 -0.435807 1.81542 0
M  V30 6037 C 588.568 -1.68263 1.00907 0
M  V30 6038 O 587.693 -2.15087 0.237983 0
M  V30 6039 C 588.288 -0.797436 3.29282 0
M  V30 6040 C 586.847 -1.27155 3.54272 0
M  V30 6041 C 585.994 -0.267455 2.76007 0
M  V30 6042 H 588.945 0.31902 1.5546 0
M  V30 6043 H 588.966 -1.6571 3.42521 0
M  V30 6044 H 588.478 0.110206 3.87943 0
M  V30 6045 H 586.579 -2.19696 3.00939 0
M  V30 6046 H 586.692 -1.23445 4.62923 0
M  V30 6047 H 585.056 -0.749282 2.43429 0
M  V30 6048 H 585.839 0.632839 3.37417 0
M  V30 6049 N 588.284 -1.56567 -0.180126 0
M  V30 6050 C 589.194 -1.98947 -1.24327 0
M  V30 6051 C 590.21 -0.899446 -1.4895 0
M  V30 6052 O 591.386 -1.20639 -1.61271 0
M  V30 6053 C 588.451 -2.33328 -2.56435 0
M  V30 6054 C 587.512 -3.56114 -2.39752 0
M  V30 6055 C 586.745 -3.88845 -3.65561 0
M  V30 6056 O 586.968 -3.22662 -4.70368 0
M  V30 6057 O 585.902 -4.82226 -3.60197 0
M  V30 6058 H 589.728 -2.89634 -0.913565 0
M  V30 6059 H 587.313 -1.44319 -0.386306 0
M  V30 6060 H 589.195 -2.5645 -3.34382 0
M  V30 6061 H 587.87 -1.45806 -2.89002 0
M  V30 6062 H 586.777 -3.38221 -1.59866 0
M  V30 6063 H 588.11 -4.4415 -2.12113 0
M  V30 6064 N 589.762 0.448376 -1.51087 0
M  V30 6065 C 591.173 1.0286 -1.5581 0
M  V30 6066 C 591.524 1.92583 -0.374989 0
M  V30 6067 O 590.649 2.10316 0.509533 0
M  V30 6068 C 591.244 1.87223 -2.8237 0
M  V30 6069 C 589.803 2.40314 -2.897 0
M  V30 6070 C 588.95 1.19238 -2.50355 0
M  V30 6071 H 591.901 0.230075 -1.57023 0
M  V30 6072 H 591.922 2.72553 -2.6551 0
M  V30 6073 H 591.434 1.21894 -3.68461 0
M  V30 6074 H 589.535 3.09129 -2.08014 0
M  V30 6075 H 589.648 2.73866 -3.93108 0
M  V30 6076 H 588.012 1.53428 -2.03303 0
M  V30 6077 H 588.795 0.555367 -3.38778 0
M  V30 6078 N 591.24 1.41047 0.703093 0
M  V30 6079 C 592.489 1.39301 1.4587 0
M  V30 6080 C 592.802 0.00267077 1.956 0
M  V30 6081 O 594.008 -0.137414 2.71152 0
M  V30 6082 C 592.464 2.44891 2.63735 0
M  V30 6083 C 592.072 3.89796 2.20824 0
M  V30 6084 C 593.816 2.5227 3.41409 0
M  V30 6085 C 591.723 4.86955 3.35602 0
M  V30 6086 H 590.653 0.518005 0.547893 0
M  V30 6087 H 593.304 1.66839 0.764009 0
M  V30 6088 H 591.686 2.10472 3.35436 0
M  V30 6089 H 592.86 4.33424 1.56461 0
M  V30 6090 H 591.175 3.86008 1.56163 0
M  V30 6091 H 593.772 3.22044 4.26839 0
M  V30 6092 H 594.115 1.55714 3.86081 0
M  V30 6093 H 594.648 2.85742 2.7676 0
M  V30 6094 H 591.387 5.84888 2.9595 0
M  V30 6095 H 590.907 4.47982 3.98839 0
M  V30 6096 H 592.586 5.07361 4.01489 0
M  V30 6097 N 592.718 -0.936591 1.26751 0
M  V30 6098 C 593.967 -1.67778 1.11953 0
M  V30 6099 C 594.28 -1.92694 -0.33589 0
M  V30 6100 O 595.486 -2.64682 -0.604618 0
M  V30 6101 C 593.942 -3.02138 1.95551 0
M  V30 6102 C 593.55 -2.84953 3.45696 0
M  V30 6103 C 595.294 -3.79917 1.89377 0
M  V30 6104 C 593.201 -4.14814 4.21525 0
M  V30 6105 H 592.131 -0.629275 0.415366 0
M  V30 6106 H 594.782 -1.04122 1.51099 0
M  V30 6107 H 593.164 -3.668 1.49243 0
M  V30 6108 H 594.338 -2.29112 3.99805 0
M  V30 6109 H 592.653 -2.20612 3.53156 0
M  V30 6110 H 595.25 -4.76134 2.43312 0
M  V30 6111 H 595.593 -4.07204 0.865464 0
M  V30 6112 H 596.126 -3.22037 2.33532 0
M  V30 6113 H 592.865 -3.92709 5.24843 0
M  V30 6114 H 592.385 -4.70352 3.72195 0
M  V30 6115 H 594.064 -4.83239 4.3022 0
M  V30 6116 N 594.196 -1.08629 -1.14182 0
M  V30 6117 C 595.159 -0.722027 -2.1753 0
M  V30 6118 C 596.159 0.244305 -1.58933 0
M  V30 6119 O 597.349 0.0235545 -1.74184 0
M  V30 6120 C 594.481 -0.0663966 -3.40835 0
M  V30 6121 H 595.674 -1.63719 -2.51269 0
M  V30 6122 H 593.227 -0.884442 -1.28869 0
M  V30 6123 H 593.962 0.860389 -3.12678 0
M  V30 6124 H 593.747 -0.761598 -3.84632 0
M  V30 6125 H 595.237 0.173346 -4.1724 0
M  V30 6126 N 595.674 1.31259 -0.872281 0
M  V30 6127 C 596.604 2.30929 -0.345554 0
M  V30 6128 C 597.585 1.60449 0.5648 0
M  V30 6129 O 598.77 1.8814 0.481335 0
M  V30 6130 C 595.9 3.44348 0.451823 0
M  V30 6131 C 594.854 4.26435 -0.365641 0
M  V30 6132 C 594.18 5.31785 0.557562 0
M  V30 6133 C 595.48 4.97159 -1.60095 0
M  V30 6134 H 597.174 2.75234 -1.17841 0
M  V30 6135 H 594.72 1.3232 -0.568094 0
M  V30 6136 H 596.673 4.13128 0.830854 0
M  V30 6137 H 595.397 2.98816 1.31821 0
M  V30 6138 H 594.056 3.59326 -0.726649 0
M  V30 6139 H 593.704 4.82502 1.4213 0
M  V30 6140 H 593.404 5.87598 0.0144878 0
M  V30 6141 H 594.928 6.03424 0.933387 0
M  V30 6142 H 596.342 5.58523 -1.29323 0
M  V30 6143 H 594.739 5.62779 -2.08327 0
M  V30 6144 H 595.809 4.24012 -2.35249 0
M  V30 6145 N 597.152 0.631951 1.44375 0
M  V30 6146 C 598.4 0.136497 2.01639 0
M  V30 6147 C 598.721 -1.24637 1.49969 0
M  V30 6148 O 597.991 -1.82827 0.70363 0
M  V30 6149 H 596.571 0.0474703 0.74549 0
M  V30 6150 H 599.233 0.818837 1.76865 0
M  V30 6151 H 598.329 0.104817 3.11924 0
M  V30 6152 N 598.631 -1.53133 0.372548 0
M  V30 6153 C 599.88 -2.00539 -0.216115 0
M  V30 6154 C 600.193 -1.26374 -1.49295 0
M  V30 6155 O 601.399 -1.64404 -2.16064 0
M  V30 6156 C 599.855 -3.57253 -0.435678 0
M  V30 6157 C 599.463 -4.40302 0.82693 0
M  V30 6158 C 601.207 -4.12995 -0.981618 0
M  V30 6159 C 599.114 -5.88583 0.576567 0
M  V30 6160 H 598.044 -0.749246 -0.084536 0
M  V30 6161 H 600.695 -1.76771 0.492364 0
M  V30 6162 H 599.077 -3.77202 -1.20559 0
M  V30 6163 H 600.251 -4.32124 1.60017 0
M  V30 6164 H 598.566 -3.95699 1.29659 0
M  V30 6165 H 601.163 -5.21418 -1.18436 0
M  V30 6166 H 601.506 -3.68027 -1.94581 0
M  V30 6167 H 602.039 -3.96871 -0.271696 0
M  V30 6168 H 598.778 -6.37841 1.51128 0
M  V30 6169 H 598.298 -5.99592 -0.158047 0
M  V30 6170 H 599.977 -6.46676 0.204722 0
M  V30 6171 N 600.109 -0.101901 -1.5727 0
M  V30 6172 C 601.039 0.851544 -2.17419 0
M  V30 6173 C 602.02 1.28942 -1.10941 0
M  V30 6174 O 603.205 1.35509 -1.39107 0
M  V30 6175 C 600.335 2.10816 -2.75996 0
M  V30 6176 C 599.289 1.80867 -3.87906 0
M  V30 6177 C 598.615 3.13413 -4.33216 0
M  V30 6178 C 599.915 1.0903 -5.10793 0
M  V30 6179 H 601.609 0.350381 -2.97343 0
M  V30 6180 H 599.155 0.16709 -1.43027 0
M  V30 6181 H 601.108 2.77959 -3.16729 0
M  V30 6182 H 599.832 2.63227 -1.93337 0
M  V30 6183 H 598.491 1.16119 -3.47724 0
M  V30 6184 H 598.139 3.63725 -3.47438 0
M  V30 6185 H 597.839 2.94155 -5.08671 0
M  V30 6186 H 599.363 3.81704 -4.76586 0
M  V30 6187 H 600.777 1.66295 -5.48652 0
M  V30 6188 H 599.174 0.99927 -5.91722 0
M  V30 6189 H 600.244 0.0741704 -4.84843 0
M  V30 6190 N 601.587 1.56661 0.17182 0
M  V30 6191 C 602.517 1.99401 1.21498 0
M  V30 6192 C 603.498 0.869516 1.46197 0
M  V30 6193 O 604.683 1.13556 1.57539 0
M  V30 6194 C 601.813 2.35346 2.55401 0
M  V30 6195 C 600.767 3.5075 2.45272 0
M  V30 6196 C 600.093 3.72437 3.8366 0
M  V30 6197 C 601.393 4.84216 1.95787 0
M  V30 6198 H 603.087 2.86792 0.859699 0
M  V30 6199 H 600.633 1.37977 0.412103 0
M  V30 6200 H 602.586 2.63843 3.2858 0
M  V30 6201 H 601.31 1.44864 2.92715 0
M  V30 6202 H 599.969 3.2238 1.74547 0
M  V30 6203 H 599.617 2.79246 4.18367 0
M  V30 6204 H 599.317 4.50087 3.77751 0
M  V30 6205 H 600.841 4.03334 4.58426 0
M  V30 6206 H 602.255 5.11592 2.5874 0
M  V30 6207 H 600.652 5.65498 2.00827 0
M  V30 6208 H 601.722 4.76243 0.912159 0
M  V30 6209 N 603.065 -0.440357 1.51323 0
M  V30 6210 C 604.293 -1.21255 1.67645 0
M  V30 6211 C 604.708 -1.85088 0.37252 0
M  V30 6212 O 604.065 -1.70582 -0.648683 0
M  V30 6213 C 604.116 -2.29881 2.78993 0
M  V30 6214 O 603.837 -1.68659 4.04334 0
M  V30 6215 C 605.338 -3.20214 3.06558 0
M  V30 6216 H 602.558 -0.36558 0.562666 0
M  V30 6217 H 605.102 -0.52214 1.97722 0
M  V30 6218 H 603.257 -2.94643 2.51524 0
M  V30 6219 H 603.671 -2.40426 4.6615 0
M  V30 6220 H 605.145 -3.92575 3.88058 0
M  V30 6221 H 605.622 -3.80794 2.18844 0
M  V30 6222 H 606.228 -2.61156 3.35675 0
M  V30 6223 N 604.543 -1.41418 -0.695603 0
M  V30 6224 C 605.789 -1.41983 -1.45645 0
M  V30 6225 C 606.144 -0.0282216 -1.92379 0
M  V30 6226 O 605.437 0.945916 -1.66622 0
M  V30 6227 C 605.631 -2.36112 -2.68302 0
M  V30 6228 C 605.46 -3.84288 -2.33566 0
M  V30 6229 C 604.23 -4.52971 -2.23932 0
M  V30 6230 C 606.428 -4.75264 -1.96543 0
M  V30 6231 N 604.41 -5.86276 -1.82081 0
M  V30 6232 C 605.781 -5.97517 -1.6545 0
M  V30 6233 C 607.836 -4.62911 -1.83352 0
M  V30 6234 C 606.539 -7.08793 -1.22492 0
M  V30 6235 C 608.565 -5.74149 -1.41799 0
M  V30 6236 C 607.927 -6.95501 -1.11617 0
M  V30 6237 H 604.026 -0.574771 -0.530247 0
M  V30 6238 H 606.61 -1.77289 -0.804788 0
M  V30 6239 H 604.781 -2.02902 -3.31188 0
M  V30 6240 H 606.513 -2.27397 -3.34773 0
M  V30 6241 H 603.268 -4.06909 -2.42327 0
M  V30 6242 H 603.692 -6.56926 -1.63638 0
M  V30 6243 H 608.334 -3.69588 -2.05341 0
M  V30 6244 H 606.052 -8.01982 -0.992482 0
M  V30 6245 H 609.638 -5.66595 -1.32143 0
M  V30 6246 H 608.518 -7.80114 -0.799493 0
M  V30 6247 N 606.021 0.929856 -1.27246 0
M  V30 6248 C 607.261 1.6919 -1.14691 0
M  V30 6249 C 607.625 1.896 0.302621 0
M  V30 6250 O 608.826 2.63102 0.550543 0
M  V30 6251 C 607.097 3.02291 -1.9067 0
M  V30 6252 S 608.656 3.93436 -1.94303 0
M  V30 6253 H 605.474 0.581248 -0.409477 0
M  V30 6254 H 608.076 1.10722 -1.61124 0
M  V30 6255 H 606.78 2.85125 -2.95181 0
M  V30 6256 H 606.311 3.65813 -1.44723 0
M  V30 6257 H 608.326 4.85224 -1.0379 0
M  V30 6258 N 607.499 1.09233 1.13605 0
M  V30 6259 C 608.724 0.849067 1.89224 0
M  V30 6260 C 609.149 -0.593875 1.78479 0
M  V30 6261 O 608.507 -1.41703 1.13092 0
M  V30 6262 C 608.555 1.28642 3.36873 0
M  V30 6263 O 607.659 0.44363 4.10007 0
M  V30 6264 H 607 0.30767 0.588417 0
M  V30 6265 H 609.53 1.45595 1.43748 0
M  V30 6266 H 609.54 1.27096 3.87699 0
M  V30 6267 H 608.215 2.33729 3.44011 0
M  V30 6268 H 606.792 0.523241 3.69211 0
M  V30 6269 N 608.977 -1.30795 0.87923 0
M  V30 6270 C 610.223 -1.96653 0.495519 0
M  V30 6271 C 610.556 -1.69282 -0.951703 0
M  V30 6272 O 609.831 -0.994374 -1.6716 0
M  V30 6273 C 610.114 -3.51898 0.764174 0
M  V30 6274 C 609.967 -3.88808 2.2616 0
M  V30 6275 C 611.286 -4.39462 0.236825 0
M  V30 6276 H 608.405 -0.7143 0.181507 0
M  V30 6277 H 611.047 -1.54765 1.10217 0
M  V30 6278 H 609.197 -3.87709 0.247841 0
M  V30 6279 H 610.869 -3.63051 2.8459 0
M  V30 6280 H 609.112 -3.37082 2.73053 0
M  V30 6281 H 609.783 -4.97086 2.4002 0
M  V30 6282 H 612.259 -4.10528 0.678683 0
M  V30 6283 H 611.135 -5.47018 0.454176 0
M  V30 6284 H 611.396 -4.33621 -0.861683 0
M  V30 6285 N 610.455 -0.639598 -1.44038 0
M  V30 6286 C 611.365 0.0612377 -2.3452 0
M  V30 6287 C 612.381 0.826717 -1.53106 0
M  V30 6288 O 613.557 0.777059 -1.85806 0
M  V30 6289 C 610.622 1.02492 -3.31204 0
M  V30 6290 C 609.683 0.25788 -4.28525 0
M  V30 6291 C 608.916 1.17566 -5.2059 0
M  V30 6292 O 609.139 2.41461 -5.16771 0
M  V30 6293 O 608.073 0.655407 -5.98321 0
M  V30 6294 H 611.899 -0.68318 -2.95916 0
M  V30 6295 H 609.484 -0.399784 -1.43952 0
M  V30 6296 H 611.366 1.57911 -3.90694 0
M  V30 6297 H 610.041 1.7498 -2.7233 0
M  V30 6298 H 608.948 -0.339566 -3.72556 0
M  V30 6299 H 610.281 -0.427154 -4.90343 0
M  V30 6300 N 611.933 1.52934 -0.380664 0
M  V30 6301 C 613.349 1.59571 -0.0302429 0
M  V30 6302 C 613.549 1.39509 1.45394 0
M  V30 6303 O 612.605 1.20777 2.21741 0
M  V30 6304 C 613.918 2.96519 -0.499691 0
M  V30 6305 C 615.466 3.09672 -0.455204 0
M  V30 6306 C 615.941 4.49056 -0.900703 0
M  V30 6307 N 617.432 4.55215 -0.856367 0
M  V30 6308 C 618.167 5.61282 -1.17259 0
M  V30 6309 N 617.663 6.75035 -1.55885 0
M  V30 6310 N 619.456 5.51343 -1.0944 0
M  V30 6311 H 611.607 1.64224 -1.347 0
M  V30 6312 H 613.87 0.771033 -0.551554 0
M  V30 6313 H 613.576 3.16388 -1.53595 0
M  V30 6314 H 613.45 3.77052 0.105789 0
M  V30 6315 H 615.837 2.89504 0.571949 0
M  V30 6316 H 615.918 2.31113 -1.09638 0
M  V30 6317 H 615.562 4.69964 -1.92604 0
M  V30 6318 H 615.492 5.26068 -0.236629 0
M  V30 6319 H 617.983 3.73546 -0.572013 0
M  V30 6320 H 618.296 7.51926 -1.784 0
M  V30 6321 H 616.641 6.76388 -1.59764 0
M  V30 6322 H 619.832 4.61356 -0.791713 0
M  V30 6323 H 620.005 6.33905 -1.34417 0
M  V30 6324 N 613.412 0.11024 1.57214 0
M  V30 6325 C 614.375 -0.828808 2.1369 0
M  V30 6326 C 615.375 -1.20059 1.06969 0
M  V30 6327 O 616.565 -1.12754 1.32786 0
M  V30 6328 C 613.697 -2.11959 2.66994 0
M  V30 6329 H 614.89 -0.338146 2.97988 0
M  V30 6330 H 612.443 -0.138913 1.55681 0
M  V30 6331 H 613.178 -2.65476 1.8626 0
M  V30 6332 H 612.963 -1.86258 3.45037 0
M  V30 6333 H 614.453 -2.79105 3.10629 0
M  V30 6334 N 614.89 -1.56749 -0.16351 0
M  V30 6335 C 616.136 -1.82704 -0.880168 0
M  V30 6336 C 616.469 -0.689311 -1.81555 0
M  V30 6337 O 615.744 0.308224 -1.92042 0
M  V30 6338 C 616.027 -3.19084 -1.66905 0
M  V30 6339 C 615.88 -4.43397 -0.756269 0
M  V30 6340 C 617.199 -3.52493 -2.63509 0
M  V30 6341 H 614.318 -0.664608 -0.318535 0
M  V30 6342 H 616.96 -1.89438 -0.146036 0
M  V30 6343 H 615.11 -3.13475 -2.2949 0
M  V30 6344 H 616.782 -4.61079 -0.14269 0
M  V30 6345 H 615.025 -4.33752 -0.0647944 0
M  V30 6346 H 615.696 -5.3539 -1.34393 0
M  V30 6347 H 618.172 -3.58606 -2.11047 0
M  V30 6348 H 617.048 -4.48979 -3.15767 0
M  V30 6349 H 617.309 -2.77597 -3.44082 0
M  V30 6350 N 616.368 0.432326 -1.51554 0
M  V30 6351 C 617.331 1.50765 -1.72634 0
M  V30 6352 C 618.331 1.49334 -0.596314 0
M  V30 6353 O 619.521 1.51268 -0.863925 0
M  V30 6354 C 616.653 2.90284 -1.7874 0
M  V30 6355 H 617.846 1.33377 -2.68609 0
M  V30 6356 H 615.399 0.661329 -1.4162 0
M  V30 6357 H 616.134 3.13071 -0.845977 0
M  V30 6358 H 615.919 2.92727 -2.6087 0
M  V30 6359 H 617.409 3.68282 -1.96871 0
M  V30 6360 N 617.846 1.41785 0.688094 0
M  V30 6361 C 619.074 1.44915 1.47673 0
M  V30 6362 C 619.489 0.0565786 1.88715 0
M  V30 6363 O 618.846 -0.92579 1.57275 0
M  V30 6364 C 618.897 2.36452 2.73446 0
M  V30 6365 O 618.618 3.7029 2.34131 0
M  V30 6366 C 620.119 2.48463 3.67125 0
M  V30 6367 H 617.339 0.493324 0.454832 0
M  V30 6368 H 619.883 1.86153 0.846594 0
M  V30 6369 H 618.038 1.98502 3.3268 0
M  V30 6370 H 618.452 4.19183 3.15255 0
M  V30 6371 H 619.926 3.16662 4.52138 0
M  V30 6372 H 620.403 1.51826 4.12123 0
M  V30 6373 H 621.009 2.8708 3.13792 0
M  V30 6374 N 619.324 -0.923095 1.27737 0
M  V30 6375 C 620.549 -1.71054 1.17283 0
M  V30 6376 C 620.974 -1.86208 -0.266153 0
M  V30 6377 O 620.332 -1.36545 -1.1927 0
M  V30 6378 C 620.38 -3.0854 1.86642 0
M  V30 6379 O 619.484 -3.95528 1.16752 0
M  V30 6380 H 618.825 -0.524136 0.407649 0
M  V30 6381 H 621.355 -1.15487 1.6889 0
M  V30 6382 H 621.365 -3.58828 1.94182 0
M  V30 6383 H 620.04 -2.96828 2.91317 0
M  V30 6384 H 618.617 -3.53967 1.17312 0
M  V30 6385 N 620.802 -1.09834 -1.13024 0
M  V30 6386 C 622.218 -0.828875 -1.36388 0
M  V30 6387 C 622.418 0.554756 -1.93713 0
M  V30 6388 O 621.474 1.30882 -2.15931 0
M  V30 6389 C 622.787 -1.92352 -2.3113 0
M  V30 6390 C 624.335 -1.95124 -2.44735 0
M  V30 6391 C 624.81 -3.03745 -3.42787 0
M  V30 6392 N 626.301 -3.03012 -3.5034 0
M  V30 6393 C 627.036 -3.83699 -4.26101 0
M  V30 6394 N 626.532 -4.74306 -5.04981 0
M  V30 6395 N 628.325 -3.71942 -4.21445 0
M  V30 6396 H 620.476 -1.99029 -0.74169 0
M  V30 6397 H 622.739 -0.864557 -0.388903 0
M  V30 6398 H 622.445 -2.91906 -1.96172 0
M  V30 6399 H 622.319 -1.80536 -3.3119 0
M  V30 6400 H 624.706 -0.962069 -2.78977 0
M  V30 6401 H 624.787 -2.11018 -1.44586 0
M  V30 6402 H 624.431 -4.02878 -3.09276 0
M  V30 6403 H 624.361 -2.85094 -4.42752 0
M  V30 6404 H 626.852 -2.37352 -2.94062 0
M  V30 6405 H 627.165 -5.32446 -5.60108 0
M  V30 6406 H 625.51 -4.78339 -5.04199 0
M  V30 6407 H 628.701 -3.00513 -3.589 0
M  V30 6408 H 628.874 -4.35062 -4.80235 0
M  V30 6409 N 622.28 1.30327 -0.886154 0
M  V30 6410 C 623.21 2.30549 -0.370028 0
M  V30 6411 C 624.191 1.61039 0.547751 0
M  V30 6412 O 625.376 1.8864 0.461353 0
M  V30 6413 C 622.506 3.44808 0.415275 0
M  V30 6414 C 621.46 4.26024 -0.41085 0
M  V30 6415 C 620.786 5.32347 0.501128 0
M  V30 6416 C 622.086 4.95433 -1.65359 0
M  V30 6417 H 623.78 2.73969 -1.20754 0
M  V30 6418 H 621.326 1.3171 -0.582097 0
M  V30 6419 H 623.279 4.13986 0.78699 0
M  V30 6420 H 622.003 3.00197 1.28644 0
M  V30 6421 H 620.662 3.58535 -0.764719 0
M  V30 6422 H 620.31 4.83982 1.37004 0
M  V30 6423 H 620.01 5.87581 -0.0478356 0
M  V30 6424 H 621.534 6.0438 0.869333 0
M  V30 6425 H 622.948 5.5712 -1.35239 0
M  V30 6426 H 621.345 5.60537 -2.14284 0
M  V30 6427 H 622.415 4.21493 -2.39733 0
M  V30 6428 N 623.758 0.647228 1.43697 0
M  V30 6429 C 624.688 -0.0345631 2.33474 0
M  V30 6430 C 625.669 -0.818193 1.4913 0
M  V30 6431 O 626.854 -0.780867 1.77809 0
M  V30 6432 C 623.984 -1.00576 3.32418 0
M  V30 6433 C 622.938 -0.33266 4.26705 0
M  V30 6434 C 622.264 -1.41489 5.1564 0
M  V30 6435 C 623.564 0.771204 5.16575 0
M  V30 6436 H 625.258 0.715163 2.90733 0
M  V30 6437 H 622.804 0.345364 1.39797 0
M  V30 6438 H 624.757 -1.49159 3.94119 0
M  V30 6439 H 623.481 -1.78657 2.73403 0
M  V30 6440 H 622.14 0.13267 3.6636 0
M  V30 6441 H 621.788 -2.18698 4.52968 0
M  V30 6442 H 621.488 -0.969799 5.79542 0
M  V30 6443 H 623.012 -1.9022 5.80214 0
M  V30 6444 H 624.426 0.36779 5.72119 0
M  V30 6445 H 622.823 1.1404 5.89165 0
M  V30 6446 H 623.893 1.63169 4.56622 0
M  V30 6447 N 625.236 -1.5273 0.388769 0
M  V30 6448 C 626.647 -1.86505 -0.0853788 0
M  V30 6449 C 626.998 -1.30847 -1.46197 0
M  V30 6450 O 626.123 -0.639609 -2.06732 0
M  V30 6451 C 626.718 -3.38414 -0.161703 0
M  V30 6452 C 625.277 -3.71902 -0.580144 0
M  V30 6453 C 624.424 -2.76095 0.258218 0
M  V30 6454 H 627.375 -1.46647 0.606665 0
M  V30 6455 H 627.396 -3.67638 -0.980936 0
M  V30 6456 H 626.908 -3.78893 0.840333 0
M  V30 6457 H 625.009 -3.36992 -1.58957 0
M  V30 6458 H 625.122 -4.77902 -0.338663 0
M  V30 6459 H 623.486 -2.53195 -0.276432 0
M  V30 6460 H 624.269 -3.19411 1.25822 0
M  V30 6461 N 626.714 -0.118576 -1.57153 0
M  V30 6462 C 627.96 0.540326 -1.95469 0
M  V30 6463 C 628.293 1.66356 -1.00196 0
M  V30 6464 O 627.568 1.94461 -0.039104 0
M  V30 6465 C 627.851 1.07342 -3.43729 0
M  V30 6466 C 627.704 -0.0463732 -4.49776 0
M  V30 6467 C 629.023 1.96442 -3.93826 0
M  V30 6468 H 626.142 0.19494 -0.710751 0
M  V30 6469 H 628.784 -0.19405 -1.89006 0
M  V30 6470 H 626.934 1.69925 -3.49368 0
M  V30 6471 H 628.606 -0.681648 -4.56236 0
M  V30 6472 H 626.849 -0.709574 -4.27957 0
M  V30 6473 H 627.52 0.367856 -5.50773 0
M  V30 6474 H 629.996 1.43731 -3.90488 0
M  V30 6475 H 628.872 2.3066 -4.98084 0
M  V30 6476 H 629.133 2.89077 -3.34495 0
M  V30 6477 N 628.193 1.56834 0.155195 0
M  V30 6478 C 629.156 1.96748 1.17571 0
M  V30 6479 C 630.156 0.853006 1.3631 0
M  V30 6480 O 631.346 1.11978 1.33441 0
M  V30 6481 C 628.478 2.27631 2.53765 0
M  V30 6482 H 629.671 2.88085 0.833498 0
M  V30 6483 H 627.224 1.51141 0.398242 0
M  V30 6484 H 627.959 1.39059 2.92973 0
M  V30 6485 H 627.744 3.0888 2.41527 0
M  V30 6486 H 629.234 2.59377 3.27282 0
M  V30 6487 N 629.671 -0.424282 1.51781 0
M  V30 6488 C 630.92 -1.16961 1.64326 0
M  V30 6489 C 631.233 -1.92035 0.371749 0
M  V30 6490 O 632.439 -2.68873 0.37676 0
M  V30 6491 C 630.895 -2.12782 2.90262 0
M  V30 6492 C 630.503 -1.43295 4.24465 0
M  V30 6493 C 632.247 -2.87667 3.12166 0
M  V30 6494 C 630.154 -2.37676 5.41538 0
M  V30 6495 H 629.084 -0.440293 0.612093 0
M  V30 6496 H 631.735 -0.435431 1.78259 0
M  V30 6497 H 630.117 -2.8969 2.69992 0
M  V30 6498 H 631.291 -0.718564 4.55163 0
M  V30 6499 H 629.606 -0.805118 4.08542 0
M  V30 6500 H 632.203 -3.58395 3.96808 0
M  V30 6501 H 632.546 -3.49758 2.25776 0
M  V30 6502 H 633.079 -2.17863 3.32837 0
M  V30 6503 H 629.818 -1.80255 6.30229 0
M  V30 6504 H 629.338 -3.07132 5.15199 0
M  V30 6505 H 631.017 -2.98529 5.74012 0
M  V30 6506 N 631.149 -1.42148 -0.680565 0
M  V30 6507 C 632.112 -1.4488 -1.77602 0
M  V30 6508 C 633.112 -0.337209 -1.57224 0
M  V30 6509 O 634.302 -0.597778 -1.63622 0
M  V30 6510 C 631.434 -1.27483 -3.16166 0
M  V30 6511 H 632.627 -2.42412 -1.76568 0
M  V30 6512 H 630.18 -1.28511 -0.889645 0
M  V30 6513 H 630.915 -0.30851 -3.22829 0
M  V30 6514 H 630.7 -2.08037 -3.3236 0
M  V30 6515 H 632.19 -1.32265 -3.96101 0
M  V30 6516 N 632.627 0.916307 -1.28225 0
M  V30 6517 C 633.867 1.67964 -1.16479 0
M  V30 6518 C 634.231 1.8991 0.282494 0
M  V30 6519 O 635.432 2.63671 0.522607 0
M  V30 6520 C 633.703 3.00251 -1.93866 0
M  V30 6521 S 635.262 3.91353 -1.98465 0
M  V30 6522 H 632.08 0.576873 -0.415619 0
M  V30 6523 H 634.682 1.09006 -1.62289 0
M  V30 6524 H 633.386 2.81978 -2.98189 0
M  V30 6525 H 632.917 3.64257 -1.48595 0
M  V30 6526 H 634.932 4.84096 -1.0893 0
M  V30 6527 N 634.105 1.10431 1.1244 0
M  V30 6528 C 635.354 0.841539 1.83306 0
M  V30 6529 C 635.667 -0.634961 1.85007 0
M  V30 6530 O 636.873 -1.01363 2.51869 0
M  V30 6531 C 635.329 1.45565 3.29149 0
M  V30 6532 C 634.937 2.96544 3.35806 0
M  V30 6533 C 636.681 1.27227 4.04986 0
M  V30 6534 C 634.588 3.5099 4.75983 0
M  V30 6535 H 633.518 0.311156 0.686803 0
M  V30 6536 H 636.169 1.32829 1.26604 0
M  V30 6537 H 634.551 0.896574 3.85717 0
M  V30 6538 H 635.725 3.58766 2.89177 0
M  V30 6539 H 634.04 3.14036 2.73442 0
M  V30 6540 H 636.637 1.65348 5.08492 0
M  V30 6541 H 636.98 0.213834 4.1575 0
M  V30 6542 H 637.513 1.79941 3.54776 0
M  V30 6543 H 634.252 4.56499 4.70413 0
M  V30 6544 H 633.772 2.93535 5.23065 0
M  V30 6545 H 635.451 3.48808 5.44924 0
M  V30 6546 N 635.583 -1.29855 0.893053 0
M  V30 6547 C 636.832 -1.95104 0.511597 0
M  V30 6548 C 637.145 -1.71226 -0.945567 0
M  V30 6549 O 638.351 -2.30525 -1.43424 0
M  V30 6550 C 636.807 -3.49374 0.864034 0
M  V30 6551 C 636.415 -3.82061 2.33952 0
M  V30 6552 C 638.159 -4.20894 0.552167 0
M  V30 6553 C 636.066 -5.29546 2.63316 0
M  V30 6554 H 634.996 -0.73029 0.187597 0
M  V30 6555 H 637.647 -1.47682 1.08914 0
M  V30 6556 H 636.029 -3.95413 0.215493 0
M  V30 6557 H 637.203 -3.46904 3.03305 0
M  V30 6558 H 635.518 -3.23665 2.61973 0
M  V30 6559 H 638.115 -5.29435 0.748489 0
M  V30 6560 H 638.458 -4.13178 -0.508924 0
M  V30 6561 H 638.991 -3.80564 1.15825 0
M  V30 6562 H 635.73 -5.4232 3.68197 0
M  V30 6563 H 635.25 -5.65974 1.9858 0
M  V30 6564 H 636.929 -5.97068 2.49236 0
M  V30 6565 N 637.061 -0.65484 -1.43351 0
M  V30 6566 C 638.309 -0.168559 -2.01396 0
M  V30 6567 C 638.63 1.22235 -1.51933 0
M  V30 6568 O 637.9 1.81685 -0.732627 0
M  V30 6569 H 636.48 -0.0593244 -0.744641 0
M  V30 6570 H 639.142 -0.846871 -1.75539 0
M  V30 6571 H 638.238 -0.154428 -3.11718 0
M  V30 6572 N 638.539 1.52521 -0.396863 0
M  V30 6573 C 639.502 2.2527 0.422604 0
M  V30 6574 C 640.502 1.27184 0.983913 0
M  V30 6575 O 641.692 1.51222 0.864723 0
M  V30 6576 C 638.824 3.01356 1.59365 0
M  V30 6577 H 640.017 2.99133 -0.214416 0
M  V30 6578 H 637.57 1.55587 -0.149128 0
M  V30 6579 H 638.305 2.31813 2.26789 0
M  V30 6580 H 638.09 3.73357 1.19779 0
M  V30 6581 H 639.58 3.56571 2.17363 0
M  V30 6582 N 640.017 0.126909 1.57088 0
M  V30 6583 C 640.947 -0.816847 2.18746 0
M  V30 6584 C 641.928 -1.27161 1.12979 0
M  V30 6585 O 643.113 -1.33279 1.41246 0
M  V30 6586 C 640.243 -2.06398 2.79315 0
M  V30 6587 C 639.197 -1.74673 3.90735 0
M  V30 6588 C 638.523 -3.06482 4.38147 0
M  V30 6589 C 639.823 -1.0089 5.12463 0
M  V30 6590 H 641.517 -0.303032 2.97863 0
M  V30 6591 H 639.063 -0.144314 1.43275 0
M  V30 6592 H 641.016 -2.72885 3.2111 0
M  V30 6593 H 639.74 -2.60118 1.975 0
M  V30 6594 H 638.399 -1.10572 3.49527 0
M  V30 6595 H 638.047 -3.58152 3.5318 0
M  V30 6596 H 637.747 -2.86025 5.13287 0
M  V30 6597 H 639.271 -3.74073 4.82599 0
M  V30 6598 H 640.685 -1.57546 5.51228 0
M  V30 6599 H 639.082 -0.905006 5.93237 0
M  V30 6600 H 640.152 0.00297335 4.849 0
M  V30 6601 N 641.495 -1.56914 -0.146875 0
M  V30 6602 C 642.723 -1.87515 -0.874394 0
M  V30 6603 C 643.138 -0.715116 -1.74733 0
M  V30 6604 O 642.495 0.315113 -1.79759 0
M  V30 6605 C 642.546 -3.17362 -1.731 0
M  V30 6606 O 642.267 -4.28897 -0.893245 0
M  V30 6607 C 643.768 -3.61479 -2.56609 0
M  V30 6608 H 640.988 -0.621546 -0.252827 0
M  V30 6609 H 643.532 -2.04023 -0.139627 0
M  V30 6610 H 641.687 -3.02608 -2.41883 0
M  V30 6611 H 642.101 -5.03146 -1.48137 0
M  V30 6612 H 643.575 -4.5517 -3.12289 0
M  V30 6613 H 644.052 -2.86773 -3.32653 0
M  V30 6614 H 644.658 -3.78927 -1.93117 0
M  V30 6615 N 642.974 0.416227 -1.52004 0
M  V30 6616 C 643.904 1.51365 -1.77795 0
M  V30 6617 C 644.885 1.58059 -0.628601 0
M  V30 6618 O 646.07 1.73447 -0.873478 0
M  V30 6619 C 643.2 2.89256 -1.92219 0
M  V30 6620 C 642.154 2.97415 -3.0778 0
M  V30 6621 C 641.48 4.37492 -3.07417 0
M  V30 6622 C 642.78 2.69551 -4.47369 0
M  V30 6623 H 644.474 1.30033 -2.69688 0
M  V30 6624 H 642.02 0.624112 -1.29772 0
M  V30 6625 H 643.973 3.66008 -2.08845 0
M  V30 6626 H 642.697 3.11866 -0.969917 0
M  V30 6627 H 641.356 2.23107 -2.90893 0
M  V30 6628 H 641.004 4.571 -2.09925 0
M  V30 6629 H 640.704 4.43877 -3.85029 0
M  V30 6630 H 642.228 5.16188 -3.26162 0
M  V30 6631 H 643.642 3.36028 -4.64497 0
M  V30 6632 H 642.039 2.87321 -5.26846 0
M  V30 6633 H 643.109 1.65029 -4.55953 0
M  V30 6634 N 644.452 1.42507 0.673017 0
M  V30 6635 C 645.699 1.43072 1.43306 0
M  V30 6636 C 646.027 0.0478004 1.94441 0
M  V30 6637 O 645.282 -0.944106 1.71421 0
M  V30 6638 C 645.581 2.40351 2.64511 0
M  V30 6639 C 645.247 3.8669 2.31908 0
M  V30 6640 C 643.909 4.26551 2.22728 0
M  V30 6641 C 646.261 4.78991 2.05467 0
M  V30 6642 C 643.589 5.56691 1.85234 0
M  V30 6643 C 645.941 6.09476 1.69477 0
M  V30 6644 C 644.605 6.48334 1.58808 0
M  V30 6645 H 643.875 0.523536 0.524395 0
M  V30 6646 H 646.522 1.75459 0.76723 0
M  V30 6647 H 644.827 2.01297 3.36135 0
M  V30 6648 H 646.524 2.38051 3.22696 0
M  V30 6649 H 643.114 3.55132 2.39956 0
M  V30 6650 H 647.298 4.48982 2.11492 0
M  V30 6651 H 642.554 5.85657 1.75545 0
M  V30 6652 H 646.728 6.80482 1.48043 0
M  V30 6653 H 644.355 7.49084 1.29525 0
M  V30 6654 N 645.93 -0.909495 1.28709 0
M  V30 6655 C 647.155 -1.69801 1.1909 0
M  V30 6656 C 647.58 -1.86479 -0.246388 0
M  V30 6657 O 646.938 -1.37802 -1.17815 0
M  V30 6658 C 646.986 -3.06543 1.89904 0
M  V30 6659 O 646.09 -3.94268 1.2094 0
M  V30 6660 H 645.431 -0.519783 0.413185 0
M  V30 6661 H 647.961 -1.13689 1.70106 0
M  V30 6662 H 647.971 -3.56748 1.97977 0
M  V30 6663 H 646.646 -2.93722 2.94449 0
M  V30 6664 H 645.223 -3.52702 1.2106 0
M  V30 6665 N 647.408 -1.11026 -1.11852 0
M  V30 6666 C 648.656 -0.854769 -1.83134 0
M  V30 6667 C 648.977 0.621375 -1.84835 0
M  V30 6668 O 648.247 1.45129 -1.31584 0
M  V30 6669 H 646.827 -0.313229 -0.678157 0
M  V30 6670 H 649.489 -1.40178 -1.35411 0
M  V30 6671 H 648.585 -1.22311 -2.87135 0
M  V30 6672 N 648.886 1.2938 -0.899927 0
M  V30 6673 C 650.297 1.77644 -0.574427 0
M  V30 6674 C 650.648 1.73824 0.909928 0
M  V30 6675 O 649.773 1.32429 1.71147 0
M  V30 6676 C 650.368 3.22573 -1.03595 0
M  V30 6677 C 648.927 3.68614 -0.76161 0
M  V30 6678 C 648.074 2.49483 -1.21052 0
M  V30 6679 H 651.025 1.16038 -1.08263 0
M  V30 6680 H 651.046 3.78684 -0.371337 0
M  V30 6681 H 650.558 3.25321 -2.11631 0
M  V30 6682 H 648.659 3.7134 0.306127 0
M  V30 6683 H 648.772 4.59402 -1.35965 0
M  V30 6684 H 647.136 2.46798 -0.629515 0
M  V30 6685 H 647.919 2.54959 -2.29893 0
M  V30 6686 N 650.364 0.662433 1.43002 0
M  V30 6687 C 651.592 0.187615 2.06048 0
M  V30 6688 C 652.007 -1.15039 1.49705 0
M  V30 6689 O 651.364 -1.71209 0.631956 0
M  V30 6690 C 651.415 0.100498 3.6136 0
M  V30 6691 O 651.136 1.38562 4.15611 0
M  V30 6692 C 652.637 -0.399298 4.41498 0
M  V30 6693 H 649.857 0.0941675 0.664359 0
M  V30 6694 H 652.401 0.905681 1.83351 0
M  V30 6695 H 650.556 -0.568181 3.83211 0
M  V30 6696 H 650.97 1.25084 5.09366 0
M  V30 6697 H 652.444 -0.409187 5.50481 0
M  V30 6698 H 652.921 -1.43232 4.15188 0
M  V30 6699 H 653.527 0.23721 4.24638 0
M  V30 6700 N 651.842 -1.52309 0.404946 0
M  V30 6701 C 653.09 -2.01368 -0.17186 0
M  V30 6702 C 653.411 -1.29261 -1.46002 0
M  V30 6703 O 652.681 -0.41729 -1.91404 0
M  V30 6704 H 651.261 -0.744034 -0.0664993 0
M  V30 6705 H 653.923 -1.87263 0.540228 0
M  V30 6706 H 653.019 -3.09888 -0.370957 0
M  V30 6707 N 653.32 -0.135238 -1.57019 0
M  V30 6708 C 654.569 0.518694 -1.94917 0
M  V30 6709 C 654.882 1.66783 -1.0219 0
M  V30 6710 O 656.088 2.38561 -1.29619 0
M  V30 6711 C 654.544 0.974123 -3.46466 0
M  V30 6712 C 654.152 -0.147439 -4.47757 0
M  V30 6713 C 655.896 1.59851 -3.93253 0
M  V30 6714 C 653.803 0.325599 -5.90503 0
M  V30 6715 H 652.733 0.19754 -0.727663 0
M  V30 6716 H 655.384 -0.217698 -1.82204 0
M  V30 6717 H 653.766 1.76542 -3.5447 0
M  V30 6718 H 654.94 -0.924122 -4.51438 0
M  V30 6719 H 653.255 -0.679496 -4.10818 0
M  V30 6720 H 655.852 1.96385 -4.9733 0
M  V30 6721 H 656.195 2.48306 -3.3414 0
M  V30 6722 H 656.728 0.872323 -3.88118 0
M  V30 6723 H 653.467 -0.523295 -6.53408 0
M  V30 6724 H 652.987 1.06841 -5.90208 0
M  V30 6725 H 654.666 0.781498 -6.42263 0
M  V30 6726 N 654.798 1.5699 0.138552 0
M  V30 6727 C 655.761 1.97984 1.15478 0
M  V30 6728 C 656.761 0.867416 1.35398 0
M  V30 6729 O 657.951 1.13387 1.32246 0
M  V30 6730 C 655.083 2.3031 2.51337 0
M  V30 6731 H 656.276 2.88953 0.802896 0
M  V30 6732 H 653.829 1.51555 0.382189 0
M  V30 6733 H 654.564 1.42159 2.91481 0
M  V30 6734 H 654.349 3.11425 2.38237 0
M  V30 6735 H 655.839 2.62834 3.24512 0
M  V30 6736 N 656.276 -0.40816 1.52223 0
M  V30 6737 C 657.501 -1.18127 1.70472 0
M  V30 6738 C 657.926 -1.83491 0.41384 0
M  V30 6739 O 657.284 -1.70047 -0.628778 0
M  V30 6740 C 657.332 -2.21935 2.84213 0
M  V30 6741 O 656.436 -3.28099 2.4985 0
M  V30 6742 H 655.777 -0.344781 0.56747 0
M  V30 6743 H 658.307 -0.478328 1.9893 0
M  V30 6744 H 658.317 -2.66248 3.09153 0
M  V30 6745 H 656.992 -1.73744 3.7787 0
M  V30 6746 H 655.569 -2.89058 2.35584 0
M  V30 6747 N 657.755 -1.42862 -0.66545 0
M  V30 6748 C 659.004 -1.43119 -1.42126 0
M  V30 6749 C 659.317 -0.0545297 -1.95524 0
M  V30 6750 O 660.523 0.0654747 -2.71421 0
M  V30 6751 C 658.979 -2.51797 -2.5715 0
M  V30 6752 C 658.587 -3.95514 -2.10411 0
M  V30 6753 C 660.331 -2.61233 -3.346 0
M  V30 6754 C 658.238 -4.95682 -3.22573 0
M  V30 6755 H 657.168 -0.532349 -0.533966 0
M  V30 6756 H 659.819 -1.68806 -0.719506 0
M  V30 6757 H 658.201 -2.19292 -3.29738 0
M  V30 6758 H 659.375 -4.3742 -1.44915 0
M  V30 6759 H 657.69 -3.90012 -1.45874 0
M  V30 6760 H 660.287 -3.33248 -4.18151 0
M  V30 6761 H 660.63 -1.65896 -3.81817 0
M  V30 6762 H 661.163 -2.9298 -2.69087 0
M  V30 6763 H 657.902 -5.92529 -2.80338 0
M  V30 6764 H 657.422 -4.58399 -3.86821 0
M  V30 6765 H 659.101 -5.17828 -3.87896 0
M  V30 6766 N 659.233 0.902656 -1.29189 0
M  V30 6767 C 660.481 1.6496 -1.16758 0
M  V30 6768 C 660.802 1.92952 0.28188 0
M  V30 6769 O 660.072 1.55351 1.19344 0
M  V30 6770 H 658.652 0.611447 -0.429118 0
M  V30 6771 H 661.314 1.0825 -1.62074 0
M  V30 6772 H 660.41 2.60728 -1.71544 0
M  V30 6773 N 660.711 1.11618 1.11262 0
M  V30 6774 C 661.674 0.779447 2.15539 0
M  V30 6775 C 662.674 -0.202081 1.59525 0
M  V30 6776 O 663.864 0.0226356 1.74185 0
M  V30 6777 C 660.996 0.15674 3.40539 0
M  V30 6778 H 662.189 1.70324 2.4684 0
M  V30 6779 H 659.742 0.918298 1.26479 0
M  V30 6780 H 660.477 -0.777186 3.1485 0
M  V30 6781 H 660.262 0.863308 3.82478 0
M  V30 6782 H 661.752 -0.062661 4.17553 0
M  V30 6783 N 662.189 -1.289 0.906776 0
M  V30 6784 C 663.119 -2.29932 0.406659 0
M  V30 6785 C 664.1 -1.6189 -0.522061 0
M  V30 6786 O 665.285 -1.8935 -0.431283 0
M  V30 6787 C 662.415 -3.45425 -0.360366 0
M  V30 6788 C 661.369 -4.25316 0.478574 0
M  V30 6789 C 660.695 -5.33076 -0.416373 0
M  V30 6790 C 661.995 -4.92739 1.7322 0
M  V30 6791 H 663.689 -2.72013 1.25097 0
M  V30 6792 H 661.235 -1.30768 0.602977 0
M  V30 6793 H 663.188 -4.15186 -0.721029 0
M  V30 6794 H 661.912 -3.02206 -1.23852 0
M  V30 6795 H 660.571 -3.57273 0.821662 0
M  V30 6796 H 660.219 -4.86101 -1.29287 0
M  V30 6797 H 659.919 -5.8743 0.141309 0
M  V30 6798 H 661.443 -6.05686 -0.773072 0
M  V30 6799 H 662.857 -5.54898 1.44086 0
M  V30 6800 H 661.254 -5.57057 2.23175 0
M  V30 6801 H 662.324 -4.17625 2.46408 0
M  V30 6802 N 663.667 -0.670007 -1.42649 0
M  V30 6803 C 664.597 -0.00258501 -2.335 0
M  V30 6804 C 665.578 0.794364 -1.50412 0
M  V30 6805 O 666.763 0.75248 -1.79029 0
M  V30 6806 C 663.893 0.952748 -3.33976 0
M  V30 6807 C 662.847 0.264733 -4.2718 0
M  V30 6808 C 662.173 1.33267 -5.17826 0
M  V30 6809 C 663.473 -0.853289 -5.15283 0
M  V30 6810 H 665.167 -0.761326 -2.89559 0
M  V30 6811 H 662.713 -0.367561 -1.3923 0
M  V30 6812 H 664.666 1.4287 -3.96442 0
M  V30 6813 H 663.39 1.74285 -2.7621 0
M  V30 6814 H 662.049 -0.190938 -3.66102 0
M  V30 6815 H 661.697 2.11464 -4.5639 0
M  V30 6816 H 661.397 0.877476 -5.81011 0
M  V30 6817 H 662.921 1.80965 -5.83167 0
M  V30 6818 H 664.335 -0.458763 -5.71462 0
M  V30 6819 H 662.732 -1.23398 -5.87276 0
M  V30 6820 H 663.802 -1.70412 -4.53969 0
M  V30 6821 N 665.145 1.52092 -0.413018 0
M  V30 6822 C 666.391 2.02154 0.161737 0
M  V30 6823 C 666.724 1.29789 1.44459 0
M  V30 6824 O 665.999 0.405378 1.90229 0
M  V30 6825 C 666.282 3.5781 0.405463 0
M  V30 6826 C 666.135 4.40819 -0.894335 0
M  V30 6827 C 667.454 4.23821 1.18591 0
M  V30 6828 H 664.573 0.734769 0.0573077 0
M  V30 6829 H 667.215 1.81948 -0.547247 0
M  V30 6830 H 665.365 3.75158 1.0094 0
M  V30 6831 H 667.037 4.35175 -1.53039 0
M  V30 6832 H 665.28 4.06877 -1.50444 0
M  V30 6833 H 665.951 5.47819 -0.678144 0
M  V30 6834 H 668.427 4.10596 0.674573 0
M  V30 6835 H 667.303 5.32663 1.3252 0
M  V30 6836 H 667.564 3.83038 2.20758 0
M  V30 6837 N 666.623 0.143563 1.56945 0
M  V30 6838 C 667.586 -0.783295 2.154 0
M  V30 6839 C 668.586 -1.17763 1.09492 0
M  V30 6840 O 669.776 -1.09912 1.35148 0
M  V30 6841 C 666.908 -2.06248 2.7143 0
M  V30 6842 H 668.101 -0.274863 2.98638 0
M  V30 6843 H 665.654 -0.105859 1.55941 0
M  V30 6844 H 666.389 -2.61466 1.91849 0
M  V30 6845 H 666.174 -1.78897 3.4891 0
M  V30 6846 H 667.664 -2.72453 3.16479 0
M  V30 6847 N 668.101 -1.57061 -0.130224 0
M  V30 6848 C 669.35 -1.83446 -0.838488 0
M  V30 6849 C 669.663 -0.727468 -1.81569 0
M  V30 6850 O 670.869 -0.877394 -2.56932 0
M  V30 6851 C 669.325 -3.25201 -1.54182 0
M  V30 6852 C 668.933 -4.4388 -0.606178 0
M  V30 6853 C 670.677 -3.60844 -2.23588 0
M  V30 6854 C 668.584 -5.76661 -1.31209 0
M  V30 6855 H 667.514 -0.684185 -0.316871 0
M  V30 6856 H 670.165 -1.83273 -0.0912059 0
M  V30 6857 H 668.547 -3.1981 -2.33533 0
M  V30 6858 H 669.721 -4.60545 0.153308 0
M  V30 6859 H 668.036 -4.16395 -0.0196705 0
M  V30 6860 H 670.633 -4.57313 -2.77072 0
M  V30 6861 H 670.976 -2.87724 -3.00867 0
M  V30 6862 H 671.509 -3.67971 -1.51137 0
M  V30 6863 H 668.248 -6.52922 -0.580823 0
M  V30 6864 H 667.768 -5.63902 -2.04387 0
M  V30 6865 H 669.447 -6.20035 -1.8484 0
M  V30 6866 N 669.579 0.400081 -1.52437 0
M  V30 6867 C 670.827 1.14392 -1.6661 0
M  V30 6868 C 671.148 1.90792 -0.402927 0
M  V30 6869 O 670.418 1.87042 0.582425 0
M  V30 6870 H 668.998 0.425275 -0.614125 0
M  V30 6871 H 671.66 0.455076 -1.89513 0
M  V30 6872 H 670.756 1.85298 -2.51139 0
M  V30 6873 N 671.057 1.43213 0.657864 0
M  V30 6874 C 672.468 1.39669 1.23893 0
M  V30 6875 C 672.819 0.0984217 1.95953 0
M  V30 6876 O 671.944 -0.8023 2.00978 0
M  V30 6877 C 672.539 2.53004 2.25332 0
M  V30 6878 C 671.098 2.5274 2.78926 0
M  V30 6879 C 670.245 2.30941 1.53497 0
M  V30 6880 H 673.196 1.52181 0.450172 0
M  V30 6881 H 673.217 2.24226 3.07413 0
M  V30 6882 H 672.729 3.4748 1.72856 0
M  V30 6883 H 670.83 1.6213 3.35477 0
M  V30 6884 H 670.943 3.50352 3.26787 0
M  V30 6885 H 669.307 1.7952 1.80678 0
M  V30 6886 H 670.09 3.27496 1.02963 0
M  V30 6887 N 672.536 -0.895792 1.29666 0
M  V30 6888 C 673.466 -2.01673 1.17688 0
M  V30 6889 C 674.447 -1.69955 0.0701317 0
M  V30 6890 O 675.632 -1.9258 0.250289 0
M  V30 6891 C 672.762 -3.36568 0.856681 0
M  V30 6892 C 671.716 -3.82509 1.92017 0
M  V30 6893 C 671.042 -5.14574 1.4532 0
M  V30 6894 C 672.342 -4.02409 3.32963 0
M  V30 6895 H 674.036 -2.11953 2.11463 0
M  V30 6896 H 671.582 -1.01839 1.01807 0
M  V30 6897 H 673.535 -4.14498 0.759577 0
M  V30 6898 H 672.259 -3.26391 -0.116763 0
M  V30 6899 H 670.918 -3.068 2.00673 0
M  V30 6900 H 670.566 -5.00815 0.468325 0
M  V30 6901 H 670.266 -5.46283 2.16447 0
M  V30 6902 H 671.79 -5.9504 1.36968 0
M  V30 6903 H 673.204 -4.70808 3.27127 0
M  V30 6904 H 671.601 -4.45478 4.02082 0
M  V30 6905 H 672.671 -3.06616 3.75652 0
M  V30 6906 N 674.014 -1.12206 -1.10668 0
M  V30 6907 C 675.43 -0.857619 -1.346 0
M  V30 6908 C 675.63 0.513542 -1.94846 0
M  V30 6909 O 674.686 1.26273 -2.18658 0
M  V30 6910 C 675.999 -1.97212 -2.26998 0
M  V30 6911 C 677.547 -2.00272 -2.40542 0
M  V30 6912 C 678.022 -3.10948 -3.36267 0
M  V30 6913 N 679.513 -3.10375 -3.43834 0
M  V30 6914 C 680.248 -3.92651 -4.17867 0
M  V30 6915 N 679.744 -4.84911 -4.94807 0
M  V30 6916 N 681.537 -3.80798 -4.1346 0
M  V30 6917 H 673.688 -2.00558 -0.699306 0
M  V30 6918 H 675.951 -0.872612 -0.370477 0
M  V30 6919 H 675.657 -2.96002 -1.89936 0
M  V30 6920 H 675.531 -1.87521 -3.27286 0
M  V30 6921 H 677.918 -1.02103 -2.76874 0
M  V30 6922 H 677.999 -2.14037 -1.40077 0
M  V30 6923 H 677.643 -4.09348 -3.00661 0
M  V30 6924 H 677.573 -2.94421 -4.36605 0
M  V30 6925 H 680.064 -2.43536 -2.88961 0
M  V30 6926 H 680.377 -5.44207 -5.48688 0
M  V30 6927 H 678.722 -4.88926 -4.93939 0
M  V30 6928 H 681.913 -3.08058 -3.52445 0
M  V30 6929 H 682.086 -4.4515 -4.70898 0
M  V30 6930 N 675.492 1.28418 -0.913599 0
M  V30 6931 C 676.72 1.99106 -0.562536 0
M  V30 6932 C 677.135 1.68273 0.856137 0
M  V30 6933 O 676.492 0.935401 1.56705 0
M  V30 6934 C 676.543 3.5338 -0.761903 0
M  V30 6935 O 676.264 3.83127 -2.12475 0
M  V30 6936 C 677.765 4.41328 -0.417651 0
M  V30 6937 H 674.985 0.635798 -0.214481 0
M  V30 6938 H 677.529 1.63618 -1.22676 0
M  V30 6939 H 675.684 3.8713 -0.144676 0
M  V30 6940 H 676.098 4.77763 -2.16431 0
M  V30 6941 H 677.572 5.48642 -0.607919 0
M  V30 6942 H 678.049 4.34422 0.646108 0
M  V30 6943 H 678.655 4.13074 -1.01241 0
M  V30 6944 N 676.97 0.677563 1.42291 0
M  V30 6945 C 678.219 0.198173 2.00724 0
M  V30 6946 C 678.532 -1.20325 1.54211 0
M  V30 6947 O 679.738 -1.77916 2.05081 0
M  V30 6948 C 678.194 0.303432 3.58619 0
M  V30 6949 C 677.802 1.70909 4.14119 0
M  V30 6950 C 679.546 -0.117103 4.24338 0
M  V30 6951 C 677.453 1.76696 5.64387 0
M  V30 6952 H 676.383 0.070329 0.750713 0
M  V30 6953 H 679.034 0.843147 1.62982 0
M  V30 6954 H 677.416 -0.409482 3.93877 0
M  V30 6955 H 678.59 2.44931 3.90315 0
M  V30 6956 H 676.905 2.07771 3.6086 0
M  V30 6957 H 679.502 -0.0940471 5.34617 0
M  V30 6958 H 679.845 -1.15283 4.00019 0
M  V30 6959 H 680.378 0.5449 3.9405 0
M  V30 6960 H 677.117 2.7826 5.93508 0
M  V30 6961 H 676.637 1.07034 5.90173 0
M  V30 6962 H 678.316 1.52166 6.28852 0
M  V30 6963 N 678.448 -1.51871 0.421078 0
M  V30 6964 C 679.378 -2.30231 -0.389363 0
M  V30 6965 C 680.359 -1.34946 -1.03555 0
M  V30 6966 O 681.544 -1.63859 -1.04229 0
M  V30 6967 C 678.674 -3.13247 -1.49979 0
M  V30 6968 C 677.628 -4.16677 -0.977966 0
M  V30 6969 C 676.954 -4.88112 -2.1829 0
M  V30 6970 C 678.254 -5.22295 -0.0236775 0
M  V30 6971 H 679.948 -2.98229 0.264524 0
M  V30 6972 H 677.494 -1.43424 0.12866 0
M  V30 6973 H 679.447 -3.66838 -2.07383 0
M  V30 6974 H 678.171 -2.4304 -2.18173 0
M  V30 6975 H 676.83 -3.64114 -0.426245 0
M  V30 6976 H 676.478 -4.14423 -2.85066 0
M  V30 6977 H 676.178 -5.58041 -1.84021 0
M  V30 6978 H 677.702 -5.44521 -2.76278 0
M  V30 6979 H 679.116 -5.71055 -0.506899 0
M  V30 6980 H 677.513 -5.99656 0.230782 0
M  V30 6981 H 678.583 -4.76131 0.917999 0
M  V30 6982 N 679.926 -0.151884 -1.56866 0
M  V30 6983 C 680.876 0.797799 -2.13586 0
M  V30 6984 C 681.86 1.20613 -1.06496 0
M  V30 6985 O 683.052 1.17173 -1.32663 0
M  V30 6986 C 680.181 2.03493 -2.76488 0
M  V30 6987 C 679.267 1.64948 -3.90708 0
M  V30 6988 N 679.658 0.972513 -4.96363 0
M  V30 6989 C 677.956 1.94186 -4.01507 0
M  V30 6990 C 678.657 0.785661 -5.7637 0
M  V30 6991 N 677.633 1.32105 -5.27304 0
M  V30 6992 H 681.435 0.271403 -2.92644 0
M  V30 6993 H 678.949 0.049487 -1.62325 0
M  V30 6994 H 680.946 2.72532 -3.15487 0
M  V30 6995 H 679.606 2.56646 -1.98904 0
M  V30 6996 H 680.617 0.632724 -5.1402 0
M  V30 6997 H 677.294 2.49154 -3.35005 0
M  V30 6998 H 678.684 0.251749 -6.71428 0
M  V30 6999 N 681.404 1.57128 0.121893 0
M  V30 7000 C 682.82 1.52357 0.47534 0
M  V30 7001 C 683.02 0.864417 1.82017 0
M  V30 7002 O 682.076 0.445529 2.48538 0
M  V30 7003 C 683.389 2.97122 0.4625 0
M  V30 7004 C 684.937 3.08196 0.546255 0
M  V30 7005 C 685.412 4.54516 0.563833 0
M  V30 7006 N 686.903 4.58959 0.625353 0
M  V30 7007 C 687.638 5.69585 0.660354 0
M  V30 7008 N 687.134 6.89714 0.653175 0
M  V30 7009 N 688.927 5.57685 0.703143 0
M  V30 7010 H 681.078 1.98364 -0.75931 0
M  V30 7011 H 683.341 0.905777 -0.279772 0
M  V30 7012 H 683.047 3.48706 -0.457943 0
M  V30 7013 H 682.921 3.54406 1.29136 0
M  V30 7014 H 685.308 2.56617 1.45712 0
M  V30 7015 H 685.389 2.53912 -0.310234 0
M  V30 7016 H 685.033 5.06741 -0.342974 0
M  V30 7017 H 684.963 5.06609 1.43716 0
M  V30 7018 H 687.454 3.72489 0.637182 0
M  V30 7019 H 687.767 7.69781 0.682425 0
M  V30 7020 H 686.112 6.92223 0.620646 0
M  V30 7021 H 689.303 4.62744 0.706095 0
M  V30 7022 H 689.476 6.43909 0.726952 0
M  V30 7023 N 682.882 -0.391992 1.52647 0
M  V30 7024 C 684.298 -0.731848 1.41831 0
M  V30 7025 C 684.498 -1.9423 0.536361 0
M  V30 7026 O 683.554 -2.52499 0.00866571 0
M  V30 7027 C 684.867 -0.969743 2.84634 0
M  V30 7028 C 686.415 -1.0714 2.94092 0
M  V30 7029 C 686.89 -1.34195 4.37899 0
M  V30 7030 N 688.381 -1.41023 4.41211 0
M  V30 7031 C 689.116 -1.63616 5.49561 0
M  V30 7032 N 688.612 -1.83699 6.68002 0
M  V30 7033 N 690.405 -1.65771 5.371 0
M  V30 7034 H 682.556 0.404547 2.08512 0
M  V30 7035 H 684.819 0.11879 0.940528 0
M  V30 7036 H 684.525 -0.152465 3.51369 0
M  V30 7037 H 684.399 -1.88523 3.26709 0
M  V30 7038 H 686.786 -1.87925 2.27526 0
M  V30 7039 H 686.867 -0.133887 2.55449 0
M  V30 7040 H 686.511 -0.539207 5.0503 0
M  V30 7041 H 686.441 -2.29226 4.74092 0
M  V30 7042 H 688.932 -1.27223 3.55841 0
M  V30 7043 H 689.245 -2.00437 7.46354 0
M  V30 7044 H 687.59 -1.8093 6.71036 0
M  V30 7045 H 690.781 -1.4963 4.43541 0
M  V30 7046 H 690.954 -1.83038 6.21612 0
M  V30 7047 N 684.36 -1.4356 -0.65026 0
M  V30 7048 C 685.585 -1.48995 -1.44275 0
M  V30 7049 C 686.01 -0.109954 -1.87778 0
M  V30 7050 O 685.368 0.896926 -1.57559 0
M  V30 7051 C 685.416 -2.44341 -2.65198 0
M  V30 7052 O 684.52 -1.93172 -3.6436 0
M  V30 7053 H 683.861 -0.503852 -0.432469 0
M  V30 7054 H 686.391 -1.88504 -0.795446 0
M  V30 7055 H 686.401 -2.61743 -3.12977 0
M  V30 7056 H 685.076 -3.44588 -2.32877 0
M  V30 7057 H 683.653 -1.85445 -3.23519 0
M  V30 7058 N 685.838 0.888903 -1.30139 0
M  V30 7059 C 687.254 1.17153 -1.08385 0
M  V30 7060 C 687.454 2.0088 0.157925 0
M  V30 7061 O 686.51 2.37668 0.852652 0
M  V30 7062 C 687.823 1.882 -2.34523 0
M  V30 7063 C 689.371 2.00981 -2.39949 0
M  V30 7064 C 689.846 2.75441 -3.65918 0
M  V30 7065 N 691.337 2.82989 -3.66704 0
M  V30 7066 C 692.072 3.41167 -4.60861 0
M  V30 7067 N 691.568 4.00425 -5.6536 0
M  V30 7068 N 693.361 3.38944 -4.48412 0
M  V30 7069 H 685.512 0.33053 -2.09812 0
M  V30 7070 H 687.775 0.208964 -0.924683 0
M  V30 7071 H 687.481 1.34119 -3.25123 0
M  V30 7072 H 687.355 2.88609 -2.42868 0
M  V30 7073 H 689.742 2.54234 -1.4983 0
M  V30 7074 H 689.823 0.996725 -2.35582 0
M  V30 7075 H 689.467 2.22861 -4.56394 0
M  V30 7076 H 689.397 3.77118 -3.67546 0
M  V30 7077 H 691.888 2.40912 -2.91153 0
M  V30 7078 H 692.201 4.42871 -6.33313 0
M  V30 7079 H 690.546 3.98856 -5.69157 0
M  V30 7080 H 693.737 2.91875 -3.6596 0
M  V30 7081 H 693.91 3.83989 -5.21974 0
M  V30 7082 N 687.317 1.12792 1.10072 0
M  V30 7083 C 688.733 0.864745 1.34143 0
M  V30 7084 C 688.933 -0.503201 1.95116 0
M  V30 7085 O 687.989 -1.25111 2.19325 0
M  V30 7086 C 689.302 1.98413 2.25949 0
M  V30 7087 C 690.85 2.01545 2.39476 0
M  V30 7088 C 691.325 3.12727 3.34613 0
M  V30 7089 N 692.816 3.12194 3.42183 0
M  V30 7090 C 693.551 3.94862 4.15779 0
M  V30 7091 N 693.047 4.87528 4.92228 0
M  V30 7092 N 694.84 3.82985 4.11435 0
M  V30 7093 H 686.991 2.00926 0.68866 0
M  V30 7094 H 689.254 0.874564 0.365844 0
M  V30 7095 H 688.96 2.97005 1.88364 0
M  V30 7096 H 688.834 1.89254 3.26287 0
M  V30 7097 H 691.221 1.0357 2.76328 0
M  V30 7098 H 691.302 2.14777 1.3894 0
M  V30 7099 H 690.946 4.10936 2.98486 0
M  V30 7100 H 690.876 2.96732 4.35037 0
M  V30 7101 H 693.367 2.45065 2.87666 0
M  V30 7102 H 693.68 5.47109 5.45794 0
M  V30 7103 H 692.025 4.91539 4.9134 0
M  V30 7104 H 695.216 3.09923 3.50807 0
M  V30 7105 H 695.389 4.47641 4.68531 0
M  V30 7106 N 688.795 -1.27931 0.920396 0
M  V30 7107 C 690.042 -1.94689 0.557007 0
M  V30 7108 C 690.37 -1.724 -0.900476 0
M  V30 7109 O 689.625 -1.04194 -1.65657 0
M  V30 7110 C 689.924 -3.47853 0.820558 0
M  V30 7111 C 689.59 -3.90252 2.25863 0
M  V30 7112 C 688.252 -4.01539 2.65179 0
M  V30 7113 C 690.604 -4.11853 3.19415 0
M  V30 7114 C 687.932 -4.3181 3.97187 0
M  V30 7115 C 690.284 -4.43606 4.50995 0
M  V30 7116 C 688.948 -4.53105 4.90155 0
M  V30 7117 H 688.218 -0.712416 0.203823 0
M  V30 7118 H 690.865 -1.52142 1.16298 0
M  V30 7119 H 689.17 -3.91578 0.131844 0
M  V30 7120 H 690.867 -3.97634 0.51847 0
M  V30 7121 H 687.457 -3.81999 1.94358 0
M  V30 7122 H 691.641 -4.0258 2.90246 0
M  V30 7123 H 686.897 -4.37371 4.2722 0
M  V30 7124 H 691.071 -4.59268 5.23494 0
M  V30 7125 H 688.698 -4.76315 5.92476 0
M  V30 7126 N 690.273 -0.685099 -1.4193 0
M  V30 7127 C 691.521 -0.21124 -2.00993 0
M  V30 7128 C 691.842 1.18985 -1.54491 0
M  V30 7129 O 691.112 1.8009 -0.771 0
M  V30 7130 H 689.692 -0.0751059 -0.743215 0
M  V30 7131 H 692.354 -0.883915 -1.73704 0
M  V30 7132 H 691.45 -0.220513 -3.1132 0
M  V30 7133 N 691.751 1.51645 -0.429126 0
M  V30 7134 C 692.997 2.02314 0.140286 0
M  V30 7135 C 693.33 1.31314 1.43074 0
M  V30 7136 O 692.605 0.425531 1.89788 0
M  V30 7137 C 692.888 3.5822 0.36749 0
M  V30 7138 C 692.741 4.39846 -0.941039 0
M  V30 7139 C 694.06 4.25055 1.14089 0
M  V30 7140 H 691.179 0.735335 0.0495112 0
M  V30 7141 H 693.821 1.81358 -0.566514 0
M  V30 7142 H 691.971 3.76207 0.969556 0
M  V30 7143 H 693.643 4.33527 -1.57646 0
M  V30 7144 H 691.886 4.05259 -1.54751 0
M  V30 7145 H 692.557 5.47069 -0.73621 0
M  V30 7146 H 695.033 4.11288 0.630986 0
M  V30 7147 H 693.909 5.34038 1.26863 0
M  V30 7148 H 694.17 3.85358 2.16683 0
M  V30 7149 N 693.229 0.160201 1.56784 0
M  V30 7150 C 694.159 -0.770264 2.2043 0
M  V30 7151 C 695.14 -1.24736 1.15651 0
M  V30 7152 O 696.325 -1.30253 1.44041 0
M  V30 7153 C 693.455 -2.00427 2.83631 0
M  V30 7154 C 692.409 -1.66345 3.94352 0
M  V30 7155 C 691.735 -2.97119 4.4455 0
M  V30 7156 C 693.035 -0.899972 5.14488 0
M  V30 7157 H 694.729 -0.239783 2.98438 0
M  V30 7158 H 692.275 -0.113891 1.43549 0
M  V30 7159 H 694.228 -2.66012 3.26827 0
M  V30 7160 H 692.952 -2.5587 2.02973 0
M  V30 7161 H 691.611 -1.03133 3.51794 0
M  V30 7162 H 691.259 -3.5058 3.60698 0
M  V30 7163 H 690.959 -2.75073 5.19238 0
M  V30 7164 H 692.483 -3.63753 4.90425 0
M  V30 7165 H 693.897 -1.45818 5.54446 0
M  V30 7166 H 692.294 -0.778968 5.95023 0
M  V30 7167 H 693.364 0.105827 4.84785 0
M  V30 7168 N 694.707 -1.5719 -0.113559 0
M  V30 7169 C 696.118 -1.74259 -0.670116 0
M  V30 7170 C 696.469 -0.779694 -1.80042 0
M  V30 7171 O 695.594 0.0461353 -2.16351 0
M  V30 7172 C 696.189 -3.15981 -1.22236 0
M  V30 7173 C 694.748 -3.34537 -1.72516 0
M  V30 7174 C 693.895 -2.70116 -0.627098 0
M  V30 7175 H 696.846 -1.58301 0.112396 0
M  V30 7176 H 696.867 -3.17832 -2.09197 0
M  V30 7177 H 696.379 -3.86038 -0.39949 0
M  V30 7178 H 694.48 -2.6953 -2.57263 0
M  V30 7179 H 694.593 -4.42737 -1.83086 0
M  V30 7180 H 692.957 -2.31501 -1.06204 0
M  V30 7181 H 693.74 -3.42802 0.184889 0
M  V30 7182 N 696.185 0.383891 -1.52853 0
M  V30 7183 C 697.115 1.47559 -1.80965 0
M  V30 7184 C 698.096 1.5669 -0.661986 0
M  V30 7185 O 699.281 1.71556 -0.910072 0
M  V30 7186 C 696.411 2.85114 -1.98312 0
M  V30 7187 C 695.365 2.9082 -3.14019 0
M  V30 7188 C 694.691 4.30873 -3.16627 0
M  V30 7189 C 695.991 2.60001 -4.52986 0
M  V30 7190 H 697.685 1.24283 -2.72386 0
M  V30 7191 H 695.231 0.596445 -1.31067 0
M  V30 7192 H 697.184 3.61496 -2.16561 0
M  V30 7193 H 695.908 3.09738 -1.03585 0
M  V30 7194 H 694.567 2.16886 -2.9556 0
M  V30 7195 H 694.215 4.52545 -2.19573 0
M  V30 7196 H 693.915 4.3561 -3.94357 0
M  V30 7197 H 695.439 5.09154 -3.37038 0
M  V30 7198 H 696.853 3.261 -4.71521 0
M  V30 7199 H 695.25 2.76081 -5.32822 0
M  V30 7200 H 696.32 1.5532 -4.59351 0
M  V30 7201 N 697.663 1.43903 0.642637 0
M  V30 7202 C 698.909 1.46296 1.40447 0
M  V30 7203 C 699.242 0.0908361 1.93987 0
M  V30 7204 O 698.517 -0.889884 1.72949 0
M  V30 7205 C 698.8 2.51399 2.57819 0
M  V30 7206 C 698.653 3.97926 2.09702 0
M  V30 7207 C 699.972 2.53125 3.60022 0
M  V30 7208 H 697.091 0.532676 0.509338 0
M  V30 7209 H 699.733 1.75515 0.727635 0
M  V30 7210 H 697.883 2.26614 3.1556 0
M  V30 7211 H 699.555 4.33804 1.5688 0
M  V30 7212 H 697.798 4.10252 1.40982 0
M  V30 7213 H 698.469 4.67096 2.94152 0
M  V30 7214 H 700.945 2.75242 3.12059 0
M  V30 7215 H 699.821 3.28589 4.39682 0
M  V30 7216 H 700.082 1.56895 4.13324 0
M  V30 7217 N 699.141 -0.881989 1.30609 0
M  V30 7218 C 700.104 -1.96957 1.1722 0
M  V30 7219 C 701.104 -1.60472 0.102598 0
M  V30 7220 O 702.294 -1.70628 0.350943 0
M  V30 7221 C 699.426 -3.31463 0.796572 0
M  V30 7222 H 700.619 -2.10262 2.13846 0
M  V30 7223 H 698.172 -1.06877 1.14048 0
M  V30 7224 H 698.907 -3.23859 -0.169053 0
M  V30 7225 H 698.692 -3.59314 1.56959 0
M  V30 7226 H 700.182 -4.11233 0.72645 0
M  V30 7227 N 700.619 -1.13374 -1.09472 0
M  V30 7228 C 702.03 -0.90801 -1.63132 0
M  V30 7229 C 702.381 0.555576 -1.8817 0
M  V30 7230 O 701.506 1.42218 -1.63104 0
M  V30 7231 C 702.101 -1.64182 -2.96361 0
M  V30 7232 C 700.66 -1.46197 -3.46848 0
M  V30 7233 C 699.807 -1.67134 -2.21273 0
M  V30 7234 H 702.758 -1.2871 -0.928411 0
M  V30 7235 H 702.779 -1.09863 -3.64294 0
M  V30 7236 H 702.291 -2.707 -2.78106 0
M  V30 7237 H 700.392 -0.419788 -3.70228 0
M  V30 7238 H 700.505 -2.22472 -4.24315 0
M  V30 7239 H 698.869 -1.09616 -2.29905 0
M  V30 7240 H 699.652 -2.74971 -2.05538 0
M  V30 7241 N 702.098 1.27442 -0.927168 0
M  V30 7242 C 703.347 1.93679 -0.563146 0
M  V30 7243 C 703.66 1.73673 0.899837 0
M  V30 7244 O 704.866 2.34247 1.37262 0
M  V30 7245 C 703.322 3.46961 -0.95636 0
M  V30 7246 C 702.93 3.75724 -2.43999 0
M  V30 7247 C 704.674 4.19282 -0.663565 0
M  V30 7248 C 702.581 5.22378 -2.77263 0
M  V30 7249 H 701.511 0.725059 -0.206894 0
M  V30 7250 H 704.162 1.44743 -1.12791 0
M  V30 7251 H 702.544 3.94703 -0.320254 0
M  V30 7252 H 703.718 3.38741 -3.12396 0
M  V30 7253 H 702.033 3.16605 -2.70463 0
M  V30 7254 H 704.63 5.27265 -0.888596 0
M  V30 7255 H 704.973 4.14382 0.399198 0
M  V30 7256 H 705.506 3.7736 -1.25875 0
M  V30 7257 H 702.245 5.32367 -3.82446 0
M  V30 7258 H 701.765 5.6051 -2.13516 0
M  V30 7259 H 703.444 5.9025 -2.64979 0
M  V30 7260 N 703.576 0.692616 1.41565 0
M  V30 7261 C 704.506 0.0397325 2.33466 0
M  V30 7262 C 705.487 -0.770334 1.51657 0
M  V30 7263 O 706.672 -0.723903 1.80203 0
M  V30 7264 C 703.802 -0.899495 3.3545 0
M  V30 7265 C 702.756 -0.196738 4.27548 0
M  V30 7266 C 702.082 -1.25012 5.19881 0
M  V30 7267 C 703.382 0.935158 5.1386 0
M  V30 7268 H 705.076 0.807296 2.88311 0
M  V30 7269 H 702.622 0.389665 1.38628 0
M  V30 7270 H 704.575 -1.36545 3.98665 0
M  V30 7271 H 703.299 -1.69869 2.78948 0
M  V30 7272 H 701.958 0.249158 3.65752 0
M  V30 7273 H 701.606 -2.04177 4.59696 0
M  V30 7274 H 701.306 -0.784931 5.82334 0
M  V30 7275 H 702.83 -1.71665 5.85972 0
M  V30 7276 H 704.244 0.549619 5.70659 0
M  V30 7277 H 702.641 1.32726 5.85238 0
M  V30 7278 H 703.711 1.77613 4.512 0
M  V30 7279 N 705.054 -1.51416 0.437162 0
M  V30 7280 C 706.017 -2.26312 -0.362729 0
M  V30 7281 C 707.017 -1.29748 -0.949847 0
M  V30 7282 O 708.207 -1.53462 -0.824325 0
M  V30 7283 C 705.339 -3.05475 -1.5132 0
M  V30 7284 H 706.532 -2.98459 0.29365 0
M  V30 7285 H 704.085 -1.55137 0.190327 0
M  V30 7286 H 704.82 -2.37744 -2.20563 0
M  V30 7287 H 704.605 -3.76401 -1.09838 0
M  V30 7288 H 706.095 -3.62209 -2.07833 0
M  V30 7289 N 706.532 -0.168513 -1.56696 0
M  V30 7290 C 707.495 0.748928 -2.16619 0
M  V30 7291 C 708.495 1.16007 -1.11351 0
M  V30 7292 O 709.685 1.07748 -1.3688 0
M  V30 7293 C 706.817 2.01904 -2.74677 0
M  V30 7294 H 708.01 0.227317 -2.99037 0
M  V30 7295 H 705.563 0.0810372 -1.5609 0
M  V30 7296 H 706.298 2.58381 -1.95985 0
M  V30 7297 H 706.083 1.73323 -3.51712 0
M  V30 7298 H 707.573 2.67383 -3.20774 0
M  V30 7299 N 708.01 1.57248 0.105221 0
M  V30 7300 C 708.973 2.00388 1.11252 0
M  V30 7301 C 709.973 0.89594 1.33527 0
M  V30 7302 O 711.163 1.16166 1.29811 0
M  V30 7303 C 708.295 2.35589 2.46395 0
M  V30 7304 H 709.488 2.90591 0.741424 0
M  V30 7305 H 707.041 1.52332 0.349956 0
M  V30 7306 H 707.776 1.4831 2.884 0
M  V30 7307 H 707.561 3.16408 2.31578 0
M  V30 7308 H 709.051 2.69658 3.18864 0
M  V30 7309 N 709.488 -0.375779 1.53054 0
M  V30 7310 C 710.716 -1.14036 1.72637 0
M  V30 7311 C 711.131 -1.83342 0.450687 0
M  V30 7312 O 710.488 -1.7318 -0.575749 0
M  V30 7313 C 710.539 -2.17841 2.88492 0
M  V30 7314 O 710.26 -1.51358 4.11123 0
M  V30 7315 C 711.761 -3.06924 3.19863 0
M  V30 7316 H 708.981 -0.341386 0.577665 0
M  V30 7317 H 711.525 -0.437809 1.99759 0
M  V30 7318 H 709.68 -2.8371 2.63794 0
M  V30 7319 H 710.094 -2.20439 4.75928 0
M  V30 7320 H 711.568 -3.75763 4.04359 0
M  V30 7321 H 712.045 -3.71169 2.34798 0
M  V30 7322 H 712.651 -2.46684 3.46449 0
M  V30 7323 N 710.966 -1.44241 -0.634997 0
M  V30 7324 C 712.212 -1.47038 -1.39669 0
M  V30 7325 C 712.545 -0.101122 -1.93937 0
M  V30 7326 O 711.82 0.880699 -1.73418 0
M  V30 7327 C 712.103 -2.52763 -2.56482 0
M  V30 7328 C 711.956 -3.99032 -2.07589 0
M  V30 7329 C 713.275 -2.55031 -3.58674 0
M  V30 7330 H 710.394 -0.53537 -0.506506 0
M  V30 7331 H 713.036 -1.75898 -0.718317 0
M  V30 7332 H 711.186 -2.28284 -3.14354 0
M  V30 7333 H 712.858 -4.3463 -1.54577 0
M  V30 7334 H 711.101 -4.10994 -1.38804 0
M  V30 7335 H 711.772 -4.68649 -2.91671 0
M  V30 7336 H 714.248 -2.76893 -3.10595 0
M  V30 7337 H 713.124 -3.30916 -4.37934 0
M  V30 7338 H 713.385 -1.59085 -4.12486 0
M  V30 7339 N 712.444 0.87505 -1.31075 0
M  V30 7340 C 713.672 1.66058 -1.23419 0
M  V30 7341 C 714.087 1.87723 0.201347 0
M  V30 7342 O 713.444 1.43178 1.13165 0
M  V30 7343 C 713.495 3.03142 -1.96945 0
M  V30 7344 O 713.216 2.82448 -3.34895 0
M  V30 7345 C 714.717 3.97583 -1.96067 0
M  V30 7346 H 711.937 0.517868 -0.426677 0
M  V30 7347 H 714.481 1.09258 -1.72867 0
M  V30 7348 H 712.636 3.56645 -1.51271 0
M  V30 7349 H 713.05 3.69483 -3.72267 0
M  V30 7350 H 714.524 4.91104 -2.52034 0
M  V30 7351 H 715.001 4.2898 -0.941961 0
M  V30 7352 H 715.607 3.50015 -2.41597 0
M  V30 7353 N 713.922 1.13953 1.08869 0
M  V30 7354 C 714.885 0.824991 2.13838 0
M  V30 7355 C 715.885 -0.168198 1.59918 0
M  V30 7356 O 717.075 0.0595778 1.74098 0
M  V30 7357 C 714.207 0.228938 3.4013 0
M  V30 7358 H 715.4 1.75521 2.43171 0
M  V30 7359 H 712.953 0.94492 1.24503 0
M  V30 7360 H 713.688 -0.710227 3.16427 0
M  V30 7361 H 713.473 0.944243 3.80561 0
M  V30 7362 H 714.963 0.0259223 4.17592 0
M  V30 7363 N 715.4 -1.26948 0.933913 0
M  V30 7364 C 716.649 -1.93378 0.573409 0
M  V30 7365 C 716.962 -1.74148 -0.890614 0
M  V30 7366 O 718.168 -2.34971 -1.36017 0
M  V30 7367 C 716.624 -3.46449 0.974747 0
M  V30 7368 C 716.232 -3.74425 2.45988 0
M  V30 7369 C 717.976 -4.18924 0.685791 0
M  V30 7370 C 715.883 -5.209 2.8003 0
M  V30 7371 H 714.813 -0.723952 0.210736 0
M  V30 7372 H 717.464 -1.44143 1.13557 0
M  V30 7373 H 715.846 -3.94528 0.341181 0
M  V30 7374 H 717.02 -3.37079 3.14188 0
M  V30 7375 H 715.335 -3.15167 2.72138 0
M  V30 7376 H 717.932 -5.26786 0.916546 0
M  V30 7377 H 718.275 -4.14587 -0.377217 0
M  V30 7378 H 718.808 -3.76687 1.27874 0
M  V30 7379 H 715.547 -5.30332 3.85264 0
M  V30 7380 H 715.067 -5.59369 2.16485 0
M  V30 7381 H 716.746 -5.88837 2.68105 0
M  V30 7382 N 716.879 -0.700114 -1.41195 0
M  V30 7383 C 718.29 -0.307249 -1.84154 0
M  V30 7384 C 718.641 1.15539 -1.58572 0
M  V30 7385 O 717.766 1.88744 -1.05852 0
M  V30 7386 C 718.361 -0.550872 -3.34292 0
M  V30 7387 C 716.92 -0.211877 -3.75803 0
M  V30 7388 C 716.067 -0.830915 -2.64558 0
M  V30 7389 H 719.018 -0.900431 -1.30683 0
M  V30 7390 H 719.039 0.188954 -3.80031 0
M  V30 7391 H 718.551 -1.61548 -3.5288 0
M  V30 7392 H 716.652 0.848283 -3.62815 0
M  V30 7393 H 716.765 -0.67007 -4.74391 0
M  V30 7394 H 715.129 -0.260155 -2.53368 0
M  V30 7395 H 715.912 -1.89948 -2.85963 0
M  V30 7396 N 718.357 1.51182 -0.445186 0
M  V30 7397 C 719.606 2.01342 0.120189 0
M  V30 7398 C 719.919 1.33353 1.43095 0
M  V30 7399 O 721.125 1.74525 2.07974 0
M  V30 7400 C 719.581 3.58925 0.264732 0
M  V30 7401 C 719.189 4.35855 -1.03606 0
M  V30 7402 C 720.933 4.17208 0.783455 0
M  V30 7403 C 718.84 5.85162 -0.856731 0
M  V30 7404 H 717.77 0.752426 0.0486922 0
M  V30 7405 H 720.421 1.74221 -0.576143 0
M  V30 7406 H 718.803 3.82525 1.02425 0
M  V30 7407 H 719.977 4.23997 -1.80452 0
M  V30 7408 H 718.292 3.89062 -1.48391 0
M  V30 7409 H 720.889 5.26475 0.934239 0
M  V30 7410 H 721.232 3.76892 1.768 0
M  V30 7411 H 721.765 3.97715 0.0820346 0
M  V30 7412 H 718.504 6.29904 -1.81388 0
M  V30 7413 H 718.024 5.99663 -0.128206 0
M  V30 7414 H 719.703 6.44963 -0.513027 0
M  V30 7415 N 719.835 0.176821 1.56605 0
M  V30 7416 C 721.082 -0.466715 1.97048 0
M  V30 7417 C 721.41 -1.6288 1.06302 0
M  V30 7418 O 720.665 -1.95453 0.0982571 0
M  V30 7419 C 720.964 -0.986208 3.43524 0
M  V30 7420 C 720.63 0.0605667 4.50859 0
M  V30 7421 C 719.292 0.348242 4.79938 0
M  V30 7422 C 721.644 0.770794 5.15469 0
M  V30 7423 C 718.972 1.35144 5.70923 0
M  V30 7424 C 721.324 1.76301 6.07537 0
M  V30 7425 C 719.988 2.05808 6.3498 0
M  V30 7426 H 719.258 -0.170783 0.721051 0
M  V30 7427 H 721.905 0.269942 1.89588 0
M  V30 7428 H 720.21 -1.80079 3.47964 0
M  V30 7429 H 721.907 -1.49323 3.72161 0
M  V30 7430 H 718.497 -0.173823 4.28247 0
M  V30 7431 H 722.681 0.56176 4.9311 0
M  V30 7432 H 717.937 1.58616 5.90467 0
M  V30 7433 H 722.111 2.31868 6.56666 0
M  V30 7434 H 719.738 2.8369 7.05283 0
M  V30 7435 N 721.313 -1.57302 -0.09688 0
M  V30 7436 C 722.729 -1.53094 -0.451041 0
M  V30 7437 C 722.929 -0.893265 -1.80618 0
M  V30 7438 O 721.985 -0.485013 -2.47798 0
M  V30 7439 C 723.298 -2.9782 -0.415172 0
M  V30 7440 C 724.846 -3.09026 -0.497155 0
M  V30 7441 C 725.321 -4.55356 -0.491452 0
M  V30 7442 N 726.812 -4.59896 -0.552258 0
M  V30 7443 C 727.547 -5.70563 -0.569654 0
M  V30 7444 N 727.043 -6.90666 -0.543365 0
M  V30 7445 N 728.836 -5.58733 -0.614331 0
M  V30 7446 H 720.987 -1.97131 0.790771 0
M  V30 7447 H 723.25 -0.901211 0.294147 0
M  V30 7448 H 722.956 -3.47933 0.513362 0
M  V30 7449 H 722.83 -3.56416 -1.23481 0
M  V30 7450 H 725.217 -2.58902 -1.41611 0
M  V30 7451 H 725.298 -2.53386 0.35059 0
M  V30 7452 H 724.942 -5.06131 0.423549 0
M  V30 7453 H 724.872 -5.08832 -1.35639 0
M  V30 7454 H 727.363 -3.73456 -0.577842 0
M  V30 7455 H 727.676 -7.70769 -0.559873 0
M  V30 7456 H 726.021 -6.93123 -0.510441 0
M  V30 7457 H 729.212 -4.63809 -0.632387 0
M  V30 7458 H 729.385 -6.44984 -0.62442 0
M  V30 7459 N 722.791 0.367657 -1.53252 0
M  V30 7460 C 724.068 1.12606 -1.59935 0
M  V30 7461 C 724.448 2.07167 -0.405606 0
M  V30 7462 O 723.796 2.20364 0.604323 0
M  V30 7463 C 724.006 1.86699 -2.94863 0
M  V30 7464 C 725.354 2.41306 -3.49366 0
M  V30 7465 O 726.378 1.96828 -2.96879 0
M  V30 7466 O 725.237 3.2261 -4.41118 0
M  V30 7467 H 722.331 0.516438 -0.645926 0
M  V30 7468 H 724.877 0.371088 -1.65593 0
M  V30 7469 H 723.649 1.17674 -3.73187 0
M  V30 7470 H 723.272 2.6911 -2.92687 0
M  V30 7471 N 724.269 1.44576 0.627338 0
M  V30 7472 C 725.201 1.47724 1.75243 0
M  V30 7473 C 726.214 0.370193 1.58535 0
M  V30 7474 O 727.403 0.636151 1.66779 0
M  V30 7475 C 724.503 1.2991 3.13012 0
M  V30 7476 C 723.676 2.5393 3.56143 0
M  V30 7477 C 722.735 2.30961 4.72804 0
M  V30 7478 O 721.761 3.04469 4.80923 0
M  V30 7479 N 722.963 1.34261 5.6476 0
M  V30 7480 H 725.728 2.44718 1.73012 0
M  V30 7481 H 723.289 1.40064 0.812022 0
M  V30 7482 H 725.281 1.12385 3.88782 0
M  V30 7483 H 723.851 0.412668 3.09864 0
M  V30 7484 H 723.071 2.86707 2.70542 0
M  V30 7485 H 724.359 3.36411 3.81713 0
M  V30 7486 H 723.757 0.735573 5.60897 0
M  V30 7487 H 722.314 1.22713 6.40144 0
M  V30 7488 N 725.747 -0.868086 1.31537 0
M  V30 7489 C 726.975 -1.65402 1.24298 0
M  V30 7490 C 727.39 -1.87827 -0.191389 0
M  V30 7491 O 726.747 -1.43776 -1.12404 0
M  V30 7492 C 726.798 -3.02093 1.9855 0
M  V30 7493 O 726.519 -2.80668 3.36388 0
M  V30 7494 C 728.02 -3.96538 1.98173 0
M  V30 7495 H 725.24 -0.515598 0.429417 0
M  V30 7496 H 727.784 -1.0834 1.73444 0
M  V30 7497 H 725.939 -3.55838 1.53161 0
M  V30 7498 H 726.353 -3.67504 3.74221 0
M  V30 7499 H 727.827 -4.8976 2.54635 0
M  V30 7500 H 728.304 -4.28474 0.964697 0
M  V30 7501 H 728.91 -3.48729 2.4345 0
M  V30 7502 N 727.225 -1.14528 -1.08264 0
M  V30 7503 C 728.472 -0.914405 -1.80679 0
M  V30 7504 C 728.8 0.558952 -1.86295 0
M  V30 7505 O 728.055 1.43017 -1.33584 0
M  V30 7506 C 728.354 -1.46226 -3.26117 0
M  V30 7507 C 728.02 -2.95451 -3.40616 0
M  V30 7508 C 726.682 -3.36191 -3.4428 0
M  V30 7509 C 729.034 -3.91399 -3.44175 0
M  V30 7510 C 726.362 -4.71539 -3.49096 0
M  V30 7511 C 728.714 -5.26606 -3.50526 0
M  V30 7512 C 727.378 -5.66856 -3.52464 0
M  V30 7513 H 726.648 -0.334604 -0.661151 0
M  V30 7514 H 729.295 -1.4292 -1.27461 0
M  V30 7515 H 727.6 -0.868442 -3.82054 0
M  V30 7516 H 729.297 -1.25955 -3.80705 0
M  V30 7517 H 725.887 -2.62955 -3.38456 0
M  V30 7518 H 730.071 -3.61004 -3.40573 0
M  V30 7519 H 725.327 -5.02082 -3.4889 0
M  V30 7520 H 729.501 -6.00758 -3.52225 0
M  V30 7521 H 727.128 -6.71718 -3.55948 0
M  V30 7522 N 728.703 1.26451 -0.940633 0
M  V30 7523 C 729.666 2.24651 -0.454378 0
M  V30 7524 C 730.666 1.54826 0.434222 0
M  V30 7525 O 731.856 1.72628 0.233477 0
M  V30 7526 C 728.988 3.39148 0.345192 0
M  V30 7527 H 730.181 2.69182 -1.32217 0
M  V30 7528 H 727.734 1.38596 -0.722547 0
M  V30 7529 H 728.469 3.00018 1.23125 0
M  V30 7530 H 728.254 3.9101 -0.292107 0
M  V30 7531 H 729.744 4.12103 0.675341 0
M  V30 7532 N 730.181 0.707592 1.40822 0
M  V30 7533 C 731.429 0.243189 2.00632 0
M  V30 7534 C 731.75 -1.16512 1.56365 0
M  V30 7535 O 731.02 -1.78841 0.799553 0
M  V30 7536 H 729.6 0.0869203 0.741926 0
M  V30 7537 H 732.262 0.911438 1.72275 0
M  V30 7538 H 731.358 0.270014 3.1093 0
M  V30 7539 N 731.66 -1.50943 0.453197 0
M  V30 7540 C 732.57 -2.31884 -0.355963 0
M  V30 7541 C 733.586 -1.41481 -1.01287 0
M  V30 7542 O 734.762 -1.74546 -1.00477 0
M  V30 7543 C 731.827 -3.15668 -1.43369 0
M  V30 7544 C 730.888 -4.2187 -0.795253 0
M  V30 7545 C 730.121 -5.0165 -1.82162 0
M  V30 7546 O 730.344 -4.82266 -3.04592 0
M  V30 7547 O 729.278 -5.85311 -1.40336 0
M  V30 7548 H 733.104 -3.02162 0.305248 0
M  V30 7549 H 730.689 -1.47839 0.215398 0
M  V30 7550 H 732.571 -3.67709 -2.05836 0
M  V30 7551 H 731.246 -2.48137 -2.07869 0
M  V30 7552 H 730.153 -3.73867 -0.132106 0
M  V30 7553 H 731.486 -4.9182 -0.193484 0
M  V30 7554 N 733.138 -0.185124 -1.56509 0
M  V30 7555 C 734.387 0.456421 -1.96468 0
M  V30 7556 C 734.7 1.63448 -1.07444 0
M  V30 7557 O 735.906 2.34316 -1.37143 0
M  V30 7558 C 734.362 0.863404 -3.4939 0
M  V30 7559 C 733.97 -0.289815 -4.47062 0
M  V30 7560 C 735.714 1.47259 -3.98139 0
M  V30 7561 C 733.621 0.137571 -5.9124 0
M  V30 7562 H 732.551 0.17429 -0.733579 0
M  V30 7563 H 735.202 -0.275554 -1.81419 0
M  V30 7564 H 733.584 1.65176 -3.59907 0
M  V30 7565 H 734.758 -1.06728 -4.4827 0
M  V30 7566 H 733.073 -0.809851 -4.08449 0
M  V30 7567 H 735.67 1.80463 -5.03326 0
M  V30 7568 H 736.013 2.3755 -3.41871 0
M  V30 7569 H 736.546 0.748405 -3.90696 0
M  V30 7570 H 733.285 -0.730907 -6.51412 0
M  V30 7571 H 732.805 0.8801 -5.93308 0
M  V30 7572 H 734.484 0.576771 -6.44424 0
M  V30 7573 N 734.616 1.57351 0.0885366 0
M  V30 7574 C 735.548 1.99221 1.13329 0
M  V30 7575 C 736.561 0.895705 1.35945 0
M  V30 7576 O 737.75 1.17376 1.34481 0
M  V30 7577 C 734.85 2.3016 2.48756 0
M  V30 7578 C 734.023 3.61444 2.46327 0
M  V30 7579 C 733.082 3.80244 3.63732 0
M  V30 7580 O 732.108 4.52024 3.45924 0
M  V30 7581 N 733.31 3.2132 4.8346 0
M  V30 7582 H 736.075 2.89456 0.776862 0
M  V30 7583 H 733.636 1.59505 0.277428 0
M  V30 7584 H 735.628 2.39925 3.25911 0
M  V30 7585 H 734.198 1.459 2.76464 0
M  V30 7586 H 733.418 3.62588 1.54673 0
M  V30 7587 H 734.706 4.47678 2.41789 0
M  V30 7588 H 734.104 2.63028 5.00832 0
M  V30 7589 H 732.661 3.3656 5.58185 0
M  V30 7590 N 736.094 -0.359525 1.53444 0
M  V30 7591 C 737.057 -1.42357 1.7963 0
M  V30 7592 C 738.057 -1.46319 0.666884 0
M  V30 7593 O 739.247 -1.46974 0.935113 0
M  V30 7594 C 736.379 -2.81425 1.92387 0
M  V30 7595 H 737.572 -1.20409 2.74666 0
M  V30 7596 H 735.125 -0.593007 1.44614 0
M  V30 7597 H 735.86 -3.08679 0.994384 0
M  V30 7598 H 735.645 -2.79947 2.74539 0
M  V30 7599 H 737.135 -3.5847 2.14218 0
M  V30 7600 N 737.572 -1.44907 -0.619662 0
M  V30 7601 C 738.52 -1.52971 -1.75222 0
M  V30 7602 C 739.514 -0.400531 -1.64597 0
M  V30 7603 O 740.72 -0.575952 -1.70537 0
M  V30 7604 H 737.095 -0.480241 -0.578682 0
M  V30 7605 H 739.066 -2.48269 -1.65545 0
M  V30 7606 C 737.815 -1.50204 -3.13583 0
M  V30 7607 H 737.138 -2.36412 -3.22412 0
M  V30 7608 H 738.578 -1.59905 -3.92691 0
M  V30 7609 C 737.037 -0.22455 -3.36151 0
M  V30 7610 O 737.567 0.700574 -3.95544 0
M  V30 7611 N 735.773 -0.124052 -2.90335 0
M  V30 7612 H 735.32 -0.87774 -2.42185 0
M  V30 7613 H 735.278 0.729914 -3.0581 0
M  V30 7614 N 739.05 0.861098 -1.31996 0
M  V30 7615 C 739.98 1.98482 -1.22993 0
M  V30 7616 C 740.961 1.6971 -0.115168 0
M  V30 7617 O 742.146 1.91849 -0.30126 0
M  V30 7618 C 739.276 3.34179 -0.945615 0
M  V30 7619 C 738.23 3.77284 -2.02091 0
M  V30 7620 C 737.556 5.1054 -1.58912 0
M  V30 7621 C 738.856 3.93439 -3.43515 0
M  V30 7622 H 740.55 2.06271 -2.17008 0
M  V30 7623 H 738.096 0.991043 -1.04472 0
M  V30 7624 H 740.049 4.12338 -0.869206 0
M  V30 7625 H 738.773 3.26586 0.0301849 0
M  V30 7626 H 737.432 3.01371 -2.08737 0
M  V30 7627 H 737.08 4.99397 -0.600942 0
M  V30 7628 H 736.78 5.40352 -2.30854 0
M  V30 7629 H 738.304 5.91199 -1.52696 0
M  V30 7630 H 739.718 4.6197 -3.39495 0
M  V30 7631 H 738.115 4.34661 -4.13751 0
M  V30 7632 H 739.185 2.96548 -3.8365 0
M  V30 7633 N 740.528 1.15101 1.07655 0
M  V30 7634 C 741.458 0.867864 2.16773 0
M  V30 7635 C 742.439 -0.180283 1.69142 0
M  V30 7636 O 743.624 -0.0353152 1.94168 0
M  V30 7637 C 740.754 0.35299 3.45501 0
M  V30 7638 C 739.708 1.33746 4.06566 0
M  V30 7639 C 739.034 0.681562 5.30338 0
M  V30 7640 C 740.334 2.7024 4.46954 0
M  V30 7641 H 742.028 1.78034 2.40716 0
M  V30 7642 H 739.574 0.857435 1.15689 0
M  V30 7643 H 741.527 0.142465 4.21159 0
M  V30 7644 H 740.251 -0.594945 3.21135 0
M  V30 7645 H 738.91 1.53429 3.32949 0
M  V30 7646 H 738.558 -0.272422 5.02262 0
M  V30 7647 H 738.258 1.33853 5.72151 0
M  V30 7648 H 739.782 0.48074 6.08705 0
M  V30 7649 H 741.196 2.5442 5.13754 0
M  V30 7650 H 739.593 3.32282 4.99709 0
M  V30 7651 H 740.663 3.26537 3.58471 0
M  V30 7652 N 742.006 -1.2595 0.947325 0
M  V30 7653 C 742.953 -2.26159 0.460497 0
M  V30 7654 C 743.923 -1.58919 -0.483125 0
M  V30 7655 O 745.108 -1.86603 -0.397983 0
M  V30 7656 C 742.248 -3.441 -0.26247 0
M  V30 7657 C 741.361 -4.25999 0.717539 0
M  V30 7658 C 740.496 -5.31193 -0.0272486 0
M  V30 7659 C 739.535 -6.04774 0.944177 0
M  V30 7660 N 738.672 -7.01721 0.230741 0
M  V30 7661 H 743.512 -2.67173 1.31995 0
M  V30 7662 H 741.049 -1.31358 0.662088 0
M  V30 7663 H 743.007 -4.11317 -0.698137 0
M  V30 7664 H 741.637 -3.03983 -1.08602 0
M  V30 7665 H 740.689 -3.58513 1.27171 0
M  V30 7666 H 742.001 -4.76981 1.45913 0
M  V30 7667 H 741.155 -6.04451 -0.521903 0
M  V30 7668 H 739.894 -4.81066 -0.801682 0
M  V30 7669 H 738.899 -5.30338 1.4499 0
M  V30 7670 H 740.124 -6.56991 1.71872 0
M  V30 7671 H 738.07 -6.53895 -0.525088 0
M  V30 7672 H 737.987 -7.50484 0.911556 0
M  V30 7673 H 739.255 -7.79122 -0.242616 0
M  V30 7674 N 743.484 -0.715051 -1.40445 0
M  V30 7675 C 744.9 -0.388555 -1.54798 0
M  V30 7676 C 745.1 1.10271 -1.68649 0
M  V30 7677 O 744.156 1.88875 -1.67578 0
M  V30 7678 C 745.469 -1.15414 -2.77669 0
M  V30 7679 C 747.017 -1.14039 -2.91486 0
M  V30 7680 C 747.492 -1.88812 -4.1727 0
M  V30 7681 N 748.983 -1.85878 -4.24268 0
M  V30 7682 C 749.718 -2.40558 -5.20499 0
M  V30 7683 N 749.214 -3.03791 -6.22642 0
M  V30 7684 N 751.007 -2.30703 -5.12574 0
M  V30 7685 H 743.158 -1.68201 -1.297 0
M  V30 7686 H 745.421 -0.710915 -0.627139 0
M  V30 7687 H 745.127 -2.20853 -2.7371 0
M  V30 7688 H 745.001 -0.745412 -3.69761 0
M  V30 7689 H 747.388 -0.0941996 -2.9495 0
M  V30 7690 H 747.469 -1.58834 -2.00513 0
M  V30 7691 H 747.113 -2.93422 -4.14568 0
M  V30 7692 H 747.043 -1.41438 -5.0725 0
M  V30 7693 H 749.534 -1.39794 -3.51093 0
M  V30 7694 H 749.847 -3.43032 -6.92495 0
M  V30 7695 H 748.192 -3.07875 -6.23087 0
M  V30 7696 H 751.383 -1.80961 -4.31707 0
M  V30 7697 H 751.556 -2.73618 -5.87398 0
M  V30 7698 N 744.962 1.50701 -0.461195 0
M  V30 7699 C 745.925 2.2686 0.326679 0
M  V30 7700 C 746.925 1.31243 0.929085 0
M  V30 7701 O 748.115 1.54754 0.799807 0
M  V30 7702 C 745.247 3.07844 1.46441 0
M  V30 7703 H 746.44 2.97954 -0.341095 0
M  V30 7704 H 743.993 1.54814 -0.214984 0
M  V30 7705 H 744.728 2.41223 2.16753 0
M  V30 7706 H 744.513 3.78101 1.03836 0
M  V30 7707 H 746.003 3.65469 2.02044 0
M  V30 7708 N 746.441 0.193421 1.56409 0
M  V30 7709 C 747.687 -0.446449 1.97825 0
M  V30 7710 C 748.02 -1.61386 1.08019 0
M  V30 7711 O 747.295 -1.94053 0.131839 0
M  V30 7712 C 747.578 -0.908199 3.48459 0
M  V30 7713 C 747.431 0.260914 4.49043 0
M  V30 7714 C 748.75 -1.77428 4.0275 0
M  V30 7715 H 745.869 -0.160807 0.719243 0
M  V30 7716 H 748.511 0.284006 1.87865 0
M  V30 7717 H 746.661 -1.53062 3.57077 0
M  V30 7718 H 748.333 0.898548 4.52464 0
M  V30 7719 H 746.576 0.912949 4.24085 0
M  V30 7720 H 747.247 -0.104657 5.51901 0
M  V30 7721 H 749.723 -1.24936 3.96901 0
M  V30 7722 H 748.599 -2.06633 5.08521 0
M  V30 7723 H 748.86 -2.72788 3.47907 0
M  V30 7724 N 747.919 -1.57396 -0.0801906 0
M  V30 7725 C 749.167 -1.86467 -0.779384 0
M  V30 7726 C 749.488 -0.784243 -1.78535 0
M  V30 7727 O 748.758 0.187986 -1.94996 0
M  V30 7728 H 747.338 -0.68806 -0.29083 0
M  V30 7729 H 750 -1.94813 -0.0582749 0
M  V30 7730 H 749.096 -2.83701 -1.30078 0
M  V30 7731 N 749.397 0.351382 -1.53633 0
M  V30 7732 C 750.808 0.927429 -1.62036 0
M  V30 7733 C 751.159 1.89809 -0.496706 0
M  V30 7734 O 750.284 2.1313 0.374749 0
M  V30 7735 C 750.879 1.68886 -2.93706 0
M  V30 7736 C 749.438 2.21404 -3.04397 0
M  V30 7737 C 748.585 1.03075 -2.57431 0
M  V30 7738 H 751.536 0.129748 -1.58169 0
M  V30 7739 H 751.557 2.55116 -2.82305 0
M  V30 7740 H 751.069 0.982149 -3.75467 0
M  V30 7741 H 749.17 2.95274 -2.27253 0
M  V30 7742 H 749.283 2.48312 -4.09729 0
M  V30 7743 H 747.647 1.40188 -2.12649 0
M  V30 7744 H 748.43 0.338793 -3.41624 0
M  V30 7745 N 750.875 1.45233 0.611969 0
M  V30 7746 C 752.1 1.52767 1.40274 0
M  V30 7747 C 752.525 0.159701 1.87421 0
M  V30 7748 O 751.883 -0.854837 1.59882 0
M  V30 7749 C 751.931 2.51286 2.58626 0
M  V30 7750 O 751.035 2.02764 3.59111 0
M  V30 7751 H 750.376 0.515141 0.418958 0
M  V30 7752 H 752.906 1.90547 0.745188 0
M  V30 7753 H 752.916 2.69949 3.05927 0
M  V30 7754 H 751.591 3.50641 2.23659 0
M  V30 7755 H 750.168 1.93957 3.18489 0
M  V30 7756 N 752.353 -0.854086 1.3245 0
M  V30 7757 C 753.283 -1.97827 1.24044 0
M  V30 7758 C 754.264 -1.69646 0.124166 0
M  V30 7759 O 755.449 -1.91687 0.31143 0
M  V30 7760 C 752.579 -3.33673 0.963324 0
M  V30 7761 C 751.533 -3.76207 2.04089 0
M  V30 7762 C 750.859 -5.0969 1.61618 0
M  V30 7763 C 752.159 -3.91612 3.45597 0
M  V30 7764 H 753.853 -2.05118 2.18099 0
M  V30 7765 H 751.399 -0.985489 1.04996 0
M  V30 7766 H 753.352 -4.11871 0.891061 0
M  V30 7767 H 752.076 -3.26597 -0.0128649 0
M  V30 7768 H 750.735 -3.0026 2.10332 0
M  V30 7769 H 750.383 -4.99072 0.627418 0
M  V30 7770 H 750.083 -5.3912 2.33717 0
M  V30 7771 H 751.607 -5.90381 1.55829 0
M  V30 7772 H 753.021 -4.60163 3.4194 0
M  V30 7773 H 751.418 -4.3246 4.16051 0
M  V30 7774 H 752.488 -2.9451 3.85217 0
M  V30 7775 N 753.831 -1.1567 -1.07043 0
M  V30 7776 C 754.778 -0.856336 -2.14326 0
M  V30 7777 C 755.748 0.192051 -1.64986 0
M  V30 7778 O 756.933 0.0589148 -1.90709 0
M  V30 7779 C 754.073 -0.355227 -3.43267 0
M  V30 7780 C 753.186 -1.46555 -4.06381 0
M  V30 7781 C 752.321 -0.920245 -5.23168 0
M  V30 7782 C 751.36 -2.00729 -5.78251 0
M  V30 7783 N 750.497 -1.47813 -6.86364 0
M  V30 7784 H 755.337 -1.77514 -2.39359 0
M  V30 7785 H 752.874 -0.885676 -1.17449 0
M  V30 7786 H 754.832 -0.0463804 -4.17174 0
M  V30 7787 H 753.462 0.526649 -3.18475 0
M  V30 7788 H 752.514 -1.89052 -3.30096 0
M  V30 7789 H 753.826 -2.28616 -4.43324 0
M  V30 7790 H 752.98 -0.564127 -6.04072 0
M  V30 7791 H 751.719 -0.0688477 -4.87651 0
M  V30 7792 H 750.724 -2.3722 -4.95991 0
M  V30 7793 H 751.949 -2.86252 -6.15822 0
M  V30 7794 H 749.895 -0.649145 -6.5278 0
M  V30 7795 H 749.812 -2.23498 -7.22208 0
M  V30 7796 H 751.08 -1.15036 -7.70965 0
M  V30 7797 N 755.309 1.25446 -0.953992 0
M  V30 7798 C 756.555 1.93756 -0.618888 0
M  V30 7799 C 756.91 1.73344 0.83484 0
M  V30 7800 O 756.203 1.06753 1.59105 0
M  V30 7801 C 756.397 3.45555 -0.912496 0
M  V30 7802 C 756.226 3.8073 -2.39321 0
M  V30 7803 C 754.996 4.02819 -3.05065 0
M  V30 7804 C 757.194 3.88286 -3.37251 0
M  V30 7805 N 755.176 4.24981 -4.43017 0
M  V30 7806 C 756.547 4.1513 -4.60507 0
M  V30 7807 C 758.602 3.70965 -3.32099 0
M  V30 7808 C 757.305 4.26454 -5.79249 0
M  V30 7809 C 759.331 3.83528 -4.50178 0
M  V30 7810 C 758.693 4.10783 -5.72221 0
M  V30 7811 H 754.792 0.731271 -0.277069 0
M  V30 7812 H 757.376 1.5125 -1.22604 0
M  V30 7813 H 755.547 3.86959 -0.334284 0
M  V30 7814 H 757.279 4.01117 -0.537362 0
M  V30 7815 H 754.034 3.9868 -2.55639 0
M  V30 7816 H 754.458 4.4007 -5.14459 0
M  V30 7817 H 759.1 3.4891 -2.38791 0
M  V30 7818 H 756.818 4.47325 -6.72998 0
M  V30 7819 H 760.404 3.71513 -4.47738 0
M  V30 7820 H 759.284 4.20285 -6.62065 0
M  V30 7821 N 756.787 0.722489 1.40064 0
M  V30 7822 C 758.034 0.264979 2.00759 0
M  V30 7823 C 758.362 -1.14395 1.57302 0
M  V30 7824 O 757.617 -1.79165 0.787298 0
M  V30 7825 C 757.916 0.300682 3.56133 0
M  V30 7826 C 757.582 1.66087 4.19197 0
M  V30 7827 C 756.244 2.03319 4.36136 0
M  V30 7828 C 758.596 2.55452 4.54306 0
M  V30 7829 C 755.924 3.29448 4.8547 0
M  V30 7830 C 758.276 3.8094 5.05042 0
M  V30 7831 C 756.94 4.1828 5.2019 0
M  V30 7832 H 756.21 0.0969625 0.734629 0
M  V30 7833 H 758.857 0.926877 1.67575 0
M  V30 7834 H 757.162 -0.44479 3.89267 0
M  V30 7835 H 758.859 -0.0712542 4.00937 0
M  V30 7836 H 755.449 1.36137 4.06405 0
M  V30 7837 H 759.633 2.27961 4.40849 0
M  V30 7838 H 754.889 3.58338 4.95382 0
M  V30 7839 H 759.063 4.50351 5.31184 0
M  V30 7840 H 756.69 5.16081 5.58179 0
M  V30 7841 N 758.265 -1.50454 0.469181 0
M  V30 7842 C 759.542 -1.9504 -0.147955 0
M  V30 7843 C 759.922 -1.40946 -1.57154 0
M  V30 7844 O 759.27 -0.609663 -2.20217 0
M  V30 7845 C 759.48 -3.48875 -0.0932198 0
M  V30 7846 C 760.828 -4.23655 -0.283056 0
M  V30 7847 O 761.852 -3.55795 -0.169892 0
M  V30 7848 O 760.711 -5.44102 -0.511396 0
M  V30 7849 H 757.805 -0.819283 -0.11271 0
M  V30 7850 H 760.351 -1.6123 0.529446 0
M  V30 7851 H 759.123 -3.80791 0.900784 0
M  V30 7852 H 758.746 -3.89217 -0.812161 0
M  V30 7853 N 759.743 -0.201713 -1.56304 0
M  V30 7854 C 760.653 0.728296 -2.23009 0
M  V30 7855 C 761.669 1.22945 -1.23128 0
M  V30 7856 O 762.845 1.27523 -1.55884 0
M  V30 7857 C 759.91 1.92792 -2.88153 0
M  V30 7858 C 758.971 1.47068 -4.03323 0
M  V30 7859 C 758.204 2.61312 -4.65351 0
M  V30 7860 O 758.427 3.7896 -4.26317 0
M  V30 7861 O 757.361 2.33646 -5.54701 0
M  V30 7862 H 761.187 0.190166 -3.03104 0
M  V30 7863 H 758.772 0.0278725 -1.49374 0
M  V30 7864 H 760.654 2.6289 -3.29343 0
M  V30 7865 H 759.329 2.45452 -2.11033 0
M  V30 7866 H 758.236 0.738299 -3.66742 0
M  V30 7867 H 759.569 0.990666 -4.82127 0
M  V30 7868 N 761.222 1.57436 0.0718424 0
M  V30 7869 C 762.172 2.00132 1.09229 0
M  V30 7870 C 763.156 0.883379 1.34481 0
M  V30 7871 O 764.348 1.14728 1.34783 0
M  V30 7872 C 761.477 2.44876 2.40605 0
M  V30 7873 C 760.563 3.63405 2.18627 0
M  V30 7874 N 760.954 4.77583 1.66579 0
M  V30 7875 C 759.252 3.69953 2.491 0
M  V30 7876 C 759.953 5.5943 1.59415 0
M  V30 7877 N 758.929 5.03275 2.05464 0
M  V30 7878 H 762.731 2.85849 0.683185 0
M  V30 7879 H 760.245 1.59987 0.278914 0
M  V30 7880 H 762.242 2.73703 3.14471 0
M  V30 7881 H 760.902 1.60546 2.82232 0
M  V30 7882 H 761.913 4.99875 1.35443 0
M  V30 7883 H 758.59 2.96336 2.94094 0
M  V30 7884 H 759.98 6.61093 1.20026 0
M  V30 7885 N 762.7 -0.34323 1.53817 0
M  V30 7886 C 763.949 -1.08086 1.70295 0
M  V30 7887 C 764.262 -1.89794 0.47302 0
M  V30 7888 O 765.468 -2.66498 0.518754 0
M  V30 7889 C 763.924 -1.97097 3.01133 0
M  V30 7890 C 763.532 -1.20594 4.31464 0
M  V30 7891 C 765.276 -2.70715 3.26976 0
M  V30 7892 C 763.183 -2.08636 5.53376 0
M  V30 7893 H 762.113 -0.407228 0.634572 0
M  V30 7894 H 764.764 -0.340328 1.80316 0
M  V30 7895 H 763.146 -2.74971 2.84969 0
M  V30 7896 H 764.32 -0.476282 4.58332 0
M  V30 7897 H 762.635 -0.587426 4.12236 0
M  V30 7898 H 765.232 -3.36857 4.15248 0
M  V30 7899 H 765.575 -3.37299 2.43998 0
M  V30 7900 H 766.108 -1.99914 3.43917 0
M  V30 7901 H 762.847 -1.46594 6.38898 0
M  V30 7902 H 762.367 -2.7939 5.30755 0
M  V30 7903 H 764.046 -2.67682 5.89029 0
M  V30 7904 N 764.178 -1.45556 -0.604258 0
M  V30 7905 C 765.594 -1.30035 -0.925368 0
M  V30 7906 C 765.794 -0.255833 -1.99869 0
M  V30 7907 O 764.85 0.349076 -2.50075 0
M  V30 7908 C 766.163 -2.68028 -1.36314 0
M  V30 7909 C 767.711 -2.75951 -1.47717 0
M  V30 7910 C 768.186 -4.14476 -1.94868 0
M  V30 7911 N 769.677 -4.16787 -2.02097 0
M  V30 7912 C 770.412 -5.20845 -2.39809 0
M  V30 7913 N 769.908 -6.35246 -2.76467 0
M  V30 7914 N 771.701 -5.08204 -2.40177 0
M  V30 7915 H 763.852 -2.1214 0.10512 0
M  V30 7916 H 766.115 -0.947871 -0.0156303 0
M  V30 7917 H 765.821 -3.45667 -0.648628 0
M  V30 7918 H 765.695 -2.96711 -2.329 0
M  V30 7919 H 768.082 -1.98613 -2.18258 0
M  V30 7920 H 768.163 -2.50977 -0.494371 0
M  V30 7921 H 767.807 -4.923 -1.24912 0
M  V30 7922 H 767.737 -4.36843 -2.94068 0
M  V30 7923 H 770.228 -3.34233 -1.76343 0
M  V30 7924 H 770.541 -7.10438 -3.04134 0
M  V30 7925 H 768.886 -6.38642 -2.74155 0
M  V30 7926 H 772.077 -4.17874 -2.10947 0
M  V30 7927 H 772.25 -5.89417 -2.69242 0
M  V30 7928 N 765.656 0.84705 -1.32902 0
M  V30 7929 C 766.886 1.63166 -1.26729 0
M  V30 7930 C 767.294 1.88474 0.165595 0
M  V30 7931 O 766.637 1.45947 1.11558 0
M  V30 7932 C 766.699 3.0103 -1.96522 0
M  V30 7933 C 766.363 2.9873 -3.45846 0
M  V30 7934 C 767.36 2.75032 -4.41196 0
M  V30 7935 C 765.045 3.19125 -3.87898 0
M  V30 7936 C 767.039 2.71743 -5.76571 0
M  V30 7937 C 764.726 3.15462 -5.2338 0
M  V30 7938 C 765.724 2.91801 -6.17528 0
M  V30 7939 O 765.412 2.88027 -7.5053 0
M  V30 7940 H 765.144 0.51469 -0.438258 0
M  V30 7941 H 767.698 1.06383 -1.75704 0
M  V30 7942 H 765.928 3.59634 -1.42128 0
M  V30 7943 H 767.617 3.61821 -1.83958 0
M  V30 7944 H 768.383 2.59034 -4.10032 0
M  V30 7945 H 764.262 3.36565 -3.15032 0
M  V30 7946 H 767.806 2.53194 -6.5003 0
M  V30 7947 H 763.703 3.31006 -5.54171 0
M  V30 7948 H 764.471 3.03927 -7.59981 0
M  V30 7949 N 767.134 1.16236 1.06428 0
M  V30 7950 C 768.044 0.881976 2.1739 0
M  V30 7951 C 769.06 -0.145259 1.73393 0
M  V30 7952 O 770.236 0.0310558 2.01376 0
M  V30 7953 C 767.301 0.385496 3.4455 0
M  V30 7954 C 766.362 1.47779 4.03063 0
M  V30 7955 C 765.595 1.0049 5.24154 0
M  V30 7956 O 765.818 -0.145889 5.70213 0
M  V30 7957 O 764.752 1.79265 5.74585 0
M  V30 7958 H 768.578 1.80983 2.43883 0
M  V30 7959 H 766.163 0.942226 1.15942 0
M  V30 7960 H 768.045 0.115536 4.21242 0
M  V30 7961 H 766.72 -0.514369 3.19587 0
M  V30 7962 H 765.627 1.80147 3.27869 0
M  V30 7963 H 766.96 2.35291 4.32318 0
M  V30 7964 N 768.612 -1.24939 0.960631 0
M  V30 7965 C 770.028 -1.45039 0.666018 0
M  V30 7966 C 770.228 -1.86021 -0.774501 0
M  V30 7967 O 769.284 -1.99392 -1.54916 0
M  V30 7968 C 770.597 -2.51775 1.64408 0
M  V30 7969 C 772.145 -2.6561 1.65592 0
M  V30 7970 C 772.62 -3.75536 2.62177 0
M  V30 7971 N 774.111 -3.82954 2.60577 0
M  V30 7972 C 774.846 -4.67517 3.31987 0
M  V30 7973 N 774.342 -5.56321 4.1289 0
M  V30 7974 N 776.135 -4.61535 3.20845 0
M  V30 7975 H 768.286 -0.96632 1.89145 0
M  V30 7976 H 770.549 -0.486034 0.813926 0
M  V30 7977 H 770.255 -2.28534 2.67329 0
M  V30 7978 H 770.129 -3.49804 1.41128 0
M  V30 7979 H 772.516 -2.88212 0.633846 0
M  V30 7980 H 772.597 -1.67962 1.92931 0
M  V30 7981 H 772.241 -3.53684 3.64514 0
M  V30 7982 H 772.171 -4.72682 2.32119 0
M  V30 7983 H 774.662 -3.19478 2.01847 0
M  V30 7984 H 774.975 -6.17787 4.64283 0
M  V30 7985 H 773.32 -5.5601 4.16987 0
M  V30 7986 H 776.511 -3.91169 2.57108 0
M  V30 7987 H 776.684 -5.27214 3.76762 0
M  V30 7988 N 770.09 -0.729906 -1.39679 0
M  V30 7989 C 771.02 -0.101618 -2.33279 0
M  V30 7990 C 772.001 0.729854 -1.53646 0
M  V30 7991 O 773.186 0.67587 -1.82059 0
M  V30 7992 C 770.316 0.81024 -3.37716 0
M  V30 7993 C 769.27 0.0833126 -4.27919 0
M  V30 7994 C 768.596 1.11185 -5.23012 0
M  V30 7995 C 769.896 -1.07107 -5.112 0
M  V30 7996 H 771.59 -0.883452 -2.86069 0
M  V30 7997 H 769.136 -0.426283 -1.37546 0
M  V30 7998 H 771.089 1.25927 -4.02145 0
M  V30 7999 H 769.813 1.62413 -2.83354 0
M  V30 8000 H 768.472 -0.346043 -3.64963 0
M  V30 8001 H 768.12 1.91917 -4.64948 0
M  V30 8002 H 767.82 0.63026 -5.8421 0
M  V30 8003 H 769.344 1.56068 -5.90318 0
M  V30 8004 H 770.758 -0.700726 -5.69002 0
M  V30 8005 H 769.155 -1.48196 -5.81514 0
M  V30 8006 H 770.225 -1.89513 -4.46332 0
M  V30 8007 N 771.568 1.50203 -0.477153 0
M  V30 8008 C 772.815 2.02358 0.0757385 0
M  V30 8009 C 773.143 1.3587 1.39174 0
M  V30 8010 O 772.398 0.475415 1.89838 0
M  V30 8011 C 772.697 3.56127 0.301325 0
M  V30 8012 C 772.363 4.41126 -0.933725 0
M  V30 8013 C 771.025 4.64075 -1.27233 0
M  V30 8014 C 773.377 4.90737 -1.75576 0
M  V30 8015 C 770.705 5.33878 -2.43292 0
M  V30 8016 C 773.057 5.61816 -2.90768 0
M  V30 8017 C 771.721 5.83016 -3.25036 0
M  V30 8018 H 770.991 0.740482 0.0277147 0
M  V30 8019 H 773.638 1.80754 -0.632467 0
M  V30 8020 H 771.943 3.76279 1.09183 0
M  V30 8021 H 773.64 3.94053 0.743184 0
M  V30 8022 H 770.23 4.23489 -0.659935 0
M  V30 8023 H 774.414 4.72856 -1.50734 0
M  V30 8024 H 769.67 5.48499 -2.70109 0
M  V30 8025 H 773.844 5.99237 -3.54807 0
M  V30 8026 H 771.471 6.36881 -4.15074 0
M  V30 8027 N 773.046 0.209999 1.56195 0
M  V30 8028 C 773.979 -0.744546 2.15712 0
M  V30 8029 C 774.957 -1.19917 1.09812 0
M  V30 8030 O 776.141 -1.284 1.38006 0
M  V30 8031 C 773.268 -2.00733 2.72807 0
M  V30 8032 C 772.314 -1.69363 3.91431 0
M  V30 8033 S 773.147 -0.828579 5.29051 0
M  V30 8034 C 774.303 -2.10118 5.89577 0
M  V30 8035 H 774.536 -0.238636 2.96341 0
M  V30 8036 H 772.069 -0.00517877 1.54399 0
M  V30 8037 H 774.027 -2.73246 3.06344 0
M  V30 8038 H 772.688 -2.48436 1.92193 0
M  V30 8039 H 771.881 -2.63157 4.29842 0
M  V30 8040 H 771.483 -1.04921 3.58981 0
M  V30 8041 H 773.775 -3.05231 6.04847 0
M  V30 8042 H 774.718 -1.76116 6.85849 0
M  V30 8043 H 775.126 -2.23644 5.18308 0
M  V30 8044 N 774.524 -1.57472 -0.0634922 0
M  V30 8045 C 775.487 -2.03268 -1.059 0
M  V30 8046 C 776.487 -0.931028 -1.31105 0
M  V30 8047 O 777.677 -1.19567 -1.26686 0
M  V30 8048 C 774.809 -2.42039 -2.40062 0
M  V30 8049 H 776.002 -2.92454 -0.664119 0
M  V30 8050 H 773.555 -1.53206 -0.309444 0
M  V30 8051 H 774.29 -1.55904 -2.84367 0
M  V30 8052 H 774.075 -3.22437 -2.23108 0
M  V30 8053 H 775.565 -2.78017 -3.11603 0
M  V30 8054 N 776.003 0.335068 -1.53997 0
M  V30 8055 C 777.228 1.09859 -1.75914 0
M  V30 8056 C 777.653 1.81308 -0.500915 0
M  V30 8057 O 777.011 1.72854 0.54693 0
M  V30 8058 C 777.059 2.08122 -2.94478 0
M  V30 8059 O 776.163 3.15805 -2.65219 0
M  V30 8060 H 775.504 0.317313 -0.583274 0
M  V30 8061 H 778.034 0.382872 -2.00986 0
M  V30 8062 H 778.044 2.51195 -3.21504 0
M  V30 8063 H 776.719 1.55517 -3.8573 0
M  V30 8064 H 775.296 2.77489 -2.49107 0
M  V30 8065 N 777.481 1.45874 0.596531 0
M  V30 8066 C 778.892 1.44798 1.17857 0
M  V30 8067 C 779.243 0.181443 1.95359 0
M  V30 8068 O 778.368 -0.716336 2.042 0
M  V30 8069 C 778.963 2.62333 2.14398 0
M  V30 8070 C 777.522 2.64342 2.67955 0
M  V30 8071 C 776.669 2.37244 1.43564 0
M  V30 8072 H 779.62 1.53954 0.385222 0
M  V30 8073 H 779.641 2.37063 2.97626 0
M  V30 8074 H 779.153 3.54499 1.57963 0
M  V30 8075 H 777.254 1.76213 3.28298 0
M  V30 8076 H 777.367 3.63897 3.11634 0
M  V30 8077 H 775.731 1.87022 1.72901 0
M  V30 8078 H 776.514 3.31568 0.889805 0
M  V30 8079 N 778.959 -0.83999 1.33349 0
M  V30 8080 C 780.236 -1.57973 1.15342 0
M  V30 8081 C 780.616 -2.09226 -0.280632 0
M  V30 8082 O 779.964 -1.89317 -1.2795 0
M  V30 8083 C 780.174 -2.71446 2.19359 0
M  V30 8084 C 781.522 -3.40654 2.53456 0
M  V30 8085 O 782.546 -2.81686 2.18017 0
M  V30 8086 O 781.405 -4.47101 3.14266 0
M  V30 8087 H 778.499 -0.6964 0.446044 0
M  V30 8088 H 781.045 -0.882843 1.44927 0
M  V30 8089 H 779.817 -2.31205 3.1569 0
M  V30 8090 H 779.44 -3.488 1.90852 0
M  V30 8091 N 780.437 -1.16799 -1.0581 0
M  V30 8092 C 781.685 -0.950642 -1.78346 0
M  V30 8093 C 782.006 0.522524 -1.87869 0
M  V30 8094 O 781.276 1.3795 -1.39092 0
M  V30 8095 H 779.856 -0.348736 -0.6606 0
M  V30 8096 H 782.518 -1.47158 -1.27791 0
M  V30 8097 H 781.614 -1.37359 -2.80248 0
M  V30 8098 N 781.915 1.24427 -0.967243 0
M  V30 8099 C 783.14 1.9708 -0.646069 0
M  V30 8100 C 783.565 1.71272 0.777665 0
M  V30 8101 O 782.923 0.976179 1.52776 0
M  V30 8102 C 782.971 3.48501 -0.926266 0
M  V30 8103 O 782.075 4.12398 -0.0114653 0
M  V30 8104 H 781.416 0.617423 -0.244304 0
M  V30 8105 H 783.946 1.58215 -1.29727 0
M  V30 8106 H 783.956 3.98885 -0.857619 0
M  V30 8107 H 782.631 3.66613 -1.96386 0
M  V30 8108 H 781.208 3.72661 -0.133396 0
M  V30 8109 N 783.393 0.737304 1.3929 0
M  V30 8110 C 784.642 0.283129 1.99703 0
M  V30 8111 C 784.955 -1.13677 1.59176 0
M  V30 8112 O 786.161 -1.69058 2.12442 0
M  V30 8113 C 784.617 0.455262 3.57009 0
M  V30 8114 C 784.225 1.88319 4.06497 0
M  V30 8115 C 785.969 0.0629786 4.24453 0
M  V30 8116 C 783.876 2.00475 5.56385 0
M  V30 8117 H 782.806 0.102106 0.747054 0
M  V30 8118 H 785.457 0.911515 1.5926 0
M  V30 8119 H 783.839 -0.242057 3.9526 0
M  V30 8120 H 785.013 2.61265 3.79575 0
M  V30 8121 H 783.328 2.2289 3.51723 0
M  V30 8122 H 785.925 0.132787 5.34535 0
M  V30 8123 H 786.268 -0.982128 4.04549 0
M  V30 8124 H 786.801 0.71154 3.91385 0
M  V30 8125 H 783.54 3.03182 5.81172 0
M  V30 8126 H 783.06 1.31969 5.85102 0
M  V30 8127 H 784.739 1.787 6.21832 0
M  V30 8128 N 784.871 -1.49948 0.485112 0
M  V30 8129 C 785.834 -2.27351 -0.290546 0
M  V30 8130 C 786.834 -1.32704 -0.908087 0
M  V30 8131 O 788.024 -1.56007 -0.775085 0
M  V30 8132 C 785.156 -3.10135 -1.41524 0
M  V30 8133 H 786.349 -2.97374 0.388454 0
M  V30 8134 H 783.902 -1.54453 0.239586 0
M  V30 8135 H 784.637 -2.44641 -2.12888 0
M  V30 8136 H 784.422 -3.79705 -0.978074 0
M  V30 8137 H 785.912 -3.68638 -1.96204 0
M  V30 8138 N 786.349 -0.21828 -1.56081 0
M  V30 8139 C 787.765 0.137168 -1.59009 0
M  V30 8140 C 787.965 1.59215 -1.23503 0
M  V30 8141 O 787.021 2.33178 -0.968716 0
M  V30 8142 C 788.334 -0.186162 -3.00123 0
M  V30 8143 C 789.882 -0.128135 -3.12738 0
M  V30 8144 C 790.357 -0.425094 -4.56023 0
M  V30 8145 N 791.848 -0.374547 -4.61683 0
M  V30 8146 C 792.583 -0.57786 -5.70481 0
M  V30 8147 N 792.079 -0.842771 -6.87655 0
M  V30 8148 N 793.872 -0.510521 -5.59777 0
M  V30 8149 H 786.023 -1.16746 -1.77437 0
M  V30 8150 H 788.286 -0.467706 -0.824594 0
M  V30 8151 H 787.992 -1.19589 -3.30744 0
M  V30 8152 H 787.866 0.500388 -3.73866 0
M  V30 8153 H 790.253 0.872224 -2.81915 0
M  V30 8154 H 790.334 -0.848112 -2.41331 0
M  V30 8155 H 789.978 -1.42288 -4.87562 0
M  V30 8156 H 789.908 0.316038 -5.25651 0
M  V30 8157 H 792.399 -0.177356 -3.77484 0
M  V30 8158 H 792.712 -0.986095 -7.66483 0
M  V30 8159 H 791.057 -0.879929 -6.89407 0
M  V30 8160 H 794.248 -0.303813 -4.67113 0
M  V30 8161 H 794.421 -0.672378 -6.44502 0
M  V30 8162 N 787.827 1.57504 0.0551401 0
M  V30 8163 C 789.243 1.54236 0.410292 0
M  V30 8164 C 789.443 0.940839 1.78187 0
M  V30 8165 O 788.499 0.550541 2.46425 0
M  V30 8166 C 789.812 2.98816 0.336064 0
M  V30 8167 C 791.36 3.10236 0.415047 0
M  V30 8168 C 791.835 4.56499 0.37055 0
M  V30 8169 N 793.326 4.61199 0.43013 0
M  V30 8170 C 794.061 5.71873 0.418179 0
M  V30 8171 N 793.557 6.91864 0.360056 0
M  V30 8172 N 795.35 5.60165 0.465977 0
M  V30 8173 H 787.501 1.94965 -0.842759 0
M  V30 8174 H 789.764 0.893096 -0.317937 0
M  V30 8175 H 789.47 3.4645 -0.605429 0
M  V30 8176 H 789.344 3.59564 1.13988 0
M  V30 8177 H 791.731 2.62566 1.34697 0
M  V30 8178 H 791.812 2.52367 -0.417648 0
M  V30 8179 H 791.456 5.0483 -0.557592 0
M  V30 8180 H 791.386 5.12249 1.221 0
M  V30 8181 H 793.877 3.74857 0.478623 0
M  V30 8182 H 794.19 7.71983 0.35532 0
M  V30 8183 H 792.535 6.94233 0.326492 0
M  V30 8184 H 795.726 4.65322 0.509194 0
M  V30 8185 H 795.899 6.46413 0.453194 0
M  V30 8186 N 789.305 -0.326896 1.54172 0
M  V30 8187 C 790.552 -1.06523 1.72218 0
M  V30 8188 C 790.88 -1.88119 0.494114 0
M  V30 8189 O 790.135 -1.8855 -0.524147 0
M  V30 8190 C 790.434 -2.0208 2.94785 0
M  V30 8191 C 790.1 -1.36665 4.2969 0
M  V30 8192 C 788.762 -1.18556 4.66367 0
M  V30 8193 C 791.114 -0.896868 5.13425 0
M  V30 8194 C 788.442 -0.521113 5.84381 0
M  V30 8195 C 790.794 -0.246261 6.3212 0
M  V30 8196 C 789.458 -0.052987 6.67479 0
M  V30 8197 H 788.728 -0.389796 0.63019 0
M  V30 8198 H 791.375 -0.342725 1.88408 0
M  V30 8199 H 789.68 -2.8077 2.73268 0
M  V30 8200 H 791.377 -2.59231 3.05941 0
M  V30 8201 H 787.967 -1.51762 4.00832 0
M  V30 8202 H 792.151 -1.02458 4.85609 0
M  V30 8203 H 787.407 -0.36014 6.10338 0
M  V30 8204 H 791.581 0.125775 6.96286 0
M  V30 8205 H 789.208 0.463903 7.58783 0
M  V30 8206 N 790.784 -1.46188 -0.588786 0
M  V30 8207 C 791.747 -1.55882 -1.68029 0
M  V30 8208 C 792.747 -0.436515 -1.54762 0
M  V30 8209 O 793.937 -0.700626 -1.59489 0
M  V30 8210 C 791.069 -1.47332 -3.07418 0
M  V30 8211 H 792.262 -2.5315 -1.60795 0
M  V30 8212 H 789.815 -1.33908 -0.806116 0
M  V30 8213 H 790.55 -0.513193 -3.20214 0
M  V30 8214 H 790.335 -2.28753 -3.18456 0
M  V30 8215 H 791.825 -1.57187 -3.86887 0
M  V30 8216 N 792.262 0.832906 -1.33792 0
M  V30 8217 C 793.508 1.59089 -1.25772 0
M  V30 8218 C 793.841 1.93414 0.174601 0
M  V30 8219 O 793.116 1.59195 1.11746 0
M  V30 8220 C 793.399 2.89699 -2.13885 0
M  V30 8221 C 793.252 2.62017 -3.65605 0
M  V30 8222 C 794.571 3.91182 -2.01654 0
M  V30 8223 H 791.69 0.577232 -0.458227 0
M  V30 8224 H 794.332 0.960227 -1.6395 0
M  V30 8225 H 792.482 3.4352 -1.81456 0
M  V30 8226 H 794.154 2.14582 -4.08353 0
M  V30 8227 H 792.397 1.95621 -3.87189 0
M  V30 8228 H 793.068 3.55112 -4.2261 0
M  V30 8229 H 795.544 3.46684 -2.30107 0
M  V30 8230 H 794.42 4.80391 -2.65548 0
M  V30 8231 H 794.681 4.30861 -0.990536 0
M  V30 8232 N 793.74 1.17359 1.05189 0
M  V30 8233 C 794.67 0.91365 2.14883 0
M  V30 8234 C 795.651 -0.144365 1.69486 0
M  V30 8235 O 796.836 0.00587861 1.94199 0
M  V30 8236 C 793.966 0.426196 3.44675 0
M  V30 8237 C 792.92 1.4234 4.03638 0
M  V30 8238 C 792.246 0.793902 5.28773 0
M  V30 8239 C 793.546 2.7966 4.41121 0
M  V30 8240 H 795.24 1.831 2.36885 0
M  V30 8241 H 792.786 0.881781 1.13845 0
M  V30 8242 H 794.739 0.231767 4.20762 0
M  V30 8243 H 793.463 -0.526693 3.22325 0
M  V30 8244 H 792.122 1.60457 3.2962 0
M  V30 8245 H 791.77 -0.165824 5.02727 0
M  V30 8246 H 791.47 1.45959 5.69183 0
M  V30 8247 H 792.994 0.609747 6.07548 0
M  V30 8248 H 794.408 2.6526 5.08242 0
M  V30 8249 H 792.805 3.42807 4.92548 0
M  V30 8250 H 793.875 3.34068 3.51464 0
M  V30 8251 N 795.218 -1.23913 0.973828 0
M  V30 8252 C 796.181 -2.23367 0.51378 0
M  V30 8253 C 797.181 -1.55923 -0.39302 0
M  V30 8254 O 798.371 -1.73187 -0.187626 0
M  V30 8255 C 795.503 -3.39944 -0.255152 0
M  V30 8256 H 796.696 -2.65581 1.39307 0
M  V30 8257 H 794.249 -1.36632 0.759039 0
M  V30 8258 H 794.984 -3.03177 -1.15127 0
M  V30 8259 H 794.769 -3.90098 0.395673 0
M  V30 8260 H 796.259 -4.13749 -0.565842 0
M  V30 8261 N 796.696 -0.74468 -1.38897 0
M  V30 8262 C 797.626 -0.126355 -2.33158 0
M  V30 8263 C 798.607 0.713517 -1.54412 0
M  V30 8264 O 799.792 0.656523 -1.82766 0
M  V30 8265 C 796.922 0.774375 -3.38557 0
M  V30 8266 C 795.876 0.0379214 -4.27983 0
M  V30 8267 C 795.202 1.05631 -5.24162 0
M  V30 8268 C 796.502 -1.12523 -5.10035 0
M  V30 8269 H 798.196 -0.913744 -2.85116 0
M  V30 8270 H 795.742 -0.440847 -1.37086 0
M  V30 8271 H 797.695 1.21655 -4.03458 0
M  V30 8272 H 796.419 1.59399 -2.85061 0
M  V30 8273 H 795.078 -0.384733 -3.64576 0
M  V30 8274 H 794.726 1.86975 -4.66958 0
M  V30 8275 H 794.426 0.568261 -5.84846 0
M  V30 8276 H 795.95 1.49799 -5.9194 0
M  V30 8277 H 797.364 -0.761037 -5.68226 0
M  V30 8278 H 795.761 -1.54355 -5.79909 0
M  V30 8279 H 796.831 -1.94237 -4.44297 0
M  V30 8280 N 798.174 1.49689 -0.493057 0
M  V30 8281 C 799.42 2.02727 0.0543518 0
M  V30 8282 C 799.753 1.37264 1.37376 0
M  V30 8283 O 799.028 0.505644 1.87812 0
M  V30 8284 C 799.311 3.59456 0.215226 0
M  V30 8285 C 799.164 4.35459 -1.12675 0
M  V30 8286 C 800.483 4.29511 0.959586 0
M  V30 8287 H 797.602 0.736773 0.0182786 0
M  V30 8288 H 800.244 1.78792 -0.642924 0
M  V30 8289 H 798.394 3.79981 0.809122 0
M  V30 8290 H 800.066 4.2645 -1.75891 0
M  V30 8291 H 798.309 3.9833 -1.71801 0
M  V30 8292 H 798.98 5.43454 -0.967578 0
M  V30 8293 H 801.456 4.13594 0.455977 0
M  V30 8294 H 800.332 5.38939 1.04098 0
M  V30 8295 H 800.593 3.94202 2.00144 0
M  V30 8296 N 799.652 0.226554 1.55963 0
M  V30 8297 C 800.582 -0.676079 2.23498 0
M  V30 8298 C 801.563 -1.19718 1.20837 0
M  V30 8299 O 802.748 -1.24027 1.49436 0
M  V30 8300 C 799.878 -1.88217 2.91876 0
M  V30 8301 C 798.832 -1.4947 4.01052 0
M  V30 8302 C 798.158 -2.77997 4.56751 0
M  V30 8303 C 799.458 -0.680951 5.17842 0
M  V30 8304 H 801.152 -0.112989 2.99187 0
M  V30 8305 H 798.698 -0.0529046 1.43903 0
M  V30 8306 H 800.651 -2.51911 3.37815 0
M  V30 8307 H 799.375 -2.47031 2.13643 0
M  V30 8308 H 798.034 -0.881199 3.55852 0
M  V30 8309 H 797.682 -3.34966 3.75243 0
M  V30 8310 H 797.382 -2.52803 5.30438 0
M  V30 8311 H 798.906 -3.42625 5.05411 0
M  V30 8312 H 800.32 -1.22171 5.60131 0
M  V30 8313 H 798.717 -0.525898 5.97791 0
M  V30 8314 H 799.787 0.311346 4.83899 0
M  V30 8315 N 801.13 -1.57531 -0.0467866 0
M  V30 8316 C 802.093 -2.04379 -1.03738 0
M  V30 8317 C 803.093 -0.944881 -1.3011 0
M  V30 8318 O 804.283 -1.20904 -1.25411 0
M  V30 8319 C 801.415 -2.44572 -2.37482 0
M  V30 8320 H 802.608 -2.93142 -0.633063 0
M  V30 8321 H 800.161 -1.53526 -0.293177 0
M  V30 8322 H 800.896 -1.58911 -2.82697 0
M  V30 8323 H 800.681 -3.24785 -2.19675 0
M  V30 8324 H 802.171 -2.81307 -3.08636 0
M  V30 8325 N 802.608 0.318715 -1.54344 0
M  V30 8326 C 803.538 1.39751 -1.87061 0
M  V30 8327 C 804.519 1.53741 -0.727848 0
M  V30 8328 O 805.704 1.67541 -0.982016 0
M  V30 8329 C 802.834 2.76446 -2.10226 0
M  V30 8330 C 801.788 2.77239 -3.26071 0
M  V30 8331 C 801.114 4.17056 -3.34617 0
M  V30 8332 C 802.414 2.40555 -4.63606 0
M  V30 8333 H 804.108 1.12619 -2.77412 0
M  V30 8334 H 801.654 0.540318 -1.33479 0
M  V30 8335 H 803.607 3.51985 -2.31699 0
M  V30 8336 H 802.331 3.05066 -1.16629 0
M  V30 8337 H 800.99 2.04155 -3.04493 0
M  V30 8338 H 800.638 4.42824 -2.3857 0
M  V30 8339 H 800.338 4.18492 -4.12478 0
M  V30 8340 H 801.862 4.94401 -3.5833 0
M  V30 8341 H 803.276 3.05808 -4.84927 0
M  V30 8342 H 801.673 2.53234 -5.44052 0
M  V30 8343 H 802.743 1.35698 -4.65526 0
M  V30 8344 N 804.086 1.46499 0.581025 0
M  V30 8345 C 805.049 1.5677 1.672 0
M  V30 8346 C 806.049 0.444716 1.54528 0
M  V30 8347 O 807.239 0.709074 1.59116 0
M  V30 8348 C 804.371 1.4896 3.06633 0
M  V30 8349 H 805.564 2.54 1.5945 0
M  V30 8350 H 803.117 1.34334 0.799003 0
M  V30 8351 H 803.852 0.530168 3.19937 0
M  V30 8352 H 803.637 2.30439 3.17239 0
M  V30 8353 H 805.127 1.59237 3.86048 0
M  V30 8354 N 805.565 -0.825799 1.34232 0
M  V30 8355 C 806.811 -1.58419 1.26614 0
M  V30 8356 C 807.144 -1.93503 -0.164341 0
M  V30 8357 O 806.419 -1.59785 -1.109 0
M  V30 8358 C 806.702 -2.8856 2.15418 0
M  V30 8359 C 806.555 -2.60075 3.66989 0
M  V30 8360 C 807.874 -3.90107 2.03726 0
M  V30 8361 H 804.993 -0.574794 0.461282 0
M  V30 8362 H 807.635 -0.951519 1.64457 0
M  V30 8363 H 805.785 -3.42553 1.83275 0
M  V30 8364 H 807.457 -2.12414 4.09485 0
M  V30 8365 H 805.7 -1.93565 3.88221 0
M  V30 8366 H 806.371 -3.52866 4.24488 0
M  V30 8367 H 808.847 -3.45459 2.31942 0
M  V30 8368 H 807.723 -4.78976 2.68092 0
M  V30 8369 H 807.984 -4.30329 1.01337 0
M  V30 8370 N 807.043 -1.17915 -1.04565 0
M  V30 8371 C 808.268 -0.996749 -1.81878 0
M  V30 8372 C 808.693 0.450169 -1.82634 0
M  V30 8373 O 808.051 1.32268 -1.23995 0
M  V30 8374 C 808.099 -1.55005 -3.25585 0
M  V30 8375 O 807.203 -0.76804 -4.05185 0
M  V30 8376 H 806.544 -0.353456 -0.562108 0
M  V30 8377 H 809.074 -1.56557 -1.31723 0
M  V30 8378 H 809.084 -1.57503 -3.76373 0
M  V30 8379 H 807.759 -2.60327 -3.2435 0
M  V30 8380 H 806.336 -0.81498 -3.63885 0
M  V30 8381 N 808.521 1.23394 -0.980386 0
M  V30 8382 C 809.767 1.92094 -0.650223 0
M  V30 8383 C 810.1 1.76309 0.814173 0
M  V30 8384 O 809.375 1.12406 1.5873 0
M  V30 8385 C 809.658 3.44713 -1.04139 0
M  V30 8386 C 809.511 3.69606 -2.56342 0
M  V30 8387 C 810.83 4.36191 -0.585296 0
M  V30 8388 H 807.949 0.697618 -0.237695 0
M  V30 8389 H 810.591 1.45517 -1.22167 0
M  V30 8390 H 808.741 3.84513 -0.55515 0
M  V30 8391 H 810.413 3.39288 -3.1254 0
M  V30 8392 H 808.656 3.14318 -2.98976 0
M  V30 8393 H 809.327 4.76441 -2.78762 0
M  V30 8394 H 811.803 4.03836 -1.00276 0
M  V30 8395 H 810.679 5.41679 -0.887428 0
M  V30 8396 H 810.94 4.39097 0.51438 0
M  V30 8397 N 809.999 0.752036 1.385 0
M  V30 8398 C 810.962 0.131587 2.28822 0
M  V30 8399 C 811.962 -0.649149 1.47115 0
M  V30 8400 O 813.152 -0.475645 1.67581 0
M  V30 8401 C 810.284 -0.822101 3.30839 0
M  V30 8402 H 811.477 0.927551 2.85196 0
M  V30 8403 H 809.03 0.518945 1.47434 0
M  V30 8404 H 809.765 -1.6438 2.79553 0
M  V30 8405 H 809.55 -0.264689 3.91206 0
M  V30 8406 H 811.04 -1.25226 3.98382 0
M  V30 8407 N 811.477 -1.49425 0.500989 0
M  V30 8408 C 812.41 -2.25887 -0.324087 0
M  V30 8409 C 813.388 -1.30469 -0.970388 0
M  V30 8410 O 814.572 -1.59758 -1.00049 0
M  V30 8411 C 811.699 -3.05787 -1.45643 0
M  V30 8412 C 810.745 -4.16359 -0.924508 0
M  V30 8413 S 811.578 -5.35181 0.184707 0
M  V30 8414 C 812.734 -6.18636 -0.950806 0
M  V30 8415 H 812.967 -2.95519 0.324891 0
M  V30 8416 H 810.5 -1.51723 0.286289 0
M  V30 8417 H 812.458 -3.52405 -2.10525 0
M  V30 8418 H 811.119 -2.35624 -2.07703 0
M  V30 8419 H 810.312 -4.71781 -1.77311 0
M  V30 8420 H 809.914 -3.72331 -0.352907 0
M  V30 8421 H 812.206 -6.51581 -1.85603 0
M  V30 8422 H 813.149 -7.06761 -0.435212 0
M  V30 8423 H 813.557 -5.512 -1.21813 0
M  V30 8424 N 812.955 -0.234822 -1.55841 0
M  V30 8425 C 814.18 0.400741 -2.03492 0
M  V30 8426 C 814.605 1.51618 -1.11327 0
M  V30 8427 O 813.963 1.81002 -0.103922 0
M  V30 8428 C 814.011 0.897184 -3.49261 0
M  V30 8429 O 813.115 2.00764 -3.60233 0
M  V30 8430 H 812.456 0.0890023 -0.658008 0
M  V30 8431 H 814.986 -0.357345 -2.01455 0
M  V30 8432 H 814.996 1.20356 -3.89844 0
M  V30 8433 H 813.671 0.0808639 -4.15821 0
M  V30 8434 H 812.248 1.70689 -3.31541 0
M  V30 8435 N 814.433 1.57553 0.0384317 0
M  V30 8436 C 815.363 2.0898 1.04161 0
M  V30 8437 C 816.344 0.99029 1.38301 0
M  V30 8438 O 817.529 1.26499 1.47349 0
M  V30 8439 C 814.659 2.56145 2.34536 0
M  V30 8440 C 813.613 3.70275 2.14663 0
M  V30 8441 C 812.939 4.03612 3.50715 0
M  V30 8442 C 814.239 4.99067 1.54045 0
M  V30 8443 H 815.933 2.93046 0.613548 0
M  V30 8444 H 813.479 1.40973 0.293684 0
M  V30 8445 H 815.432 2.90741 3.05037 0
M  V30 8446 H 814.156 1.6915 2.79385 0
M  V30 8447 H 812.815 3.36013 1.46597 0
M  V30 8448 H 812.463 3.13698 3.93195 0
M  V30 8449 H 812.163 4.80482 3.38247 0
M  V30 8450 H 813.687 4.40735 4.22593 0
M  V30 8451 H 815.101 5.3168 2.14451 0
M  V30 8452 H 813.498 5.80484 1.52178 0
M  V30 8453 H 814.568 4.8226 0.505259 0
M  V30 8454 N 815.911 -0.310526 1.54511 0
M  V30 8455 C 817.327 -0.655637 1.45511 0
M  V30 8456 C 817.527 -1.91114 0.638564 0
M  V30 8457 O 816.583 -2.52098 0.142497 0
M  V30 8458 C 817.896 -0.817501 2.89374 0
M  V30 8459 C 819.444 -0.914003 2.99358 0
M  V30 8460 C 819.919 -1.10794 4.44397 0
M  V30 8461 N 821.41 -1.17437 4.48066 0
M  V30 8462 C 822.145 -1.34255 5.57461 0
M  V30 8463 N 821.641 -1.48032 6.768 0
M  V30 8464 N 823.434 -1.37067 5.45132 0
M  V30 8465 H 815.585 0.514506 2.06074 0
M  V30 8466 H 817.848 0.168478 0.932909 0
M  V30 8467 H 817.554 0.034003 3.51684 0
M  V30 8468 H 817.428 -1.7094 3.36243 0
M  V30 8469 H 819.815 -1.756 2.37168 0
M  V30 8470 H 819.896 0.00170958 2.558 0
M  V30 8471 H 819.54 -0.270743 5.07178 0
M  V30 8472 H 819.47 -2.03773 4.85576 0
M  V30 8473 H 821.961 -1.08181 3.62084 0
M  V30 8474 H 822.274 -1.60593 7.5593 0
M  V30 8475 H 820.619 -1.45105 6.79683 0
M  V30 8476 H 823.81 -1.25909 4.50849 0
M  V30 8477 H 823.983 -1.49831 6.3044 0
M  V30 8478 N 817.389 -1.46805 -0.573248 0
M  V30 8479 C 818.336 -1.58084 -1.68161 0
M  V30 8480 C 819.306 -0.424636 -1.6058 0
M  V30 8481 O 820.491 -0.642623 -1.79652 0
M  V30 8482 C 817.631 -1.58601 -3.06496 0
M  V30 8483 C 816.744 -2.85023 -3.24632 0
M  V30 8484 C 815.879 -2.76981 -4.53271 0
M  V30 8485 C 814.918 -3.983 -4.64783 0
M  V30 8486 N 814.055 -3.88589 -5.84759 0
M  V30 8487 H 818.895 -2.52755 -1.57858 0
M  V30 8488 H 816.432 -1.25385 -0.769218 0
M  V30 8489 H 818.39 -1.56885 -3.86579 0
M  V30 8490 H 817.02 -0.674553 -3.15673 0
M  V30 8491 H 816.072 -2.96678 -2.38089 0
M  V30 8492 H 817.384 -3.7491 -3.29004 0
M  V30 8493 H 816.538 -2.73424 -5.41594 0
M  V30 8494 H 815.277 -1.84751 -4.51352 0
M  V30 8495 H 814.282 -4.02179 -3.74876 0
M  V30 8496 H 815.507 -4.91639 -4.68474 0
M  V30 8497 H 813.453 -2.99151 -5.83819 0
M  V30 8498 H 813.37 -4.7214 -5.90441 0
M  V30 8499 H 814.638 -3.89022 -6.75486 0
M  V30 8500 N 818.867 0.818669 -1.34668 0
M  V30 8501 C 820.115 1.57201 -1.27013 0
M  V30 8502 C 820.436 1.94354 0.158599 0
M  V30 8503 O 819.706 1.62626 1.09223 0
M  V30 8504 H 818.286 0.582919 -0.467135 0
M  V30 8505 H 820.948 0.977234 -1.6863 0
M  V30 8506 H 820.044 2.49291 -1.87778 0
M  V30 8507 N 820.346 1.18468 1.03938 0
M  V30 8508 C 821.762 0.934635 1.29371 0
M  V30 8509 C 821.962 -0.399067 1.97509 0
M  V30 8510 O 821.018 -1.13309 2.25648 0
M  V30 8511 C 822.331 2.10111 2.15114 0
M  V30 8512 C 823.879 2.13955 2.28456 0
M  V30 8513 C 824.354 3.30024 3.17566 0
M  V30 8514 N 825.845 3.29893 3.25153 0
M  V30 8515 C 826.58 4.16346 3.94263 0
M  V30 8516 N 826.076 5.12934 4.65693 0
M  V30 8517 N 827.869 4.04256 3.90556 0
M  V30 8518 H 820.02 2.04294 0.581185 0
M  V30 8519 H 822.283 0.892727 0.318971 0
M  V30 8520 H 821.989 3.06572 1.72355 0
M  V30 8521 H 821.863 2.06283 3.15796 0
M  V30 8522 H 824.25 1.18072 2.7045 0
M  V30 8523 H 824.331 2.2184 1.2736 0
M  V30 8524 H 823.975 4.26181 2.76283 0
M  V30 8525 H 823.905 3.19376 4.18697 0
M  V30 8526 H 826.396 2.59969 2.74271 0
M  V30 8527 H 826.709 5.75271 5.16026 0
M  V30 8528 H 825.054 5.16893 4.64593 0
M  V30 8529 H 828.245 3.28083 3.33885 0
M  V30 8530 H 828.418 4.71848 4.44144 0
M  V30 8531 N 821.824 -1.22873 0.986916 0
M  V30 8532 C 823.073 -1.90772 0.654911 0
M  V30 8533 C 823.386 -1.77768 -0.81595 0
M  V30 8534 O 824.592 -2.40529 -1.25929 0
M  V30 8535 C 823.048 -3.42003 1.12081 0
M  V30 8536 C 822.656 -3.63655 2.61647 0
M  V30 8537 C 824.4 -4.15638 0.862854 0
M  V30 8538 C 822.307 -5.08555 3.01871 0
M  V30 8539 H 821.237 -0.714362 0.241252 0
M  V30 8540 H 823.888 -1.39196 1.19568 0
M  V30 8541 H 822.27 -3.92725 0.508207 0
M  V30 8542 H 823.444 -3.2345 3.28202 0
M  V30 8543 H 821.759 -3.03341 2.8526 0
M  V30 8544 H 824.356 -5.22425 1.13915 0
M  V30 8545 H 824.699 -4.15814 -0.201036 0
M  V30 8546 H 825.232 -3.70924 1.43736 0
M  V30 8547 H 821.971 -5.13514 4.07411 0
M  V30 8548 H 821.491 -5.49684 2.40015 0
M  V30 8549 H 823.17 -5.76936 2.92839 0
M  V30 8550 N 823.302 -0.75937 -1.38099 0
M  V30 8551 C 824.713 -0.385078 -1.82686 0
M  V30 8552 C 825.064 1.0871 -1.6333 0
M  V30 8553 O 824.189 1.84084 -1.13762 0
M  V30 8554 C 824.784 -0.692161 -3.31654 0
M  V30 8555 C 823.343 -0.371077 -3.74566 0
M  V30 8556 C 822.49 -0.942375 -2.60796 0
M  V30 8557 H 825.441 -0.955048 -1.26746 0
M  V30 8558 H 825.462 0.0276001 -3.8049 0
M  V30 8559 H 824.974 -1.76369 -3.4571 0
M  V30 8560 H 823.075 0.693637 -3.66087 0
M  V30 8561 H 823.188 -0.870672 -4.71122 0
M  V30 8562 H 821.552 -0.367383 -2.52036 0
M  V30 8563 H 822.335 -2.01905 -2.77649 0
M  V30 8564 N 824.78 1.49157 -0.508906 0
M  V30 8565 C 826.028 2.02073 0.0327335 0
M  V30 8566 C 826.349 1.39012 1.3675 0
M  V30 8567 O 825.619 0.548153 1.88075 0
M  V30 8568 H 824.199 0.746848 0.0150864 0
M  V30 8569 H 826.861 1.83097 -0.667946 0
M  V30 8570 H 825.957 3.11707 0.1566 0
M  V30 8571 N 826.258 0.243083 1.55714 0
M  V30 8572 C 827.486 -0.386971 2.03249 0
M  V30 8573 C 827.901 -1.51812 1.12243 0
M  V30 8574 O 827.258 -1.81992 0.136119 0
M  V30 8575 C 827.309 -0.898361 3.5016 0
M  V30 8576 O 827.03 0.187708 4.37698 0
M  V30 8577 C 828.531 -1.59949 4.13438 0
M  V30 8578 H 825.751 -0.0923981 0.664608 0
M  V30 8579 H 828.295 0.365832 2.01201 0
M  V30 8580 H 826.45 -1.60136 3.52754 0
M  V30 8581 H 826.864 -0.200001 5.24119 0
M  V30 8582 H 828.338 -1.90907 5.17937 0
M  V30 8583 H 828.815 -2.52014 3.59702 0
M  V30 8584 H 829.421 -0.941163 4.14756 0
M  V30 8585 N 827.736 -1.57571 -0.0300757 0
M  V30 8586 C 828.699 -2.05468 -1.01565 0
M  V30 8587 C 829.699 -0.958628 -1.29101 0
M  V30 8588 O 830.889 -1.22228 -1.24121 0
M  V30 8589 C 828.021 -2.47077 -2.34874 0
M  V30 8590 H 829.214 -2.93797 -0.601936 0
M  V30 8591 H 826.767 -1.53828 -0.276878 0
M  V30 8592 H 827.502 -1.61901 -2.80996 0
M  V30 8593 H 827.287 -3.27097 -2.16218 0
M  V30 8594 H 828.777 -2.84564 -3.05635 0
M  V30 8595 N 829.214 0.302327 -1.54673 0
M  V30 8596 C 830.177 1.35592 -1.8479 0
M  V30 8597 C 831.177 1.43743 -0.72073 0
M  V30 8598 O 832.367 1.43402 -0.989017 0
M  V30 8599 C 829.499 2.74091 -2.02699 0
M  V30 8600 H 830.692 1.10132 -2.78946 0
M  V30 8601 H 828.245 0.538926 -1.46715 0
M  V30 8602 H 828.98 3.04775 -1.10826 0
M  V30 8603 H 828.765 2.69565 -2.8474 0
M  V30 8604 H 830.255 3.50272 -2.27374 0
M  V30 8605 N 830.692 1.47107 0.565454 0
M  V30 8606 C 831.94 1.53005 1.32038 0
M  V30 8607 C 832.261 0.190453 1.94068 0
M  V30 8608 O 831.531 -0.784783 1.79494 0
M  V30 8609 H 830.111 0.563578 0.490294 0
M  V30 8610 H 832.773 1.83351 0.660928 0
M  V30 8611 H 831.869 2.29215 2.11818 0
M  V30 8612 N 832.17 -0.811516 1.35101 0
M  V30 8613 C 833.581 -1.38515 1.25182 0
M  V30 8614 C 833.932 -1.95846 -0.117883 0
M  V30 8615 O 833.057 -1.90925 -1.01866 0
M  V30 8616 C 833.652 -2.51813 2.26662 0
M  V30 8617 C 832.211 -3.05052 2.20499 0
M  V30 8618 C 831.358 -1.77987 2.12641 0
M  V30 8619 H 834.309 -0.614959 1.46301 0
M  V30 8620 H 834.33 -3.30228 1.89023 0
M  V30 8621 H 833.842 -2.10057 3.2634 0
M  V30 8622 H 831.943 -3.51285 1.24215 0
M  V30 8623 H 832.056 -3.63368 3.1225 0
M  V30 8624 H 830.42 -1.99342 1.5854 0
M  V30 8625 H 831.203 -1.38389 3.14171 0
M  V30 8626 N 833.648 -1.19017 -1.03309 0
M  V30 8627 C 834.873 -1.01598 -1.80811 0
M  V30 8628 C 835.298 0.430773 -1.83101 0
M  V30 8629 O 834.656 1.30946 -1.25391 0
M  V30 8630 C 834.704 -1.5845 -3.23923 0
M  V30 8631 O 833.808 -0.810972 -4.04348 0
M  V30 8632 H 833.149 -0.359398 -0.558327 0
M  V30 8633 H 835.679 -1.57945 -1.30055 0
M  V30 8634 H 835.689 -1.61486 -3.74682 0
M  V30 8635 H 834.364 -2.63752 -3.21571 0
M  V30 8636 H 832.941 -0.85353 -3.63 0
M  V30 8637 N 835.127 1.22348 -0.993418 0
M  V30 8638 C 836.543 1.43222 -0.704238 0
M  V30 8639 C 836.743 1.88009 0.724909 0
M  V30 8640 O 835.799 2.03429 1.49575 0
M  V30 8641 C 837.112 2.47328 -1.71025 0
M  V30 8642 C 838.66 2.61126 -1.72576 0
M  V30 8643 C 839.135 3.68453 -2.72041 0
M  V30 8644 N 840.626 3.75911 -2.70639 0
M  V30 8645 C 841.361 4.58551 -3.44266 0
M  V30 8646 N 840.857 5.45179 -4.27495 0
M  V30 8647 N 842.65 4.52866 -3.32969 0
M  V30 8648 H 834.801 0.915832 -1.91641 0
M  V30 8649 H 837.064 0.464283 -0.826526 0
M  V30 8650 H 836.77 2.21366 -2.73295 0
M  V30 8651 H 836.644 3.45939 -1.50353 0
M  V30 8652 H 839.031 2.86431 -0.710037 0
M  V30 8653 H 839.112 1.62787 -1.97317 0
M  V30 8654 H 838.756 3.43895 -3.73763 0
M  V30 8655 H 838.686 4.66362 -2.4457 0
M  V30 8656 H 841.177 3.14014 -2.10247 0
M  V30 8657 H 841.49 6.0526 -4.80499 0
M  V30 8658 H 839.835 5.44759 -4.31582 0
M  V30 8659 H 843.026 3.84215 -2.67389 0
M  V30 8660 H 843.199 5.17039 -3.90608 0
M  V30 8661 N 836.605 0.766683 1.37694 0
M  V30 8662 C 838.021 0.445739 1.53249 0
M  V30 8663 C 838.221 -1.03935 1.72626 0
M  V30 8664 O 837.277 -1.82525 1.74473 0
M  V30 8665 C 838.59 1.2564 2.73194 0
M  V30 8666 C 840.138 1.24779 2.87053 0
M  V30 8667 C 840.613 2.04169 4.09974 0
M  V30 8668 N 842.104 2.01497 4.17077 0
M  V30 8669 C 842.839 2.5971 5.11212 0
M  V30 8670 N 842.335 3.26691 6.10938 0
M  V30 8671 N 844.128 2.49568 5.03659 0
M  V30 8672 H 836.279 1.72899 1.23368 0
M  V30 8673 H 838.542 0.733701 0.600322 0
M  V30 8674 H 838.248 2.30859 2.65324 0
M  V30 8675 H 838.122 0.882133 3.6674 0
M  V30 8676 H 840.509 0.203603 2.94397 0
M  V30 8677 H 840.59 1.66166 1.9448 0
M  V30 8678 H 840.234 3.08606 4.03392 0
M  V30 8679 H 840.164 1.60167 5.01651 0
M  V30 8680 H 842.655 1.52728 3.45662 0
M  V30 8681 H 842.968 3.68497 6.79286 0
M  V30 8682 H 841.313 3.30789 6.11231 0
M  V30 8683 H 844.504 1.96859 4.24693 0
M  V30 8684 H 844.677 2.95231 5.76839 0
M  V30 8685 N 838.083 -1.48885 0.516809 0
M  V30 8686 C 839.332 -2.01686 -0.0239899 0
M  V30 8687 C 839.645 -1.40029 -1.3657 0
M  V30 8688 O 840.851 -1.84249 -1.9941 0
M  V30 8689 C 839.307 -3.59779 -0.0931825 0
M  V30 8690 C 838.915 -4.30416 1.24283 0
M  V30 8691 C 840.659 -4.20471 -0.583507 0
M  V30 8692 C 838.566 -5.80408 1.13494 0
M  V30 8693 H 837.496 -0.753892 -0.0127376 0
M  V30 8694 H 840.147 -1.71273 0.65861 0
M  V30 8695 H 838.529 -3.86976 -0.840577 0
M  V30 8696 H 839.703 -4.14905 2.00476 0
M  V30 8697 H 838.018 -3.81539 1.66785 0
M  V30 8698 H 840.615 -5.30333 -0.681987 0
M  V30 8699 H 840.958 -3.84898 -1.58617 0
M  V30 8700 H 841.491 -3.97654 0.107814 0
M  V30 8701 H 838.23 -6.20532 2.11235 0
M  V30 8702 H 837.75 -5.98368 0.414167 0
M  V30 8703 H 839.429 -6.41781 0.820162 0
M  V30 8704 N 839.561 -0.251338 -1.55583 0
M  V30 8705 C 840.81 0.372681 -1.98227 0
M  V30 8706 C 841.123 1.58743 -1.1428 0
M  V30 8707 O 842.329 2.28289 -1.46957 0
M  V30 8708 C 840.785 0.714439 -3.52738 0
M  V30 8709 C 840.393 -0.479168 -4.4543 0
M  V30 8710 C 842.137 1.3024 -4.04027 0
M  V30 8711 C 840.044 -0.113318 -5.91291 0
M  V30 8712 H 838.974 0.14302 -0.740312 0
M  V30 8713 H 841.625 -0.352253 -1.80087 0
M  V30 8714 H 840.007 1.49762 -3.66589 0
M  V30 8715 H 841.181 -1.25644 -4.4334 0
M  V30 8716 H 839.496 -0.982359 -4.04646 0
M  V30 8717 H 842.093 1.58953 -5.10527 0
M  V30 8718 H 842.436 2.22837 -3.51638 0
M  V30 8719 H 842.969 0.582024 -3.93519 0
M  V30 8720 H 839.708 -1.00654 -6.47726 0
M  V30 8721 H 839.228 0.627666 -5.96507 0
M  V30 8722 H 840.907 0.30293 -6.4629 0
M  V30 8723 N 841.039 1.57585 0.0217189 0
M  V30 8724 C 842.287 1.89231 0.709641 0
M  V30 8725 C 842.608 0.849964 1.75501 0
M  V30 8726 O 841.878 -0.115485 1.95559 0
M  V30 8727 H 840.458 0.69838 0.265092 0
M  V30 8728 H 843.12 1.94895 -0.0140688 0
M  V30 8729 H 842.216 2.88333 1.19459 0
M  V30 8730 N 842.517 -0.29412 1.54831 0
M  V30 8731 C 843.766 -1.02614 1.73647 0
M  V30 8732 C 844.079 -1.88193 0.533162 0
M  V30 8733 O 845.285 -2.64713 0.603275 0
M  V30 8734 C 843.741 -1.87417 3.07251 0
M  V30 8735 C 843.349 -1.06806 4.35082 0
M  V30 8736 C 845.093 -2.60176 3.35423 0
M  V30 8737 C 843 -1.90926 5.59733 0
M  V30 8738 H 841.93 -0.386834 0.647206 0
M  V30 8739 H 844.581 -0.282789 1.81308 0
M  V30 8740 H 842.963 -2.65765 2.93572 0
M  V30 8741 H 844.137 -0.330226 4.59615 0
M  V30 8742 H 842.452 -0.455979 4.13896 0
M  V30 8743 H 845.049 -3.23476 4.25755 0
M  V30 8744 H 845.392 -3.29365 2.54606 0
M  V30 8745 H 845.925 -1.88871 3.50103 0
M  V30 8746 H 842.664 -1.26194 6.43238 0
M  V30 8747 H 842.184 -2.62363 5.39375 0
M  V30 8748 H 843.863 -2.48807 5.97247 0
M  V30 8749 N 843.995 -1.47404 -0.557645 0
M  V30 8750 C 845.223 -1.57622 -1.34026 0
M  V30 8751 C 845.638 -0.226256 -1.87439 0
M  V30 8752 O 844.995 0.78043 -1.64971 0
M  V30 8753 C 845.046 -2.60111 -2.51047 0
M  V30 8754 O 844.767 -3.89866 -1.99841 0
M  V30 8755 C 846.268 -2.80508 -3.43264 0
M  V30 8756 H 843.488 -0.532271 -0.40857 0
M  V30 8757 H 846.032 -1.93019 -0.675555 0
M  V30 8758 H 844.187 -2.27648 -3.13457 0
M  V30 8759 H 844.601 -4.45864 -2.76234 0
M  V30 8760 H 846.075 -3.56084 -4.21792 0
M  V30 8761 H 846.552 -1.88314 -3.9678 0
M  V30 8762 H 847.158 -3.14166 -2.86671 0
M  V30 8763 N 845.473 0.80434 -1.35529 0
M  V30 8764 C 846.722 1.55665 -1.28263 0
M  V30 8765 C 847.035 1.95096 0.140352 0
M  V30 8766 O 848.241 2.69422 0.335303 0
M  V30 8767 C 846.697 2.80935 -2.24952 0
M  V30 8768 C 846.305 2.48733 -3.72607 0
M  V30 8769 C 848.049 3.5894 -2.26632 0
M  V30 8770 C 845.956 3.70308 -4.61114 0
M  V30 8771 H 844.886 0.584301 -0.476559 0
M  V30 8772 H 847.537 0.88395 -1.60806 0
M  V30 8773 H 845.919 3.49927 -1.85383 0
M  V30 8774 H 847.093 1.87733 -4.20824 0
M  V30 8775 H 845.408 1.83969 -3.73557 0
M  V30 8776 H 848.005 4.49244 -2.89973 0
M  V30 8777 H 848.348 3.96433 -1.27069 0
M  V30 8778 H 848.881 2.96912 -2.64742 0
M  V30 8779 H 845.62 3.37922 -5.61684 0
M  V30 8780 H 845.14 4.30526 -4.17621 0
M  V30 8781 H 846.819 4.37511 -4.76648 0
M  V30 8782 N 846.951 1.19563 1.02676 0
M  V30 8783 C 848.2 0.993864 1.75514 0
M  V30 8784 C 848.513 -0.475882 1.89723 0
M  V30 8785 O 849.719 -0.796525 2.59553 0
M  V30 8786 C 848.175 1.72937 3.15628 0
M  V30 8787 C 847.783 3.23937 3.09466 0
M  V30 8788 C 849.527 1.61092 3.92746 0
M  V30 8789 C 847.434 3.90067 4.44524 0
M  V30 8790 H 846.364 0.368244 0.657961 0
M  V30 8791 H 849.015 1.43081 1.14891 0
M  V30 8792 H 847.397 1.22025 3.76731 0
M  V30 8793 H 848.571 3.81983 2.57731 0
M  V30 8794 H 846.886 3.3608 2.45843 0
M  V30 8795 H 849.483 2.07848 4.92649 0
M  V30 8796 H 849.826 0.565415 4.12442 0
M  V30 8797 H 850.359 2.09361 3.3825 0
M  V30 8798 H 847.098 4.94725 4.30032 0
M  V30 8799 H 846.618 3.36809 4.96306 0
M  V30 8800 H 848.297 3.93736 5.13401 0
M  V30 8801 N 848.429 -1.21819 0.999893 0
M  V30 8802 C 849.654 -1.95298 0.698094 0
M  V30 8803 C 850.079 -1.73273 -0.731982 0
M  V30 8804 O 849.437 -1.01634 -1.50134 0
M  V30 8805 C 849.485 -3.45922 1.01834 0
M  V30 8806 O 848.589 -4.12223 0.120801 0
M  V30 8807 H 847.93 -0.610729 0.260588 0
M  V30 8808 H 850.46 -1.5472 1.33876 0
M  V30 8809 H 850.47 -3.96471 0.963074 0
M  V30 8810 H 849.145 -3.61278 2.06037 0
M  V30 8811 H 847.722 -3.72177 0.232153 0
M  V30 8812 N 849.908 -0.773975 -1.37286 0
M  V30 8813 C 851.155 -0.339306 -1.99637 0
M  V30 8814 C 851.483 1.08478 -1.61439 0
M  V30 8815 O 850.738 1.7612 -0.853252 0
M  V30 8816 C 851.037 -0.432651 -3.54772 0
M  V30 8817 C 850.703 -1.81531 -4.12744 0
M  V30 8818 C 849.365 -2.19366 -4.2829 0
M  V30 8819 C 851.717 -2.72137 -4.44512 0
M  V30 8820 C 849.045 -3.47239 -4.72908 0
M  V30 8821 C 851.397 -3.99421 -4.90556 0
M  V30 8822 C 850.061 -4.37298 -5.04308 0
M  V30 8823 H 849.331 -0.124161 -0.730524 0
M  V30 8824 H 851.978 -0.988432 -1.64019 0
M  V30 8825 H 850.283 0.30001 -3.9065 0
M  V30 8826 H 851.98 -0.0776 -4.00925 0
M  V30 8827 H 848.57 -1.51126 -4.01072 0
M  V30 8828 H 852.754 -2.44165 -4.32084 0
M  V30 8829 H 848.01 -3.76477 -4.81742 0
M  V30 8830 H 852.184 -4.69756 -5.14104 0
M  V30 8831 H 849.811 -5.36442 -5.38641 0
M  V30 8832 N 851.386 1.48609 -0.524698 0
M  V30 8833 C 852.316 2.32366 0.229837 0
M  V30 8834 C 853.297 1.41759 0.940129 0
M  V30 8835 O 854.482 1.7065 0.926936 0
M  V30 8836 C 851.612 3.22835 1.28043 0
M  V30 8837 C 850.566 4.22424 0.688603 0
M  V30 8838 C 849.892 5.0199 1.84146 0
M  V30 8839 C 851.192 5.21217 -0.336176 0
M  V30 8840 H 852.886 2.95698 -0.469339 0
M  V30 8841 H 850.432 1.42197 -0.227156 0
M  V30 8842 H 852.385 3.80253 1.8162 0
M  V30 8843 H 851.109 2.57492 2.00912 0
M  V30 8844 H 849.768 3.66185 0.174402 0
M  V30 8845 H 849.416 4.33076 2.5584 0
M  V30 8846 H 849.116 5.69392 1.45142 0
M  V30 8847 H 850.64 5.62259 2.38111 0
M  V30 8848 H 852.054 5.7319 0.112307 0
M  V30 8849 H 850.451 5.96642 -0.643324 0
M  V30 8850 H 851.521 4.68676 -1.24381 0
M  V30 8851 N 852.864 0.259585 1.55447 0
M  V30 8852 C 853.827 -0.621359 2.20617 0
M  V30 8853 C 854.827 -1.09317 1.17925 0
M  V30 8854 O 856.017 -0.995842 1.42929 0
M  V30 8855 C 853.149 -1.85546 2.85982 0
M  V30 8856 H 854.342 -0.0525833 2.99854 0
M  V30 8857 H 851.895 0.0101055 1.56297 0
M  V30 8858 H 852.63 -2.46515 2.10715 0
M  V30 8859 H 852.415 -1.52523 3.61219 0
M  V30 8860 H 853.905 -2.48227 3.35817 0
M  V30 8861 N 854.342 -1.57594 -0.0133615 0
M  V30 8862 C 855.275 -2.02991 -1.04259 0
M  V30 8863 C 856.253 -0.917193 -1.34262 0
M  V30 8864 O 857.437 -1.18428 -1.46653 0
M  V30 8865 C 854.564 -2.41624 -2.37351 0
M  V30 8866 C 853.61 -3.63495 -2.231 0
M  V30 8867 S 854.443 -5.1198 -1.5696 0
M  V30 8868 C 855.599 -5.5387 -2.91511 0
M  V30 8869 H 855.832 -2.89973 -0.655985 0
M  V30 8870 H 853.365 -1.52769 -0.223827 0
M  V30 8871 H 855.323 -2.64551 -3.13884 0
M  V30 8872 H 853.984 -1.55065 -2.73155 0
M  V30 8873 H 853.177 -3.88233 -3.21389 0
M  V30 8874 H 852.779 -3.405 -1.54711 0
M  V30 8875 H 855.071 -5.55514 -3.87828 0
M  V30 8876 H 856.014 -6.53988 -2.71488 0
M  V30 8877 H 856.422 -4.81404 -2.94806 0
M  V30 8878 N 855.82 0.285905 -1.54985 0
M  V30 8879 C 856.753 1.37817 -1.81884 0
M  V30 8880 C 857.731 1.4811 -0.670988 0
M  V30 8881 O 858.915 1.64936 -0.912595 0
M  V30 8882 C 856.042 2.75587 -1.969 0
M  V30 8883 C 855.088 2.82643 -3.19398 0
M  V30 8884 S 855.921 2.43199 -4.7709 0
M  V30 8885 C 857.077 3.82969 -4.95061 0
M  V30 8886 H 857.31 1.14794 -2.74244 0
M  V30 8887 H 854.843 0.484843 -1.4659 0
M  V30 8888 H 856.801 3.54932 -2.06236 0
M  V30 8889 H 855.462 2.9587 -1.05451 0
M  V30 8890 H 854.655 3.8373 -3.26753 0
M  V30 8891 H 854.257 2.11306 -3.08586 0
M  V30 8892 H 856.549 4.78117 -4.80011 0
M  V30 8893 H 857.492 3.80575 -5.97133 0
M  V30 8894 H 857.9 3.73673 -4.23118 0
M  V30 8895 N 857.298 1.47698 0.54982 0
M  V30 8896 C 858.545 1.54702 1.30665 0
M  V30 8897 C 858.873 0.212418 1.93337 0
M  V30 8898 O 858.128 -0.79543 1.78805 0
M  V30 8899 C 858.427 2.61903 2.4319 0
M  V30 8900 C 858.093 4.04953 1.98302 0
M  V30 8901 C 856.755 4.43893 1.85776 0
M  V30 8902 C 859.107 4.94682 1.64133 0
M  V30 8903 C 856.435 5.70387 1.37388 0
M  V30 8904 C 858.787 6.21646 1.17214 0
M  V30 8905 C 857.451 6.5946 1.0329 0
M  V30 8906 H 856.721 0.566096 0.478139 0
M  V30 8907 H 859.368 1.8133 0.615767 0
M  V30 8908 H 857.673 2.2906 3.17866 0
M  V30 8909 H 859.37 2.64543 3.0136 0
M  V30 8910 H 855.96 3.74191 2.08995 0
M  V30 8911 H 860.144 4.65291 1.72679 0
M  V30 8912 H 855.4 5.98427 1.25278 0
M  V30 8913 H 859.574 6.90581 0.898391 0
M  V30 8914 H 857.201 7.57367 0.655735 0
M  V30 8915 N 858.776 -0.797141 1.35954 0
M  V30 8916 C 860.004 -1.5858 1.32891 0
M  V30 8917 C 860.419 -1.88578 -0.0915564 0
M  V30 8918 O 859.776 -1.49532 -1.04625 0
M  V30 8919 C 859.827 -2.91143 2.14284 0
M  V30 8920 O 859.548 -2.62442 3.50793 0
M  V30 8921 C 861.049 -3.85476 2.18914 0
M  V30 8922 H 858.269 -0.492111 0.456144 0
M  V30 8923 H 860.813 -0.98994 1.78943 0
M  V30 8924 H 858.968 -3.47219 1.71807 0
M  V30 8925 H 859.382 -3.4715 3.93175 0
M  V30 8926 H 860.856 -4.75574 2.80238 0
M  V30 8927 H 861.333 -4.22758 1.19047 0
M  V30 8928 H 861.939 -3.35334 2.61593 0
M  V30 8929 N 860.254 -1.20106 -1.0204 0
M  V30 8930 C 861.665 -1.00992 -1.57027 0
M  V30 8931 C 862.016 0.434782 -1.91322 0
M  V30 8932 O 861.141 1.31557 -1.71819 0
M  V30 8933 C 861.736 -1.82697 -2.85319 0
M  V30 8934 C 860.295 -1.67959 -3.36848 0
M  V30 8935 C 859.442 -1.80868 -2.10195 0
M  V30 8936 H 862.393 -1.34354 -0.844676 0
M  V30 8937 H 862.414 -1.32809 -3.5657 0
M  V30 8938 H 861.926 -2.87839 -2.60328 0
M  V30 8939 H 860.027 -0.654389 -3.66809 0
M  V30 8940 H 860.14 -2.49006 -4.09308 0
M  V30 8941 H 858.504 -1.24015 -2.22469 0
M  V30 8942 H 859.287 -2.87486 -1.87635 0
M  V30 8943 N 861.732 1.21287 -1.00634 0
M  V30 8944 C 862.96 1.94385 -0.708678 0
M  V30 8945 C 863.375 1.7416 0.728957 0
M  V30 8946 O 862.732 1.04906 1.49335 0
M  V30 8947 C 862.783 3.46755 -1.02193 0
M  V30 8948 O 862.504 3.6631 -2.40309 0
M  V30 8949 C 864.005 4.37014 -0.743867 0
M  V30 8950 H 861.225 0.618136 -0.261052 0
M  V30 8951 H 863.769 1.54067 -1.34475 0
M  V30 8952 H 861.924 3.8499 -0.431441 0
M  V30 8953 H 862.338 4.60393 -2.51274 0
M  V30 8954 H 863.812 5.42621 -1.01321 0
M  V30 8955 H 864.289 4.38017 0.322084 0
M  V30 8956 H 864.895 4.04426 -1.31603 0
M  V30 8957 N 863.21 0.781244 1.36873 0
M  V30 8958 C 864.157 0.172146 2.30157 0
M  V30 8959 C 865.127 -0.679328 1.51573 0
M  V30 8960 O 866.312 -0.629713 1.80109 0
M  V30 8961 C 863.452 -0.693534 3.38059 0
M  V30 8962 C 862.565 0.175586 4.31643 0
M  V30 8963 C 861.7 -0.695695 5.26625 0
M  V30 8964 C 860.739 0.17538 6.11849 0
M  V30 8965 N 859.876 -0.654416 6.99043 0
M  V30 8966 H 864.716 0.973133 2.81663 0
M  V30 8967 H 862.253 0.491469 1.38647 0
M  V30 8968 H 864.211 -1.21035 3.99257 0
M  V30 8969 H 862.841 -1.46003 2.87894 0
M  V30 8970 H 861.893 0.810295 3.7167 0
M  V30 8971 H 863.205 0.847107 4.91554 0
M  V30 8972 H 862.359 -1.27863 5.93073 0
M  V30 8973 H 861.098 -1.40087 4.67148 0
M  V30 8974 H 860.103 0.77078 5.4437 0
M  V30 8975 H 861.328 0.87803 6.734 0
M  V30 8976 H 859.274 -1.34403 6.42084 0
M  V30 8977 H 859.191 -0.0403998 7.55989 0
M  V30 8978 H 860.459 -1.22144 7.69871 0
M  V30 8979 N 864.689 -1.48329 0.532571 0
M  V30 8980 C 865.935 -2.03399 0.00755104 0
M  V30 8981 C 866.29 -1.40213 -1.3175 0
M  V30 8982 O 865.583 -0.539633 -1.83844 0
M  V30 8983 C 865.777 -3.57 -0.168943 0
M  V30 8984 C 865.606 -4.35077 1.13745 0
M  V30 8985 C 864.376 -4.75915 1.69803 0
M  V30 8986 C 866.574 -4.71734 2.04869 0
M  V30 8987 N 864.556 -5.38538 2.94703 0
M  V30 8988 C 865.927 -5.34403 3.14346 0
M  V30 8989 C 867.982 -4.53665 2.05164 0
M  V30 8990 C 866.685 -5.80912 4.24186 0
M  V30 8991 C 868.711 -5.01157 3.13999 0
M  V30 8992 C 868.073 -5.63853 4.22195 0
M  V30 8993 H 864.172 -0.780743 0.0443253 0
M  V30 8994 H 866.756 -1.81119 0.714423 0
M  V30 8995 H 864.927 -3.79099 -0.844903 0
M  V30 8996 H 866.659 -3.98708 -0.693804 0
M  V30 8997 H 863.414 -4.57103 1.23909 0
M  V30 8998 H 863.838 -5.74413 3.583 0
M  V30 8999 H 868.48 -4.04571 1.22808 0
M  V30 9000 H 866.198 -6.2901 5.07318 0
M  V30 9001 H 869.784 -4.88965 3.15285 0
M  V30 9002 H 868.664 -5.99935 5.05023 0
M  V30 9003 N 866.167 -0.267825 -1.55308 0
M  V30 9004 C 867.395 0.354587 -2.03839 0
M  V30 9005 C 867.81 1.50007 -1.14644 0
M  V30 9006 O 867.167 1.81752 -0.165055 0
M  V30 9007 C 867.218 0.84254 -3.51544 0
M  V30 9008 O 866.939 -0.257318 -4.37344 0
M  V30 9009 C 868.44 1.53351 -4.15931 0
M  V30 9010 H 865.66 0.0818131 -0.665994 0
M  V30 9011 H 868.204 -0.397795 -2.00594 0
M  V30 9012 H 866.359 1.54503 -3.55257 0
M  V30 9013 H 866.773 0.116593 -5.2437 0
M  V30 9014 H 868.247 1.82643 -5.20908 0
M  V30 9015 H 868.724 2.4626 -3.63666 0
M  V30 9016 H 869.33 0.87506 -4.162 0
M  V30 9017 N 867.645 1.57599 0.00500368 0
M  V30 9018 C 868.595 2.04585 1.00643 0
M  V30 9019 C 869.579 0.939622 1.30614 0
M  V30 9020 O 870.771 1.20342 1.29796 0
M  V30 9021 C 867.9 2.5486 2.30002 0
M  V30 9022 C 866.986 3.7235 2.03017 0
M  V30 9023 N 867.377 4.84218 1.46173 0
M  V30 9024 C 865.675 3.80185 2.33185 0
M  V30 9025 C 866.376 5.65688 1.35544 0
M  V30 9026 N 865.352 5.11536 1.83933 0
M  V30 9027 H 869.154 2.8849 0.561332 0
M  V30 9028 H 866.668 1.61026 0.210808 0
M  V30 9029 H 868.665 2.86794 3.0258 0
M  V30 9030 H 867.325 1.72372 2.75169 0
M  V30 9031 H 868.336 5.0517 1.1412 0
M  V30 9032 H 865.013 3.08543 2.81261 0
M  V30 9033 H 866.403 6.65588 0.918791 0
M  V30 9034 N 869.123 -0.277682 1.55134 0
M  V30 9035 C 870.073 -1.34531 1.8408 0
M  V30 9036 C 871.057 -1.44904 0.699393 0
M  V30 9037 O 872.249 -1.48664 0.960623 0
M  V30 9038 C 869.378 -2.7064 2.11208 0
M  V30 9039 C 868.464 -2.64396 3.31596 0
M  V30 9040 N 868.855 -2.2777 4.51613 0
M  V30 9041 C 867.153 -2.95464 3.34091 0
M  V30 9042 C 867.854 -2.31401 5.33693 0
M  V30 9043 N 866.83 -2.69688 4.71984 0
M  V30 9044 H 870.632 -1.05214 2.74421 0
M  V30 9045 H 868.146 -0.486311 1.54948 0
M  V30 9046 H 870.143 -3.47649 2.301 0
M  V30 9047 H 868.803 -3.00849 1.22148 0
M  V30 9048 H 869.814 -1.99827 4.77797 0
M  V30 9049 H 866.491 -3.30415 2.5521 0
M  V30 9050 H 867.881 -2.05685 6.39643 0
M  V30 9051 N 870.601 -1.47988 -0.541979 0
M  V30 9052 C 871.848 -1.55393 -1.29843 0
M  V30 9053 C 872.176 -0.222668 -1.93221 0
M  V30 9054 O 871.431 0.785936 -1.79225 0
M  V30 9055 C 871.73 -2.63189 -2.41798 0
M  V30 9056 C 871.396 -4.05999 -1.96151 0
M  V30 9057 C 870.058 -4.44872 -1.83419 0
M  V30 9058 C 872.41 -4.95545 -1.61507 0
M  V30 9059 C 869.738 -5.71108 -1.34361 0
M  V30 9060 C 872.09 -6.22259 -1.13915 0
M  V30 9061 C 870.754 -6.59998 -0.997911 0
M  V30 9062 H 870.024 -0.568623 -0.47513 0
M  V30 9063 H 872.671 -1.81654 -0.606142 0
M  V30 9064 H 870.976 -2.30743 -3.16647 0
M  V30 9065 H 872.673 -2.66138 -2.99953 0
M  V30 9066 H 869.263 -3.75294 -2.07008 0
M  V30 9067 H 873.447 -4.662 -1.70209 0
M  V30 9068 H 868.703 -5.99083 -1.22103 0
M  V30 9069 H 872.877 -6.91048 -0.861755 0
M  V30 9070 H 870.504 -7.57704 -0.615561 0
M  V30 9071 N 872.079 0.78992 -1.36375 0
M  V30 9072 C 873.327 1.54472 -1.30319 0
M  V30 9073 C 873.648 1.94647 0.117338 0
M  V30 9074 O 872.918 1.64906 1.05748 0
M  V30 9075 H 871.498 0.572879 -0.479394 0
M  V30 9076 H 874.16 0.941245 -1.70665 0
M  V30 9077 H 873.256 2.45252 -1.93024 0
M  V30 9078 N 873.557 1.20646 1.01402 0
M  V30 9079 C 874.803 1.0197 1.753 0
M  V30 9080 C 875.136 -0.446803 1.8899 0
M  V30 9081 O 874.411 -1.33169 1.41762 0
M  V30 9082 C 874.694 1.70693 3.17074 0
M  V30 9083 C 874.547 3.24805 3.11162 0
M  V30 9084 C 875.866 1.44212 4.15802 0
M  V30 9085 H 872.985 0.371844 0.636318 0
M  V30 9086 H 875.627 1.48696 1.18277 0
M  V30 9087 H 873.777 1.30968 3.65759 0
M  V30 9088 H 875.449 3.73841 2.70261 0
M  V30 9089 H 873.692 3.55576 2.48492 0
M  V30 9090 H 874.363 3.68049 4.11393 0
M  V30 9091 H 876.839 1.7868 3.75783 0
M  V30 9092 H 875.715 1.94825 5.13161 0
M  V30 9093 H 875.976 0.370252 4.40547 0
M  V30 9094 N 875.035 -1.20752 1.01276 0
M  V30 9095 C 876.282 -1.90021 0.699887 0
M  V30 9096 C 876.61 -1.78604 -0.770113 0
M  V30 9097 O 875.865 -1.16195 -1.57471 0
M  V30 9098 C 876.164 -3.40808 1.07633 0
M  V30 9099 C 875.83 -3.72423 2.54189 0
M  V30 9100 C 874.492 -3.80762 2.94234 0
M  V30 9101 C 876.844 -3.87025 3.49086 0
M  V30 9102 C 874.172 -4.01158 4.28123 0
M  V30 9103 C 876.524 -4.0893 4.82658 0
M  V30 9104 C 875.188 -4.15498 5.22415 0
M  V30 9105 H 874.458 -0.695335 0.256107 0
M  V30 9106 H 877.105 -1.43096 1.27263 0
M  V30 9107 H 875.41 -3.89521 0.421944 0
M  V30 9108 H 877.107 -3.92693 0.811997 0
M  V30 9109 H 873.697 -3.66529 2.22158 0
M  V30 9110 H 877.881 -3.79942 3.19309 0
M  V30 9111 H 873.137 -4.04476 4.58486 0
M  V30 9112 H 877.311 -4.19172 5.56119 0
M  V30 9113 H 874.938 -4.31055 6.26176 0
M  V30 9114 N 876.513 -0.788492 -1.36457 0
M  V30 9115 C 877.476 -0.192209 -2.28393 0
M  V30 9116 C 878.476 0.609916 -1.48784 0
M  V30 9117 O 879.666 0.431046 -1.68783 0
M  V30 9118 C 876.798 0.734096 -3.32902 0
M  V30 9119 H 877.991 -1.00284 -2.82636 0
M  V30 9120 H 875.544 -0.557852 -1.46006 0
M  V30 9121 H 876.279 1.5691 -2.83813 0
M  V30 9122 H 876.064 0.160875 -3.9177 0
M  V30 9123 H 877.554 1.1462 -4.01562 0
M  V30 9124 N 877.991 1.48044 -0.54043 0
M  V30 9125 C 879.239 2.02097 -0.0101367 0
M  V30 9126 C 879.56 1.41881 1.33771 0
M  V30 9127 O 878.83 0.587923 1.8687 0
M  V30 9128 H 877.41 0.747 -0.000758716 0
M  V30 9129 H 880.072 1.81639 -0.706634 0
M  V30 9130 H 879.168 3.11969 0.0904474 0
M  V30 9131 N 879.47 0.276058 1.55163 0
M  V30 9132 C 880.4 -0.604633 2.25536 0
M  V30 9133 C 881.381 -1.15813 1.24585 0
M  V30 9134 O 882.566 -1.1921 1.53306 0
M  V30 9135 C 879.696 -1.78836 2.97716 0
M  V30 9136 C 878.65 -1.36635 4.05604 0
M  V30 9137 C 877.976 -2.63325 4.65364 0
M  V30 9138 C 879.276 -0.515858 5.19746 0
M  V30 9139 H 880.97 -0.0177483 2.99395 0
M  V30 9140 H 878.516 -0.00709627 1.43998 0
M  V30 9141 H 880.469 -2.41036 3.45658 0
M  V30 9142 H 879.193 -2.40109 2.21394 0
M  V30 9143 H 877.852 -0.767541 3.58475 0
M  V30 9144 H 877.5 -3.22858 3.85709 0
M  V30 9145 H 877.2 -2.358 5.38212 0
M  V30 9146 H 878.724 -3.26372 5.16056 0
M  V30 9147 H 880.138 -1.04289 5.63735 0
M  V30 9148 H 878.535 -0.335449 5.99162 0
M  V30 9149 H 879.605 0.465137 4.82664 0
M  V30 9150 N 880.948 -1.576 0.00335426 0
M  V30 9151 C 881.911 -2.07576 -0.971838 0
M  V30 9152 C 882.911 -0.985796 -1.27038 0
M  V30 9153 O 884.101 -1.24833 -1.21501 0
M  V30 9154 C 881.233 -2.52003 -2.29581 0
M  V30 9155 H 882.426 -2.95008 -0.539481 0
M  V30 9156 H 879.979 -1.54381 -0.244186 0
M  V30 9157 H 880.714 -1.67825 -2.77498 0
M  V30 9158 H 880.499 -3.31609 -2.09231 0
M  V30 9159 H 881.989 -2.90983 -2.99531 0
M  V30 9160 N 882.426 0.269451 -1.5528 0
M  V30 9161 C 883.674 0.998604 -1.75705 0
M  V30 9162 C 883.995 1.86691 -0.563175 0
M  V30 9163 O 883.265 1.91305 0.421811 0
M  V30 9164 H 881.845 0.371698 -0.647958 0
M  V30 9165 H 884.507 0.292826 -1.92688 0
M  V30 9166 H 883.603 1.63348 -2.6594 0
M  V30 9167 N 883.904 1.48273 0.534124 0
M  V30 9168 C 885.129 1.59988 1.31979 0
M  V30 9169 C 885.554 0.258824 1.86311 0
M  V30 9170 O 884.912 -0.768885 1.64188 0
M  V30 9171 C 884.96 2.64642 2.44943 0
M  V30 9172 O 884.064 2.21515 3.47858 0
M  V30 9173 H 883.405 0.536625 0.391063 0
M  V30 9174 H 885.935 1.94229 0.643135 0
M  V30 9175 H 885.945 2.85786 2.91187 0
M  V30 9176 H 884.62 3.62004 2.04758 0
M  V30 9177 H 883.197 2.10567 3.0776 0
M  V30 9178 N 885.382 -0.782676 1.36792 0
M  V30 9179 C 886.312 -1.90973 1.34356 0
M  V30 9180 C 887.293 -1.6875 0.213917 0
M  V30 9181 O 888.478 -1.89766 0.412601 0
M  V30 9182 C 885.608 -3.28097 1.13884 0
M  V30 9183 C 884.562 -3.6486 2.23744 0
M  V30 9184 C 883.888 -5.00406 1.88408 0
M  V30 9185 C 885.188 -3.72742 3.6587 0
M  V30 9186 H 886.882 -1.93268 2.28665 0
M  V30 9187 H 884.428 -0.928447 1.10072 0
M  V30 9188 H 886.381 -4.06569 1.10813 0
M  V30 9189 H 885.105 -3.26206 0.160275 0
M  V30 9190 H 883.764 -2.88689 2.25952 0
M  V30 9191 H 883.412 -4.95044 0.891083 0
M  V30 9192 H 883.112 -5.25973 2.61966 0
M  V30 9193 H 884.636 -5.81291 1.86905 0
M  V30 9194 H 886.05 -4.4139 3.65852 0
M  V30 9195 H 884.447 -4.09798 4.38389 0
M  V30 9196 H 885.517 -2.73676 4.00287 0
M  V30 9197 N 886.86 -1.21182 -1.00761 0
M  V30 9198 C 888.108 -1.02543 -1.74153 0
M  V30 9199 C 888.429 0.442372 -1.89916 0
M  V30 9200 O 887.699 1.31927 -1.44818 0
M  V30 9201 H 886.279 -0.37644 -0.645214 0
M  V30 9202 H 888.941 -1.52446 -1.21434 0
M  V30 9203 H 888.037 -1.49122 -2.7417 0
M  V30 9204 N 888.338 1.20213 -1.01915 0
M  V30 9205 C 889.301 2.21307 -0.596327 0
M  V30 9206 C 890.301 1.57274 0.334879 0
M  V30 9207 O 891.491 1.73764 0.12322 0
M  V30 9208 C 888.623 3.40657 0.128808 0
M  V30 9209 H 889.816 2.60228 -1.49068 0
M  V30 9210 H 887.369 1.33721 -0.809226 0
M  V30 9211 H 888.104 3.07241 1.03796 0
M  V30 9212 H 887.889 3.88361 -0.540183 0
M  V30 9213 H 889.379 4.15564 0.411892 0
M  V30 9214 N 889.816 0.795718 1.36037 0
M  V30 9215 C 890.746 0.212803 2.32528 0
M  V30 9216 C 891.727 -0.655716 1.56953 0
M  V30 9217 O 892.912 -0.588238 1.85077 0
M  V30 9218 C 890.042 -0.648189 3.41198 0
M  V30 9219 C 888.996 0.120948 4.27829 0
M  V30 9220 C 888.322 -0.861044 5.27722 0
M  V30 9221 C 889.622 1.31375 5.05508 0
M  V30 9222 H 891.316 1.01893 2.81528 0
M  V30 9223 H 888.862 0.491422 1.35355 0
M  V30 9224 H 890.815 -1.06597 4.07695 0
M  V30 9225 H 889.539 -1.48709 2.9078 0
M  V30 9226 H 888.198 0.519777 3.62897 0
M  V30 9227 H 887.846 -1.69515 4.73575 0
M  V30 9228 H 887.546 -0.350808 5.86552 0
M  V30 9229 H 889.07 -1.27726 5.97092 0
M  V30 9230 H 890.484 0.971406 5.6501 0
M  V30 9231 H 888.881 1.75772 5.73781 0
M  V30 9232 H 889.951 2.10593 4.36782 0
M  V30 9233 N 891.294 -1.47756 0.548274 0
M  V30 9234 C 892.257 -2.28379 -0.193857 0
M  V30 9235 C 893.257 -1.36436 -0.850986 0
M  V30 9236 O 894.447 -1.59154 -0.70822 0
M  V30 9237 C 891.579 -3.15858 -1.28243 0
M  V30 9238 H 892.772 -2.95458 0.514231 0
M  V30 9239 H 890.325 -1.53298 0.304879 0
M  V30 9240 H 891.06 -2.5345 -2.0232 0
M  V30 9241 H 890.845 -3.83512 -0.816148 0
M  V30 9242 H 892.335 -3.76627 -1.80393 0
M  V30 9243 N 892.772 -0.284283 -1.55015 0
M  V30 9244 C 893.735 0.586182 -2.21577 0
M  V30 9245 C 894.735 1.07427 -1.1965 0
M  V30 9246 O 895.925 0.972977 -1.44495 0
M  V30 9247 C 893.057 1.80973 -2.88897 0
M  V30 9248 H 894.25 0.00487253 -2.999 0
M  V30 9249 H 891.803 -0.0349696 -1.56261 0
M  V30 9250 H 892.538 2.43131 -2.14611 0
M  V30 9251 H 892.323 1.46757 -3.636 0
M  V30 9252 H 893.813 2.42853 -3.39724 0
M  V30 9253 N 894.251 1.57596 -0.0117121 0
M  V30 9254 C 895.497 1.91355 0.671661 0
M  V30 9255 C 895.83 0.886818 1.72769 0
M  V30 9256 O 895.105 -0.0928813 1.94278 0
M  V30 9257 C 895.388 3.35657 1.30409 0
M  V30 9258 C 895.241 4.49055 0.2588 0
M  V30 9259 C 896.56 3.79595 2.22701 0
M  V30 9260 H 893.679 0.695893 0.242698 0
M  V30 9261 H 896.321 1.89887 -0.0654071 0
M  V30 9262 H 894.471 3.37038 1.9323 0
M  V30 9263 H 896.143 4.59809 -0.370631 0
M  V30 9264 H 894.386 4.31785 -0.417672 0
M  V30 9265 H 895.057 5.4701 0.740578 0
M  V30 9266 H 897.533 3.7984 1.69885 0
M  V30 9267 H 896.409 4.81292 2.63912 0
M  V30 9268 H 896.67 3.14118 3.11098 0
M  V30 9269 N 895.729 -0.261212 1.5542 0
M  V30 9270 C 896.692 -1.30645 1.8832 0
M  V30 9271 C 897.692 -1.41782 0.758588 0
M  V30 9272 O 898.882 -1.40729 1.02669 0
M  V30 9273 C 896.014 -2.6862 2.09895 0
M  V30 9274 H 897.207 -1.02698 2.81768 0
M  V30 9275 H 894.76 -0.499838 1.48092 0
M  V30 9276 H 895.495 -3.0173 1.18868 0
M  V30 9277 H 895.28 -2.61921 2.91787 0
M  V30 9278 H 896.77 -3.44121 2.36581 0
M  V30 9279 N 897.207 -1.48554 -0.526253 0
M  V30 9280 C 898.453 -1.56994 -1.28378 0
M  V30 9281 C 898.786 -0.244701 -1.92652 0
M  V30 9282 O 898.061 0.749636 -1.79473 0
M  V30 9283 C 898.344 -2.71092 -2.37026 0
M  V30 9284 C 898.197 -4.13331 -1.77418 0
M  V30 9285 C 899.516 -2.80934 -3.38769 0
M  V30 9286 H 896.635 -0.571466 -0.465398 0
M  V30 9287 H 899.277 -1.80742 -0.585861 0
M  V30 9288 H 897.427 -2.50973 -2.96555 0
M  V30 9289 H 899.099 -4.44899 -1.21912 0
M  V30 9290 H 897.342 -4.20158 -1.07936 0
M  V30 9291 H 898.013 -4.88994 -2.56104 0
M  V30 9292 H 900.489 -2.9917 -2.892 0
M  V30 9293 H 899.365 -3.62489 -4.12181 0
M  V30 9294 H 899.626 -1.89244 -3.99549 0
M  V30 9295 N 898.685 0.775411 -1.37205 0
M  V30 9296 C 899.913 1.56446 -1.35397 0
M  V30 9297 C 900.328 1.887 0.0615437 0
M  V30 9298 O 899.685 1.51178 1.02233 0
M  V30 9299 C 899.736 2.87697 -2.18889 0
M  V30 9300 O 899.457 2.56828 -3.54924 0
M  V30 9301 C 900.958 3.81944 -2.25019 0
M  V30 9302 H 898.178 0.484792 -0.463916 0
M  V30 9303 H 900.722 0.961346 -1.80495 0
M  V30 9304 H 898.877 3.44442 -1.7731 0
M  V30 9305 H 899.291 3.40851 -3.98649 0
M  V30 9306 H 900.765 4.71055 -2.87769 0
M  V30 9307 H 901.242 4.20811 -1.25757 0
M  V30 9308 H 901.848 3.3113 -2.66895 0
M  V30 9309 N 900.163 1.21714 1.00117 0
M  V30 9310 C 901.411 1.03465 1.73607 0
M  V30 9311 C 901.732 -0.432295 1.90148 0
M  V30 9312 O 901.002 -1.31157 1.45515 0
M  V30 9313 H 899.582 0.379857 0.643209 0
M  V30 9314 H 902.244 1.53088 1.20624 0
M  V30 9315 H 901.34 1.50574 2.73375 0
M  V30 9316 N 901.641 -1.19671 1.02551 0
M  V30 9317 C 902.604 -2.20987 0.608055 0
M  V30 9318 C 903.604 -1.5745 -0.326534 0
M  V30 9319 O 904.794 -1.73827 -0.114003 0
M  V30 9320 C 901.926 -3.4072 -0.11074 0
M  V30 9321 H 903.119 -2.59434 1.50446 0
M  V30 9322 H 900.672 -1.3329 0.816307 0
M  V30 9323 H 901.407 -3.07787 -1.02165 0
M  V30 9324 H 901.192 -3.88069 0.560772 0
M  V30 9325 H 902.682 -4.15776 -0.389848 0
M  V30 9326 N 903.119 -0.802921 -1.35613 0
M  V30 9327 C 904.082 -0.216422 -2.28176 0
M  V30 9328 C 905.082 0.594101 -1.49422 0
M  V30 9329 O 906.272 0.41312 -1.6923 0
M  V30 9330 C 903.404 0.698746 -3.33662 0
M  V30 9331 H 904.597 -1.03276 -2.81557 0
M  V30 9332 H 902.15 -0.573307 -1.45406 0
M  V30 9333 H 902.885 1.53891 -2.85461 0
M  V30 9334 H 902.67 0.119314 -3.91918 0
M  V30 9335 H 904.16 1.10354 -4.02755 0
M  V30 9336 N 904.597 1.47463 -0.556102 0
M  V30 9337 C 905.53 2.26934 0.240027 0
M  V30 9338 C 906.508 1.33981 0.921297 0
M  V30 9339 O 907.692 1.63361 0.940506 0
M  V30 9340 C 904.819 3.10982 1.34194 0
M  V30 9341 C 903.865 4.19504 0.769342 0
M  V30 9342 S 904.698 5.34127 -0.383209 0
M  V30 9343 C 905.854 6.21739 0.720548 0
M  V30 9344 H 906.087 2.9411 -0.434348 0
M  V30 9345 H 903.62 1.50556 -0.342402 0
M  V30 9346 H 905.578 3.59976 1.973 0
M  V30 9347 H 904.239 2.4317 1.98814 0
M  V30 9348 H 903.432 4.78036 1.59679 0
M  V30 9349 H 903.034 3.73385 0.214475 0
M  V30 9350 H 905.326 6.58021 1.61292 0
M  V30 9351 H 906.269 7.0789 0.172602 0
M  V30 9352 H 906.677 5.55342 1.01272 0
M  V30 9353 N 906.075 0.2925 1.54862 0
M  V30 9354 C 907.491 -0.0611461 1.59483 0
M  V30 9355 C 907.691 -1.53141 1.30958 0
M  V30 9356 O 906.747 -2.28291 1.07887 0
M  V30 9357 C 908.06 0.329143 2.98893 0
M  V30 9358 C 909.608 0.2772 3.1177 0
M  V30 9359 C 910.083 0.642185 4.53475 0
M  V30 9360 N 911.574 0.594396 4.5937 0
M  V30 9361 C 912.309 0.849385 5.67074 0
M  V30 9362 N 911.805 1.1699 6.82851 0
M  V30 9363 N 913.598 0.777016 5.56704 0
M  V30 9364 H 905.749 1.25079 1.71665 0
M  V30 9365 H 908.012 0.506516 0.80134 0
M  V30 9366 H 907.718 1.35233 3.24661 0
M  V30 9367 H 907.592 -0.321442 3.75828 0
M  V30 9368 H 909.979 -0.736725 2.85756 0
M  V30 9369 H 910.06 0.962289 2.3701 0
M  V30 9370 H 909.704 1.65388 4.80218 0
M  V30 9371 H 909.634 -0.0648831 5.2656 0
M  V30 9372 H 912.125 0.357256 3.76208 0
M  V30 9373 H 912.438 1.35067 7.60905 0
M  V30 9374 H 910.783 1.20785 6.84424 0
M  V30 9375 H 913.974 0.526333 4.65132 0
M  V30 9376 H 914.147 0.979113 6.4056 0
M  V30 9377 N 907.553 -1.57587 0.0200696 0
M  V30 9378 C 908.778 -1.96124 -0.674547 0
M  V30 9379 C 909.203 -0.896068 -1.65385 0
M  V30 9380 O 908.561 0.143925 -1.80728 0
M  V30 9381 C 908.609 -3.3376 -1.36517 0
M  V30 9382 O 907.713 -3.29483 -2.48022 0
M  V30 9383 H 907.054 -0.639719 -0.177919 0
M  V30 9384 H 909.584 -2.04447 0.0792317 0
M  V30 9385 H 909.594 -3.69785 -1.72403 0
M  V30 9386 H 908.269 -4.10832 -0.647265 0
M  V30 9387 H 906.846 -3.05162 -2.14314 0
M  V30 9388 N 909.032 0.252966 -1.55557 0
M  V30 9389 C 910.448 0.60118 -1.47844 0
M  V30 9390 C 910.648 1.88612 -0.709055 0
M  V30 9391 O 909.704 2.51395 -0.235964 0
M  V30 9392 C 911.017 0.709539 -2.92209 0
M  V30 9393 C 912.565 0.802269 -3.02544 0
M  V30 9394 C 913.04 0.94224 -4.48203 0
M  V30 9395 N 914.531 1.00726 -4.52116 0
M  V30 9396 C 915.266 1.13472 -5.6206 0
M  V30 9397 N 914.762 1.22811 -6.81828 0
M  V30 9398 N 916.555 1.1674 -5.49844 0
M  V30 9399 H 908.706 -0.590635 -2.04023 0
M  V30 9400 H 910.969 -0.202986 -0.926013 0
M  V30 9401 H 910.675 -0.164505 -3.51315 0
M  V30 9402 H 910.549 1.58343 -3.42356 0
M  V30 9403 H 912.936 1.66677 -2.43522 0
M  V30 9404 H 913.017 -0.0966469 -2.55617 0
M  V30 9405 H 912.661 0.0823209 -5.07833 0
M  V30 9406 H 912.591 1.85611 -4.92805 0
M  V30 9407 H 915.082 0.946684 -3.6585 0
M  V30 9408 H 915.395 1.32426 -7.61369 0
M  V30 9409 H 913.74 1.19779 -6.84601 0
M  V30 9410 H 916.931 1.09089 -4.55211 0
M  V30 9411 H 917.104 1.26329 -6.35567 0
M  V30 9412 N 910.51 1.48831 0.518367 0
M  V30 9413 C 911.926 1.35209 0.847979 0
M  V30 9414 C 912.126 0.371927 1.98038 0
M  V30 9415 O 911.182 -0.202681 2.51685 0
M  V30 9416 C 912.495 2.7552 1.20455 0
M  V30 9417 C 914.043 2.84094 1.31377 0
M  V30 9418 C 914.518 4.25132 1.70372 0
M  V30 9419 N 916.009 4.27861 1.77453 0
M  V30 9420 C 916.744 5.3394 2.09035 0
M  V30 9421 N 916.24 6.50285 2.3896 0
M  V30 9422 N 918.033 5.21343 2.10139 0
M  V30 9423 H 910.184 2.11166 -0.228624 0
M  V30 9424 H 912.447 0.94717 -0.0396599 0
M  V30 9425 H 912.153 3.48861 0.445991 0
M  V30 9426 H 912.027 3.09785 2.15204 0
M  V30 9427 H 914.414 2.11001 2.06307 0
M  V30 9428 H 914.495 2.53433 0.347203 0
M  V30 9429 H 914.139 4.98745 0.959975 0
M  V30 9430 H 914.069 4.53245 2.68098 0
M  V30 9431 H 916.56 3.43945 1.56557 0
M  V30 9432 H 916.873 7.26961 2.62196 0
M  V30 9433 H 915.218 6.5354 2.36454 0
M  V30 9434 H 918.409 4.29462 1.86225 0
M  V30 9435 H 918.582 6.04112 2.34419 0
M  V30 9436 N 911.988 -0.768124 1.37614 0
M  V30 9437 C 912.936 -1.9029 1.33763 0
M  V30 9438 C 913.93 -1.67888 0.225814 0
M  V30 9439 O 915.136 -1.75634 0.394043 0
M  V30 9440 H 911.511 -0.625828 0.416945 0
M  V30 9441 H 913.482 -1.90654 2.29551 0
M  V30 9442 C 912.231 -3.27598 1.16511 0
M  V30 9443 H 911.554 -3.45414 2.01318 0
M  V30 9444 H 912.994 -4.07288 1.17867 0
M  V30 9445 C 911.453 -3.36653 -0.129001 0
M  V30 9446 O 911.983 -3.86023 -1.11128 0
M  V30 9447 N 910.189 -2.90036 -0.180926 0
M  V30 9448 H 909.736 -2.5005 0.619076 0
M  V30 9449 H 909.694 -2.96475 -1.04641 0
M  V30 9450 N 913.466 -1.22244 -0.994698 0
M  V30 9451 C 914.882 -0.982006 -1.25813 0
M  V30 9452 C 915.082 0.325488 -1.98854 0
M  V30 9453 O 914.138 1.04857 -2.29698 0
M  V30 9454 C 915.451 -2.1795 -2.07167 0
M  V30 9455 C 916.999 -2.22287 -2.20358 0
M  V30 9456 C 917.474 -3.41583 -3.05098 0
M  V30 9457 N 918.965 -3.41734 -3.12686 0
M  V30 9458 C 919.7 -4.30692 -3.78539 0
M  V30 9459 N 919.196 -5.29865 -4.46335 0
M  V30 9460 N 920.989 -4.18473 -3.75283 0
M  V30 9461 H 913.14 -2.0631 -0.504963 0
M  V30 9462 H 915.403 -0.90395 -0.285618 0
M  V30 9463 H 915.109 -3.12758 -1.60858 0
M  V30 9464 H 914.983 -2.17862 -3.07922 0
M  V30 9465 H 917.37 -1.28028 -2.65881 0
M  V30 9466 H 917.451 -2.26414 -1.19039 0
M  V30 9467 H 917.095 -4.36141 -2.60275 0
M  V30 9468 H 917.025 -3.34695 -4.06555 0
M  V30 9469 H 919.516 -2.69969 -2.64433 0
M  V30 9470 H 919.829 -5.94027 -4.9432 0
M  V30 9471 H 918.174 -5.3378 -4.45089 0
M  V30 9472 H 921.365 -3.40249 -3.21478 0
M  V30 9473 H 921.538 -4.88007 -4.26326 0
M  V30 9474 N 914.944 1.19125 -1.03184 0
M  V30 9475 C 916.172 1.92838 -0.74975 0
M  V30 9476 C 916.587 1.75667 0.691851 0
M  V30 9477 O 915.944 1.0805 1.47076 0
M  V30 9478 C 915.995 3.44509 -1.09525 0
M  V30 9479 O 915.716 3.6113 -2.48025 0
M  V30 9480 C 917.217 4.35338 -0.836397 0
M  V30 9481 H 914.437 0.61246 -0.274105 0
M  V30 9482 H 916.981 1.5118 -1.37712 0
M  V30 9483 H 915.136 3.83988 -0.513006 0
M  V30 9484 H 915.55 4.54959 -2.60984 0
M  V30 9485 H 917.024 5.4035 -1.12808 0
M  V30 9486 H 917.501 4.38602 0.229102 0
M  V30 9487 H 918.107 4.01544 -1.40152 0
M  V30 9488 N 916.422 0.810101 1.35185 0
M  V30 9489 C 917.668 0.392698 1.98962 0
M  V30 9490 C 918.001 -1.03835 1.64109 0
M  V30 9491 O 917.276 -1.721 0.9062 0
M  V30 9492 C 917.559 0.580349 3.55393 0
M  V30 9493 C 917.412 2.05658 4.00031 0
M  V30 9494 C 918.731 0.00822618 4.40099 0
M  V30 9495 H 915.85 0.144157 0.722764 0
M  V30 9496 H 918.492 1.02029 1.60281 0
M  V30 9497 H 916.642 0.0461106 3.88473 0
M  V30 9498 H 918.314 2.65348 3.77344 0
M  V30 9499 H 916.557 2.55174 3.50811 0
M  V30 9500 H 917.228 2.13875 5.08883 0
M  V30 9501 H 919.704 0.464517 4.13499 0
M  V30 9502 H 918.58 0.169414 5.48638 0
M  V30 9503 H 918.841 -1.08576 4.2856 0
M  V30 9504 N 917.9 -1.47166 0.563914 0
M  V30 9505 C 919.147 -2.02456 0.042371 0
M  V30 9506 C 919.475 -1.43753 -1.31016 0
M  V30 9507 O 918.73 -0.585287 -1.86743 0
M  V30 9508 C 919.029 -3.57279 -0.0931797 0
M  V30 9509 C 918.695 -4.34932 1.18933 0
M  V30 9510 C 917.357 -4.55867 1.54073 0
M  V30 9511 C 919.709 -4.79665 2.03889 0
M  V30 9512 C 917.037 -5.18785 2.74005 0
M  V30 9513 C 919.389 -5.43907 3.23029 0
M  V30 9514 C 918.053 -5.63074 3.58475 0
M  V30 9515 H 917.323 -0.740838 0.0155047 0
M  V30 9516 H 919.97 -1.76759 0.736776 0
M  V30 9517 H 918.275 -3.82005 -0.870596 0
M  V30 9518 H 919.972 -3.97716 -0.512176 0
M  V30 9519 H 916.562 -4.18921 0.905718 0
M  V30 9520 H 920.746 -4.63264 1.78046 0
M  V30 9521 H 916.002 -5.31818 3.01628 0
M  V30 9522 H 920.176 -5.77531 3.89141 0
M  V30 9523 H 917.803 -6.11598 4.515 0
M  V30 9524 N 919.378 -0.300708 -1.54705 0
M  V30 9525 C 920.341 0.562648 -2.22187 0
M  V30 9526 C 921.341 1.06152 -1.20782 0
M  V30 9527 O 922.531 0.957596 -1.45519 0
M  V30 9528 C 919.663 1.77899 -2.908 0
M  V30 9529 H 920.856 -0.0269361 -2.99888 0
M  V30 9530 H 918.409 -0.0515412 -1.56215 0
M  V30 9531 H 919.144 2.40841 -2.17177 0
M  V30 9532 H 918.929 1.42892 -3.65136 0
M  V30 9533 H 920.419 2.39236 -3.42281 0
M  V30 9534 N 920.856 1.57574 -0.0284266 0
M  V30 9535 C 921.819 2.09096 0.938691 0
M  V30 9536 C 922.819 1.00588 1.25454 0
M  V30 9537 O 924.009 1.2675 1.19499 0
M  V30 9538 C 921.141 2.55624 2.25542 0
M  V30 9539 H 922.334 2.95829 0.49248 0
M  V30 9540 H 919.887 1.5475 0.219594 0
M  V30 9541 H 920.622 1.72218 2.74793 0
M  V30 9542 H 920.407 3.34896 2.03929 0
M  V30 9543 H 921.897 2.95712 2.94863 0
M  V30 9544 N 922.334 -0.244713 1.55689 0
M  V30 9545 C 923.58 -0.973886 1.77886 0
M  V30 9546 C 923.913 -1.8489 0.594071 0
M  V30 9547 O 923.188 -1.90182 -0.407564 0
M  V30 9548 C 923.471 -1.83255 3.09983 0
M  V30 9549 C 923.324 -0.985571 4.3887 0
M  V30 9550 C 924.643 -2.81464 3.38329 0
M  V30 9551 H 921.762 -0.352629 0.647165 0
M  V30 9552 H 924.404 -0.244243 1.88424 0
M  V30 9553 H 922.554 -2.45464 3.01131 0
M  V30 9554 H 924.226 -0.382005 4.59716 0
M  V30 9555 H 922.469 -0.29002 4.32829 0
M  V30 9556 H 923.14 -1.62022 5.27686 0
M  V30 9557 H 925.616 -2.2939 3.47159 0
M  V30 9558 H 924.492 -3.38663 4.31971 0
M  V30 9559 H 924.753 -3.58037 2.59349 0
M  V30 9560 N 923.813 -1.49104 -0.510467 0
M  V30 9561 C 925.059 -1.58346 -1.26705 0
M  V30 9562 C 925.392 -0.265121 -1.92382 0
M  V30 9563 O 924.667 0.730558 -1.80258 0
M  V30 9564 C 924.95 -2.7359 -2.34137 0
M  V30 9565 C 924.803 -4.1519 -1.73024 0
M  V30 9566 C 926.122 -2.84511 -3.3577 0
M  V30 9567 H 923.241 -0.57637 -0.459311 0
M  V30 9568 H 925.883 -1.81353 -0.566658 0
M  V30 9569 H 924.033 -2.54105 -2.93876 0
M  V30 9570 H 925.705 -4.46167 -1.17186 0
M  V30 9571 H 923.948 -4.21279 -1.03473 0
M  V30 9572 H 924.619 -4.91683 -2.50903 0
M  V30 9573 H 927.095 -3.0222 -2.86011 0
M  V30 9574 H 925.971 -3.6684 -4.08313 0
M  V30 9575 H 926.232 -1.93471 -3.97519 0
M  V30 9576 N 925.291 0.760815 -1.38019 0
M  V30 9577 C 926.537 1.52198 -1.34028 0
M  V30 9578 C 926.87 1.94067 0.0718309 0
M  V30 9579 O 926.145 1.64895 1.0315 0
M  V30 9580 C 926.428 2.77954 -2.2894 0
M  V30 9581 C 926.281 2.42269 -3.7898 0
M  V30 9582 C 927.6 3.79943 -2.22107 0
M  V30 9583 H 924.719 0.552131 -0.488181 0
M  V30 9584 H 927.361 0.871971 -1.6881 0
M  V30 9585 H 925.511 3.33419 -1.9941 0
M  V30 9586 H 927.183 1.92635 -4.19153 0
M  V30 9587 H 925.426 1.74822 -3.97014 0
M  V30 9588 H 926.097 3.32211 -4.4084 0
M  V30 9589 H 928.573 3.34 -2.4816 0
M  V30 9590 H 927.449 4.6564 -2.90639 0
M  V30 9591 H 927.71 4.25004 -1.21753 0
M  V30 9592 N 926.769 1.22769 0.988202 0
M  V30 9593 C 928.016 1.05509 1.72841 0
M  V30 9594 C 928.344 -0.409145 1.90148 0
M  V30 9595 O 927.599 -1.3195 1.44526 0
M  V30 9596 C 927.898 1.71679 3.13466 0
M  V30 9597 C 927.564 3.21584 3.16061 0
M  V30 9598 C 926.226 3.62486 3.16476 0
M  V30 9599 C 928.578 4.17511 3.11984 0
M  V30 9600 C 925.906 4.97789 3.10521 0
M  V30 9601 C 928.258 5.52796 3.0757 0
M  V30 9602 C 926.922 5.93072 3.06304 0
M  V30 9603 H 926.192 0.386085 0.632471 0
M  V30 9604 H 928.839 1.52596 1.157 0
M  V30 9605 H 927.144 1.1693 3.73945 0
M  V30 9606 H 928.841 1.55809 3.69492 0
M  V30 9607 H 925.431 2.89019 3.1649 0
M  V30 9608 H 929.615 3.86926 3.10809 0
M  V30 9609 H 924.871 5.28218 3.07888 0
M  V30 9610 H 929.045 6.26848 3.03372 0
M  V30 9611 H 926.672 6.97879 3.01444 0
M  V30 9612 N 928.247 -1.18576 1.03814 0
M  V30 9613 C 929.493 -1.88773 0.741132 0
M  V30 9614 C 929.826 -1.79993 -0.729127 0
M  V30 9615 O 929.101 -1.19851 -1.53186 0
M  V30 9616 C 929.384 -3.39352 1.20468 0
M  V30 9617 C 929.237 -3.56955 2.73684 0
M  V30 9618 C 930.556 -4.32901 0.792741 0
M  V30 9619 H 927.675 -0.685482 0.270708 0
M  V30 9620 H 930.317 -1.39523 1.2897 0
M  V30 9621 H 928.467 -3.81427 0.737974 0
M  V30 9622 H 930.139 -3.2399 3.28372 0
M  V30 9623 H 928.382 -2.99696 3.13632 0
M  V30 9624 H 929.053 -4.62598 3.01176 0
M  V30 9625 H 931.529 -3.98592 1.1943 0
M  V30 9626 H 930.405 -5.36828 1.14486 0
M  V30 9627 H 930.666 -4.41052 -0.304295 0
M  V30 9628 N 929.725 -0.817259 -1.34754 0
M  V30 9629 C 930.655 -0.249769 -2.3216 0
M  V30 9630 C 931.636 0.630663 -1.57977 0
M  V30 9631 O 932.821 0.558719 -1.85989 0
M  V30 9632 C 929.951 0.593825 -3.42186 0
M  V30 9633 C 928.905 -0.188997 -4.27583 0
M  V30 9634 C 928.231 0.776979 -5.29025 0
M  V30 9635 C 929.531 -1.39401 -5.03354 0
M  V30 9636 H 931.225 -1.06359 -2.79872 0
M  V30 9637 H 928.771 -0.512894 -1.34556 0
M  V30 9638 H 930.724 1.00097 -4.09339 0
M  V30 9639 H 929.448 1.44064 -2.93109 0
M  V30 9640 H 928.107 -0.577445 -3.62024 0
M  V30 9641 H 927.755 1.61959 -4.76212 0
M  V30 9642 H 927.455 0.257448 -5.87036 0
M  V30 9643 H 928.979 1.18211 -5.99048 0
M  V30 9644 H 930.393 -1.06117 -5.63393 0
M  V30 9645 H 928.79 -1.84878 -5.70912 0
M  V30 9646 H 929.86 -2.17515 -4.33377 0
M  V30 9647 N 931.203 1.46865 -0.571711 0
M  V30 9648 C 932.166 2.28658 0.157499 0
M  V30 9649 C 933.166 1.37773 0.829172 0
M  V30 9650 O 934.356 1.6026 0.682811 0
M  V30 9651 C 931.488 3.17859 1.23202 0
M  V30 9652 H 932.681 2.94603 -0.561171 0
M  V30 9653 H 930.234 1.52793 -0.329229 0
M  V30 9654 H 930.969 2.56637 1.98262 0
M  V30 9655 H 930.754 3.84762 0.755031 0
M  V30 9656 H 932.244 3.7945 1.74378 0
M  V30 9657 N 932.681 0.308908 1.54543 0
M  V30 9658 C 933.611 -0.556657 2.26768 0
M  V30 9659 C 934.592 -1.13145 1.27013 0
M  V30 9660 O 935.777 -1.15931 1.558 0
M  V30 9661 C 932.907 -1.72481 3.01443 0
M  V30 9662 C 931.861 -1.28001 4.08411 0
M  V30 9663 C 931.187 -2.53395 4.70845 0
M  V30 9664 C 932.487 -0.405497 5.20724 0
M  V30 9665 H 934.181 0.0457618 2.99365 0
M  V30 9666 H 931.727 0.0234495 1.43981 0
M  V30 9667 H 933.68 -2.3365 3.50693 0
M  V30 9668 H 932.404 -2.35359 2.26437 0
M  V30 9669 H 931.063 -0.69133 3.60022 0
M  V30 9670 H 930.711 -3.14604 3.92471 0
M  V30 9671 H 930.411 -2.2433 5.43093 0
M  V30 9672 H 931.935 -3.15352 5.22863 0
M  V30 9673 H 933.349 -0.923076 5.6582 0
M  V30 9674 H 931.746 -0.208282 5.99738 0
M  V30 9675 H 932.816 0.567412 4.81569 0
M  V30 9676 N 934.159 -1.57557 0.0367827 0
M  V30 9677 C 935.384 -1.96828 -0.653707 0
M  V30 9678 C 935.809 -0.913559 -1.64425 0
M  V30 9679 O 935.167 0.124749 -1.8087 0
M  V30 9680 C 935.215 -3.35189 -1.32969 0
M  V30 9681 O 934.319 -3.32095 -2.44513 0
M  V30 9682 H 933.66 -0.64157 -0.171124 0
M  V30 9683 H 936.19 -2.04351 0.100912 0
M  V30 9684 H 936.2 -3.71593 -1.68472 0
M  V30 9685 H 934.875 -4.11496 -0.603654 0
M  V30 9686 H 933.452 -3.07418 -2.11065 0
M  V30 9687 N 935.637 0.236453 -1.55816 0
M  V30 9688 C 936.884 0.963012 -1.78136 0
M  V30 9689 C 937.212 1.84918 -0.602952 0
M  V30 9690 O 936.467 1.91285 0.413325 0
M  V30 9691 C 936.766 1.84549 -3.06066 0
M  V30 9692 C 936.432 1.11381 -4.36927 0
M  V30 9693 C 935.094 0.911635 -4.72486 0
M  V30 9694 C 937.446 0.596 -5.17781 0
M  V30 9695 C 934.774 0.179515 -5.86425 0
M  V30 9696 C 937.126 -0.122702 -6.32481 0
M  V30 9697 C 935.79 -0.336263 -6.66652 0
M  V30 9698 H 935.06 0.352391 -0.651845 0
M  V30 9699 H 937.707 0.232295 -1.90086 0
M  V30 9700 H 936.012 2.6436 -2.89173 0
M  V30 9701 H 937.709 2.40953 -3.20535 0
M  V30 9702 H 934.299 1.28134 -4.08998 0
M  V30 9703 H 938.483 0.73971 -4.90757 0
M  V30 9704 H 933.739 0.00368224 -6.114 0
M  V30 9705 H 937.913 -0.531516 -6.94369 0
M  V30 9706 H 935.54 -0.905507 -7.54788 0
M  V30 9707 N 937.115 1.49373 0.502552 0
M  V30 9708 C 938.078 1.65413 1.58654 0
M  V30 9709 C 939.078 0.526003 1.51953 0
M  V30 9710 O 940.268 0.792421 1.55133 0
M  V30 9711 C 937.4 1.65005 2.98306 0
M  V30 9712 H 938.593 2.62095 1.45762 0
M  V30 9713 H 936.146 1.38381 0.726672 0
M  V30 9714 H 936.881 0.699014 3.16677 0
M  V30 9715 H 936.666 2.46931 3.04578 0
M  V30 9716 H 938.156 1.79477 3.77065 0
M  V30 9717 N 938.594 -0.753485 1.38421 0
M  V30 9718 C 939.819 -1.54783 1.38047 0
M  V30 9719 C 940.244 -1.8808 -0.0276371 0
M  V30 9720 O 939.602 -1.5058 -1.00973 0
M  V30 9721 C 939.65 -2.82353 2.24297 0
M  V30 9722 O 938.754 -3.77509 1.66014 0
M  V30 9723 H 938.095 -0.468151 0.470883 0
M  V30 9724 H 940.625 -0.931144 1.82184 0
M  V30 9725 H 940.635 -3.31277 2.38159 0
M  V30 9726 H 939.31 -2.57449 3.26639 0
M  V30 9727 H 937.887 -3.36212 1.61294 0
M  V30 9728 N 940.072 -1.23292 -0.981677 0
M  V30 9729 C 941.318 -1.06582 -1.72535 0
M  V30 9730 C 941.651 0.396538 -1.90108 0
M  V30 9731 O 940.926 1.29363 -1.45243 0
M  V30 9732 C 941.209 -1.7904 -3.12437 0
M  V30 9733 C 941.062 -3.32941 -3.02441 0
M  V30 9734 C 942.381 -1.55185 -4.11832 0
M  V30 9735 H 939.5 -0.388585 -0.626236 0
M  V30 9736 H 942.142 -1.51779 -1.14293 0
M  V30 9737 H 940.292 -1.40619 -3.62158 0
M  V30 9738 H 941.964 -3.80875 -2.60254 0
M  V30 9739 H 940.207 -3.62039 -2.38977 0
M  V30 9740 H 940.878 -3.78827 -4.0149 0
M  V30 9741 H 943.354 -1.88581 -3.70913 0
M  V30 9742 H 942.23 -2.08362 -5.07815 0
M  V30 9743 H 942.491 -0.486925 -4.3941 0
M  V30 9744 N 941.55 1.18024 -1.04442 0
M  V30 9745 C 942.498 2.23834 -0.632557 0
M  V30 9746 C 943.492 1.65902 0.342488 0
M  V30 9747 O 944.698 1.78778 0.20937 0
M  V30 9748 H 941.073 0.728544 -0.186353 0
M  V30 9749 H 943.044 2.55876 -1.53526 0
M  V30 9750 C 941.793 3.47697 -0.0153661 0
M  V30 9751 H 941.116 3.92574 -0.756704 0
M  V30 9752 H 942.556 4.23345 0.235541 0
M  V30 9753 C 941.015 3.13416 1.23579 0
M  V30 9754 O 941.545 3.27499 2.3261 0
M  V30 9755 N 939.751 2.67708 1.13053 0
M  V30 9756 H 939.298 2.56449 0.243277 0
M  V30 9757 H 939.256 2.45143 1.96855 0
M  V30 9758 N 943.028 0.824394 1.34319 0
M  V30 9759 C 944.276 0.41235 1.97849 0
M  V30 9760 C 944.597 -1.02841 1.65677 0
M  V30 9761 O 943.867 -1.71421 0.948245 0
M  V30 9762 H 942.447 0.149486 0.73189 0
M  V30 9763 H 945.109 1.05416 1.63931 0
M  V30 9764 H 944.205 0.532557 3.07523 0
M  V30 9765 N 944.506 -1.46559 0.579492 0
M  V30 9766 C 945.752 -2.03272 0.0722569 0
M  V30 9767 C 946.107 -1.44334 -1.27222 0
M  V30 9768 O 945.4 -0.597848 -1.82034 0
M  V30 9769 C 945.594 -3.57357 -0.0552803 0
M  V30 9770 C 945.423 -4.31238 1.27529 0
M  V30 9771 C 944.193 -4.70272 1.84857 0
M  V30 9772 C 946.391 -4.64978 2.19773 0
M  V30 9773 N 944.373 -5.2889 3.11687 0
M  V30 9774 C 945.744 -5.24132 3.31189 0
M  V30 9775 C 947.799 -4.46908 2.19493 0
M  V30 9776 C 946.502 -5.67123 4.42452 0
M  V30 9777 C 948.528 -4.90914 3.29784 0
M  V30 9778 C 947.89 -5.50136 4.3992 0
M  V30 9779 H 943.989 -0.778937 0.0691416 0
M  V30 9780 H 946.573 -1.78754 0.771683 0
M  V30 9781 H 944.744 -3.81595 -0.723868 0
M  V30 9782 H 946.476 -4.00714 -0.566606 0
M  V30 9783 H 943.231 -4.5293 1.38388 0
M  V30 9784 H 943.655 -5.62723 3.76393 0
M  V30 9785 H 948.297 -4.00459 1.35617 0
M  V30 9786 H 946.015 -6.12552 5.27073 0
M  V30 9787 H 949.601 -4.78687 3.30682 0
M  V30 9788 H 948.481 -5.83564 5.23854 0
M  V30 9789 N 945.984 -0.3171 -1.54377 0
M  V30 9790 C 947.23 0.280631 -2.01455 0
M  V30 9791 C 947.585 1.50282 -1.20138 0
M  V30 9792 O 946.878 1.89634 -0.273785 0
M  V30 9793 C 947.072 0.672917 -3.51008 0
M  V30 9794 C 946.901 -0.509709 -4.46802 0
M  V30 9795 C 945.671 -1.00679 -4.95168 0
M  V30 9796 C 947.869 -1.35984 -4.95997 0
M  V30 9797 N 945.851 -2.1545 -5.74852 0
M  V30 9798 C 947.222 -2.35481 -5.73541 0
M  V30 9799 C 949.277 -1.38836 -4.78152 0
M  V30 9800 C 947.98 -3.37625 -6.35139 0
M  V30 9801 C 950.006 -2.39847 -5.40581 0
M  V30 9802 C 949.368 -3.38071 -6.1797 0
M  V30 9803 H 945.467 0.0667107 -0.779149 0
M  V30 9804 H 948.051 -0.450672 -1.89412 0
M  V30 9805 H 946.222 1.37336 -3.63309 0
M  V30 9806 H 947.954 1.25156 -3.84861 0
M  V30 9807 H 944.709 -0.579125 -4.70046 0
M  V30 9808 H 945.133 -2.73324 -6.19373 0
M  V30 9809 H 949.775 -0.642643 -4.17887 0
M  V30 9810 H 947.493 -4.13106 -6.94528 0
M  V30 9811 H 951.079 -2.42847 -5.28693 0
M  V30 9812 H 949.959 -4.14953 -6.6542 0
M  V30 9813 N 947.462 1.57535 -0.0451378 0
M  V30 9814 C 948.692 1.96476 0.638814 0
M  V30 9815 C 949.1 0.921056 1.65267 0
M  V30 9816 O 948.443 -0.103843 1.83406 0
M  V30 9817 C 948.505 3.31629 1.38788 0
M  V30 9818 C 948.169 4.5391 0.530545 0
M  V30 9819 C 949.166 5.19512 -0.200864 0
M  V30 9820 C 946.851 5.00159 0.463242 0
M  V30 9821 C 948.845 6.29695 -0.988078 0
M  V30 9822 C 946.532 6.10221 -0.327665 0
M  V30 9823 C 947.53 6.74849 -1.05202 0
M  V30 9824 O 947.218 7.82795 -1.82993 0
M  V30 9825 H 946.95 0.651625 0.17989 0
M  V30 9826 H 949.504 2.05126 -0.106031 0
M  V30 9827 H 947.734 3.19516 2.17822 0
M  V30 9828 H 949.423 3.5536 1.96148 0
M  V30 9829 H 950.189 4.84742 -0.158299 0
M  V30 9830 H 946.068 4.49651 1.01663 0
M  V30 9831 H 949.612 6.80072 -1.55397 0
M  V30 9832 H 945.509 6.44428 -0.37189 0
M  V30 9833 H 946.277 7.99542 -1.7514 0
M  V30 9834 N 948.94 -0.228186 1.55939 0
M  V30 9835 C 950.186 -0.954964 1.78909 0
M  V30 9836 C 950.519 -1.8425 0.613648 0
M  V30 9837 O 949.794 -1.90604 -0.38737 0
M  V30 9838 C 950.077 -1.79957 3.1191 0
M  V30 9839 C 949.93 -0.938968 4.3989 0
M  V30 9840 C 951.249 -2.77859 3.41295 0
M  V30 9841 H 948.368 -0.345745 0.650868 0
M  V30 9842 H 951.01 -0.224244 1.88672 0
M  V30 9843 H 949.16 -2.42256 3.03717 0
M  V30 9844 H 950.832 -0.333225 4.60095 0
M  V30 9845 H 949.075 -0.244096 4.33113 0
M  V30 9846 H 949.746 -1.56416 5.29375 0
M  V30 9847 H 952.222 -2.25695 3.49572 0
M  V30 9848 H 951.098 -3.34062 4.35538 0
M  V30 9849 H 951.359 -3.55266 2.63132 0
M  V30 9850 N 950.418 -1.49637 -0.494624 0
M  V30 9851 C 951.643 -1.63431 -1.27691 0
M  V30 9852 C 952.068 -0.30813 -1.85559 0
M  V30 9853 O 951.426 0.725083 -1.66169 0
M  V30 9854 C 951.474 -2.71043 -2.3784 0
M  V30 9855 O 950.578 -2.3066 -3.41862 0
M  V30 9856 H 949.919 -0.546804 -0.376698 0
M  V30 9857 H 952.449 -1.95866 -0.591413 0
M  V30 9858 H 952.459 -2.93406 -2.83508 0
M  V30 9859 H 951.134 -3.67306 -1.95088 0
M  V30 9860 H 949.711 -2.18652 -3.02069 0
M  V30 9861 N 951.896 0.746133 -1.38819 0
M  V30 9862 C 952.844 1.88137 -1.36774 0
M  V30 9863 C 953.838 1.67508 -0.252495 0
M  V30 9864 O 955.044 1.74985 -0.421935 0
M  V30 9865 H 951.419 0.619116 -0.426849 0
M  V30 9866 H 953.39 1.86978 -2.32555 0
M  V30 9867 C 952.139 3.25703 -1.21708 0
M  V30 9868 H 951.462 3.42168 -2.06788 0
M  V30 9869 H 952.902 4.05361 -1.24332 0
M  V30 9870 C 951.361 3.36816 0.0754257 0
M  V30 9871 O 951.891 3.87742 1.04972 0
M  V30 9872 N 950.097 2.90287 0.134761 0
M  V30 9873 H 949.644 2.49034 -0.658779 0
M  V30 9874 H 949.602 2.98103 0.999109 0
M  V30 9875 N 953.375 1.23811 0.975125 0
M  V30 9876 C 954.622 1.07336 1.71712 0
M  V30 9877 C 954.95 -0.388954 1.90571 0
M  V30 9878 O 954.205 -1.30409 1.45918 0
M  V30 9879 C 954.504 1.74994 3.11628 0
M  V30 9880 C 954.17 3.24918 3.12632 0
M  V30 9881 C 952.832 3.65822 3.12614 0
M  V30 9882 C 955.184 4.20797 3.07538 0
M  V30 9883 C 952.512 5.01054 3.05224 0
M  V30 9884 C 954.864 5.56027 3.0169 0
M  V30 9885 C 953.528 5.96287 2.99996 0
M  V30 9886 H 952.798 0.392771 0.62834 0
M  V30 9887 H 955.445 1.53815 1.14075 0
M  V30 9888 H 953.75 1.20889 3.72684 0
M  V30 9889 H 955.447 1.5972 3.67819 0
M  V30 9890 H 952.037 2.92359 3.13407 0
M  V30 9891 H 956.221 3.902 3.06688 0
M  V30 9892 H 951.477 5.31454 3.02268 0
M  V30 9893 H 955.651 6.3003 2.96706 0
M  V30 9894 H 953.278 7.01037 2.94025 0
M  V30 9895 N 954.853 -1.17469 1.05066 0
M  V30 9896 C 956.101 -1.87327 0.758485 0
M  V30 9897 C 956.422 -1.81358 -0.716549 0
M  V30 9898 O 955.692 -1.23868 -1.51768 0
M  V30 9899 H 954.272 -0.693512 0.277579 0
M  V30 9900 H 956.934 -1.4251 1.32954 0
M  V30 9901 H 956.03 -2.93101 1.0723 0
M  V30 9902 N 956.331 -0.831506 -1.3388 0
M  V30 9903 C 957.577 -0.424302 -1.98312 0
M  V30 9904 C 957.91 1.01211 -1.65741 0
M  V30 9905 O 957.185 1.70636 -0.933464 0
M  V30 9906 C 957.468 -0.636815 -3.54424 0
M  V30 9907 C 957.321 -2.11997 -3.96708 0
M  V30 9908 C 958.64 -0.0782411 -4.4003 0
M  V30 9909 H 955.759 -0.155637 -0.720379 0
M  V30 9910 H 958.401 -1.04566 -1.58638 0
M  V30 9911 H 956.551 -0.107907 -3.8835 0
M  V30 9912 H 958.223 -2.71317 -3.73075 0
M  V30 9913 H 956.466 -2.60723 -3.46707 0
M  V30 9914 H 957.137 -2.21944 -5.05416 0
M  V30 9915 H 959.613 -0.530243 -4.12708 0
M  V30 9916 H 958.489 -0.256676 -5.483 0
M  V30 9917 H 958.75 1.01745 -4.30233 0
M  V30 9918 N 957.809 1.4625 -0.587256 0
M  V30 9919 C 959.22 1.85997 -0.161918 0
M  V30 9920 C 959.571 1.49025 1.27616 0
M  V30 9921 O 958.696 0.907282 1.96462 0
M  V30 9922 C 959.291 3.37582 -0.287077 0
M  V30 9923 C 957.85 3.76308 0.0834211 0
M  V30 9924 C 956.997 2.70259 -0.620932 0
M  V30 9925 H 959.948 1.3734 -0.795199 0
M  V30 9926 H 959.969 3.77379 0.486333 0
M  V30 9927 H 959.481 3.64459 -1.33383 0
M  V30 9928 H 957.582 3.55047 1.13013 0
M  V30 9929 H 957.695 4.78184 -0.296064 0
M  V30 9930 H 956.059 2.54628 -0.0607027 0
M  V30 9931 H 956.842 2.99975 -1.66942 0
M  V30 9932 N 959.287 0.325282 1.54207 0
M  V30 9933 C 960.533 -0.269944 2.01601 0
M  V30 9934 C 960.888 -1.49643 1.20933 0
M  V30 9935 O 960.181 -1.89486 0.283838 0
M  V30 9936 C 960.375 -0.654292 3.5136 0
M  V30 9937 C 960.204 0.533397 4.46525 0
M  V30 9938 C 958.974 1.03304 4.94628 0
M  V30 9939 C 961.172 1.38613 4.95269 0
M  V30 9940 N 959.154 2.18495 5.73701 0
M  V30 9941 C 960.525 2.38519 5.72284 0
M  V30 9942 C 962.58 1.41369 4.77409 0
M  V30 9943 C 961.283 3.40988 6.3334 0
M  V30 9944 C 963.309 2.4271 5.39301 0
M  V30 9945 C 962.671 3.41343 6.16169 0
M  V30 9946 H 958.77 -0.0625778 0.779492 0
M  V30 9947 H 961.354 0.460711 1.89171 0
M  V30 9948 H 959.525 -1.35408 3.64032 0
M  V30 9949 H 961.257 -1.23114 3.85519 0
M  V30 9950 H 958.012 0.604045 4.69732 0
M  V30 9951 H 958.436 2.76605 6.17915 0
M  V30 9952 H 963.078 0.664796 4.17541 0
M  V30 9953 H 960.796 4.16784 6.92327 0
M  V30 9954 H 964.382 2.45647 5.27398 0
M  V30 9955 H 963.262 4.18476 6.6321 0
M  V30 9956 N 960.765 -1.57509 0.0534917 0
M  V30 9957 C 961.99 -1.97511 -0.632794 0
M  V30 9958 C 962.415 -0.930947 -1.63447 0
M  V30 9959 O 961.773 0.105558 -1.80992 0
M  V30 9960 C 961.821 -3.3658 -1.29407 0
M  V30 9961 O 960.925 -3.3467 -2.40977 0
M  V30 9962 H 960.266 -0.643349 -0.16431 0
M  V30 9963 H 962.796 -2.04232 0.12258 0
M  V30 9964 H 962.806 -3.73359 -1.64521 0
M  V30 9965 H 961.481 -4.12113 -0.559976 0
M  V30 9966 H 960.058 -3.09639 -2.07793 0
M  V30 9967 N 962.243 0.219913 -1.56058 0
M  V30 9968 C 963.191 1.29215 -1.93407 0
M  V30 9969 C 964.185 1.48434 -0.816307 0
M  V30 9970 O 965.391 1.49589 -1.00115 0
M  V30 9971 H 961.766 0.433256 -0.614649 0
M  V30 9972 H 963.737 0.949977 -2.82875 0
M  V30 9973 C 962.486 2.63501 -2.26854 0
M  V30 9974 H 961.809 2.4952 -3.12377 0
M  V30 9975 H 963.249 3.37334 -2.56869 0
M  V30 9976 C 961.708 3.18634 -1.09425 0
M  V30 9977 O 962.238 4.00117 -0.356243 0
M  V30 9978 N 960.444 2.7703 -0.877642 0
M  V30 9979 H 959.991 2.10875 -1.47951 0
M  V30 9980 H 959.949 3.1426 -0.0936792 0
M  V30 9981 N 963.721 1.49897 0.486681 0
M  V30 9982 C 964.946 1.64106 1.26823 0
M  V30 9983 C 965.371 0.317967 1.85393 0
M  V30 9984 O 964.729 -0.71626 1.66551 0
M  V30 9985 C 964.777 2.72301 2.36399 0
M  V30 9986 O 963.881 2.32469 3.40634 0
M  V30 9987 H 963.222 0.548794 0.373793 0
M  V30 9988 H 965.752 1.96177 0.581017 0
M  V30 9989 H 965.762 2.94906 2.81948 0
M  V30 9990 H 964.437 3.68335 1.93137 0
M  V30 9991 H 963.014 2.20251 3.00905 0
M  V30 9992 N 965.199 -0.738761 1.39212 0
M  V30 9993 C 966.446 -1.49824 1.36231 0
M  V30 9994 C 966.774 -1.94453 -0.0429552 0
M  V30 9995 O 966.029 -1.6683 -1.02304 0
M  V30 9996 C 966.328 -2.75435 2.2775 0
M  V30 9997 C 965.994 -2.49694 3.75451 0
M  V30 9998 C 964.656 -2.42383 4.15697 0
M  V30 9999 C 967.008 -2.27587 4.68885 0
M  V30 10000 C 964.336 -2.11001 5.47444 0
M  V30 10001 C 966.688 -1.97723 6.00906 0
M  V30 10002 C 965.352 -1.88879 6.4022 0
M  V30 10003 H 964.622 -0.548247 0.498504 0
M  V30 10004 H 967.269 -0.848244 1.71689 0
M  V30 10005 H 965.574 -3.45159 1.85398 0
M  V30 10006 H 967.271 -3.33449 2.22739 0
M  V30 10007 H 963.861 -2.56261 3.43552 0
M  V30 10008 H 968.045 -2.32206 4.38628 0
M  V30 10009 H 963.301 -2.02673 5.76831 0
M  V30 10010 H 967.475 -1.79625 6.72836 0
M  V30 10011 H 965.102 -1.64327 7.42227 0
M  V30 10012 N 966.677 -1.24326 -0.968545 0
M  V30 10013 C 968.088 -1.07561 -1.52603 0
M  V30 10014 C 968.439 0.353245 -1.92994 0
M  V30 10015 O 967.564 1.24151 -1.77244 0
M  V30 10016 C 968.159 -1.94634 -2.77314 0
M  V30 10017 C 966.718 -1.82095 -3.29421 0
M  V30 10018 C 965.865 -1.8962 -2.02335 0
M  V30 10019 H 968.816 -1.37815 -0.786932 0
M  V30 10020 H 968.837 -1.47812 -3.50616 0
M  V30 10021 H 968.349 -2.98621 -2.47885 0
M  V30 10022 H 966.45 -0.809376 -3.63703 0
M  V30 10023 H 966.563 -2.66142 -3.98378 0
M  V30 10024 H 964.927 -1.33339 -2.17009 0
M  V30 10025 H 965.71 -2.95185 -1.75273 0
M  V30 10026 N 968.156 1.1691 -1.05688 0
M  V30 10027 C 969.103 2.21095 -0.662246 0
M  V30 10028 C 970.073 1.62623 0.338083 0
M  V30 10029 O 971.258 1.89428 0.228362 0
M  V30 10030 C 968.398 3.45066 -0.0484018 0
M  V30 10031 C 967.511 4.17809 -1.09817 0
M  V30 10032 C 966.646 5.29281 -0.451114 0
M  V30 10033 C 965.685 5.93817 -1.48484 0
M  V30 10034 N 964.822 6.96793 -0.861588 0
M  V30 10035 H 969.662 2.54204 -1.55513 0
M  V30 10036 H 967.199 1.24863 -0.777665 0
M  V30 10037 H 969.157 4.15932 0.324978 0
M  V30 10038 H 967.787 3.12526 0.807918 0
M  V30 10039 H 966.839 3.45608 -1.58932 0
M  V30 10040 H 968.151 4.61907 -1.88265 0
M  V30 10041 H 967.305 6.06695 -0.0244251 0
M  V30 10042 H 966.044 4.8633 0.365306 0
M  V30 10043 H 965.049 5.1513 -1.92149 0
M  V30 10044 H 966.274 6.38848 -2.30325 0
M  V30 10045 H 964.22 6.55967 -0.0657688 0
M  V30 10046 H 964.137 7.39229 -1.58354 0
M  V30 10047 H 965.405 7.78142 -0.45984 0
M  V30 10048 N 969.634 0.838594 1.33437 0
M  V30 10049 C 970.88 0.444042 1.98494 0
M  V30 10050 C 971.235 -0.985759 1.65229 0
M  V30 10051 O 970.528 -1.67972 0.921736 0
M  V30 10052 C 970.722 0.601425 3.52303 0
M  V30 10053 C 970.551 2.04497 4.00513 0
M  V30 10054 C 969.321 2.68015 4.28364 0
M  V30 10055 C 971.519 3.01367 4.16752 0
M  V30 10056 N 969.501 4.03448 4.62713 0
M  V30 10057 C 970.872 4.21745 4.54457 0
M  V30 10058 C 972.927 2.97776 3.99041 0
M  V30 10059 C 971.63 5.39009 4.76301 0
M  V30 10060 C 973.656 4.14269 4.22061 0
M  V30 10061 C 973.018 5.33402 4.60067 0
M  V30 10062 H 969.117 0.210906 0.753022 0
M  V30 10063 H 971.701 1.0866 1.61558 0
M  V30 10064 H 969.872 -0.0113326 3.88398 0
M  V30 10065 H 971.604 0.178343 4.04307 0
M  V30 10066 H 968.359 2.19153 4.19844 0
M  V30 10067 H 968.783 4.73264 4.84098 0
M  V30 10068 H 973.425 2.06801 3.68773 0
M  V30 10069 H 971.143 6.30529 5.0543 0
M  V30 10070 H 974.729 4.12908 4.09876 0
M  V30 10071 H 973.609 6.22045 4.77525 0
M  V30 10072 N 971.112 -1.45937 0.595003 0
M  V30 10073 C 972.528 -1.57507 0.257641 0
M  V30 10074 C 972.728 -1.58829 -1.23998 0
M  V30 10075 O 971.784 -1.51183 -2.02237 0
M  V30 10076 C 973.097 -2.86354 0.917708 0
M  V30 10077 C 974.645 -3.00007 0.892446 0
M  V30 10078 C 975.12 -4.31607 1.53229 0
M  V30 10079 N 976.611 -4.38336 1.49719 0
M  V30 10080 C 977.346 -5.38805 1.96154 0
M  V30 10081 N 976.842 -6.45882 2.50617 0
M  V30 10082 N 978.635 -5.30084 1.86997 0
M  V30 10083 H 970.786 -1.43322 1.56756 0
M  V30 10084 H 973.049 -0.684436 0.655936 0
M  V30 10085 H 972.755 -2.91233 1.97171 0
M  V30 10086 H 972.629 -3.74703 0.433344 0
M  V30 10087 H 975.016 -2.94703 -0.152975 0
M  V30 10088 H 975.097 -2.13103 1.41495 0
M  V30 10089 H 974.741 -4.3767 2.57697 0
M  V30 10090 H 974.671 -5.17308 0.984903 0
M  V30 10091 H 977.162 -3.6156 1.09921 0
M  V30 10092 H 977.475 -7.18774 2.83874 0
M  V30 10093 H 975.82 -6.46668 2.54649 0
M  V30 10094 H 979.011 -4.45337 1.44196 0
M  V30 10095 H 979.184 -6.08237 2.23499 0
M  V30 10096 N 972.59 -0.333456 -1.54032 0
M  V30 10097 C 973.836 0.259248 -2.01741 0
M  V30 10098 C 974.191 1.48999 -1.21725 0
M  V30 10099 O 973.484 1.89333 -0.293882 0
M  V30 10100 C 973.678 0.63565 -3.51702 0
M  V30 10101 C 973.507 -0.55707 -4.46236 0
M  V30 10102 C 972.277 -1.05925 -4.94073 0
M  V30 10103 C 974.475 -1.41237 -4.94527 0
M  V30 10104 N 972.457 -2.21535 -5.72534 0
M  V30 10105 C 973.828 -2.41551 -5.71011 0
M  V30 10106 C 975.883 -1.43899 -4.76652 0
M  V30 10107 C 974.586 -3.44342 -6.31523 0
M  V30 10108 C 976.612 -2.45567 -5.38006 0
M  V30 10109 C 975.974 -3.44606 -6.1435 0
M  V30 10110 H 972.073 0.0584431 -0.779813 0
M  V30 10111 H 974.657 -0.470736 -1.88924 0
M  V30 10112 H 972.828 1.33475 -3.64745 0
M  V30 10113 H 974.56 1.21067 -3.86167 0
M  V30 10114 H 971.315 -0.628947 -4.69405 0
M  V30 10115 H 971.739 -2.79878 -6.16439 0
M  V30 10116 H 976.381 -0.686929 -4.17182 0
M  V30 10117 H 974.099 -4.20449 -6.90107 0
M  V30 10118 H 977.685 -2.4844 -5.26088 0
M  V30 10119 H 976.565 -4.21987 -6.60982 0
M  V30 10120 N 974.068 1.57479 -0.061844 0
M  V30 10121 C 975.293 1.97843 0.622311 0
M  V30 10122 C 975.718 0.939602 1.62951 0
M  V30 10123 O 975.076 -0.095958 1.81046 0
M  V30 10124 C 975.124 3.37262 1.2762 0
M  V30 10125 O 974.228 3.35943 2.39199 0
M  V30 10126 H 973.569 0.644212 0.160896 0
M  V30 10127 H 976.099 2.04165 -0.133409 0
M  V30 10128 H 976.109 3.74226 1.62539 0
M  V30 10129 H 974.784 4.12404 0.538112 0
M  V30 10130 H 973.361 3.10737 2.06148 0
M  V30 10131 N 975.546 -0.211634 1.56173 0
M  V30 10132 C 976.476 -1.26533 1.96244 0
M  V30 10133 C 977.457 -1.48362 0.832028 0
M  V30 10134 O 978.642 -1.60378 1.0951 0
M  V30 10135 C 975.772 -2.61307 2.2877 0
M  V30 10136 C 974.726 -2.54119 3.44395 0
M  V30 10137 C 974.052 -3.93014 3.62552 0
M  V30 10138 C 975.352 -2.08046 4.79076 0
M  V30 10139 H 977.046 -0.932407 2.84511 0
M  V30 10140 H 974.592 -0.447084 1.36884 0
M  V30 10141 H 976.545 -3.35188 2.55396 0
M  V30 10142 H 975.269 -2.96307 1.37367 0
M  V30 10143 H 973.928 -1.82694 3.17834 0
M  V30 10144 H 973.576 -4.25338 2.68508 0
M  V30 10145 H 973.276 -3.89083 4.40327 0
M  V30 10146 H 974.8 -4.68542 3.91537 0
M  V30 10147 H 976.214 -2.71676 5.04842 0
M  V30 10148 H 974.611 -2.15154 5.60204 0
M  V30 10149 H 975.681 -1.03306 4.73768 0
M  V30 10150 N 977.024 -1.50153 -0.478725 0
M  V30 10151 C 978.252 -1.64505 -1.25482 0
M  V30 10152 C 978.667 -0.325295 -1.85977 0
M  V30 10153 O 978.024 0.691885 -1.68876 0
M  V30 10154 C 978.075 -2.73052 -2.36906 0
M  V30 10155 O 977.796 -3.99911 -1.78894 0
M  V30 10156 C 979.297 -2.98309 -3.27912 0
M  V30 10157 H 976.517 -0.55318 -0.379781 0
M  V30 10158 H 979.061 -1.96329 -0.57229 0
M  V30 10159 H 977.216 -2.43944 -3.00949 0
M  V30 10160 H 977.63 -4.5988 -2.52211 0
M  V30 10161 H 979.104 -3.77942 -4.02323 0
M  V30 10162 H 979.581 -2.09082 -3.8624 0
M  V30 10163 H 980.187 -3.2892 -2.69614 0
M  V30 10164 N 978.502 0.731368 -1.39602 0
M  V30 10165 C 979.73 1.52059 -1.40305 0
M  V30 10166 C 980.145 1.888 0.00147921 0
M  V30 10167 O 979.502 1.54354 0.973715 0
M  V30 10168 C 979.553 2.80588 -2.27931 0
M  V30 10169 O 979.274 2.45406 -3.62915 0
M  V30 10170 C 980.775 3.74592 -2.37056 0
M  V30 10171 H 977.995 0.469787 -0.479104 0
M  V30 10172 H 980.539 0.903436 -1.83462 0
M  V30 10173 H 978.694 3.38626 -1.88178 0
M  V30 10174 H 979.108 3.27996 -4.09291 0
M  V30 10175 H 980.582 4.61662 -3.02609 0
M  V30 10176 H 981.059 4.16597 -1.39081 0
M  V30 10177 H 981.665 3.22471 -2.77295 0
M  V30 10178 N 979.98 1.24838 0.961938 0
M  V30 10179 C 980.943 1.04674 2.03902 0
M  V30 10180 C 981.943 0.00204674 1.608 0
M  V30 10181 O 983.133 0.243555 1.72489 0
M  V30 10182 C 980.265 0.587736 3.35795 0
M  V30 10183 H 981.458 2.00278 2.23223 0
M  V30 10184 H 979.011 1.07142 1.138 0
M  V30 10185 H 979.746 -0.371244 3.22168 0
M  V30 10186 H 979.531 1.34182 3.68426 0
M  V30 10187 H 981.021 0.467867 4.14971 0
M  V30 10188 N 981.458 -1.16348 1.06306 0
M  V30 10189 C 982.388 -2.2291 0.695234 0
M  V30 10190 C 983.369 -1.67208 -0.312343 0
M  V30 10191 O 984.554 -1.93293 -0.187442 0
M  V30 10192 C 981.684 -3.47205 0.0810149 0
M  V30 10193 C 980.638 -4.15801 1.01458 0
M  V30 10194 C 979.964 -5.3405 0.263656 0
M  V30 10195 C 981.264 -4.66766 2.34365 0
M  V30 10196 H 982.958 -2.53934 1.58613 0
M  V30 10197 H 980.504 -1.22056 0.76409 0
M  V30 10198 H 982.457 -4.2098 -0.18818 0
M  V30 10199 H 981.181 -3.15482 -0.844897 0
M  V30 10200 H 979.84 -3.43954 1.26852 0
M  V30 10201 H 979.488 -4.9858 -0.665378 0
M  V30 10202 H 979.188 -5.80885 0.88582 0
M  V30 10203 H 980.712 -6.106 0.00200994 0
M  V30 10204 H 982.126 -5.3212 2.13356 0
M  V30 10205 H 980.523 -5.24223 2.9208 0
M  V30 10206 H 981.593 -3.82969 2.97426 0
M  V30 10207 N 982.937 -0.845659 -1.3299 0
M  V30 10208 C 983.867 -0.298957 -2.31578 0
M  V30 10209 C 984.848 0.597012 -1.59279 0
M  V30 10210 O 986.033 0.519142 -1.87132 0
M  V30 10211 C 983.163 0.521109 -3.43368 0
M  V30 10212 C 982.117 -0.279651 -4.27085 0
M  V30 10213 C 981.443 0.664591 -5.30554 0
M  V30 10214 C 982.743 -1.50046 -5.00283 0
M  V30 10215 H 984.437 -1.12272 -2.77552 0
M  V30 10216 H 981.983 -0.54132 -1.33438 0
M  V30 10217 H 983.936 0.913921 -4.1137 0
M  V30 10218 H 982.66 1.37815 -2.96099 0
M  V30 10219 H 981.319 -0.654106 -3.60717 0
M  V30 10220 H 980.967 1.51822 -4.79541 0
M  V30 10221 H 980.667 0.132871 -5.8745 0
M  V30 10222 H 982.191 1.05477 -6.01421 0
M  V30 10223 H 983.605 -1.18044 -5.61016 0
M  V30 10224 H 982.002 -1.96946 -5.66862 0
M  V30 10225 H 983.072 -2.26659 -4.28665 0
M  V30 10226 N 984.415 1.45619 -0.602734 0
M  V30 10227 C 985.325 2.34288 0.120902 0
M  V30 10228 C 986.341 1.50952 0.865414 0
M  V30 10229 O 987.517 1.83768 0.824094 0
M  V30 10230 C 984.582 3.28489 1.10888 0
M  V30 10231 C 983.643 4.2773 0.366853 0
M  V30 10232 C 982.876 5.17429 1.30776 0
M  V30 10233 O 983.099 5.10459 2.54535 0
M  V30 10234 O 982.033 5.96459 0.807464 0
M  V30 10235 H 985.859 2.97559 -0.60765 0
M  V30 10236 H 983.444 1.44922 -0.363019 0
M  V30 10237 H 985.326 3.86549 1.67803 0
M  V30 10238 H 984.001 2.67789 1.81854 0
M  V30 10239 H 982.908 3.73299 -0.244643 0
M  V30 10240 H 984.241 4.91271 -0.302226 0
M  V30 10241 N 985.893 0.34162 1.53853 0
M  V30 10242 C 986.823 -0.508431 2.27897 0
M  V30 10243 C 987.804 -1.10425 1.29384 0
M  V30 10244 O 988.989 -1.126 1.58224 0
M  V30 10245 C 986.119 -1.66048 3.05034 0
M  V30 10246 C 985.073 -1.19309 4.11035 0
M  V30 10247 C 984.399 -2.4335 4.76114 0
M  V30 10248 C 985.699 -0.294952 5.21467 0
M  V30 10249 H 987.393 0.109251 2.99201 0
M  V30 10250 H 984.939 0.0539847 1.43899 0
M  V30 10251 H 986.892 -2.26158 3.5557 0
M  V30 10252 H 985.616 -2.30503 2.31379 0
M  V30 10253 H 984.275 -0.614809 3.61408 0
M  V30 10254 H 983.923 -3.06208 3.99056 0
M  V30 10255 H 983.623 -2.1276 5.47729 0
M  V30 10256 H 985.147 -3.0419 5.29434 0
M  V30 10257 H 986.561 -0.80285 5.67651 0
M  V30 10258 H 984.958 -0.0810221 6.00045 0
M  V30 10259 H 986.028 0.669433 4.80257 0
M  V30 10260 N 987.371 -1.57444 0.0701946 0
M  V30 10261 C 988.599 -1.97754 -0.608358 0
M  V30 10262 C 989.014 -0.948496 -1.63245 0
M  V30 10263 O 988.371 0.065046 -1.82384 0
M  V30 10264 C 988.422 -3.38142 -1.27836 0
M  V30 10265 O 988.143 -4.37104 -0.295255 0
M  V30 10266 C 989.644 -3.93318 -2.04489 0
M  V30 10267 H 986.864 -0.650398 -0.164997 0
M  V30 10268 H 989.408 -2.04006 0.142124 0
M  V30 10269 H 987.563 -3.32982 -1.97994 0
M  V30 10270 H 987.977 -5.18732 -0.77574 0
M  V30 10271 H 989.451 -4.93774 -2.46762 0
M  V30 10272 H 989.928 -3.29774 -2.90079 0
M  V30 10273 H 990.534 -4.01875 -1.39201 0
M  V30 10274 N 988.849 0.203349 -1.56283 0
M  V30 10275 C 990.095 0.926381 -1.80405 0
M  V30 10276 C 990.428 1.8325 -0.642883 0
M  V30 10277 O 989.703 1.91196 0.356998 0
M  V30 10278 C 989.986 1.74972 -3.14733 0
M  V30 10279 C 989.839 0.868866 -4.41328 0
M  V30 10280 C 991.158 2.72394 -3.45672 0
M  V30 10281 H 988.277 0.335346 -0.656286 0
M  V30 10282 H 990.919 0.1942 -1.89005 0
M  V30 10283 H 989.069 2.37394 -3.07533 0
M  V30 10284 H 990.741 0.259986 -4.60567 0
M  V30 10285 H 988.984 0.175161 -4.33446 0
M  V30 10286 H 989.655 1.47975 -5.31796 0
M  V30 10287 H 992.131 2.20105 -3.53119 0
M  V30 10288 H 991.007 3.27091 -4.40798 0
M  V30 10289 H 991.268 3.51035 -2.6875 0
M  V30 10290 N 990.327 1.50405 0.470755 0
M  V30 10291 C 991.257 1.72222 1.57676 0
M  V30 10292 C 992.238 0.57121 1.60222 0
M  V30 10293 O 993.423 0.810381 1.76484 0
M  V30 10294 C 990.553 1.81666 2.95998 0
M  V30 10295 C 989.507 2.96857 3.08318 0
M  V30 10296 C 988.833 2.91445 4.4829 0
M  V30 10297 C 990.133 4.37361 2.85504 0
M  V30 10298 H 991.827 2.64825 1.39671 0
M  V30 10299 H 989.373 1.27438 0.67049 0
M  V30 10300 H 991.326 1.95514 3.73299 0
M  V30 10301 H 990.05 0.856856 3.1516 0
M  V30 10302 H 988.709 2.82661 2.33449 0
M  V30 10303 H 988.357 1.93309 4.64371 0
M  V30 10304 H 988.057 3.68776 4.57469 0
M  V30 10305 H 989.581 3.07341 5.27611 0
M  V30 10306 H 990.995 4.52081 3.52555 0
M  V30 10307 H 989.392 5.16145 3.06127 0
M  V30 10308 H 990.462 4.49708 1.81359 0
M  V30 10309 N 991.805 -0.723954 1.39988 0
M  V30 10310 C 993.051 -1.48591 1.38017 0
M  V30 10311 C 993.384 -1.94189 -0.0203522 0
M  V30 10312 O 992.659 -1.67572 -0.987422 0
M  V30 10313 C 992.942 -2.71786 2.36229 0
M  V30 10314 C 992.795 -2.32136 3.8527 0
M  V30 10315 C 994.114 -3.73921 2.32102 0
M  V30 10316 H 991.233 -0.538993 0.502648 0
M  V30 10317 H 993.875 -0.826908 1.71062 0
M  V30 10318 H 992.025 -3.28015 2.0818 0
M  V30 10319 H 993.697 -1.81454 4.24113 0
M  V30 10320 H 991.94 -1.64234 4.01509 0
M  V30 10321 H 992.611 -3.20406 4.49493 0
M  V30 10322 H 995.087 -3.27303 2.56928 0
M  V30 10323 H 993.963 -4.5777 3.02882 0
M  V30 10324 H 994.224 -4.21627 1.32979 0
M  V30 10325 N 993.283 -1.25346 -0.955304 0
M  V30 10326 C 994.213 -1.08152 -2.06943 0
M  V30 10327 C 995.194 0.00922598 -1.70097 0
M  V30 10328 O 996.379 -0.160181 -1.93538 0
M  V30 10329 C 993.509 -0.698745 -3.40198 0
M  V30 10330 C 992.463 -1.73965 -3.9105 0
M  V30 10331 C 991.789 -1.21158 -5.20792 0
M  V30 10332 C 993.089 -3.13829 -4.17503 0
M  V30 10333 H 994.783 -2.01345 -2.21586 0
M  V30 10334 H 992.329 -0.969459 -1.06478 0
M  V30 10335 H 994.282 -0.565394 -4.1759 0
M  V30 10336 H 993.006 0.268892 -3.25491 0
M  V30 10337 H 991.665 -1.86143 -3.15827 0
M  V30 10338 H 991.313 -0.234193 -5.02455 0
M  V30 10339 H 991.013 -1.90728 -5.55785 0
M  V30 10340 H 992.537 -1.09061 -6.00781 0
M  V30 10341 H 993.951 -3.04809 -4.85556 0
M  V30 10342 H 992.348 -3.80863 -4.63749 0
M  V30 10343 H 993.418 -3.6094 -3.23806 0
M  V30 10344 N 994.761 1.15782 -1.06922 0
M  V30 10345 C 995.691 2.22538 -0.707045 0
M  V30 10346 C 996.672 1.67371 0.303471 0
M  V30 10347 O 997.857 1.9339 0.177189 0
M  V30 10348 C 994.987 3.47158 -0.0994269 0
M  V30 10349 C 993.941 4.15257 -1.03661 0
M  V30 10350 C 993.267 5.33902 -0.291974 0
M  V30 10351 C 994.567 4.65516 -2.36837 0
M  V30 10352 H 996.261 2.53089 -1.59958 0
M  V30 10353 H 993.807 1.21649 -0.770552 0
M  V30 10354 H 995.76 4.21073 0.165852 0
M  V30 10355 H 994.484 3.15926 0.828155 0
M  V30 10356 H 993.143 3.43276 -1.28674 0
M  V30 10357 H 992.791 4.98926 0.638928 0
M  V30 10358 H 992.491 5.80407 -0.916613 0
M  V30 10359 H 994.015 6.1059 -0.0343915 0
M  V30 10360 H 995.429 5.30981 -2.16175 0
M  V30 10361 H 993.826 5.22666 -2.94856 0
M  V30 10362 H 994.896 3.81387 -2.99453 0
M  V30 10363 N 996.239 0.8527 1.3254 0
M  V30 10364 C 997.169 0.311234 2.31416 0
M  V30 10365 C 998.15 -0.588557 1.59593 0
M  V30 10366 O 999.335 -0.509211 1.87405 0
M  V30 10367 C 996.465 -0.502892 3.4364 0
M  V30 10368 C 995.419 0.302296 4.26931 0
M  V30 10369 C 994.745 -0.636445 5.30899 0
M  V30 10370 C 996.045 1.52697 4.99481 0
M  V30 10371 H 997.739 1.13742 2.76953 0
M  V30 10372 H 995.285 0.548389 1.33149 0
M  V30 10373 H 997.238 -0.892092 4.11849 0
M  V30 10374 H 995.962 -1.36242 2.96826 0
M  V30 10375 H 994.621 0.673226 3.60365 0
M  V30 10376 H 994.269 -1.49277 4.80339 0
M  V30 10377 H 993.969 -0.101716 5.87512 0
M  V30 10378 H 995.493 -1.02286 6.01972 0
M  V30 10379 H 996.907 1.21017 5.60382 0
M  V30 10380 H 995.304 1.9995 5.65809 0
M  V30 10381 H 996.374 2.28929 4.27457 0
M  V30 10382 N 997.718 -1.45297 0.610449 0
M  V30 10383 C 998.681 -2.28995 -0.0968194 0
M  V30 10384 C 999.681 -1.39923 -0.792353 0
M  V30 10385 O 1000.87 -1.62014 -0.64008 0
M  V30 10386 C 998.003 -3.21013 -1.14731 0
M  V30 10387 H 999.196 -2.93012 0.639082 0
M  V30 10388 H 996.749 -1.51867 0.369624 0
M  V30 10389 H 997.484 -2.61803 -1.91388 0
M  V30 10390 H 997.269 -3.86628 -0.652753 0
M  V30 10391 H 998.759 -3.8394 -1.64256 0
M  V30 10392 N 999.196 -0.349774 -1.5367 0
M  V30 10393 C 1000.16 0.491676 -2.23864 0
M  V30 10394 C 1001.16 1.02256 -1.24098 0
M  V30 10395 O 1002.35 0.910816 -1.48492 0
M  V30 10396 C 999.481 1.68557 -2.96313 0
M  V30 10397 H 1000.67 -0.12233 -2.9965 0
M  V30 10398 H 998.227 -0.101214 -1.55972 0
M  V30 10399 H 998.962 2.3381 -2.2473 0
M  V30 10400 H 998.747 1.31203 -3.69497 0
M  V30 10401 H 1000.24 2.28225 -3.49718 0
M  V30 10402 N 1000.67 1.57404 -0.0785433 0
M  V30 10403 C 1001.92 1.9484 0.583853 0
M  V30 10404 C 1002.27 0.958758 1.6681 0
M  V30 10405 O 1001.57 -0.0179065 1.91592 0
M  V30 10406 C 1001.76 3.36684 1.1991 0
M  V30 10407 C 1001.59 4.49356 0.175978 0
M  V30 10408 C 1000.36 5.04721 -0.241733 0
M  V30 10409 C 1002.56 5.10911 -0.589415 0
M  V30 10410 N 1000.54 6.00938 -1.25485 0
M  V30 10411 C 1001.91 6.0269 -1.45483 0
M  V30 10412 C 1003.97 4.93708 -0.644746 0
M  V30 10413 C 1002.67 6.79111 -2.37066 0
M  V30 10414 C 1004.7 5.70778 -1.54812 0
M  V30 10415 C 1004.06 6.6221 -2.40119 0
M  V30 10416 H 1000.16 0.75993 0.184472 0
M  V30 10417 H 1002.74 1.94064 -0.157259 0
M  V30 10418 H 1000.91 3.38186 1.91011 0
M  V30 10419 H 1002.64 3.6134 1.82251 0
M  V30 10420 H 999.399 4.73385 0.142732 0
M  V30 10421 H 999.823 6.53746 -1.75912 0
M  V30 10422 H 1004.46 4.228 0.000601434 0
M  V30 10423 H 1002.18 7.49292 -3.02634 0
M  V30 10424 H 1005.77 5.59485 -1.59586 0
M  V30 10425 H 1004.65 7.20804 -3.08887 0
M  V30 10426 N 1002.15 -0.195058 1.56388 0
M  V30 10427 C 1003.4 -0.915444 1.80626 0
M  V30 10428 C 1003.73 -1.83255 0.651768 0
M  V30 10429 O 1002.98 -1.92314 -0.362464 0
M  V30 10430 C 1003.28 -1.7637 3.10851 0
M  V30 10431 C 1002.95 -0.997572 4.39726 0
M  V30 10432 C 1001.61 -0.786043 4.74737 0
M  V30 10433 C 1003.96 -0.45851 5.19179 0
M  V30 10434 C 1001.29 -0.023972 5.86695 0
M  V30 10435 C 1003.64 0.29035 6.31933 0
M  V30 10436 C 1002.3 0.512895 6.65527 0
M  V30 10437 H 1001.57 -0.334985 0.660959 0
M  V30 10438 H 1004.22 -0.181815 1.90635 0
M  V30 10439 H 1002.53 -2.566 2.9608 0
M  V30 10440 H 1004.22 -2.3237 3.26811 0
M  V30 10441 H 1000.81 -1.17245 4.12252 0
M  V30 10442 H 1005 -0.609334 4.92545 0
M  V30 10443 H 1000.25 0.158421 6.11195 0
M  V30 10444 H 1004.43 0.715429 6.92715 0
M  V30 10445 H 1002.05 1.10531 7.52122 0
M  V30 10446 N 1003.63 -1.50653 -0.462772 0
M  V30 10447 C 1004.58 -1.66509 -1.55752 0
M  V30 10448 C 1005.56 -0.519508 -1.52282 0
M  V30 10449 O 1006.76 -0.774296 -1.59166 0
M  V30 10450 C 1003.88 -1.77023 -2.94139 0
M  V30 10451 C 1002.97 -2.97284 -3.02461 0
M  V30 10452 N 1003.36 -4.20843 -2.80579 0
M  V30 10453 C 1001.66 -2.96014 -3.33604 0
M  V30 10454 C 1002.36 -5.01886 -2.94084 0
M  V30 10455 N 1001.34 -4.3601 -3.24648 0
M  V30 10456 H 1005.14 -2.59727 -1.37546 0
M  V30 10457 H 1002.65 -1.47951 -0.669653 0
M  V30 10458 H 1004.65 -1.86488 -3.72864 0
M  V30 10459 H 1003.31 -0.849688 -3.13385 0
M  V30 10460 H 1004.32 -4.50206 -2.55998 0
M  V30 10461 H 1001 -2.13493 -3.58786 0
M  V30 10462 H 1002.39 -6.10164 -2.81334 0
M  V30 10463 N 1005.11 0.71652 -1.4037 0
M  V30 10464 C 1006.36 1.47638 -1.38597 0
M  V30 10465 C 1006.68 1.94496 0.0120141 0
M  V30 10466 O 1005.94 1.68437 0.996373 0
M  V30 10467 C 1006.24 2.71777 -2.32103 0
M  V30 10468 C 1005.9 2.43689 -3.79376 0
M  V30 10469 C 1004.57 2.35739 -4.195 0
M  V30 10470 C 1006.92 2.20099 -4.72447 0
M  V30 10471 C 1004.25 2.02265 -5.50732 0
M  V30 10472 C 1006.6 1.88138 -6.03976 0
M  V30 10473 C 1005.26 1.78669 -6.43143 0
M  V30 10474 H 1004.53 0.540246 -0.507163 0
M  V30 10475 H 1007.18 0.820822 -1.73017 0
M  V30 10476 H 1005.48 3.42166 -1.90865 0
M  V30 10477 H 1007.18 3.29864 -2.28015 0
M  V30 10478 H 1003.77 2.50763 -3.47585 0
M  V30 10479 H 1007.95 2.25198 -4.42266 0
M  V30 10480 H 1003.21 1.93471 -5.79982 0
M  V30 10481 H 1007.38 1.68898 -6.75608 0
M  V30 10482 H 1005.01 1.52498 -7.44747 0
M  V30 10483 N 1006.59 1.25851 0.948643 0
M  V30 10484 C 1007.83 1.11119 1.69648 0
M  V30 10485 C 1008.17 -0.345995 1.91093 0
M  V30 10486 O 1007.44 -1.25467 1.48621 0
M  V30 10487 C 1007.72 1.87261 3.0758 0
M  V30 10488 C 1007.58 3.40842 2.93507 0
M  V30 10489 C 1008.9 1.6605 4.07573 0
M  V30 10490 H 1006.01 0.405052 0.615713 0
M  V30 10491 H 1008.66 1.54756 1.10229 0
M  V30 10492 H 1006.81 1.50172 3.58303 0
M  V30 10493 H 1008.48 3.87641 2.50064 0
M  V30 10494 H 1006.72 3.68248 2.29294 0
M  V30 10495 H 1007.39 3.89339 3.91305 0
M  V30 10496 H 1009.87 1.98348 3.65783 0
M  V30 10497 H 1008.74 2.21753 5.02113 0
M  V30 10498 H 1009.01 0.603256 4.37965 0
M  V30 10499 N 1008.06 -1.15214 1.07534 0
M  V30 10500 C 1009.03 -2.18209 0.701237 0
M  V30 10501 C 1010.03 -1.58693 -0.25946 0
M  V30 10502 O 1011.22 -1.74154 -0.0401744 0
M  V30 10503 C 1008.35 -3.40883 0.0338703 0
M  V30 10504 H 1009.54 -2.5282 1.61314 0
M  V30 10505 H 1007.1 -1.29707 0.872105 0
M  V30 10506 H 1007.83 -3.11843 -0.890187 0
M  V30 10507 H 1007.62 -3.85342 0.72486 0
M  V30 10508 H 1009.11 -4.17056 -0.213152 0
M  V30 10509 N 1009.54 -0.859717 -1.32086 0
M  V30 10510 C 1010.49 -0.296897 -2.30697 0
M  V30 10511 C 1011.48 0.582473 -1.59071 0
M  V30 10512 O 1012.69 0.469713 -1.73763 0
M  V30 10513 H 1009.07 -0.0773132 -0.748015 0
M  V30 10514 H 1011.04 -1.14273 -2.75652 0
M  V30 10515 C 1009.79 0.495546 -3.44151 0
M  V30 10516 H 1009.11 -0.171829 -3.99431 0
M  V30 10517 H 1010.55 0.854854 -4.15293 0
M  V30 10518 C 1009.01 1.68278 -2.91863 0
M  V30 10519 O 1009.54 2.78194 -2.89777 0
M  V30 10520 N 1007.74 1.51151 -2.48197 0
M  V30 10521 H 1007.29 0.617345 -2.50093 0
M  V30 10522 H 1007.25 2.3073 -2.13567 0
M  V30 10523 N 1011.02 1.44971 -0.618145 0
M  V30 10524 C 1012.27 2.0176 -0.11725 0
M  V30 10525 C 1012.59 1.48773 1.26062 0
M  V30 10526 O 1011.86 0.686152 1.83491 0
M  V30 10527 H 1010.44 0.745909 -0.0403545 0
M  V30 10528 H 1013.1 1.77638 -0.801923 0
M  V30 10529 H 1012.2 3.1201 -0.0750477 0
M  V30 10530 N 1012.5 0.357919 1.53482 0
M  V30 10531 C 1013.78 -0.290164 1.93436 0
M  V30 10532 C 1014.16 -1.67039 1.29079 0
M  V30 10533 O 1013.5 -2.24085 0.447017 0
M  V30 10534 C 1013.71 -0.348055 3.4726 0
M  V30 10535 C 1015.06 -0.59206 4.20452 0
M  V30 10536 O 1016.09 -0.429581 3.536 0
M  V30 10537 O 1014.94 -0.907855 5.38907 0
M  V30 10538 H 1012.04 -0.172312 0.80885 0
M  V30 10539 H 1014.58 0.410144 1.64669 0
M  V30 10540 H 1013.36 0.619953 3.86358 0
M  V30 10541 H 1012.98 -1.09457 3.82237 0
M  V30 10542 N 1013.98 -1.5736 0.0868897 0
M  V30 10543 C 1015.22 -1.9367 -0.577598 0
M  V30 10544 C 1015.55 -0.968844 -1.69229 0
M  V30 10545 O 1014.82 -0.0195061 -1.9589 0
M  V30 10546 H 1013.4 -0.714983 -0.216353 0
M  V30 10547 H 1016.06 -1.94335 0.148294 0
M  V30 10548 H 1015.15 -2.95877 -0.993128 0
M  V30 10549 N 1015.45 0.186762 -1.56489 0
M  V30 10550 C 1016.87 0.537933 -1.50261 0
M  V30 10551 C 1017.07 1.85435 -0.788414 0
M  V30 10552 O 1016.13 2.50168 -0.342377 0
M  V30 10553 C 1017.44 0.584965 -2.94955 0
M  V30 10554 C 1018.99 0.673228 -3.05674 0
M  V30 10555 C 1019.46 0.751294 -4.51796 0
M  V30 10556 N 1020.95 0.814599 -4.55981 0
M  V30 10557 C 1021.69 0.895313 -5.66367 0
M  V30 10558 N 1021.18 0.937814 -6.86423 0
M  V30 10559 N 1022.98 0.933145 -5.543 0
M  V30 10560 H 1015.13 -0.676636 -2.01334 0
M  V30 10561 H 1017.39 -0.242079 -0.916571 0
M  V30 10562 H 1017.1 -0.313361 -3.50301 0
M  V30 10563 H 1016.97 1.4368 -3.48763 0
M  V30 10564 H 1019.36 1.56198 -2.50372 0
M  V30 10565 H 1019.44 -0.204976 -2.54977 0
M  V30 10566 H 1019.08 -0.133143 -5.07725 0
M  V30 10567 H 1019.01 1.64542 -5.00233 0
M  V30 10568 H 1021.5 0.790662 -3.69536 0
M  V30 10569 H 1021.82 1.00015 -7.66301 0
M  V30 10570 H 1020.16 0.906351 -6.89065 0
M  V30 10571 H 1023.35 0.896836 -4.59428 0
M  V30 10572 H 1023.53 0.992588 -6.40353 0
M  V30 10573 N 1016.93 1.50896 0.454776 0
M  V30 10574 C 1018.35 1.38684 0.78987 0
M  V30 10575 C 1018.55 0.455587 1.96282 0
M  V30 10576 O 1017.6 -0.0957503 2.52318 0
M  V30 10577 C 1018.92 2.80381 1.08661 0
M  V30 10578 C 1020.47 2.8941 1.19209 0
M  V30 10579 C 1020.94 4.31976 1.52187 0
M  V30 10580 N 1022.43 4.35002 1.59146 0
M  V30 10581 C 1023.17 5.42326 1.862 0
M  V30 10582 N 1022.66 6.59835 2.11164 0
M  V30 10583 N 1024.46 5.29786 1.87838 0
M  V30 10584 H 1016.61 2.10006 -0.317981 0
M  V30 10585 H 1018.87 0.944636 -0.0797969 0
M  V30 10586 H 1018.58 3.50438 0.297626 0
M  V30 10587 H 1018.45 3.18634 2.01872 0
M  V30 10588 H 1020.84 2.19561 1.97173 0
M  V30 10589 H 1020.92 2.54677 0.239401 0
M  V30 10590 H 1020.56 5.02368 0.747576 0
M  V30 10591 H 1020.49 4.64208 2.48633 0
M  V30 10592 H 1022.98 3.50276 1.41828 0
M  V30 10593 H 1023.3 7.37428 2.31128 0
M  V30 10594 H 1021.64 6.62981 2.08522 0
M  V30 10595 H 1024.83 4.36974 1.67843 0
M  V30 10596 H 1025 6.13511 2.08585 0
M  V30 10597 N 1018.41 -0.709066 1.40748 0
M  V30 10598 C 1019.64 -1.49808 1.42707 0
M  V30 10599 C 1020.05 -1.88778 0.0285574 0
M  V30 10600 O 1019.41 -1.55883 -0.949035 0
M  V30 10601 C 1019.46 -2.76926 2.32366 0
M  V30 10602 O 1019.18 -2.39602 3.66773 0
M  V30 10603 C 1020.68 -3.70773 2.42986 0
M  V30 10604 H 1017.9 -0.462106 0.486517 0
M  V30 10605 H 1020.45 -0.874135 1.84876 0
M  V30 10606 H 1018.6 -3.3559 1.93541 0
M  V30 10607 H 1019.02 -3.21443 4.14457 0
M  V30 10608 H 1020.49 -4.56789 3.09916 0
M  V30 10609 H 1020.97 -4.14332 1.45691 0
M  V30 10610 H 1021.57 -3.18019 2.8239 0
M  V30 10611 N 1019.89 -1.26353 -0.941956 0
M  V30 10612 C 1020.85 -1.07904 -2.02211 0
M  V30 10613 C 1021.85 -0.0276283 -1.60776 0
M  V30 10614 O 1023.04 -0.270965 -1.7208 0
M  V30 10615 C 1020.17 -0.641084 -3.34818 0
M  V30 10616 H 1021.37 -2.03804 -2.20009 0
M  V30 10617 H 1018.92 -1.08939 -1.12081 0
M  V30 10618 H 1019.66 0.319943 -3.22718 0
M  V30 10619 H 1019.44 -1.40027 -3.66244 0
M  V30 10620 H 1020.93 -0.533826 -4.14174 0
M  V30 10621 N 1021.37 1.14642 -1.08144 0
M  V30 10622 C 1022.78 1.37604 -0.808537 0
M  V30 10623 C 1022.98 1.92868 0.583452 0
M  V30 10624 O 1022.04 2.13964 1.34073 0
M  V30 10625 C 1023.35 2.3396 -1.889 0
M  V30 10626 C 1024.9 2.47605 -1.9147 0
M  V30 10627 C 1025.38 3.47258 -2.98623 0
M  V30 10628 N 1026.87 3.548 -2.97777 0
M  V30 10629 C 1027.6 4.31751 -3.77331 0
M  V30 10630 N 1027.1 5.11966 -4.66757 0
M  V30 10631 N 1028.89 4.2692 -3.65645 0
M  V30 10632 H 1021.04 0.771154 -1.97906 0
M  V30 10633 H 1023.3 0.401694 -0.858688 0
M  V30 10634 H 1023.01 2.00484 -2.88962 0
M  V30 10635 H 1022.88 3.33833 -1.756 0
M  V30 10636 H 1025.27 2.80375 -0.920548 0
M  V30 10637 H 1025.35 1.47702 -2.08848 0
M  V30 10638 H 1025 3.15223 -3.98243 0
M  V30 10639 H 1024.93 4.46935 -2.7849 0
M  V30 10640 H 1027.42 2.97553 -2.3296 0
M  V30 10641 H 1027.73 5.67951 -5.24072 0
M  V30 10642 H 1026.08 5.11245 -4.70801 0
M  V30 10643 H 1029.27 3.63322 -2.95152 0
M  V30 10644 H 1029.44 4.8664 -4.27885 0
M  V30 10645 N 1022.85 0.866709 1.31628 0
M  V30 10646 C 1024.26 0.529032 1.79048 0
M  V30 10647 C 1024.61 -0.953871 1.71452 0
M  V30 10648 O 1023.73 -1.74462 1.28031 0
M  V30 10649 C 1024.33 0.953522 3.25105 0
M  V30 10650 C 1022.89 0.667554 3.70433 0
M  V30 10651 C 1022.03 1.14664 2.52483 0
M  V30 10652 H 1024.98 1.05275 1.18756 0
M  V30 10653 H 1025.01 0.274844 3.79506 0
M  V30 10654 H 1024.52 2.03283 3.30602 0
M  V30 10655 H 1022.62 -0.400532 3.70441 0
M  V30 10656 H 1022.73 1.2423 4.62714 0
M  V30 10657 H 1021.1 0.566502 2.4832 0
M  V30 10658 H 1021.88 2.2333 2.60727 0
M  V30 10659 N 1024.32 -1.44642 0.625825 0
M  V30 10660 C 1025.55 -2.06458 0.135116 0
M  V30 10661 C 1025.97 -1.46729 -1.18811 0
M  V30 10662 O 1025.32 -0.58818 -1.72762 0
M  V30 10663 C 1025.37 -3.61499 0.00850114 0
M  V30 10664 O 1025.1 -4.19002 1.2794 0
M  V30 10665 C 1026.6 -4.40339 -0.511527 0
M  V30 10666 H 1023.82 -0.666541 0.0772294 0
M  V30 10667 H 1026.36 -1.85597 0.858726 0
M  V30 10668 H 1024.52 -3.81641 -0.665522 0
M  V30 10669 H 1024.93 -5.12385 1.12081 0
M  V30 10670 H 1026.4 -5.49262 -0.549149 0
M  V30 10671 H 1026.88 -4.11409 -1.53752 0
M  V30 10672 H 1027.49 -4.25104 0.129066 0
M  V30 10673 N 1025.8 -0.366053 -1.5329 0
M  V30 10674 C 1027.22 -0.0150149 -1.59593 0
M  V30 10675 C 1027.42 1.46719 -1.38116 0
M  V30 10676 O 1026.47 2.22884 -1.18656 0
M  V30 10677 C 1027.79 -0.471374 -2.96982 0
M  V30 10678 C 1029.33 -0.425634 -3.10092 0
M  V30 10679 C 1029.81 -0.857812 -4.49895 0
M  V30 10680 N 1031.3 -0.81289 -4.56011 0
M  V30 10681 C 1032.04 -1.11898 -5.62376 0
M  V30 10682 N 1031.53 -1.49436 -6.76491 0
M  V30 10683 N 1033.32 -1.04174 -5.52362 0
M  V30 10684 H 1025.48 -1.33127 -1.65502 0
M  V30 10685 H 1027.74 -0.544172 -0.776261 0
M  V30 10686 H 1027.44 -1.50569 -3.1784 0
M  V30 10687 H 1027.32 0.141764 -3.76934 0
M  V30 10688 H 1029.71 0.599548 -2.88945 0
M  V30 10689 H 1029.79 -1.07427 -2.32149 0
M  V30 10690 H 1029.43 -1.88111 -4.7178 0
M  V30 10691 H 1029.36 -0.186419 -5.2627 0
M  V30 10692 H 1031.85 -0.536343 -3.74075 0
M  V30 10693 H 1032.16 -1.71217 -7.53594 0
M  V30 10694 H 1030.51 -1.53302 -6.77882 0
M  V30 10695 H 1033.7 -0.747654 -4.62091 0
M  V30 10696 H 1033.87 -1.28362 -6.35159 0
M  V30 10697 N 1027.28 1.57312 -0.0952337 0
M  V30 10698 C 1028.53 1.94358 0.568442 0
M  V30 10699 C 1028.85 0.97698 1.68182 0
M  V30 10700 O 1028.11 -0.00340398 1.957 0
M  V30 10701 C 1028.41 3.37937 1.16332 0
M  V30 10702 C 1028.07 4.50565 0.173715 0
M  V30 10703 C 1026.74 4.81099 -0.0984673 0
M  V30 10704 C 1029.09 5.18777 -0.501992 0
M  V30 10705 C 1026.42 5.77172 -1.05305 0
M  V30 10706 C 1028.77 6.15874 -1.44505 0
M  V30 10707 C 1027.43 6.44813 -1.72546 0
M  V30 10708 H 1026.7 0.711206 0.208007 0
M  V30 10709 H 1029.35 1.90734 -0.171096 0
M  V30 10710 H 1027.65 3.3814 1.97911 0
M  V30 10711 H 1029.35 3.63902 1.68453 0
M  V30 10712 H 1025.94 4.26766 0.396042 0
M  V30 10713 H 1030.13 4.95363 -0.304855 0
M  V30 10714 H 1025.38 5.97909 -1.2773 0
M  V30 10715 H 1029.56 6.67824 -1.97444 0
M  V30 10716 H 1027.18 7.19067 -2.46671 0
M  V30 10717 N 1028.76 -0.17846 1.56586 0
M  V30 10718 C 1030.17 -0.529957 1.50544 0
M  V30 10719 C 1030.37 -1.85015 0.798237 0
M  V30 10720 O 1029.43 -2.49983 0.355639 0
M  V30 10721 C 1030.74 -0.569314 2.95261 0
M  V30 10722 C 1032.29 -0.657008 3.06027 0
M  V30 10723 C 1032.77 -0.727323 4.52188 0
M  V30 10724 N 1034.26 -0.790406 4.56406 0
M  V30 10725 C 1034.99 -0.865265 5.66834 0
M  V30 10726 N 1034.49 -0.901398 6.86911 0
M  V30 10727 N 1036.28 -0.903736 5.54787 0
M  V30 10728 H 1028.43 0.687304 2.00972 0
M  V30 10729 H 1030.69 0.246936 0.915274 0
M  V30 10730 H 1030.4 0.331934 3.5013 0
M  V30 10731 H 1030.27 -1.41828 3.4952 0
M  V30 10732 H 1032.66 -1.54868 2.51197 0
M  V30 10733 H 1032.74 0.218495 2.54865 0
M  V30 10734 H 1032.39 0.160067 5.07648 0
M  V30 10735 H 1032.32 -1.61887 5.01099 0
M  V30 10736 H 1034.81 -0.771054 3.6995 0
M  V30 10737 H 1035.12 -0.959494 7.6682 0
M  V30 10738 H 1033.47 -0.869795 6.89536 0
M  V30 10739 H 1036.66 -0.872459 4.59898 0
M  V30 10740 H 1036.83 -0.958615 6.4087 0
M  V30 10741 N 1030.24 -1.51135 -0.446768 0
M  V30 10742 C 1031.2 -1.71187 -1.52406 0
M  V30 10743 C 1032.2 -0.582037 -1.49897 0
M  V30 10744 O 1033.39 -0.849452 -1.52085 0
M  V30 10745 C 1030.52 -1.75962 -2.91976 0
M  V30 10746 H 1031.71 -2.67324 -1.35934 0
M  V30 10747 H 1029.27 -1.40982 -0.674813 0
M  V30 10748 H 1030 -0.816065 -3.13864 0
M  V30 10749 H 1029.79 -2.58065 -2.95203 0
M  V30 10750 H 1031.28 -1.93347 -3.70144 0
M  V30 10751 N 1031.71 0.701592 -1.41122 0
M  V30 10752 C 1033.13 1.01143 -1.23459 0
M  V30 10753 C 1033.33 2.01144 -0.11968 0
M  V30 10754 O 1032.39 2.47132 0.517889 0
M  V30 10755 C 1033.7 1.54179 -2.58165 0
M  V30 10756 C 1035.25 1.66093 -2.65296 0
M  V30 10757 C 1035.72 2.22532 -4.00304 0
M  V30 10758 N 1037.21 2.299 -4.0212 0
M  V30 10759 C 1037.95 2.74584 -5.0338 0
M  V30 10760 N 1037.44 3.18917 -6.15032 0
M  V30 10761 N 1039.24 2.74094 -4.90743 0
M  V30 10762 H 1031.39 0.0390087 -2.12364 0
M  V30 10763 H 1033.65 0.0798848 -0.944628 0
M  V30 10764 H 1033.36 0.881587 -3.40472 0
M  V30 10765 H 1033.23 2.52488 -2.80231 0
M  V30 10766 H 1035.62 2.31227 -1.83352 0
M  V30 10767 H 1035.7 0.663461 -2.47046 0
M  V30 10768 H 1035.34 1.58016 -4.82694 0
M  V30 10769 H 1035.27 3.2302 -4.15891 0
M  V30 10770 H 1037.76 1.98607 -3.21502 0
M  V30 10771 H 1038.08 3.5162 -6.88174 0
M  V30 10772 H 1036.42 3.1684 -6.18577 0
M  V30 10773 H 1039.61 2.38804 -4.02604 0
M  V30 10774 H 1039.79 3.086 -5.69798 0
M  V30 10775 N 1033.19 1.2685 0.935242 0
M  V30 10776 C 1034.12 1.1143 2.05196 0
M  V30 10777 C 1035.1 0.0178362 1.70091 0
M  V30 10778 O 1036.29 0.190951 1.93259 0
M  V30 10779 C 1033.42 0.752779 3.39044 0
M  V30 10780 C 1032.37 1.80164 3.88233 0
M  V30 10781 C 1031.7 1.29428 5.18799 0
M  V30 10782 C 1033 3.20431 4.12457 0
M  V30 10783 H 1034.69 2.04845 2.18355 0
M  V30 10784 H 1032.24 0.986276 1.04922 0
M  V30 10785 H 1034.19 0.631757 4.16637 0
M  V30 10786 H 1032.91 -0.217075 3.25878 0
M  V30 10787 H 1031.57 1.91144 3.12825 0
M  V30 10788 H 1031.22 0.3141 5.02018 0
M  V30 10789 H 1030.92 1.99546 5.5268 0
M  V30 10790 H 1032.45 1.18605 5.9897 0
M  V30 10791 H 1033.86 3.12495 4.80645 0
M  V30 10792 H 1032.26 3.88193 4.57631 0
M  V30 10793 H 1033.33 3.66046 3.18023 0
M  V30 10794 N 1034.67 -1.14067 1.0875 0
M  V30 10795 C 1035.63 -2.17453 0.724341 0
M  V30 10796 C 1036.63 -1.58959 -0.242614 0
M  V30 10797 O 1037.82 -1.74186 -0.0217008 0
M  V30 10798 C 1034.96 -3.40828 0.0700236 0
M  V30 10799 H 1036.15 -2.51094 1.63987 0
M  V30 10800 H 1033.7 -1.28775 0.885813 0
M  V30 10801 H 1034.44 -3.1277 -0.857061 0
M  V30 10802 H 1034.22 -3.84551 0.76569 0
M  V30 10803 H 1035.71 -4.17258 -0.168905 0
M  V30 10804 N 1036.15 -0.873678 -1.31166 0
M  V30 10805 C 1037.4 -0.485497 -1.96182 0
M  V30 10806 C 1037.72 0.96621 -1.69379 0
M  V30 10807 O 1036.99 1.67783 -1.01121 0
M  V30 10808 H 1035.57 -0.176547 -0.725838 0
M  V30 10809 H 1038.23 -1.11428 -1.59906 0
M  V30 10810 H 1037.33 -0.646325 -3.05334 0
M  V30 10811 N 1037.63 1.44308 -0.633487 0
M  V30 10812 C 1038.88 2.01239 -0.136356 0
M  V30 10813 C 1039.19 1.50438 1.25011 0
M  V30 10814 O 1040.39 1.99513 1.84138 0
M  V30 10815 C 1038.85 3.59382 -0.193011 0
M  V30 10816 C 1038.46 4.19178 -1.58093 0
M  V30 10817 C 1040.2 4.23778 0.247534 0
M  V30 10818 C 1038.11 5.69553 -1.59258 0
M  V30 10819 H 1037.04 0.752521 -0.0472109 0
M  V30 10820 H 1039.69 1.65498 -0.79263 0
M  V30 10821 H 1038.07 3.92432 0.530408 0
M  V30 10822 H 1039.25 3.97662 -2.32813 0
M  V30 10823 H 1037.56 3.67079 -1.96576 0
M  V30 10824 H 1040.16 5.34075 0.258401 0
M  V30 10825 H 1040.5 3.96285 1.27529 0
M  V30 10826 H 1041.03 3.9554 -0.423469 0
M  V30 10827 H 1037.77 6.01784 -2.59878 0
M  V30 10828 H 1037.29 5.93185 -0.888352 0
M  V30 10829 H 1038.97 6.33234 -1.32756 0
M  V30 10830 N 1039.1 0.374177 1.53094 0
M  V30 10831 C 1040.35 -0.213131 2.01677 0
M  V30 10832 C 1040.68 -1.47715 1.26071 0
M  V30 10833 O 1039.96 -1.91199 0.356834 0
M  V30 10834 C 1040.24 -0.496392 3.56662 0
M  V30 10835 C 1040.09 0.781859 4.42953 0
M  V30 10836 C 1041.41 -1.29339 4.20666 0
M  V30 10837 H 1038.53 -0.0759885 0.733072 0
M  V30 10838 H 1041.17 0.500765 1.83282 0
M  V30 10839 H 1039.32 -1.10455 3.72467 0
M  V30 10840 H 1041 1.41914 4.38928 0
M  V30 10841 H 1039.24 1.40041 4.10574 0
M  V30 10842 H 1039.91 0.538508 5.49367 0
M  V30 10843 H 1042.39 -0.778848 4.08746 0
M  V30 10844 H 1041.26 -1.46033 5.29118 0
M  V30 10845 H 1041.52 -2.30435 3.77296 0
M  V30 10846 N 1040.58 -1.57259 0.103575 0
M  V30 10847 C 1041.51 -2.1153 -0.882472 0
M  V30 10848 C 1042.53 -1.05446 -1.24036 0
M  V30 10849 O 1043.72 -1.32867 -1.192 0
M  V30 10850 C 1040.82 -2.58717 -2.18903 0
M  V30 10851 C 1039.99 -3.8873 -2.00519 0
M  V30 10852 C 1039.05 -4.21675 -3.14764 0
M  V30 10853 O 1038.07 -4.90755 -2.88355 0
M  V30 10854 N 1039.28 -3.77757 -4.40772 0
M  V30 10855 H 1042.04 -2.96758 -0.418901 0
M  V30 10856 H 1039.6 -1.61696 -0.0812921 0
M  V30 10857 H 1041.59 -2.77797 -2.94297 0
M  V30 10858 H 1040.16 -1.78454 -2.56657 0
M  V30 10859 H 1039.38 -3.78714 -1.09406 0
M  V30 10860 H 1040.67 -4.73771 -1.85522 0
M  V30 10861 H 1040.07 -3.22011 -4.65108 0
M  V30 10862 H 1038.63 -4.01975 -5.13088 0
M  V30 10863 N 1042.06 0.170153 -1.56679 0
M  V30 10864 C 1043.29 0.90618 -1.86556 0
M  V30 10865 C 1043.71 1.74986 -0.690044 0
M  V30 10866 O 1043.07 1.77672 0.360862 0
M  V30 10867 C 1043.12 1.75777 -3.14857 0
M  V30 10868 O 1042.22 2.85952 -2.97162 0
M  V30 10869 H 1041.56 0.253781 -0.613589 0
M  V30 10870 H 1044.09 0.167943 -2.0391 0
M  V30 10871 H 1044.1 2.15747 -3.46291 0
M  V30 10872 H 1042.78 1.13807 -4.00026 0
M  V30 10873 H 1041.35 2.49557 -2.77084 0
M  V30 10874 N 1043.54 1.5137 0.438746 0
M  V30 10875 C 1044.95 1.56462 1.01866 0
M  V30 10876 C 1045.3 0.387244 1.9234 0
M  V30 10877 O 1044.43 -0.496131 2.10636 0
M  V30 10878 C 1045.02 2.83557 1.85421 0
M  V30 10879 C 1043.58 2.91224 2.38464 0
M  V30 10880 C 1042.73 2.51109 1.17641 0
M  V30 10881 H 1045.68 1.57167 0.220072 0
M  V30 10882 H 1045.7 2.6724 2.70857 0
M  V30 10883 H 1045.21 3.69229 1.19546 0
M  V30 10884 H 1043.31 2.09979 3.07798 0
M  V30 10885 H 1043.42 3.94844 2.71358 0
M  V30 10886 H 1041.79 2.04276 1.5213 0
M  V30 10887 H 1042.57 3.39125 0.533785 0
M  V30 10888 N 1045.02 -0.694098 1.41492 0
M  V30 10889 C 1045.95 -1.82042 1.46229 0
M  V30 10890 C 1046.93 -1.67047 0.320803 0
M  V30 10891 O 1048.11 -1.86758 0.53245 0
M  V30 10892 C 1045.24 -3.2019 1.34519 0
M  V30 10893 C 1044.2 -3.49892 2.46495 0
M  V30 10894 C 1043.52 -4.87411 2.1985 0
M  V30 10895 C 1044.82 -3.4872 3.88834 0
M  V30 10896 H 1046.52 -1.78335 2.40493 0
M  V30 10897 H 1044.06 -0.856566 1.15754 0
M  V30 10898 H 1046.02 -3.98699 1.36445 0
M  V30 10899 H 1044.74 -3.24527 0.367406 0
M  V30 10900 H 1043.4 -2.73734 2.43854 0
M  V30 10901 H 1043.05 -4.88375 1.20411 0
M  V30 10902 H 1042.75 -5.08248 2.94885 0
M  V30 10903 H 1044.27 -5.68228 2.23494 0
M  V30 10904 H 1045.68 -4.1723 3.93182 0
M  V30 10905 H 1044.08 -3.81089 4.63564 0
M  V30 10906 H 1045.15 -2.47665 4.16881 0
M  V30 10907 N 1046.49 -1.27344 -0.928501 0
M  V30 10908 C 1047.46 -1.10043 -2.01055 0
M  V30 10909 C 1048.46 -0.0446793 -1.60738 0
M  V30 10910 O 1049.65 -0.289202 -1.71783 0
M  V30 10911 C 1046.78 -0.676559 -3.34119 0
M  V30 10912 H 1047.97 -2.06126 -2.17835 0
M  V30 10913 H 1045.53 -1.10121 -1.10919 0
M  V30 10914 H 1046.26 0.285697 -3.23039 0
M  V30 10915 H 1046.05 -1.43903 -3.64739 0
M  V30 10916 H 1047.54 -0.577725 -4.13584 0
M  V30 10917 N 1047.97 1.13488 -1.09353 0
M  V30 10918 C 1049.22 1.841 -0.82401 0
M  V30 10919 C 1049.53 1.84393 0.652586 0
M  V30 10920 O 1050.74 2.5089 1.03762 0
M  V30 10921 C 1049.2 3.30523 -1.42418 0
M  V30 10922 C 1048.8 3.38621 -2.93326 0
M  V30 10923 C 1050.55 4.06182 -1.23356 0
M  V30 10924 C 1048.46 4.79311 -3.46432 0
M  V30 10925 H 1047.39 0.68974 -0.304589 0
M  V30 10926 H 1050.04 1.27866 -1.31615 0
M  V30 10927 H 1048.42 3.86555 -0.859727 0
M  V30 10928 H 1049.59 2.92587 -3.5599 0
M  V30 10929 H 1047.91 2.76426 -3.11412 0
M  V30 10930 H 1050.5 5.10047 -1.60488 0
M  V30 10931 H 1050.85 4.15936 -0.174152 0
M  V30 10932 H 1051.38 3.56477 -1.76547 0
M  V30 10933 H 1048.12 4.74748 -4.5199 0
M  V30 10934 H 1047.64 5.25842 -2.8853 0
M  V30 10935 H 1049.32 5.48227 -3.43593 0
M  V30 10936 N 1049.45 0.880621 1.30701 0
M  V30 10937 C 1050.41 0.349087 2.26526 0
M  V30 10938 C 1051.41 -0.505973 1.52632 0
M  V30 10939 O 1052.6 -0.313751 1.71351 0
M  V30 10940 C 1049.74 -0.503023 3.37168 0
M  V30 10941 H 1050.93 1.19516 2.75056 0
M  V30 10942 H 1048.48 0.657107 1.41816 0
M  V30 10943 H 1049.22 -1.36986 2.93948 0
M  V30 10944 H 1049 0.109389 3.91947 0
M  V30 10945 H 1050.49 -0.866845 4.08504 0
M  V30 10946 N 1050.93 -1.4397 0.641131 0
M  V30 10947 C 1052.16 -2.06303 0.157006 0
M  V30 10948 C 1052.57 -1.47981 -1.17248 0
M  V30 10949 O 1051.93 -0.606471 -1.72128 0
M  V30 10950 C 1051.98 -3.6147 0.0468425 0
M  V30 10951 O 1051.7 -4.17622 1.32376 0
M  V30 10952 C 1053.2 -4.40857 -0.464795 0
M  V30 10953 H 1050.42 -0.665684 0.0842946 0
M  V30 10954 H 1052.97 -1.84675 0.878363 0
M  V30 10955 H 1051.12 -3.82325 -0.625006 0
M  V30 10956 H 1051.54 -5.11167 1.17509 0
M  V30 10957 H 1053.01 -5.49813 -0.490862 0
M  V30 10958 H 1053.49 -4.13016 -1.4938 0
M  V30 10959 H 1054.09 -4.24943 0.174146 0
M  V30 10960 N 1052.41 -0.382291 -1.52893 0
M  V30 10961 C 1053.65 0.194935 -2.02464 0
M  V30 10962 C 1054.01 1.45051 -1.26404 0
M  V30 10963 O 1053.3 1.88302 -0.353968 0
M  V30 10964 C 1053.5 0.523437 -3.53546 0
M  V30 10965 C 1053.32 -0.698754 -4.44238 0
M  V30 10966 C 1052.09 -1.2159 -4.90453 0
M  V30 10967 C 1054.29 -1.56899 -4.89783 0
M  V30 10968 N 1052.27 -2.39637 -5.65197 0
M  V30 10969 C 1053.65 -2.59595 -5.63037 0
M  V30 10970 C 1055.7 -1.58991 -4.71833 0
M  V30 10971 C 1054.4 -3.6426 -6.20248 0
M  V30 10972 C 1056.43 -2.62559 -5.29922 0
M  V30 10973 C 1055.79 -3.63977 -6.03076 0
M  V30 10974 H 1051.89 0.0336043 -0.781278 0
M  V30 10975 H 1054.47 -0.530603 -1.8733 0
M  V30 10976 H 1052.65 1.21804 -3.68807 0
M  V30 10977 H 1054.38 1.0872 -3.89823 0
M  V30 10978 H 1051.13 -0.777967 -4.67167 0
M  V30 10979 H 1051.56 -2.99348 -6.07223 0
M  V30 10980 H 1056.2 -0.819305 -4.14786 0
M  V30 10981 H 1053.92 -4.42192 -6.76382 0
M  V30 10982 H 1057.5 -2.65052 -5.17918 0
M  V30 10983 H 1056.38 -4.42802 -6.47222 0
M  V30 10984 N 1053.89 1.57202 -0.111913 0
M  V30 10985 C 1054.82 2.17957 0.837683 0
M  V30 10986 C 1055.8 1.1176 1.28233 0
M  V30 10987 O 1056.98 1.39967 1.34621 0
M  V30 10988 C 1054.11 2.77333 2.09054 0
M  V30 10989 C 1053.07 3.8905 1.78393 0
M  V30 10990 C 1052.39 4.35203 3.10649 0
M  V30 10991 C 1053.69 5.11477 1.05775 0
M  V30 10992 H 1055.39 2.9756 0.331441 0
M  V30 10993 H 1052.93 1.43131 0.157979 0
M  V30 10994 H 1054.88 3.18492 2.75936 0
M  V30 10995 H 1053.61 1.95009 2.6199 0
M  V30 10996 H 1052.27 3.48456 1.13903 0
M  V30 10997 H 1051.92 3.49747 3.61506 0
M  V30 10998 H 1051.62 5.10534 2.9091 0
M  V30 10999 H 1053.14 4.79007 3.78661 0
M  V30 11000 H 1054.55 5.497 1.62798 0
M  V30 11001 H 1052.95 5.92346 0.961573 0
M  V30 11002 H 1054.02 4.84881 0.043297 0
M  V30 11003 N 1055.36 -0.161842 1.56767 0
M  V30 11004 C 1056.29 -1.20226 2.0017 0
M  V30 11005 C 1057.27 -1.4564 0.878807 0
M  V30 11006 O 1058.46 -1.56813 1.14557 0
M  V30 11007 C 1055.59 -2.53897 2.36968 0
M  V30 11008 C 1054.54 -2.43033 3.52305 0
M  V30 11009 C 1053.87 -3.81281 3.74872 0
M  V30 11010 C 1055.17 -1.927 4.85453 0
M  V30 11011 H 1056.86 -0.84142 2.87333 0
M  V30 11012 H 1054.41 -0.403309 1.38237 0
M  V30 11013 H 1056.36 -3.26893 2.6593 0
M  V30 11014 H 1055.09 -2.91787 1.46724 0
M  V30 11015 H 1053.75 -1.7249 3.23485 0
M  V30 11016 H 1053.39 -4.1658 2.81904 0
M  V30 11017 H 1053.09 -3.74877 4.52483 0
M  V30 11018 H 1054.62 -4.55848 4.06245 0
M  V30 11019 H 1056.03 -2.55477 5.13229 0
M  V30 11020 H 1054.43 -1.97222 5.66766 0
M  V30 11021 H 1055.5 -0.881816 4.76814 0
M  V30 11022 N 1056.84 -1.516 -0.430713 0
M  V30 11023 C 1058.09 -1.6484 -1.18134 0
M  V30 11024 C 1058.42 -0.366725 -1.90706 0
M  V30 11025 O 1057.7 0.63398 -1.83878 0
M  V30 11026 C 1057.98 -2.85617 -2.19306 0
M  V30 11027 C 1057.83 -4.23778 -1.50773 0
M  V30 11028 C 1059.15 -3.01909 -3.20217 0
M  V30 11029 H 1056.27 -0.599907 -0.428113 0
M  V30 11030 H 1058.91 -1.84102 -0.46973 0
M  V30 11031 H 1057.06 -2.69325 -2.79993 0
M  V30 11032 H 1058.73 -4.51752 -0.93371 0
M  V30 11033 H 1056.98 -4.26171 -0.809966 0
M  V30 11034 H 1057.65 -5.04291 -2.24487 0
M  V30 11035 H 1060.12 -3.16956 -2.69589 0
M  V30 11036 H 1059 -3.87968 -3.88293 0
M  V30 11037 H 1059.26 -2.1427 -3.86705 0
M  V30 11038 N 1058.32 0.686584 -1.41858 0
M  V30 11039 C 1059.25 1.81264 -1.47193 0
M  V30 11040 C 1060.23 1.66875 -0.329657 0
M  V30 11041 O 1061.42 1.86473 -0.542347 0
M  V30 11042 C 1058.55 3.19472 -1.36216 0
M  V30 11043 C 1057.5 3.4858 -2.48347 0
M  V30 11044 C 1056.83 4.86239 -2.22432 0
M  V30 11045 C 1058.13 3.46653 -3.90678 0
M  V30 11046 H 1059.82 1.77057 -2.41436 0
M  V30 11047 H 1057.37 0.850415 -1.16206 0
M  V30 11048 H 1059.32 3.97969 -1.38558 0
M  V30 11049 H 1058.04 3.24327 -0.384611 0
M  V30 11050 H 1056.7 2.72437 -2.45303 0
M  V30 11051 H 1056.35 4.8773 -1.22999 0
M  V30 11052 H 1056.05 5.06677 -2.97577 0
M  V30 11053 H 1057.57 5.67034 -2.26505 0
M  V30 11054 H 1058.99 4.15139 -3.95389 0
M  V30 11055 H 1057.38 3.78625 -4.65578 0
M  V30 11056 H 1058.45 2.45451 -4.18189 0
M  V30 11057 N 1059.8 1.27835 0.921735 0
M  V30 11058 C 1061.04 1.14523 1.67005 0
M  V30 11059 C 1061.37 -0.307776 1.92049 0
M  V30 11060 O 1060.63 -1.24103 1.51317 0
M  V30 11061 C 1060.93 1.88054 3.03925 0
M  V30 11062 C 1060.59 3.37886 2.9857 0
M  V30 11063 C 1059.25 3.78752 2.96817 0
M  V30 11064 C 1061.61 4.33462 2.89414 0
M  V30 11065 C 1058.93 5.13549 2.83698 0
M  V30 11066 C 1061.29 5.68322 2.77836 0
M  V30 11067 C 1059.95 6.08475 2.74436 0
M  V30 11068 H 1059.22 0.419068 0.611116 0
M  V30 11069 H 1061.87 1.58515 1.07449 0
M  V30 11070 H 1060.17 1.36587 3.67221 0
M  V30 11071 H 1061.87 1.75176 3.60714 0
M  V30 11072 H 1058.46 3.05389 3.00725 0
M  V30 11073 H 1062.64 4.02857 2.89862 0
M  V30 11074 H 1057.9 5.43796 2.79456 0
M  V30 11075 H 1062.07 6.42048 2.69717 0
M  V30 11076 H 1059.7 7.12877 2.64027 0
M  V30 11077 N 1061.28 -1.12907 1.09954 0
M  V30 11078 C 1062.19 -2.22082 0.756095 0
M  V30 11079 C 1063.2 -1.72277 -0.244272 0
M  V30 11080 O 1064.38 -2.01224 -0.0842637 0
M  V30 11081 C 1061.44 -3.46192 0.187642 0
M  V30 11082 C 1060.5 -4.10861 1.24465 0
M  V30 11083 C 1059.74 -5.29047 0.703227 0
M  V30 11084 O 1059.96 -5.68443 -0.472043 0
M  V30 11085 O 1058.89 -5.83904 1.46082 0
M  V30 11086 H 1062.72 -2.53842 1.66727 0
M  V30 11087 H 1060.3 -1.21145 0.874316 0
M  V30 11088 H 1062.19 -4.21212 -0.125774 0
M  V30 11089 H 1060.86 -3.16119 -0.696459 0
M  V30 11090 H 1059.77 -3.37643 1.61085 0
M  V30 11091 H 1061.1 -4.45078 2.10159 0
M  V30 11092 N 1062.75 -0.88754 -1.30232 0
M  V30 11093 C 1064 -0.508031 -1.96334 0
M  V30 11094 C 1064.33 0.940905 -1.69884 0
M  V30 11095 O 1063.61 1.66523 -1.005 0
M  V30 11096 C 1063.89 -0.786566 -3.51405 0
M  V30 11097 C 1063.74 -2.28632 -3.8736 0
M  V30 11098 C 1065.06 -0.264803 -4.39303 0
M  V30 11099 H 1062.18 -0.186051 -0.71313 0
M  V30 11100 H 1064.82 -1.112 -1.5406 0
M  V30 11101 H 1062.97 -0.272523 -3.87543 0
M  V30 11102 H 1064.65 -2.86896 -3.61231 0
M  V30 11103 H 1062.89 -2.75194 -3.35337 0
M  V30 11104 H 1063.56 -2.43181 -4.95547 0
M  V30 11105 H 1066.04 -0.704809 -4.10087 0
M  V30 11106 H 1064.91 -0.488998 -5.46717 0
M  V30 11107 H 1065.17 0.834055 -4.34161 0
M  V30 11108 N 1064.23 1.43628 -0.648757 0
M  V30 11109 C 1065.48 2.02163 -0.160574 0
M  V30 11110 C 1065.81 1.51037 1.22072 0
M  V30 11111 O 1065.09 0.701633 1.81404 0
M  V30 11112 C 1065.37 3.59715 -0.166528 0
M  V30 11113 C 1065.22 4.21083 -1.58142 0
M  V30 11114 C 1066.54 4.37256 0.499485 0
M  V30 11115 H 1063.66 0.734568 -0.0598238 0
M  V30 11116 H 1066.3 1.70981 -0.828592 0
M  V30 11117 H 1064.45 3.86411 0.402302 0
M  V30 11118 H 1066.12 4.05433 -2.2005 0
M  V30 11119 H 1064.37 3.77904 -2.13005 0
M  V30 11120 H 1065.04 5.30156 -1.53748 0
M  V30 11121 H 1067.51 4.16097 0.0155561 0
M  V30 11122 H 1066.39 5.4693 0.464574 0
M  V30 11123 H 1066.65 4.13175 1.57286 0
M  V30 11124 N 1065.71 0.390394 1.52688 0
M  V30 11125 C 1066.94 -0.194013 2.06491 0
M  V30 11126 C 1067.36 -1.3965 1.26014 0
M  V30 11127 O 1066.72 -1.79038 0.285468 0
M  V30 11128 C 1066.77 -0.541306 3.56514 0
M  V30 11129 O 1065.87 -1.63509 3.78601 0
M  V30 11130 H 1065.21 -0.0223608 0.663623 0
M  V30 11131 H 1067.74 0.558179 1.96839 0
M  V30 11132 H 1067.75 -0.805301 3.99974 0
M  V30 11133 H 1066.43 0.337828 4.14526 0
M  V30 11134 H 1065 -1.36473 3.4703 0
M  V30 11135 N 1067.19 -1.57141 0.120249 0
M  V30 11136 C 1068.12 -2.18398 -0.826112 0
M  V30 11137 C 1069.1 -1.12439 -1.27638 0
M  V30 11138 O 1070.28 -1.40679 -1.33877 0
M  V30 11139 C 1067.41 -2.78438 -2.0758 0
M  V30 11140 C 1066.37 -3.89991 -1.76327 0
M  V30 11141 C 1065.69 -4.36844 -3.08336 0
M  V30 11142 C 1066.99 -5.12031 -1.03062 0
M  V30 11143 H 1068.69 -2.97731 -0.315656 0
M  V30 11144 H 1066.23 -1.43213 -0.150387 0
M  V30 11145 H 1068.19 -3.19951 -2.74243 0
M  V30 11146 H 1066.91 -1.96396 -2.60953 0
M  V30 11147 H 1065.57 -3.49055 -1.12053 0
M  V30 11148 H 1065.22 -3.51659 -3.59646 0
M  V30 11149 H 1064.92 -5.1207 -2.88199 0
M  V30 11150 H 1066.44 -4.81009 -3.76116 0
M  V30 11151 H 1067.86 -5.50555 -1.59881 0
M  V30 11152 H 1066.25 -5.92848 -0.930146 0
M  V30 11153 H 1067.32 -4.84897 -0.017582 0
M  V30 11154 N 1068.67 0.153526 -1.5685 0
M  V30 11155 C 1069.89 0.882335 -1.87143 0
M  V30 11156 C 1070.31 1.75034 -0.707702 0
M  V30 11157 O 1069.67 1.79624 0.32273 0
M  V30 11158 C 1069.72 1.74444 -3.16625 0
M  V30 11159 O 1069.44 0.911419 -4.28515 0
M  V30 11160 C 1070.94 2.58139 -3.60388 0
M  V30 11161 H 1068.16 0.25546 -0.620469 0
M  V30 11162 H 1070.7 0.148275 -2.03962 0
M  V30 11163 H 1068.86 2.43163 -3.0158 0
M  V30 11164 H 1069.27 1.50268 -5.02513 0
M  V30 11165 H 1070.75 3.14215 -4.53842 0
M  V30 11166 H 1071.22 3.33865 -2.85361 0
M  V30 11167 H 1071.83 1.94721 -3.78105 0
M  V30 11168 N 1070.14 1.51827 0.422667 0
M  V30 11169 C 1071.08 1.70409 1.53275 0
M  V30 11170 C 1072.09 0.584584 1.51942 0
M  V30 11171 O 1073.28 0.859349 1.56453 0
M  V30 11172 C 1070.38 1.717 2.92185 0
M  V30 11173 C 1069.55 3.00472 3.17861 0
M  V30 11174 C 1068.61 2.93755 4.36571 0
M  V30 11175 O 1067.64 3.67682 4.3451 0
M  V30 11176 N 1068.84 2.10612 5.40946 0
M  V30 11177 H 1071.6 2.66176 1.37734 0
M  V30 11178 H 1069.16 1.49895 0.611799 0
M  V30 11179 H 1071.16 1.64756 3.69645 0
M  V30 11180 H 1069.73 0.834655 3.01251 0
M  V30 11181 H 1068.95 3.21171 2.28567 0
M  V30 11182 H 1070.23 3.85684 3.31851 0
M  V30 11183 H 1069.63 1.49954 5.45463 0
M  V30 11184 H 1068.19 2.09535 6.17202 0
M  V30 11185 N 1071.62 -0.679052 1.4222 0
M  V30 11186 C 1072.59 -1.77448 1.45069 0
M  V30 11187 C 1073.59 -1.57189 0.338882 0
M  V30 11188 O 1074.78 -1.63559 0.599519 0
M  V30 11189 C 1071.91 -3.1603 1.27819 0
M  V30 11190 H 1073.1 -1.7631 2.426 0
M  V30 11191 H 1070.65 -0.888277 1.28605 0
M  V30 11192 H 1071.39 -3.22796 0.311946 0
M  V30 11193 H 1071.17 -3.32138 2.08391 0
M  V30 11194 H 1072.66 -3.9596 1.32686 0
M  V30 11195 N 1073.1 -1.28322 -0.914942 0
M  V30 11196 C 1074.03 -1.06469 -2.01841 0
M  V30 11197 C 1075.01 0.0188681 -1.62589 0
M  V30 11198 O 1076.2 -0.128825 -1.88059 0
M  V30 11199 C 1073.32 -0.617685 -3.3302 0
M  V30 11200 C 1072.37 -1.6977 -3.91255 0
M  V30 11201 S 1073.2 -3.29337 -4.22253 0
M  V30 11202 C 1074.36 -2.86468 -5.56495 0
M  V30 11203 H 1074.59 -1.99893 -2.20068 0
M  V30 11204 H 1072.12 -1.12297 -1.05966 0
M  V30 11205 H 1074.08 -0.366481 -4.08861 0
M  V30 11206 H 1072.74 0.296709 -3.12695 0
M  V30 11207 H 1071.94 -1.33653 -4.85956 0
M  V30 11208 H 1071.54 -1.90164 -3.22046 0
M  V30 11209 H 1073.83 -2.32565 -6.36333 0
M  V30 11210 H 1074.77 -3.79962 -5.97523 0
M  V30 11211 H 1075.18 -2.2522 -5.17626 0
M  V30 11212 N 1074.58 1.12322 -1.10551 0
M  V30 11213 C 1075.83 1.83216 -0.84349 0
M  V30 11214 C 1076.14 1.85075 0.632992 0
M  V30 11215 O 1077.35 2.51976 1.01095 0
M  V30 11216 C 1075.8 3.28994 -1.45915 0
M  V30 11217 C 1075.41 3.3549 -2.96901 0
M  V30 11218 C 1077.15 4.0485 -1.27657 0
M  V30 11219 C 1075.06 4.7561 -3.51496 0
M  V30 11220 H 1073.99 0.686471 -0.311887 0
M  V30 11221 H 1076.64 1.26463 -1.32964 0
M  V30 11222 H 1075.02 3.85621 -0.900678 0
M  V30 11223 H 1076.2 2.88795 -3.59074 0
M  V30 11224 H 1074.51 2.73107 -3.14327 0
M  V30 11225 H 1077.11 5.08316 -1.65889 0
M  V30 11226 H 1077.45 4.15727 -0.218258 0
M  V30 11227 H 1077.99 3.54584 -1.80318 0
M  V30 11228 H 1074.73 4.69927 -4.56999 0
M  V30 11229 H 1074.25 5.22753 -2.94091 0
M  V30 11230 H 1075.92 5.44552 -3.49388 0
M  V30 11231 N 1076.06 0.894434 1.2976 0
M  V30 11232 C 1077.28 0.5322 2.00455 0
M  V30 11233 C 1077.71 -0.874427 1.66539 0
M  V30 11234 O 1077.06 -1.58113 0.887129 0
M  V30 11235 C 1077.11 0.725264 3.53231 0
M  V30 11236 O 1076.22 -0.224612 4.11788 0
M  V30 11237 H 1075.56 0.208562 0.630395 0
M  V30 11238 H 1078.09 1.20458 1.65382 0
M  V30 11239 H 1078.1 0.627889 4.0314 0
M  V30 11240 H 1076.77 1.75079 3.77253 0
M  V30 11241 H 1075.35 -0.0801361 3.72814 0
M  V30 11242 N 1077.53 -1.43282 0.656365 0
M  V30 11243 C 1078.47 -2.29087 -0.0720378 0
M  V30 11244 C 1079.48 -1.4268 -0.783982 0
M  V30 11245 O 1080.67 -1.66585 -0.641213 0
M  V30 11246 C 1077.77 -3.19676 -1.12519 0
M  V30 11247 C 1076.94 -4.34638 -0.490756 0
M  V30 11248 C 1076 -5.06079 -1.44121 0
M  V30 11249 O 1075.03 -5.6124 -0.948595 0
M  V30 11250 N 1076.23 -5.09872 -2.77509 0
M  V30 11251 H 1078.99 -2.92241 0.664456 0
M  V30 11252 H 1076.55 -1.54006 0.499383 0
M  V30 11253 H 1078.55 -3.64334 -1.76189 0
M  V30 11254 H 1077.12 -2.581 -1.76362 0
M  V30 11255 H 1076.34 -3.92857 0.3251 0
M  V30 11256 H 1077.62 -5.08777 -0.0480061 0
M  V30 11257 H 1077.02 -4.66433 -3.20088 0
M  V30 11258 H 1075.58 -5.58237 -3.36474 0
M  V30 11259 N 1079.01 -0.398486 -1.52479 0
M  V30 11260 C 1080.24 0.180295 -2.05812 0
M  V30 11261 C 1080.65 1.40301 -1.26934 0
M  V30 11262 O 1079.99 1.81039 -0.311544 0
M  V30 11263 C 1080.06 0.60601 -3.54355 0
M  V30 11264 C 1079.72 -0.504508 -4.54207 0
M  V30 11265 C 1080.72 -1.36478 -5.01667 0
M  V30 11266 C 1078.4 -0.674161 -4.97755 0
M  V30 11267 C 1080.4 -2.37975 -5.91309 0
M  V30 11268 C 1078.08 -1.69246 -5.87196 0
M  V30 11269 C 1079.08 -2.54367 -6.33866 0
M  V30 11270 O 1078.77 -3.54454 -7.21538 0
M  V30 11271 H 1078.5 0.0286396 -0.675393 0
M  V30 11272 H 1081.06 -0.564912 -1.97479 0
M  V30 11273 H 1079.29 1.40334 -3.60338 0
M  V30 11274 H 1080.97 1.1115 -3.90385 0
M  V30 11275 H 1081.74 -1.24506 -4.68746 0
M  V30 11276 H 1077.62 -0.0213029 -4.60995 0
M  V30 11277 H 1081.16 -3.0445 -6.27659 0
M  V30 11278 H 1077.06 -1.81252 -6.1953 0
M  V30 11279 H 1077.83 -3.50571 -7.39623 0
M  V30 11280 N 1080.49 1.57075 -0.12858 0
M  V30 11281 C 1081.9 1.82468 0.39526 0
M  V30 11282 C 1082.25 1.0463 1.65973 0
M  V30 11283 O 1081.38 0.285835 2.14504 0
M  V30 11284 C 1081.97 3.30976 0.723889 0
M  V30 11285 C 1080.53 3.57016 1.19232 0
M  V30 11286 C 1079.68 2.76534 0.205907 0
M  V30 11287 H 1082.63 1.54711 -0.353571 0
M  V30 11288 H 1082.65 3.46127 1.58039 0
M  V30 11289 H 1082.16 3.87602 -0.196595 0
M  V30 11290 H 1080.26 3.05758 2.12938 0
M  V30 11291 H 1080.38 4.65558 1.13103 0
M  V30 11292 H 1078.74 2.45038 0.694872 0
M  V30 11293 H 1079.52 3.35923 -0.707842 0
M  V30 11294 N 1081.97 -0.145205 1.5693 0
M  V30 11295 C 1082.93 -1.16316 1.97492 0
M  V30 11296 C 1083.93 -1.35764 0.861668 0
M  V30 11297 O 1085.12 -1.32726 1.12825 0
M  V30 11298 C 1082.25 -2.52311 2.29242 0
M  V30 11299 H 1083.45 -0.815138 2.8861 0
M  V30 11300 H 1081 -0.38861 1.51392 0
M  V30 11301 H 1081.74 -2.92081 1.40922 0
M  V30 11302 H 1081.52 -2.39555 3.10412 0
M  V30 11303 H 1083.01 -3.25624 2.61456 0
M  V30 11304 N 1083.45 -1.52049 -0.414609 0
M  V30 11305 C 1084.69 -1.67041 -1.16056 0
M  V30 11306 C 1085.05 -0.392768 -1.88348 0
M  V30 11307 O 1084.34 0.612547 -1.81545 0
M  V30 11308 C 1084.54 -2.82735 -2.18622 0
M  V30 11309 C 1084.36 -4.21627 -1.564 0
M  V30 11310 C 1083.13 -4.87234 -1.33907 0
M  V30 11311 C 1085.33 -5.03924 -1.02785 0
M  V30 11312 N 1083.31 -6.10175 -0.67521 0
M  V30 11313 C 1084.69 -6.18056 -0.490589 0
M  V30 11314 C 1086.74 -4.89293 -0.921791 0
M  V30 11315 C 1085.44 -7.19159 0.14234 0
M  V30 11316 C 1087.47 -5.90625 -0.302724 0
M  V30 11317 C 1086.83 -7.04044 0.223891 0
M  V30 11318 H 1082.93 -0.664947 -0.411544 0
M  V30 11319 H 1085.51 -1.89339 -0.453743 0
M  V30 11320 H 1083.69 -2.62062 -2.86668 0
M  V30 11321 H 1085.42 -2.86792 -2.85539 0
M  V30 11322 H 1082.17 -4.45499 -1.60709 0
M  V30 11323 H 1082.6 -6.76042 -0.360062 0
M  V30 11324 H 1087.24 -4.01838 -1.31477 0
M  V30 11325 H 1084.96 -8.06244 0.547392 0
M  V30 11326 H 1088.54 -5.81375 -0.222252 0
M  V30 11327 H 1087.42 -7.81111 0.695377 0
M  V30 11328 N 1084.93 0.6715 -1.42579 0
M  V30 11329 C 1086.15 1.46471 -1.46836 0
M  V30 11330 C 1086.58 1.87921 -0.0820658 0
M  V30 11331 O 1085.93 1.5621 0.920217 0
M  V30 11332 C 1085.98 2.68796 -2.40377 0
M  V30 11333 O 1085.09 3.67188 -1.87741 0
M  V30 11334 H 1084.43 0.439901 -0.497376 0
M  V30 11335 H 1086.96 0.823342 -1.87303 0
M  V30 11336 H 1086.97 3.16828 -2.57068 0
M  V30 11337 H 1085.64 2.37967 -3.41093 0
M  V30 11338 H 1084.22 3.26237 -1.80621 0
M  V30 11339 N 1086.4 1.28806 0.908124 0
M  V30 11340 C 1087.65 1.1646 1.66027 0
M  V30 11341 C 1087.98 -0.285025 1.92097 0
M  V30 11342 O 1087.26 -1.20675 1.52538 0
M  V30 11343 C 1087.54 1.96951 3.01467 0
M  V30 11344 C 1087.39 3.50007 2.82515 0
M  V30 11345 C 1088.71 1.78932 4.02084 0
M  V30 11346 H 1085.83 0.424435 0.602515 0
M  V30 11347 H 1088.47 1.58185 1.0525 0
M  V30 11348 H 1086.62 1.61495 3.53344 0
M  V30 11349 H 1088.3 3.95401 2.37605 0
M  V30 11350 H 1086.54 3.75356 2.17463 0
M  V30 11351 H 1087.21 4.01591 3.7872 0
M  V30 11352 H 1089.69 2.09885 3.59287 0
M  V30 11353 H 1088.56 2.37615 4.94803 0
M  V30 11354 H 1088.82 0.742286 4.35824 0
M  V30 11355 N 1087.88 -1.11734 1.11145 0
M  V30 11356 C 1089.13 -1.83043 0.856717 0
M  V30 11357 C 1089.45 -1.84901 -0.619407 0
M  V30 11358 O 1088.72 -1.31738 -1.44989 0
M  V30 11359 H 1087.3 -0.677823 0.31395 0
M  V30 11360 H 1089.96 -1.35262 1.40322 0
M  V30 11361 H 1089.06 -2.87005 1.22616 0
M  V30 11362 N 1089.36 -0.901303 -1.29284 0
M  V30 11363 C 1090.78 -0.597634 -1.47988 0
M  V30 11364 C 1090.98 0.860434 -1.82205 0
M  V30 11365 O 1090.03 1.64049 -1.91948 0
M  V30 11366 C 1091.34 -1.52484 -2.5917 0
M  V30 11367 C 1092.89 -1.53021 -2.73045 0
M  V30 11368 C 1093.37 -2.44373 -3.87357 0
M  V30 11369 N 1094.86 -2.42429 -3.94693 0
M  V30 11370 C 1095.59 -3.09817 -4.82495 0
M  V30 11371 N 1095.09 -3.86489 -5.74976 0
M  V30 11372 N 1096.88 -2.98966 -4.76 0
M  V30 11373 H 1089.03 -1.84432 -1.0535 0
M  V30 11374 H 1091.3 -0.790367 -0.523473 0
M  V30 11375 H 1091 -2.56378 -2.40756 0
M  V30 11376 H 1090.88 -1.24657 -3.56006 0
M  V30 11377 H 1093.26 -0.498709 -2.90855 0
M  V30 11378 H 1093.34 -1.84886 -1.76779 0
M  V30 11379 H 1092.99 -3.47618 -3.70302 0
M  V30 11380 H 1092.92 -2.09817 -4.82995 0
M  V30 11381 H 1095.41 -1.86724 -3.28546 0
M  V30 11382 H 1095.72 -4.34959 -6.38773 0
M  V30 11383 H 1094.07 -3.90596 -5.74857 0
M  V30 11384 H 1097.26 -2.38581 -4.02737 0
M  V30 11385 H 1097.43 -3.51758 -5.44215 0
M  V30 11386 N 1090.84 1.42931 -0.663954 0
M  V30 11387 C 1092.06 2.06544 -0.188201 0
M  V30 11388 C 1092.49 1.495 1.14155 0
M  V30 11389 O 1091.85 0.609164 1.7076 0
M  V30 11390 C 1091.89 3.60393 -0.122105 0
M  V30 11391 O 1091 4.02176 0.91258 0
M  V30 11392 H 1090.34 0.656458 -0.0997967 0
M  V30 11393 H 1092.87 1.83253 -0.909909 0
M  V30 11394 H 1092.88 4.07959 0.0576568 0
M  V30 11395 H 1091.55 4.01287 -1.09276 0
M  V30 11396 H 1090.13 3.6618 0.704738 0
M  V30 11397 N 1092.32 0.406567 1.52266 0
M  V30 11398 C 1093.26 -0.43489 2.28498 0
M  V30 11399 C 1094.26 -1.04806 1.33086 0
M  V30 11400 O 1095.46 -0.986557 1.50556 0
M  V30 11401 H 1091.84 -0.159023 0.734994 0
M  V30 11402 H 1093.81 0.229316 2.97518 0
M  V30 11403 C 1092.56 -1.54073 3.117 0
M  V30 11404 H 1091.88 -1.07824 3.84986 0
M  V30 11405 H 1093.32 -2.10337 3.6815 0
M  V30 11406 C 1091.78 -2.50662 2.251 0
M  V30 11407 O 1092.31 -3.54486 1.88951 0
M  V30 11408 N 1090.52 -2.20811 1.8892 0
M  V30 11409 H 1090.06 -1.36413 2.18516 0
M  V30 11410 H 1090.02 -2.85684 1.3127 0
M  V30 11411 N 1093.79 -1.57004 0.136909 0
M  V30 11412 C 1094.72 -2.19262 -0.802902 0
M  V30 11413 C 1095.71 -1.13786 -1.26439 0
M  V30 11414 O 1096.89 -1.42091 -1.32377 0
M  V30 11415 C 1094.02 -2.80624 -2.04615 0
M  V30 11416 C 1092.97 -3.91839 -1.72181 0
M  V30 11417 C 1092.3 -4.4009 -3.03686 0
M  V30 11418 C 1093.6 -5.13095 -0.976249 0
M  V30 11419 H 1095.29 -2.98049 -0.28406 0
M  V30 11420 H 1092.84 -1.43364 -0.135189 0
M  V30 11421 H 1094.79 -3.22842 -2.70834 0
M  V30 11422 H 1093.52 -1.99153 -2.58855 0
M  V30 11423 H 1092.18 -3.50224 -1.08344 0
M  V30 11424 H 1091.82 -3.55454 -3.55896 0
M  V30 11425 H 1091.52 -5.15098 -2.82751 0
M  V30 11426 H 1093.05 -4.84971 -3.70993 0
M  V30 11427 H 1094.46 -5.5222 -1.54033 0
M  V30 11428 H 1092.86 -5.93801 -0.867214 0
M  V30 11429 H 1093.93 -4.84888 0.0338488 0
M  V30 11430 N 1095.27 0.136881 -1.57004 0
M  V30 11431 C 1096.2 1.19402 -1.95642 0
M  V30 11432 C 1097.22 1.38635 -0.853478 0
M  V30 11433 O 1098.41 1.38027 -1.13185 0
M  V30 11434 C 1095.51 2.55716 -2.22402 0
M  V30 11435 C 1094.68 2.57325 -3.53698 0
M  V30 11436 C 1093.74 3.75253 -3.68879 0
M  V30 11437 O 1092.76 3.5966 -4.41173 0
M  V30 11438 N 1093.97 4.93112 -3.06302 0
M  V30 11439 H 1096.73 0.865504 -2.8693 0
M  V30 11440 H 1094.29 0.326346 -1.58577 0
M  V30 11441 H 1096.28 3.33135 -2.29789 0
M  V30 11442 H 1094.85 2.80819 -1.37329 0
M  V30 11443 H 1094.07 1.65749 -3.5766 0
M  V30 11444 H 1095.36 2.55441 -4.40031 0
M  V30 11445 H 1094.76 5.08684 -2.47502 0
M  V30 11446 H 1093.32 5.68271 -3.19236 0
M  V30 11447 N 1096.75 1.52266 0.40654 0
M  V30 11448 C 1097.71 1.75168 1.47814 0
M  V30 11449 C 1098.71 0.621575 1.48301 0
M  V30 11450 O 1099.9 0.889476 1.4978 0
M  V30 11451 C 1097.04 1.83642 2.87208 0
M  V30 11452 H 1098.23 2.70834 1.28798 0
M  V30 11453 H 1095.78 1.42722 0.637196 0
M  V30 11454 H 1096.52 0.898994 3.1159 0
M  V30 11455 H 1096.3 2.65801 2.88257 0
M  V30 11456 H 1097.79 2.03093 3.64888 0
M  V30 11457 N 1098.23 -0.663929 1.42933 0
M  V30 11458 C 1099.16 -1.78899 1.50058 0
M  V30 11459 C 1100.14 -1.66329 0.356164 0
M  V30 11460 O 1101.32 -1.85587 0.571944 0
M  V30 11461 C 1098.45 -3.17265 1.41281 0
M  V30 11462 C 1097.41 -3.44584 2.53861 0
M  V30 11463 C 1096.73 -4.82638 2.3014 0
M  V30 11464 C 1098.03 -3.40394 3.96143 0
M  V30 11465 H 1099.73 -1.73194 2.44222 0
M  V30 11466 H 1097.27 -0.83182 1.17545 0
M  V30 11467 H 1099.23 -3.95715 1.44872 0
M  V30 11468 H 1097.95 -3.23675 0.43616 0
M  V30 11469 H 1096.61 -2.685 2.49606 0
M  V30 11470 H 1096.26 -4.85711 1.30743 0
M  V30 11471 H 1095.96 -5.01879 3.056 0
M  V30 11472 H 1097.48 -5.63359 2.35497 0
M  V30 11473 H 1098.9 -4.08796 4.01943 0
M  V30 11474 H 1097.29 -3.7117 4.71543 0
M  V30 11475 H 1098.36 -2.38767 4.22041 0
M  V30 11476 N 1099.71 -1.29285 -0.901281 0
M  V30 11477 C 1100.67 -1.14283 -1.98676 0
M  V30 11478 C 1101.67 -0.0787641 -1.60607 0
M  V30 11479 O 1102.86 -0.325574 -1.71131 0
M  V30 11480 C 1099.99 -0.747279 -3.32609 0
M  V30 11481 H 1101.18 -2.10701 -2.13413 0
M  V30 11482 H 1098.74 -1.12449 -1.08558 0
M  V30 11483 H 1099.47 0.217111 -3.23572 0
M  V30 11484 H 1099.26 -1.51608 -3.61604 0
M  V30 11485 H 1100.75 -0.665322 -4.12266 0
M  V30 11486 N 1101.18 1.11143 -1.11736 0
M  V30 11487 C 1102.43 1.82586 -0.866412 0
M  V30 11488 C 1102.75 1.85227 0.609593 0
M  V30 11489 O 1102.02 1.32505 1.44288 0
M  V30 11490 H 1100.6 0.676149 -0.31754 0
M  V30 11491 H 1103.27 1.34516 -1.41037 0
M  V30 11492 H 1102.36 2.8635 -1.24136 0
M  V30 11493 N 1102.66 0.908147 1.28804 0
M  V30 11494 C 1103.61 0.390734 2.27468 0
M  V30 11495 C 1104.58 -0.531765 1.57358 0
M  V30 11496 O 1105.76 -0.455177 1.85291 0
M  V30 11497 C 1102.9 -0.368159 3.43131 0
M  V30 11498 C 1102.02 0.586202 4.28004 0
M  V30 11499 C 1101.15 -0.190581 5.30858 0
M  V30 11500 C 1100.19 0.757758 6.07391 0
M  V30 11501 N 1099.33 0.0148488 7.02098 0
M  V30 11502 H 1104.17 1.23717 2.71105 0
M  V30 11503 H 1101.71 0.621382 1.33331 0
M  V30 11504 H 1103.66 -0.824289 4.08976 0
M  V30 11505 H 1102.29 -1.17898 3.00499 0
M  V30 11506 H 1101.35 1.16086 3.62254 0
M  V30 11507 H 1102.66 1.31177 4.81242 0
M  V30 11508 H 1101.81 -0.707528 6.0256 0
M  V30 11509 H 1100.55 -0.949234 4.78373 0
M  V30 11510 H 1099.56 1.28613 5.34545 0
M  V30 11511 H 1100.78 1.51588 6.61965 0
M  V30 11512 H 1098.73 -0.725916 6.51971 0
M  V30 11513 H 1098.64 0.680347 7.52932 0
M  V30 11514 H 1099.91 -0.482086 7.78008 0
M  V30 11515 N 1104.14 -1.42577 0.671525 0
M  V30 11516 C 1105.37 -2.05924 0.200731 0
M  V30 11517 C 1105.78 -1.50434 -1.14083 0
M  V30 11518 O 1105.14 -0.642845 -1.70803 0
M  V30 11519 C 1105.19 -3.61289 0.123505 0
M  V30 11520 O 1104.91 -4.1472 1.41205 0
M  V30 11521 C 1106.41 -4.41743 -0.371178 0
M  V30 11522 H 1103.63 -0.663746 0.0983958 0
M  V30 11523 H 1106.18 -1.82771 0.917338 0
M  V30 11524 H 1104.33 -3.83565 -0.543769 0
M  V30 11525 H 1104.75 -5.0856 1.28325 0
M  V30 11526 H 1106.22 -5.50731 -0.374128 0
M  V30 11527 H 1106.7 -4.16092 -1.40585 0
M  V30 11528 H 1107.3 -4.24478 0.264244 0
M  V30 11529 N 1105.62 -0.414636 -1.52048 0
M  V30 11530 C 1106.86 0.158807 -2.03782 0
M  V30 11531 C 1107.22 1.41912 -1.29325 0
M  V30 11532 O 1108.42 2.07136 -1.71313 0
M  V30 11533 C 1106.69 0.395092 -3.55209 0
M  V30 11534 S 1108.25 0.935193 -4.28719 0
M  V30 11535 H 1105.07 0.0424729 -0.70973 0
M  V30 11536 H 1107.67 -0.568822 -1.87042 0
M  V30 11537 H 1106.38 -0.528875 -4.06978 0
M  V30 11538 H 1105.91 1.15044 -3.76203 0
M  V30 11539 H 1107.92 2.21519 -4.44009 0
M  V30 11540 N 1107.1 1.56929 -0.145233 0
M  V30 11541 C 1108.34 1.95681 0.50532 0
M  V30 11542 C 1108.67 1.03098 1.65516 0
M  V30 11543 O 1107.94 0.0921961 1.95683 0
M  V30 11544 H 1106.52 0.72252 0.189668 0
M  V30 11545 H 1109.18 1.93651 -0.220318 0
M  V30 11546 H 1108.27 2.99359 0.882631 0
M  V30 11547 N 1108.58 -0.128553 1.57075 0
M  V30 11548 C 1109.51 -1.15953 2.02675 0
M  V30 11549 C 1110.49 -1.43743 0.909501 0
M  V30 11550 O 1111.67 -1.54348 1.17857 0
M  V30 11551 C 1108.8 -2.48813 2.423 0
M  V30 11552 C 1107.76 -2.35506 3.57381 0
M  V30 11553 C 1107.08 -3.73243 3.82875 0
M  V30 11554 C 1108.38 -1.82359 4.89431 0
M  V30 11555 H 1110.08 -0.780283 2.89054 0
M  V30 11556 H 1107.62 -0.373896 1.39061 0
M  V30 11557 H 1109.57 -3.21179 2.72804 0
M  V30 11558 H 1108.3 -2.88609 1.52881 0
M  V30 11559 H 1106.96 -1.6559 3.27071 0
M  V30 11560 H 1106.61 -4.10507 2.90677 0
M  V30 11561 H 1106.31 -3.65195 4.60333 0
M  V30 11562 H 1107.83 -4.47128 4.15823 0
M  V30 11563 H 1109.24 -2.44533 5.18533 0
M  V30 11564 H 1107.64 -1.85156 5.70822 0
M  V30 11565 H 1108.71 -0.780478 4.78578 0
M  V30 11566 N 1110.05 -1.5248 -0.398459 0
M  V30 11567 C 1111.02 -1.75949 -1.46883 0
M  V30 11568 C 1112.02 -0.629431 -1.47969 0
M  V30 11569 O 1113.21 -0.897407 -1.49306 0
M  V30 11570 C 1110.34 -1.85162 -2.8623 0
M  V30 11571 H 1111.53 -2.71513 -1.2736 0
M  V30 11572 H 1109.08 -1.43058 -0.629619 0
M  V30 11573 H 1109.82 -0.915505 -3.11109 0
M  V30 11574 H 1109.6 -2.67326 -2.86844 0
M  V30 11575 H 1111.09 -2.05025 -3.63805 0
M  V30 11576 N 1111.53 0.65634 -1.43283 0
M  V30 11577 C 1112.44 1.79847 -1.50639 0
M  V30 11578 C 1113.46 1.69487 -0.393714 0
M  V30 11579 O 1114.63 1.90712 -0.647379 0
M  V30 11580 C 1111.7 3.16107 -1.42398 0
M  V30 11581 C 1110.76 3.38287 -2.64312 0
M  V30 11582 C 1109.99 4.68046 -2.56454 0
M  V30 11583 O 1110.22 5.4719 -1.61056 0
M  V30 11584 O 1109.15 4.91877 -3.46902 0
M  V30 11585 H 1112.98 1.76596 -2.47078 0
M  V30 11586 H 1110.56 0.814428 -1.25249 0
M  V30 11587 H 1112.44 3.97382 -1.40233 0
M  V30 11588 H 1111.12 3.19956 -0.490929 0
M  V30 11589 H 1110.02 2.56788 -2.72049 0
M  V30 11590 H 1111.36 3.39282 -3.56579 0
M  V30 11591 N 1113.01 1.29761 0.894412 0
M  V30 11592 C 1114.29 1.08711 1.62608 0
M  V30 11593 C 1114.67 -0.366907 2.07887 0
M  V30 11594 O 1114.01 -1.35669 1.83865 0
M  V30 11595 C 1114.22 2.07947 2.80284 0
M  V30 11596 C 1115.57 2.39153 3.50843 0
M  V30 11597 O 1116.6 2.06183 2.9046 0
M  V30 11598 O 1115.46 2.95509 4.59713 0
M  V30 11599 H 1112.55 0.416866 0.714249 0
M  V30 11600 H 1115.1 1.41153 0.942015 0
M  V30 11601 H 1113.87 3.05859 2.44061 0
M  V30 11602 H 1113.49 1.76266 3.56393 0
M  V30 11603 N 1114.49 -1.10549 1.12324 0
M  V30 11604 C 1115.73 -1.82755 0.879117 0
M  V30 11605 C 1116.07 -1.84905 -0.593604 0
M  V30 11606 O 1115.34 -1.30884 -1.43873 0
M  V30 11607 C 1115.62 -3.29481 1.45308 0
M  V30 11608 C 1115.48 -3.3567 2.99408 0
M  V30 11609 C 1116.8 -4.25828 1.11167 0
M  V30 11610 H 1113.92 -0.663513 0.32081 0
M  V30 11611 H 1116.56 -1.29572 1.38965 0
M  V30 11612 H 1114.71 -3.74902 1.01887 0
M  V30 11613 H 1116.38 -2.98739 3.515 0
M  V30 11614 H 1114.62 -2.75606 3.34998 0
M  V30 11615 H 1115.29 -4.38983 3.34661 0
M  V30 11616 H 1117.77 -3.88635 1.48667 0
M  V30 11617 H 1116.65 -5.26857 1.53991 0
M  V30 11618 H 1116.91 -4.42094 0.0237046 0
M  V30 11619 N 1115.97 -0.914965 -1.28321 0
M  V30 11620 C 1116.9 -0.421292 -2.29668 0
M  V30 11621 C 1117.88 0.511743 -1.6222 0
M  V30 11622 O 1119.06 0.419218 -1.89621 0
M  V30 11623 C 1116.19 0.338364 -3.45648 0
M  V30 11624 C 1115.15 -0.505646 -4.25003 0
M  V30 11625 C 1114.47 0.382421 -5.33331 0
M  V30 11626 C 1115.77 -1.76354 -4.91626 0
M  V30 11627 H 1117.47 -1.26826 -2.71211 0
M  V30 11628 H 1115.01 -0.611291 -1.30381 0
M  V30 11629 H 1116.96 0.694578 -4.15636 0
M  V30 11630 H 1115.69 1.21925 -3.02988 0
M  V30 11631 H 1114.35 -0.844395 -3.56743 0
M  V30 11632 H 1114 1.26189 -4.86914 0
M  V30 11633 H 1113.7 -0.17871 -5.87328 0
M  V30 11634 H 1115.22 0.73449 -6.06166 0
M  V30 11635 H 1116.63 -1.47616 -5.5397 0
M  V30 11636 H 1115.03 -2.26717 -5.55625 0
M  V30 11637 H 1116.1 -2.49063 -4.16048 0
M  V30 11638 N 1117.44 1.42219 -0.679077 0
M  V30 11639 C 1118.69 2.01777 -0.20342 0
M  V30 11640 C 1119.02 1.53592 1.18841 0
M  V30 11641 O 1118.3 0.739954 1.79875 0
M  V30 11642 C 1118.58 3.59281 -0.242791 0
M  V30 11643 C 1118.43 4.17634 -1.67038 0
M  V30 11644 C 1119.75 4.38218 0.406624 0
M  V30 11645 H 1116.87 0.733134 -0.0753916 0
M  V30 11646 H 1119.51 1.69185 -0.864673 0
M  V30 11647 H 1117.66 3.87178 0.320248 0
M  V30 11648 H 1119.34 4.00674 -2.286 0
M  V30 11649 H 1117.58 3.73301 -2.20973 0
M  V30 11650 H 1118.25 5.26776 -1.64958 0
M  V30 11651 H 1120.73 4.16036 -0.0727077 0
M  V30 11652 H 1119.6 5.47793 0.348457 0
M  V30 11653 H 1119.86 4.16418 1.48487 0
M  V30 11654 N 1118.92 0.422693 1.51826 0
M  V30 11655 C 1119.83 -0.40261 2.31119 0
M  V30 11656 C 1120.85 -1.04117 1.39412 0
M  V30 11657 O 1122.02 -1.03973 1.72486 0
M  V30 11658 C 1119.09 -1.49699 3.12716 0
M  V30 11659 C 1118.15 -0.880088 4.20182 0
M  V30 11660 C 1117.38 -1.92232 4.97878 0
M  V30 11661 O 1117.61 -3.14246 4.76031 0
M  V30 11662 O 1116.54 -1.521 5.82365 0
M  V30 11663 H 1120.37 0.244308 3.02716 0
M  V30 11664 H 1117.95 0.185569 1.48243 0
M  V30 11665 H 1119.83 -2.13202 3.63487 0
M  V30 11666 H 1118.51 -2.12826 2.43899 0
M  V30 11667 H 1117.41 -0.207404 3.73525 0
M  V30 11668 H 1118.75 -0.292535 4.9133 0
M  V30 11669 N 1120.4 -1.5685 0.153553 0
M  V30 11670 C 1121.33 -2.20101 -0.779601 0
M  V30 11671 C 1122.31 -1.15121 -1.25225 0
M  V30 11672 O 1123.5 -1.43487 -1.30862 0
M  V30 11673 C 1120.63 -2.82778 -2.01628 0
M  V30 11674 C 1119.58 -3.93643 -1.68015 0
M  V30 11675 C 1118.91 -4.43286 -2.99001 0
M  V30 11676 C 1120.21 -5.14102 -0.921774 0
M  V30 11677 H 1121.9 -2.98334 -0.252432 0
M  V30 11678 H 1119.45 -1.43499 -0.119975 0
M  V30 11679 H 1121.4 -3.25696 -2.67395 0
M  V30 11680 H 1120.12 -2.01887 -2.56728 0
M  V30 11681 H 1118.78 -3.51354 -1.04624 0
M  V30 11682 H 1118.43 -3.59208 -3.52106 0
M  V30 11683 H 1118.13 -5.18068 -2.77272 0
M  V30 11684 H 1119.65 -4.88878 -3.65828 0
M  V30 11685 H 1121.07 -5.53823 -1.48167 0
M  V30 11686 H 1119.46 -5.94687 -0.804185 0
M  V30 11687 H 1120.53 -4.84825 0.0852757 0
M  V30 11688 N 1121.88 0.120221 -1.57141 0
M  V30 11689 C 1123.15 0.858458 -1.75755 0
M  V30 11690 C 1123.53 1.98124 -0.728693 0
M  V30 11691 O 1122.88 2.27155 0.247573 0
M  V30 11692 C 1123.09 1.37627 -3.20718 0
M  V30 11693 C 1124.44 1.82909 -3.83183 0
M  V30 11694 O 1125.46 1.47309 -3.24312 0
M  V30 11695 O 1124.32 2.4865 -4.86657 0
M  V30 11696 H 1121.42 0.407583 -0.719587 0
M  V30 11697 H 1123.96 0.104057 -1.69381 0
M  V30 11698 H 1122.74 0.570651 -3.87117 0
M  V30 11699 H 1122.36 2.19341 -3.31625 0
M  V30 11700 N 1123.36 1.52689 0.390367 0
M  V30 11701 C 1124.77 1.59623 0.968366 0
M  V30 11702 C 1125.12 0.44824 1.91011 0
M  V30 11703 O 1124.24 -0.428868 2.12108 0
M  V30 11704 C 1124.84 2.89312 1.76306 0
M  V30 11705 C 1123.4 2.98664 2.29079 0
M  V30 11706 C 1122.54 2.54725 1.09593 0
M  V30 11707 H 1125.5 1.57787 0.169959 0
M  V30 11708 H 1125.52 2.75721 2.62217 0
M  V30 11709 H 1125.03 3.72846 1.07738 0
M  V30 11710 H 1123.13 2.19665 3.00962 0
M  V30 11711 H 1123.24 4.03277 2.58659 0
M  V30 11712 H 1121.61 2.09012 1.45554 0
M  V30 11713 H 1122.39 3.40651 0.425625 0
M  V30 11714 N 1124.83 -0.648732 1.43629 0
M  V30 11715 C 1125.78 -1.78269 1.49409 0
M  V30 11716 C 1126.78 -1.6537 0.367288 0
M  V30 11717 O 1127.98 -1.71663 0.541476 0
M  V30 11718 H 1124.36 -0.58824 0.468484 0
M  V30 11719 H 1126.33 -1.70514 2.44883 0
M  V30 11720 C 1125.08 -3.16545 1.43856 0
M  V30 11721 H 1124.4 -3.2711 2.29868 0
M  V30 11722 H 1125.84 -3.95833 1.51961 0
M  V30 11723 C 1124.3 -3.36535 0.156779 0
M  V30 11724 O 1124.83 -3.94052 -0.780124 0
M  V30 11725 N 1123.04 -2.90526 0.0655319 0
M  V30 11726 H 1122.58 -2.43904 0.828768 0
M  V30 11727 H 1122.54 -3.04277 -0.791379 0
M  V30 11728 N 1126.31 -1.30234 -0.887518 0
M  V30 11729 C 1127.28 -1.16384 -1.97452 0
M  V30 11730 C 1128.28 -0.0957942 -1.60514 0
M  V30 11731 O 1129.47 -0.343706 -1.70776 0
M  V30 11732 C 1126.6 -0.782514 -3.31797 0
M  V30 11733 H 1127.79 -2.12952 -2.11167 0
M  V30 11734 H 1125.34 -1.13594 -1.07359 0
M  V30 11735 H 1126.08 0.18278 -3.23785 0
M  V30 11736 H 1125.86 -1.55434 -3.59976 0
M  V30 11737 H 1127.35 -0.709011 -4.11537 0
M  V30 11738 N 1127.79 1.09952 -1.12909 0
M  V30 11739 C 1129.04 1.81657 -0.885729 0
M  V30 11740 C 1129.36 1.85863 0.589913 0
M  V30 11741 O 1128.63 1.34028 1.42875 0
M  V30 11742 H 1127.21 0.672743 -0.324694 0
M  V30 11743 H 1129.87 1.33013 -1.42456 0
M  V30 11744 H 1128.97 2.85018 -1.27167 0
M  V30 11745 N 1129.27 0.921757 1.27833 0
M  V30 11746 C 1130.2 0.360683 2.25332 0
M  V30 11747 C 1131.18 -0.53961 1.53385 0
M  V30 11748 O 1132.36 -0.48146 1.82248 0
M  V30 11749 C 1129.49 -0.483626 3.35229 0
M  V30 11750 C 1128.54 0.352405 4.25042 0
M  V30 11751 S 1129.37 1.76421 5.05605 0
M  V30 11752 C 1130.53 0.92742 6.18991 0
M  V30 11753 H 1130.76 1.18703 2.72574 0
M  V30 11754 H 1128.29 0.72354 1.36397 0
M  V30 11755 H 1130.25 -0.964914 3.98998 0
M  V30 11756 H 1128.91 -1.28444 2.86637 0
M  V30 11757 H 1128.1 -0.293558 5.03144 0
M  V30 11758 H 1127.71 0.767643 3.66037 0
M  V30 11759 H 1130 0.160698 6.77309 0
M  V30 11760 H 1130.94 1.68126 6.87851 0
M  V30 11761 H 1131.35 0.472056 5.62523 0
M  V30 11762 N 1130.75 -1.41857 0.686609 0
M  V30 11763 C 1131.68 -2.33481 0.0298353 0
M  V30 11764 C 1132.66 -1.51329 -0.776756 0
M  V30 11765 O 1133.84 -1.79895 -0.731535 0
M  V30 11766 C 1130.97 -3.35065 -0.913707 0
M  V30 11767 C 1129.93 -4.2746 -0.214861 0
M  V30 11768 C 1129.25 -5.19346 -1.27215 0
M  V30 11769 C 1130.55 -5.14252 0.913367 0
M  V30 11770 H 1132.25 -2.8865 0.795067 0
M  V30 11771 H 1129.79 -1.38792 0.383785 0
M  V30 11772 H 1131.75 -3.98082 -1.38234 0
M  V30 11773 H 1130.47 -2.78226 -1.7105 0
M  V30 11774 H 1129.13 -3.65855 0.233651 0
M  V30 11775 H 1128.78 -4.58827 -2.06124 0
M  V30 11776 H 1128.48 -5.81996 -0.80961 0
M  V30 11777 H 1130 -5.85239 -1.74147 0
M  V30 11778 H 1131.41 -5.70887 0.525424 0
M  V30 11779 H 1129.81 -5.85796 1.30244 0
M  V30 11780 H 1130.88 -4.51949 1.75699 0
M  V30 11781 N 1132.22 -0.430739 -1.51599 0
M  V30 11782 C 1133.19 0.372319 -2.26156 0
M  V30 11783 C 1134.19 0.955338 -1.29344 0
M  V30 11784 O 1135.38 0.830823 -1.53111 0
M  V30 11785 C 1132.51 1.52613 -3.04831 0
M  V30 11786 H 1133.7 -0.280996 -2.98581 0
M  V30 11787 H 1131.26 -0.183749 -1.55216 0
M  V30 11788 H 1131.99 2.21569 -2.36807 0
M  V30 11789 H 1131.78 1.11433 -3.75932 0
M  V30 11790 H 1133.27 2.09366 -3.61325 0
M  V30 11791 N 1133.7 1.56767 -0.161869 0
M  V30 11792 C 1135.11 1.83265 0.356466 0
M  V30 11793 C 1135.46 1.08127 1.63716 0
M  V30 11794 O 1134.59 0.33127 2.13849 0
M  V30 11795 C 1135.18 3.32437 0.653521 0
M  V30 11796 C 1133.74 3.59465 1.11633 0
M  V30 11797 C 1132.89 2.76909 0.147204 0
M  V30 11798 H 1135.84 1.53926 -0.386308 0
M  V30 11799 H 1135.86 3.49401 1.50662 0
M  V30 11800 H 1135.37 3.87098 -0.278766 0
M  V30 11801 H 1133.48 3.10206 2.06404 0
M  V30 11802 H 1133.59 4.67853 1.03202 0
M  V30 11803 H 1131.95 2.46457 0.642739 0
M  V30 11804 H 1132.74 3.34346 -0.778938 0
M  V30 11805 N 1135.18 -0.111886 1.57202 0
M  V30 11806 C 1136.43 -0.819623 1.85499 0
M  V30 11807 C 1136.76 -1.7919 0.748629 0
M  V30 11808 O 1136.03 -1.92952 -0.244918 0
M  V30 11809 C 1136.32 -1.56324 3.24399 0
M  V30 11810 C 1136.17 -0.610081 4.45643 0
M  V30 11811 C 1137.49 -2.51777 3.60966 0
M  V30 11812 H 1134.61 -0.296512 0.674722 0
M  V30 11813 H 1137.25 -0.0836741 1.89816 0
M  V30 11814 H 1135.4 -2.1906 3.2085 0
M  V30 11815 H 1137.07 0.00898038 4.61299 0
M  V30 11816 H 1135.32 0.0778488 4.3373 0
M  V30 11817 H 1135.99 -1.16718 5.39519 0
M  V30 11818 H 1138.46 -1.99143 3.65351 0
M  V30 11819 H 1137.34 -3.00835 4.59118 0
M  V30 11820 H 1137.6 -3.34769 2.8876 0
M  V30 11821 N 1136.66 -1.52894 -0.382264 0
M  V30 11822 C 1137.89 -1.72152 -1.14766 0
M  V30 11823 C 1138.3 -0.442911 -1.83531 0
M  V30 11824 O 1137.66 0.583085 -1.72935 0
M  V30 11825 C 1137.71 -2.87566 -2.19062 0
M  V30 11826 O 1137.43 -4.10478 -1.53099 0
M  V30 11827 C 1138.93 -3.18559 -3.08277 0
M  V30 11828 H 1136.15 -0.576212 -0.343832 0
M  V30 11829 H 1138.7 -1.99571 -0.446273 0
M  V30 11830 H 1136.85 -2.62589 -2.84826 0
M  V30 11831 H 1137.26 -4.74989 -2.22454 0
M  V30 11832 H 1138.74 -4.02763 -3.77473 0
M  V30 11833 H 1139.22 -2.33222 -3.72161 0
M  V30 11834 H 1139.82 -3.454 -2.48151 0
M  V30 11835 N 1138.14 0.641106 -1.43971 0
M  V30 11836 C 1139.1 1.73539 -1.49723 0
M  V30 11837 C 1140.1 1.56235 -0.380438 0
M  V30 11838 O 1141.29 1.61912 -0.642673 0
M  V30 11839 C 1138.42 3.1253 -1.36153 0
M  V30 11840 H 1139.62 1.69816 -2.47189 0
M  V30 11841 H 1137.17 0.853867 -1.30915 0
M  V30 11842 H 1137.9 3.21856 -0.39742 0
M  V30 11843 H 1137.69 3.26496 -2.17124 0
M  V30 11844 H 1139.18 3.92303 -1.43138 0
M  V30 11845 N 1139.62 1.30703 0.880598 0
M  V30 11846 C 1141.03 1.17818 1.4483 0
M  V30 11847 C 1141.38 -0.219456 1.94969 0
M  V30 11848 O 1140.5 -1.11646 1.85375 0
M  V30 11849 C 1141.1 2.13275 2.63247 0
M  V30 11850 C 1139.66 2.04356 3.16094 0
M  V30 11851 C 1138.8 2.03108 1.88792 0
M  V30 11852 H 1141.75 1.42909 0.690125 0
M  V30 11853 H 1141.78 1.71615 3.39601 0
M  V30 11854 H 1141.29 3.14988 2.26725 0
M  V30 11855 H 1139.39 1.058 3.57263 0
M  V30 11856 H 1139.5 2.92953 3.79098 0
M  V30 11857 H 1137.87 1.47971 2.07308 0
M  V30 11858 H 1138.65 3.06558 1.54521 0
M  V30 11859 N 1141.09 -1.09351 1.1349 0
M  V30 11860 C 1142.02 -2.18037 0.835588 0
M  V30 11861 C 1143 -1.68856 -0.205373 0
M  V30 11862 O 1144.19 -1.94094 -0.0641357 0
M  V30 11863 C 1141.32 -3.45987 0.301661 0
M  V30 11864 C 1140.27 -4.08507 1.27696 0
M  V30 11865 C 1139.6 -5.31292 0.602758 0
M  V30 11866 C 1140.9 -4.50916 2.63575 0
M  V30 11867 H 1142.59 -2.43332 1.74441 0
M  V30 11868 H 1140.14 -1.1695 0.840166 0
M  V30 11869 H 1142.09 -4.21324 0.079928 0
M  V30 11870 H 1140.82 -3.20217 -0.642552 0
M  V30 11871 H 1139.48 -3.3519 1.4847 0
M  V30 11872 H 1139.12 -5.01802 -0.346953 0
M  V30 11873 H 1138.82 -5.74075 1.25345 0
M  V30 11874 H 1140.35 -6.09351 0.390325 0
M  V30 11875 H 1141.76 -5.17474 2.46765 0
M  V30 11876 H 1140.16 -5.04586 3.24827 0
M  V30 11877 H 1141.23 -3.63279 3.2118 0
M  V30 11878 N 1142.57 -0.928524 -1.27343 0
M  V30 11879 C 1143.53 -0.43292 -2.25074 0
M  V30 11880 C 1144.53 0.448976 -1.54405 0
M  V30 11881 O 1145.72 0.249939 -1.72398 0
M  V30 11882 C 1142.86 0.377539 -3.38803 0
M  V30 11883 H 1144.05 -1.29642 -2.70431 0
M  V30 11884 H 1141.6 -0.709289 -1.3928 0
M  V30 11885 H 1142.34 1.25982 -2.98829 0
M  V30 11886 H 1142.12 -0.254782 -3.91271 0
M  V30 11887 H 1143.61 0.714634 -4.1144 0
M  V30 11888 N 1144.05 1.41491 -0.694123 0
M  V30 11889 C 1145.33 1.95004 -0.152571 0
M  V30 11890 C 1145.71 1.63357 1.33707 0
M  V30 11891 O 1145.05 0.939815 2.08278 0
M  V30 11892 C 1145.26 3.46186 -0.44232 0
M  V30 11893 C 1146.61 4.22991 -0.369279 0
M  V30 11894 O 1147.64 3.54198 -0.377152 0
M  V30 11895 O 1146.5 5.45514 -0.328145 0
M  V30 11896 H 1143.59 0.826879 -0.0141253 0
M  V30 11897 H 1146.14 1.51216 -0.770183 0
M  V30 11898 H 1144.91 3.62497 -1.47348 0
M  V30 11899 H 1144.53 3.97064 0.206337 0
M  V30 11900 N 1145.53 0.438773 1.51369 0
M  V30 11901 C 1146.49 -0.36032 2.2635 0
M  V30 11902 C 1147.49 -0.948465 1.29849 0
M  V30 11903 O 1148.68 -0.822692 1.53549 0
M  V30 11904 C 1145.81 -1.50994 3.05636 0
M  V30 11905 H 1147.01 0.296826 2.98427 0
M  V30 11906 H 1144.56 0.191978 1.55117 0
M  V30 11907 H 1145.29 -2.2031 2.37979 0
M  V30 11908 H 1145.08 -1.09437 3.76518 0
M  V30 11909 H 1146.57 -2.07447 3.6243 0
M  V30 11910 N 1147.01 -1.56678 0.170181 0
M  V30 11911 C 1147.94 -2.20916 -0.756213 0
M  V30 11912 C 1148.92 -1.16442 -1.23997 0
M  V30 11913 O 1150.1 -1.44867 -1.29333 0
M  V30 11914 C 1147.23 -2.84901 -1.98617 0
M  V30 11915 C 1146.19 -3.95403 -1.63831 0
M  V30 11916 C 1145.51 -4.46432 -2.94282 0
M  V30 11917 C 1146.81 -5.15051 -0.867195 0
M  V30 11918 H 1148.51 -2.98585 -0.220776 0
M  V30 11919 H 1146.05 -1.43619 -0.104748 0
M  V30 11920 H 1148 -3.28514 -2.63926 0
M  V30 11921 H 1146.73 -2.04598 -2.54572 0
M  V30 11922 H 1145.39 -3.52444 -1.00891 0
M  V30 11923 H 1145.04 -3.62923 -3.48276 0
M  V30 11924 H 1144.74 -5.20979 -2.71762 0
M  V30 11925 H 1146.26 -4.92731 -3.60622 0
M  V30 11926 H 1147.67 -5.55363 -1.42285 0
M  V30 11927 H 1146.07 -5.95507 -0.741065 0
M  V30 11928 H 1147.14 -4.84707 0.136693 0
M  V30 11929 N 1148.48 0.103547 -1.57259 0
M  V30 11930 C 1149.73 0.806979 -1.8529 0
M  V30 11931 C 1150.05 1.79679 -0.757653 0
M  V30 11932 O 1149.32 1.94695 0.216913 0
M  V30 11933 H 1147.9 0.301012 -0.683667 0
M  V30 11934 H 1150.56 0.0871886 -1.94705 0
M  V30 11935 H 1149.66 1.34275 -2.81738 0
M  V30 11936 N 1149.96 1.53094 0.37415 0
M  V30 11937 C 1150.92 1.78264 1.44065 0
M  V30 11938 C 1151.92 0.652892 1.46949 0
M  V30 11939 O 1153.11 0.921046 1.47859 0
M  V30 11940 C 1150.25 1.89693 2.83248 0
M  V30 11941 H 1151.44 2.73505 1.23025 0
M  V30 11942 H 1148.99 1.44041 0.60678 0
M  V30 11943 H 1149.73 0.964884 3.09613 0
M  V30 11944 H 1149.51 2.71855 2.82554 0
M  V30 11945 H 1151 2.10787 3.60498 0
M  V30 11946 N 1151.44 -0.633461 1.44309 0
M  V30 11947 C 1152.69 -1.39031 1.46679 0
M  V30 11948 C 1153.01 -1.94745 0.0997165 0
M  V30 11949 O 1152.28 -1.75637 -0.867659 0
M  V30 11950 H 1150.86 -0.516051 0.540093 0
M  V30 11951 H 1153.52 -0.745739 1.80069 0
M  V30 11952 H 1152.62 -2.2228 2.19085 0
M  V30 11953 N 1152.92 -1.31168 -0.873655 0
M  V30 11954 C 1153.85 -1.21094 -1.99646 0
M  V30 11955 C 1154.83 -0.0989684 -1.69812 0
M  V30 11956 O 1156.01 -0.282939 -1.92128 0
M  V30 11957 C 1153.14 -0.913684 -3.35066 0
M  V30 11958 C 1152.1 -1.98482 -3.79195 0
M  V30 11959 C 1151.42 -1.54033 -5.12033 0
M  V30 11960 C 1152.72 -3.39745 -3.96699 0
M  V30 11961 H 1154.42 -2.1503 -2.08333 0
M  V30 11962 H 1151.96 -1.03521 -1.00097 0
M  V30 11963 H 1153.92 -0.829821 -4.13149 0
M  V30 11964 H 1152.64 0.0613471 -3.26542 0
M  V30 11965 H 1151.3 -2.05851 -3.03349 0
M  V30 11966 H 1150.95 -0.553261 -4.99948 0
M  V30 11967 H 1150.65 -2.25688 -5.4253 0
M  V30 11968 H 1152.17 -1.47047 -5.92629 0
M  V30 11969 H 1153.59 -3.35071 -4.65188 0
M  V30 11970 H 1151.98 -4.09585 -4.38589 0
M  V30 11971 H 1153.05 -3.80802 -3.00196 0
M  V30 11972 N 1154.4 1.08748 -1.14068 0
M  V30 11973 C 1155.62 1.85353 -0.930532 0
M  V30 11974 C 1156.05 1.80892 0.515717 0
M  V30 11975 O 1155.4 1.19146 1.36652 0
M  V30 11976 C 1155.45 3.30962 -1.43167 0
M  V30 11977 O 1154.56 4.0769 -0.621468 0
M  V30 11978 H 1153.9 0.574485 -0.332962 0
M  V30 11979 H 1156.43 1.37282 -1.51707 0
M  V30 11980 H 1156.44 3.81807 -1.43832 0
M  V30 11981 H 1155.11 3.33524 -2.48464 0
M  V30 11982 H 1153.69 3.66587 -0.683267 0
M  V30 11983 N 1155.87 0.935264 1.26849 0
M  V30 11984 C 1156.78 0.446122 2.30319 0
M  V30 11985 C 1157.8 -0.476965 1.67335 0
M  V30 11986 O 1158.98 -0.357934 1.98194 0
M  V30 11987 C 1156.04 -0.286297 3.45516 0
M  V30 11988 C 1155.1 0.672626 4.23998 0
M  V30 11989 C 1154.34 -0.0249345 5.33694 0
M  V30 11990 O 1154.56 -1.24296 5.56693 0
M  V30 11991 O 1153.49 0.650752 5.98372 0
M  V30 11992 H 1157.32 1.30546 2.74211 0
M  V30 11993 H 1154.9 0.70091 1.31938 0
M  V30 11994 H 1156.79 -0.699109 4.1556 0
M  V30 11995 H 1155.46 -1.12112 3.03665 0
M  V30 11996 H 1154.37 1.13527 3.56458 0
M  V30 11997 H 1155.7 1.47489 4.69583 0
M  V30 11998 N 1157.35 -1.41121 0.701616 0
M  V30 11999 C 1158.32 -2.29148 0.0490091 0
M  V30 12000 C 1159.32 -1.44679 -0.701763 0
M  V30 12001 O 1160.51 -1.65757 -0.53575 0
M  V30 12002 C 1157.64 -3.2766 -0.940837 0
M  V30 12003 H 1158.83 -2.88354 0.824133 0
M  V30 12004 H 1156.38 -1.49209 0.465457 0
M  V30 12005 H 1157.12 -2.73445 -1.74351 0
M  V30 12006 H 1156.9 -3.89997 -0.405551 0
M  V30 12007 H 1158.39 -3.93609 -1.39507 0
M  V30 12008 N 1158.83 -0.446794 -1.51134 0
M  V30 12009 C 1160.08 0.116493 -2.02165 0
M  V30 12010 C 1160.41 1.41884 -1.33039 0
M  V30 12011 O 1159.66 1.90757 -0.437071 0
M  V30 12012 C 1159.96 0.373015 -3.55448 0
M  V30 12013 C 1159.63 -0.844659 -4.42918 0
M  V30 12014 C 1158.29 -1.17857 -4.66544 0
M  V30 12015 C 1160.64 -1.65653 -4.94174 0
M  V30 12016 C 1157.97 -2.32486 -5.38672 0
M  V30 12017 C 1160.32 -2.7939 -5.6756 0
M  V30 12018 C 1158.98 -3.13224 -5.89446 0
M  V30 12019 H 1158.25 0.0426279 -0.739773 0
M  V30 12020 H 1160.9 -0.595921 -1.81992 0
M  V30 12021 H 1159.21 1.16742 -3.74003 0
M  V30 12022 H 1160.9 0.822425 -3.92476 0
M  V30 12023 H 1157.49 -0.574478 -4.24733 0
M  V30 12024 H 1161.68 -1.41176 -4.75797 0
M  V30 12025 H 1156.93 -2.59003 -5.5383 0
M  V30 12026 H 1161.11 -3.42662 -6.06264 0
M  V30 12027 H 1158.73 -4.02158 -6.45115 0
M  V30 12028 N 1160.31 1.56586 -0.178487 0
M  V30 12029 C 1161.54 2.01475 0.470684 0
M  V30 12030 C 1161.95 1.0587 1.56323 0
M  V30 12031 O 1161.31 0.060749 1.82399 0
M  V30 12032 C 1161.36 3.46145 1.04238 0
M  V30 12033 O 1161.08 4.381 -0.0065582 0
M  V30 12034 C 1162.58 4.06471 1.76908 0
M  V30 12035 H 1159.8 0.660219 0.119801 0
M  V30 12036 H 1162.35 2.02542 -0.282322 0
M  V30 12037 H 1160.5 3.45831 1.74585 0
M  V30 12038 H 1160.91 5.22843 0.416554 0
M  V30 12039 H 1162.39 5.096 2.12161 0
M  V30 12040 H 1162.87 3.48974 2.66672 0
M  V30 12041 H 1163.47 4.10509 1.11186 0
M  V30 12042 N 1161.79 -0.095206 1.57312 0
M  V30 12043 C 1163.2 -0.649733 1.7503 0
M  V30 12044 C 1163.55 -1.7912 0.800652 0
M  V30 12045 O 1162.67 -2.1639 -0.0208831 0
M  V30 12046 C 1163.27 -1.18541 3.17386 0
M  V30 12047 C 1161.83 -1.686 3.36528 0
M  V30 12048 C 1160.97 -0.595531 2.7083 0
M  V30 12049 H 1163.93 0.130863 1.5816 0
M  V30 12050 H 1163.95 -2.05473 3.20252 0
M  V30 12051 H 1163.46 -0.35441 3.86478 0
M  V30 12052 H 1161.56 -2.541 2.72514 0
M  V30 12053 H 1161.67 -1.77907 4.44844 0
M  V30 12054 H 1160.04 -1.03495 2.32725 0
M  V30 12055 H 1160.82 0.224883 3.42563 0
M  V30 12056 N 1163.26 -1.53291 -0.366026 0
M  V30 12057 C 1164.21 -1.80367 -1.4687 0
M  V30 12058 C 1165.21 -0.672767 -1.55468 0
M  V30 12059 O 1166.41 -0.8557 -1.5836 0
M  V30 12060 H 1162.79 -0.571076 -0.48926 0
M  V30 12061 H 1164.76 -2.72661 -1.21237 0
M  V30 12062 C 1163.51 -2.01008 -2.8371 0
M  V30 12063 H 1162.83 -2.87468 -2.77853 0
M  V30 12064 H 1164.27 -2.2393 -3.60043 0
M  V30 12065 C 1162.73 -0.789054 -3.27529 0
M  V30 12066 O 1163.26 0.0224712 -4.01694 0
M  V30 12067 N 1161.47 -0.612621 -2.84069 0
M  V30 12068 H 1161.01 -1.27416 -2.23881 0
M  V30 12069 H 1160.97 0.202943 -3.13744 0
M  V30 12070 N 1164.74 0.6258 -1.44643 0
M  V30 12071 C 1165.99 1.38251 -1.47414 0
M  V30 12072 C 1166.31 1.94689 -0.110043 0
M  V30 12073 O 1165.58 1.76095 0.858333 0
M  V30 12074 H 1164.16 0.513179 -0.542823 0
M  V30 12075 H 1166.82 0.736179 -1.80462 0
M  V30 12076 H 1165.92 2.21115 -2.2026 0
M  V30 12077 N 1166.22 1.31629 0.866686 0
M  V30 12078 C 1167.47 1.20861 1.61479 0
M  V30 12079 C 1167.78 -0.231208 1.94229 0
M  V30 12080 O 1168.99 -0.460618 2.67564 0
M  V30 12081 C 1167.44 2.11602 2.91123 0
M  V30 12082 C 1167.05 3.60598 2.65844 0
M  V30 12083 C 1168.8 2.09642 3.69121 0
M  V30 12084 C 1166.7 4.43337 3.91415 0
M  V30 12085 H 1165.63 0.448783 0.605896 0
M  V30 12086 H 1168.28 1.56507 0.958001 0
M  V30 12087 H 1166.67 1.68858 3.58194 0
M  V30 12088 H 1167.84 4.11609 2.07159 0
M  V30 12089 H 1166.16 3.64568 2.01194 0
M  V30 12090 H 1168.75 2.68701 4.62281 0
M  V30 12091 H 1169.1 1.08438 4.01929 0
M  V30 12092 H 1169.63 2.50603 3.08938 0
M  V30 12093 H 1166.37 5.45309 3.63756 0
M  V30 12094 H 1165.89 3.97083 4.49539 0
M  V30 12095 H 1167.57 4.5572 4.5927 0
M  V30 12096 N 1167.7 -1.08142 1.14644 0
M  V30 12097 C 1169.11 -1.62061 0.926986 0
M  V30 12098 C 1169.46 -1.88805 -0.533578 0
M  V30 12099 O 1168.59 -1.64753 -1.40305 0
M  V30 12100 C 1169.18 -2.94425 1.67629 0
M  V30 12101 C 1167.74 -3.45118 1.50235 0
M  V30 12102 C 1166.89 -2.19307 1.69705 0
M  V30 12103 H 1169.84 -0.913326 1.29785 0
M  V30 12104 H 1169.86 -3.62987 1.14107 0
M  V30 12105 H 1169.37 -2.74928 2.73927 0
M  V30 12106 H 1167.47 -3.69713 0.462967 0
M  V30 12107 H 1167.59 -4.2169 2.27408 0
M  V30 12108 H 1165.95 -2.28611 1.12291 0
M  V30 12109 H 1166.73 -2.02315 2.77351 0
M  V30 12110 N 1169.18 -0.941978 -1.26351 0
M  V30 12111 C 1170.14 -0.456768 -2.24602 0
M  V30 12112 C 1171.14 0.432574 -1.54872 0
M  V30 12113 O 1172.33 0.23164 -1.72653 0
M  V30 12114 C 1169.46 0.341583 -3.39184 0
M  V30 12115 H 1170.66 -1.32503 -2.69041 0
M  V30 12116 H 1168.21 -0.724021 -1.38519 0
M  V30 12117 H 1168.94 1.22806 -3.00149 0
M  V30 12118 H 1168.73 -0.296268 -3.90979 0
M  V30 12119 H 1170.22 0.670955 -4.12175 0
M  V30 12120 N 1170.66 1.40747 -0.709091 0
M  V30 12121 C 1171.93 1.94831 -0.173246 0
M  V30 12122 C 1172.31 1.64766 1.31967 0
M  V30 12123 O 1171.66 0.961853 2.07269 0
M  V30 12124 C 1171.87 3.45697 -0.479013 0
M  V30 12125 C 1173.22 4.22576 -0.414122 0
M  V30 12126 O 1174.24 3.53778 -0.414699 0
M  V30 12127 O 1173.1 5.45135 -0.385986 0
M  V30 12128 H 1170.2 0.826683 -0.0228947 0
M  V30 12129 H 1172.74 1.50391 -0.786178 0
M  V30 12130 H 1171.51 3.60914 -1.51185 0
M  V30 12131 H 1171.14 3.97261 0.164211 0
M  V30 12132 N 1172.13 0.454803 1.50895 0
M  V30 12133 C 1173.38 -0.105927 2.02523 0
M  V30 12134 C 1173.71 -1.40825 1.33724 0
M  V30 12135 O 1172.99 -1.89038 0.457683 0
M  V30 12136 C 1173.27 -0.306635 3.58792 0
M  V30 12137 C 1173.12 1.01556 4.38185 0
M  V30 12138 C 1174.44 -1.06858 4.2693 0
M  V30 12139 H 1171.56 -0.0370232 0.736069 0
M  V30 12140 H 1174.2 0.597215 1.8037 0
M  V30 12141 H 1172.35 -0.905563 3.77799 0
M  V30 12142 H 1174.03 1.64981 4.30789 0
M  V30 12143 H 1172.27 1.61608 4.02574 0
M  V30 12144 H 1172.94 0.828959 5.4574 0
M  V30 12145 H 1175.42 -0.561086 4.123 0
M  V30 12146 H 1174.29 -1.1778 5.36115 0
M  V30 12147 H 1174.55 -2.10111 3.8898 0
M  V30 12148 N 1173.61 -1.56489 0.186789 0
M  V30 12149 C 1174.84 -2.01722 -0.459993 0
M  V30 12150 C 1175.25 -1.06697 -1.5576 0
M  V30 12151 O 1174.61 -0.0704212 -1.82364 0
M  V30 12152 C 1174.66 -3.46693 -1.02401 0
M  V30 12153 O 1174.38 -4.3809 0.0297916 0
M  V30 12154 C 1175.88 -4.07403 -1.7475 0
M  V30 12155 H 1173.1 -0.660845 -0.116298 0
M  V30 12156 H 1175.65 -2.02389 0.293059 0
M  V30 12157 H 1173.8 -3.46752 -1.72749 0
M  V30 12158 H 1174.22 -5.23057 -0.388821 0
M  V30 12159 H 1175.69 -5.10718 -2.09455 0
M  V30 12160 H 1176.17 -3.50383 -2.64818 0
M  V30 12161 H 1176.77 -4.11093 -1.09007 0
M  V30 12162 N 1175.09 0.086862 -1.5736 0
M  V30 12163 C 1176.05 1.08906 -2.01673 0
M  V30 12164 C 1177.05 1.32473 -0.911463 0
M  V30 12165 O 1178.24 1.28447 -1.17673 0
M  V30 12166 C 1175.37 2.43629 -2.38449 0
M  V30 12167 H 1176.57 0.707461 -2.91436 0
M  V30 12168 H 1174.12 0.332154 -1.5273 0
M  V30 12169 H 1174.86 2.8665 -1.51665 0
M  V30 12170 H 1174.64 2.2787 -3.19089 0
M  V30 12171 H 1176.13 3.15695 -2.73361 0
M  V30 12172 N 1176.57 1.53483 0.357892 0
M  V30 12173 C 1177.84 1.60649 1.11585 0
M  V30 12174 C 1178.22 0.418789 2.06904 0
M  V30 12175 O 1177.57 -0.590279 2.20744 0
M  V30 12176 C 1177.78 2.96046 1.84818 0
M  V30 12177 C 1179.13 3.50895 2.39076 0
M  V30 12178 O 1180.15 2.98126 1.94934 0
M  V30 12179 O 1179.01 4.43163 3.19794 0
M  V30 12180 H 1176.11 0.649202 0.512315 0
M  V30 12181 H 1178.65 1.65826 0.360537 0
M  V30 12182 H 1177.43 3.73929 1.15296 0
M  V30 12183 H 1177.05 2.94395 2.6724 0
M  V30 12184 N 1178.05 -0.61812 1.44973 0
M  V30 12185 C 1179.46 -1.19994 1.43033 0
M  V30 12186 C 1179.81 -1.95607 0.152422 0
M  V30 12187 O 1178.93 -2.03114 -0.746571 0
M  V30 12188 C 1179.53 -2.18269 2.59122 0
M  V30 12189 C 1178.09 -2.7185 2.60336 0
M  V30 12190 C 1177.23 -1.4707 2.35086 0
M  V30 12191 H 1180.18 -0.408034 1.53365 0
M  V30 12192 H 1180.21 -3.01113 2.32619 0
M  V30 12193 H 1179.72 -1.63208 3.52115 0
M  V30 12194 H 1177.82 -3.30878 1.7132 0
M  V30 12195 H 1177.93 -3.17001 3.59231 0
M  V30 12196 H 1176.3 -1.75658 1.84435 0
M  V30 12197 H 1177.08 -0.938928 3.30211 0
M  V30 12198 N 1179.52 -1.32087 -0.859693 0
M  V30 12199 C 1180.77 -1.22542 -1.6159 0
M  V30 12200 C 1181.1 0.213533 -1.93022 0
M  V30 12201 O 1180.38 1.14931 -1.56911 0
M  V30 12202 C 1180.66 -2.08004 -2.93949 0
M  V30 12203 C 1180.51 -3.60252 -2.6933 0
M  V30 12204 C 1181.83 -1.93732 -3.95166 0
M  V30 12205 H 1178.95 -0.446504 -0.586347 0
M  V30 12206 H 1181.59 -1.61982 -0.993064 0
M  V30 12207 H 1179.74 -1.74498 -3.47106 0
M  V30 12208 H 1181.42 -4.03947 -2.22766 0
M  V30 12209 H 1179.66 -3.83169 -2.03382 0
M  V30 12210 H 1180.33 -4.1537 -3.63555 0
M  V30 12211 H 1182.81 -2.23075 -3.5125 0
M  V30 12212 H 1181.68 -2.55815 -4.85644 0
M  V30 12213 H 1181.94 -0.903528 -4.32769 0
M  V30 12214 N 1181 1.07532 -1.15215 0
M  V30 12215 C 1181.93 2.1406 -0.7908 0
M  V30 12216 C 1182.91 1.60938 0.231922 0
M  V30 12217 O 1184.1 1.88125 0.118906 0
M  V30 12218 C 1181.22 3.38244 -0.175633 0
M  V30 12219 C 1180.27 4.10139 -1.16996 0
M  V30 12220 S 1181.1 4.61795 -2.71119 0
M  V30 12221 C 1182.26 5.89256 -2.11016 0
M  V30 12222 H 1182.49 2.44381 -1.69308 0
M  V30 12223 H 1180.02 1.19777 -0.974308 0
M  V30 12224 H 1181.98 4.10136 0.172859 0
M  V30 12225 H 1180.64 3.06104 0.704211 0
M  V30 12226 H 1179.84 4.99286 -0.687714 0
M  V30 12227 H 1179.44 3.44203 -1.46289 0
M  V30 12228 H 1181.73 6.61336 -1.47109 0
M  V30 12229 H 1182.67 6.42191 -2.98322 0
M  V30 12230 H 1183.08 5.4269 -1.55394 0
M  V30 12231 N 1182.48 0.948665 1.2585 0
M  V30 12232 C 1183.39 0.470525 2.29833 0
M  V30 12233 C 1184.41 -0.45919 1.67832 0
M  V30 12234 O 1185.58 -0.336893 1.98562 0
M  V30 12235 C 1182.65 -0.249635 3.458 0
M  V30 12236 C 1181.71 0.717559 4.23261 0
M  V30 12237 C 1180.94 0.0316724 5.33691 0
M  V30 12238 O 1181.16 -1.18384 5.5798 0
M  V30 12239 O 1180.1 0.71418 5.97648 0
M  V30 12240 H 1183.92 1.33447 2.72811 0
M  V30 12241 H 1181.51 0.714864 1.31187 0
M  V30 12242 H 1183.39 -0.654993 4.16279 0
M  V30 12243 H 1182.07 -1.08885 3.04837 0
M  V30 12244 H 1180.97 1.17301 3.55234 0
M  V30 12245 H 1182.31 1.52461 4.67992 0
M  V30 12246 N 1183.96 -1.40369 0.716545 0
M  V30 12247 C 1185.37 -1.54757 0.390202 0
M  V30 12248 C 1185.57 -1.68767 -1.10091 0
M  V30 12249 O 1184.63 -1.67779 -1.88697 0
M  V30 12250 C 1185.94 -2.77546 1.15709 0
M  V30 12251 C 1187.49 -2.91364 1.14349 0
M  V30 12252 C 1187.97 -4.17068 1.89256 0
M  V30 12253 N 1189.46 -4.2407 1.8633 0
M  V30 12254 C 1190.19 -5.20243 2.41112 0
M  V30 12255 N 1189.69 -6.22318 3.04454 0
M  V30 12256 N 1191.48 -5.12328 2.31249 0
M  V30 12257 H 1183.63 -1.29521 1.68339 0
M  V30 12258 H 1185.9 -0.626382 0.711582 0
M  V30 12259 H 1185.6 -2.73474 2.21144 0
M  V30 12260 H 1185.48 -3.69682 0.749347 0
M  V30 12261 H 1187.86 -2.94939 0.0973383 0
M  V30 12262 H 1187.94 -2.00344 1.59047 0
M  V30 12263 H 1187.59 -4.14255 2.93863 0
M  V30 12264 H 1187.52 -5.07099 1.41978 0
M  V30 12265 H 1190.01 -3.50944 1.40168 0
M  V30 12266 H 1190.32 -6.92129 3.43769 0
M  V30 12267 H 1188.67 -6.22759 3.08538 0
M  V30 12268 H 1191.86 -4.31514 1.8142 0
M  V30 12269 H 1192.03 -5.87107 2.74243 0
M  V30 12270 N 1185.44 -0.462799 -1.50652 0
M  V30 12271 C 1186.85 -0.00568907 -1.86699 0
M  V30 12272 C 1187.2 1.39641 -1.37822 0
M  V30 12273 O 1186.32 2.03366 -0.739679 0
M  V30 12274 C 1186.92 -0.00354783 -3.388 0
M  V30 12275 C 1185.48 0.398061 -3.74289 0
M  V30 12276 C 1184.62 -0.392574 -2.74507 0
M  V30 12277 H 1187.58 -0.677469 -1.43513 0
M  V30 12278 H 1187.6 0.800456 -3.71985 0
M  V30 12279 H 1187.11 -1.02414 -3.74344 0
M  V30 12280 H 1185.21 1.42331 -3.44344 0
M  V30 12281 H 1185.32 0.105168 -4.78985 0
M  V30 12282 H 1183.69 0.152608 -2.54242 0
M  V30 12283 H 1184.47 -1.41252 -3.12894 0
M  V30 12284 N 1186.91 1.56388 -0.195085 0
M  V30 12285 C 1188.16 1.97189 0.44281 0
M  V30 12286 C 1188.48 1.08312 1.62153 0
M  V30 12287 O 1187.75 0.154404 1.95291 0
M  V30 12288 H 1186.33 0.728188 0.166585 0
M  V30 12289 H 1189 1.92852 -0.281815 0
M  V30 12290 H 1188.09 3.02016 0.786945 0
M  V30 12291 N 1188.39 -0.0785156 1.57404 0
M  V30 12292 C 1189.67 -0.811557 1.77969 0
M  V30 12293 C 1190.05 -1.96123 0.780966 0
M  V30 12294 O 1189.4 -2.27731 -0.18726 0
M  V30 12295 C 1189.61 -1.29075 3.24254 0
M  V30 12296 C 1190.96 -1.72685 3.87898 0
M  V30 12297 O 1191.98 -1.38658 3.28104 0
M  V30 12298 O 1190.84 -2.3566 4.93079 0
M  V30 12299 H 1187.93 -0.388361 0.73014 0
M  V30 12300 H 1190.48 -0.0591118 1.69597 0
M  V30 12301 H 1189.25 -0.467813 3.88494 0
M  V30 12302 H 1188.87 -2.10472 3.37324 0
M  V30 12303 N 1189.87 -1.5367 -0.349747 0
M  V30 12304 C 1191.29 -1.43796 -0.692457 0
M  V30 12305 C 1191.49 -0.58972 -1.92677 0
M  V30 12306 O 1190.54 -0.078294 -2.52379 0
M  V30 12307 C 1191.86 -2.872 -0.890881 0
M  V30 12308 C 1193.4 -2.96935 -0.989892 0
M  V30 12309 C 1193.88 -4.41433 -1.22068 0
M  V30 12310 N 1195.37 -4.44932 -1.28802 0
M  V30 12311 C 1196.1 -5.53864 -1.48398 0
M  V30 12312 N 1195.6 -6.72814 -1.65208 0
M  V30 12313 N 1197.39 -5.41467 -1.50896 0
M  V30 12314 H 1189.54 -2.07317 0.461895 0
M  V30 12315 H 1191.81 -0.936895 0.144681 0
M  V30 12316 H 1191.51 -3.51656 -0.0555095 0
M  V30 12317 H 1191.39 -3.31784 -1.79442 0
M  V30 12318 H 1193.77 -2.32622 -1.81579 0
M  V30 12319 H 1193.86 -2.55721 -0.0633906 0
M  V30 12320 H 1193.5 -5.06325 -0.399729 0
M  V30 12321 H 1193.43 -4.80233 -2.16064 0
M  V30 12322 H 1195.92 -3.59214 -1.17361 0
M  V30 12323 H 1196.23 -7.51598 -1.79779 0
M  V30 12324 H 1194.58 -6.7577 -1.62356 0
M  V30 12325 H 1197.77 -4.47498 -1.37342 0
M  V30 12326 H 1197.94 -6.26423 -1.65826 0
M  V30 12327 N 1191.35 0.610423 -1.45298 0
M  V30 12328 C 1192.57 1.40112 -1.52917 0
M  V30 12329 C 1193 1.87404 -0.161696 0
M  V30 12330 O 1192.36 1.59973 0.853135 0
M  V30 12331 C 1192.4 2.58359 -2.51561 0
M  V30 12332 O 1191.51 3.58895 -2.03146 0
M  V30 12333 H 1190.85 0.41841 -0.515586 0
M  V30 12334 H 1193.38 0.743159 -1.90626 0
M  V30 12335 H 1193.39 3.0564 -2.70275 0
M  V30 12336 H 1192.06 2.23286 -3.50879 0
M  V30 12337 H 1190.64 3.18282 -1.94296 0
M  V30 12338 N 1192.83 1.32541 0.852676 0
M  V30 12339 C 1194.07 1.23214 1.607 0
M  V30 12340 C 1194.4 -0.205542 1.93411 0
M  V30 12341 O 1193.66 -1.15907 1.57683 0
M  V30 12342 C 1193.96 2.039 2.9353 0
M  V30 12343 C 1193.62 3.53237 2.8024 0
M  V30 12344 C 1192.28 3.93953 2.76323 0
M  V30 12345 C 1194.64 4.48194 2.6603 0
M  V30 12346 C 1191.96 5.27865 2.56077 0
M  V30 12347 C 1194.32 5.82251 2.47319 0
M  V30 12348 C 1192.98 6.22166 2.41796 0
M  V30 12349 H 1192.25 0.450873 0.588043 0
M  V30 12350 H 1194.9 1.63988 0.988954 0
M  V30 12351 H 1193.2 1.55861 3.59464 0
M  V30 12352 H 1194.9 1.94051 3.50921 0
M  V30 12353 H 1191.49 3.209 2.84114 0
M  V30 12354 H 1195.67 4.17656 2.681 0
M  V30 12355 H 1190.93 5.57845 2.50237 0
M  V30 12356 H 1195.1 6.55442 2.35305 0
M  V30 12357 H 1192.73 7.2587 2.25868 0
M  V30 12358 N 1194.3 -1.0692 1.15784 0
M  V30 12359 C 1195.23 -2.16216 0.881649 0
M  V30 12360 C 1196.22 -1.69253 -0.16951 0
M  V30 12361 O 1197.4 -1.94186 -0.0229511 0
M  V30 12362 C 1194.53 -3.4527 0.374982 0
M  V30 12363 C 1193.48 -4.05706 1.36332 0
M  V30 12364 C 1192.81 -5.29894 0.715317 0
M  V30 12365 C 1194.11 -4.45224 2.7308 0
M  V30 12366 H 1195.8 -2.39577 1.79563 0
M  V30 12367 H 1193.35 -1.15141 0.864784 0
M  V30 12368 H 1195.3 -4.2106 0.169279 0
M  V30 12369 H 1194.03 -3.21508 -0.574485 0
M  V30 12370 H 1192.69 -3.31965 1.55546 0
M  V30 12371 H 1192.33 -5.02425 -0.240436 0
M  V30 12372 H 1192.03 -5.71287 1.37494 0
M  V30 12373 H 1193.56 -6.08386 0.519489 0
M  V30 12374 H 1194.97 -5.12124 2.57686 0
M  V30 12375 H 1193.37 -4.97583 3.35457 0
M  V30 12376 H 1194.44 -3.56384 3.28813 0
M  V30 12377 N 1195.78 -0.955326 -1.25345 0
M  V30 12378 C 1196.73 -0.467205 -2.2786 0
M  V30 12379 C 1197.72 0.462873 -1.62954 0
M  V30 12380 O 1198.93 0.339526 -1.76769 0
M  V30 12381 H 1195.31 -0.132586 -0.74022 0
M  V30 12382 H 1197.28 -1.34406 -2.66416 0
M  V30 12383 C 1196.03 0.238898 -3.46878 0
M  V30 12384 H 1195.35 -0.467644 -3.97056 0
M  V30 12385 H 1196.79 0.544444 -4.2049 0
M  V30 12386 C 1195.25 1.46164 -3.03542 0
M  V30 12387 O 1195.78 2.55933 -3.09615 0
M  V30 12388 N 1193.98 1.32324 -2.58725 0
M  V30 12389 H 1193.53 0.430131 -2.53984 0
M  V30 12390 H 1193.49 2.14253 -2.30094 0
M  V30 12391 N 1197.26 1.39987 -0.723979 0
M  V30 12392 C 1198.54 1.94637 -0.1939 0
M  V30 12393 C 1198.92 1.66156 1.30212 0
M  V30 12394 O 1198.27 0.983783 2.06238 0
M  V30 12395 C 1198.48 3.4517 -0.515652 0
M  V30 12396 C 1199.82 4.22113 -0.458919 0
M  V30 12397 O 1200.85 3.53318 -0.452198 0
M  V30 12398 O 1199.71 5.44695 -0.443783 0
M  V30 12399 H 1196.8 0.826394 -0.0316615 0
M  V30 12400 H 1199.35 1.49548 -0.802085 0
M  V30 12401 H 1198.12 3.5929 -1.55004 0
M  V30 12402 H 1197.74 3.97413 0.122067 0
M  V30 12403 N 1198.74 0.470782 1.50404 0
M  V30 12404 C 1200.02 -0.145879 1.95055 0
M  V30 12405 C 1200.4 -1.57004 1.41114 0
M  V30 12406 O 1199.74 -2.20152 0.612006 0
M  V30 12407 C 1199.95 -0.0895071 3.48885 0
M  V30 12408 C 1201.3 -0.278548 4.23685 0
M  V30 12409 O 1202.33 -0.166105 3.55812 0
M  V30 12410 O 1201.19 -0.505606 5.44156 0
M  V30 12411 H 1198.28 -0.111838 0.819403 0
M  V30 12412 H 1200.83 0.531162 1.61173 0
M  V30 12413 H 1199.6 0.904836 3.80695 0
M  V30 12414 H 1199.22 -0.808019 3.89303 0
M  V30 12415 N 1200.22 -1.56282 0.203376 0
M  V30 12416 C 1201.47 -1.97421 -0.432346 0
M  V30 12417 C 1201.79 -1.0917 -1.61576 0
M  V30 12418 O 1201.06 -0.164759 -1.95206 0
M  V30 12419 H 1199.64 -0.729062 -0.162721 0
M  V30 12420 H 1202.3 -1.927 0.292039 0
M  V30 12421 H 1201.39 -3.02429 -0.770918 0
M  V30 12422 N 1201.7 0.070167 -1.57444 0
M  V30 12423 C 1202.63 1.08351 -2.06839 0
M  V30 12424 C 1203.61 1.40269 -0.962224 0
M  V30 12425 O 1204.79 1.49867 -1.23505 0
M  V30 12426 C 1201.92 2.39649 -2.51368 0
M  V30 12427 C 1200.88 2.22079 -3.65875 0
M  V30 12428 C 1200.2 3.58776 -3.96464 0
M  V30 12429 C 1201.5 1.64069 -4.95862 0
M  V30 12430 H 1203.2 0.672465 -2.9175 0
M  V30 12431 H 1200.74 0.322027 -1.40353 0
M  V30 12432 H 1202.69 3.10833 -2.84537 0
M  V30 12433 H 1201.42 2.82736 -1.63487 0
M  V30 12434 H 1200.08 1.53337 -3.32992 0
M  V30 12435 H 1199.73 3.99436 -3.05712 0
M  V30 12436 H 1199.43 3.47859 -4.7357 0
M  V30 12437 H 1200.95 4.31387 -4.32131 0
M  V30 12438 H 1202.36 2.2512 -5.27251 0
M  V30 12439 H 1200.76 1.63843 -5.773 0
M  V30 12440 H 1201.83 0.60232 -4.81145 0
M  V30 12441 N 1203.17 1.53854 0.341593 0
M  V30 12442 C 1204.42 1.7041 1.07905 0
M  V30 12443 C 1204.74 0.475039 1.89744 0
M  V30 12444 O 1205.94 0.521589 2.66443 0
M  V30 12445 C 1204.4 3.01342 1.96776 0
M  V30 12446 C 1204.01 4.31592 1.20135 0
M  V30 12447 C 1205.75 3.27264 2.70367 0
M  V30 12448 C 1203.66 5.53598 2.08047 0
M  V30 12449 H 1202.59 0.635005 0.406553 0
M  V30 12450 H 1205.24 1.80353 0.338409 0
M  V30 12451 H 1203.62 2.85261 2.74667 0
M  V30 12452 H 1204.79 4.58382 0.471404 0
M  V30 12453 H 1203.11 4.12298 0.583039 0
M  V30 12454 H 1205.71 4.15607 3.36415 0
M  V30 12455 H 1206.05 2.44357 3.37039 0
M  V30 12456 H 1206.58 3.4413 1.99548 0
M  V30 12457 H 1203.32 6.39053 1.45914 0
M  V30 12458 H 1202.84 5.31052 2.78825 0
M  V30 12459 H 1204.52 5.89314 2.67055 0
M  V30 12460 N 1204.65 -0.602709 1.4562 0
M  V30 12461 C 1205.88 -1.3881 1.53426 0
M  V30 12462 C 1206.29 -1.88046 0.16851 0
M  V30 12463 O 1205.65 -1.62493 -0.830791 0
M  V30 12464 C 1205.7 -2.58927 2.52268 0
M  V30 12465 O 1205.42 -2.11735 3.83536 0
M  V30 12466 C 1206.92 -3.51728 2.69819 0
M  V30 12467 H 1204.14 -0.424744 0.519455 0
M  V30 12468 H 1206.69 -0.73459 1.90851 0
M  V30 12469 H 1204.84 -3.20309 2.17902 0
M  V30 12470 H 1205.26 -2.89814 4.37159 0
M  V30 12471 H 1206.73 -4.32542 3.42945 0
M  V30 12472 H 1207.21 -4.02383 1.76024 0
M  V30 12473 H 1207.81 -2.96196 3.05202 0
M  V30 12474 N 1206.13 -1.32992 -0.845635 0
M  V30 12475 C 1207.38 -1.2382 -1.59728 0
M  V30 12476 C 1207.7 0.197724 -1.93995 0
M  V30 12477 O 1206.97 1.12477 -1.60392 0
M  V30 12478 H 1205.55 -0.455296 -0.592212 0
M  V30 12479 H 1208.21 -1.66627 -1.01101 0
M  V30 12480 H 1207.31 -1.82717 -2.53023 0
M  V30 12481 N 1207.61 1.06304 -1.1635 0
M  V30 12482 C 1208.83 1.83338 -0.969639 0
M  V30 12483 C 1209.26 1.81945 0.477231 0
M  V30 12484 O 1208.62 1.22018 1.34094 0
M  V30 12485 C 1208.66 3.2785 -1.50155 0
M  V30 12486 O 1207.77 4.06281 -0.707805 0
M  V30 12487 H 1207.11 0.567293 -0.345072 0
M  V30 12488 H 1209.64 1.34033 -1.54584 0
M  V30 12489 H 1209.65 3.7867 -1.51898 0
M  V30 12490 H 1208.32 3.28179 -2.55483 0
M  V30 12491 H 1206.9 3.65055 -0.760872 0
M  V30 12492 N 1209.09 0.96196 1.24836 0
M  V30 12493 C 1210 0.494876 2.29321 0
M  V30 12494 C 1211.01 -0.441363 1.68309 0
M  V30 12495 O 1212.19 -0.315814 1.98908 0
M  V30 12496 C 1209.25 -0.212944 3.46045 0
M  V30 12497 C 1208.31 0.762411 4.22476 0
M  V30 12498 C 1207.55 0.0882756 5.33627 0
M  V30 12499 O 1207.77 -1.12459 5.59204 0
M  V30 12500 O 1206.7 0.777529 5.96857 0
M  V30 12501 H 1210.53 1.36333 2.7138 0
M  V30 12502 H 1208.11 0.728738 1.30421 0
M  V30 12503 H 1210 -0.610805 4.1695 0
M  V30 12504 H 1208.67 -1.05645 3.05975 0
M  V30 12505 H 1207.58 1.21062 3.5397 0
M  V30 12506 H 1208.91 1.57416 4.66349 0
M  V30 12507 N 1210.56 -1.39601 0.731392 0
M  V30 12508 C 1211.97 -1.83424 0.348194 0
M  V30 12509 C 1212.33 -1.61106 -1.11979 0
M  V30 12510 O 1211.45 -1.1003 -1.86339 0
M  V30 12511 C 1212.05 -3.32982 0.6252 0
M  V30 12512 C 1210.6 -3.75238 0.295536 0
M  V30 12513 C 1209.75 -2.62642 0.88964 0
M  V30 12514 H 1212.7 -1.28644 0.929318 0
M  V30 12515 H 1212.72 -3.80357 -0.104254 0
M  V30 12516 H 1212.24 -3.49193 1.69368 0
M  V30 12517 H 1210.34 -3.64615 -0.767254 0
M  V30 12518 H 1210.45 -4.72781 0.775576 0
M  V30 12519 H 1208.81 -2.52726 0.316529 0
M  V30 12520 H 1209.6 -2.81661 1.96271 0
M  V30 12521 N 1212.04 -0.478751 -1.50152 0
M  V30 12522 C 1213.29 0.0734397 -2.01967 0
M  V30 12523 C 1213.61 1.39523 -1.36229 0
M  V30 12524 O 1212.88 1.89141 -0.510149 0
M  V30 12525 H 1211.46 0.0301305 -0.746392 0
M  V30 12526 H 1214.12 -0.630921 -1.84406 0
M  V30 12527 H 1213.22 0.21937 -3.11328 0
M  V30 12528 N 1213.52 1.56172 -0.211661 0
M  V30 12529 C 1214.75 2.02428 0.427843 0
M  V30 12530 C 1215.16 1.09162 1.54043 0
M  V30 12531 O 1214.52 0.0994249 1.82229 0
M  V30 12532 C 1214.57 3.48279 0.968728 0
M  V30 12533 O 1214.29 4.37987 -0.0994841 0
M  V30 12534 C 1215.79 4.10132 1.68246 0
M  V30 12535 H 1213.01 0.662611 0.10577 0
M  V30 12536 H 1215.56 2.01897 -0.32522 0
M  V30 12537 H 1213.71 3.49456 1.6721 0
M  V30 12538 H 1214.13 5.23609 0.305558 0
M  V30 12539 H 1215.6 5.13985 2.01304 0
M  V30 12540 H 1216.08 3.54552 2.5921 0
M  V30 12541 H 1216.68 4.12775 1.02453 0
M  V30 12542 N 1215 -0.0618163 1.57479 0
M  V30 12543 C 1215.91 -1.09006 2.07738 0
M  V30 12544 C 1216.92 -1.4176 1.00896 0
M  V30 12545 O 1218.1 -1.51737 1.32431 0
M  V30 12546 C 1215.17 -2.38153 2.5196 0
M  V30 12547 C 1214.23 -2.12279 3.73143 0
M  V30 12548 C 1213.46 -3.35269 4.15248 0
M  V30 12549 O 1213.68 -4.44758 3.57137 0
M  V30 12550 O 1212.62 -3.22894 5.0796 0
M  V30 12551 H 1216.44 -0.693059 2.95686 0
M  V30 12552 H 1214.03 -0.276628 1.46817 0
M  V30 12553 H 1215.91 -3.14139 2.80882 0
M  V30 12554 H 1214.58 -2.77213 1.67137 0
M  V30 12555 H 1213.49 -1.33966 3.49291 0
M  V30 12556 H 1214.82 -1.78094 4.5885 0
M  V30 12557 N 1216.48 -1.54033 -0.333429 0
M  V30 12558 C 1217.72 -1.71426 -1.0704 0
M  V30 12559 C 1218.05 -0.485496 -1.8886 0
M  V30 12560 O 1217.32 0.500555 -1.89397 0
M  V30 12561 H 1215.9 -0.632034 -0.398173 0
M  V30 12562 H 1218.56 -1.91312 -0.372252 0
M  V30 12563 H 1217.65 -2.58958 -1.74205 0
M  V30 12564 N 1217.95 0.594978 -1.45938 0
M  V30 12565 C 1219.2 1.35093 -1.50314 0
M  V30 12566 C 1219.52 1.94412 -0.151315 0
M  V30 12567 O 1218.79 1.77876 0.820787 0
M  V30 12568 H 1217.37 0.501549 -0.553586 0
M  V30 12569 H 1220.04 0.697735 -1.81983 0
M  V30 12570 H 1219.13 2.16393 -2.24901 0
M  V30 12571 N 1219.43 1.33438 0.838571 0
M  V30 12572 C 1220.66 1.27951 1.62592 0
M  V30 12573 C 1221.08 -0.149502 1.88207 0
M  V30 12574 O 1220.43 -1.09174 1.46244 0
M  V30 12575 C 1220.48 2.0523 2.97595 0
M  V30 12576 O 1220.2 3.42557 2.73105 0
M  V30 12577 C 1221.71 2.06957 3.92025 0
M  V30 12578 H 1218.93 0.440796 0.505905 0
M  V30 12579 H 1221.47 1.75814 1.0445 0
M  V30 12580 H 1219.62 1.61049 3.52338 0
M  V30 12581 H 1220.04 3.82314 3.59076 0
M  V30 12582 H 1221.51 2.65481 4.83967 0
M  V30 12583 H 1221.99 1.0599 4.26219 0
M  V30 12584 H 1222.6 2.51158 3.4322 0
M  V30 12585 N 1220.91 -1.05686 1.16912 0
M  V30 12586 C 1222.14 -1.82282 0.978811 0
M  V30 12587 C 1222.55 -1.8278 -0.472972 0
M  V30 12588 O 1221.91 -1.25143 -1.32836 0
M  V30 12589 C 1221.96 -3.28623 1.50629 0
M  V30 12590 O 1221.68 -3.28269 2.90122 0
M  V30 12591 C 1223.18 -4.21927 1.35987 0
M  V30 12592 H 1220.4 -0.574558 0.346588 0
M  V30 12593 H 1222.95 -1.33301 1.55084 0
M  V30 12594 H 1221.1 -3.74893 0.976404 0
M  V30 12595 H 1221.52 -4.19824 3.14401 0
M  V30 12596 H 1222.99 -5.2261 1.77716 0
M  V30 12597 H 1223.47 -4.38131 0.30626 0
M  V30 12598 H 1224.07 -3.81508 1.87968 0
M  V30 12599 N 1222.39 -0.968567 -1.24324 0
M  V30 12600 C 1223.35 -0.504307 -2.23583 0
M  V30 12601 C 1224.35 0.399626 -1.55755 0
M  V30 12602 O 1225.54 0.194966 -1.73106 0
M  V30 12603 C 1222.67 0.26956 -3.39833 0
M  V30 12604 H 1223.87 -1.3818 -2.6617 0
M  V30 12605 H 1221.42 -0.753241 -1.36952 0
M  V30 12606 H 1222.15 1.16411 -3.02686 0
M  V30 12607 H 1221.94 -0.379133 -3.90263 0
M  V30 12608 H 1223.43 0.583376 -4.13505 0
M  V30 12609 N 1223.87 1.39211 -0.738786 0
M  V30 12610 C 1224.83 2.28937 -0.109746 0
M  V30 12611 C 1225.83 1.46488 0.663157 0
M  V30 12612 O 1227.02 1.67119 0.491614 0
M  V30 12613 C 1224.15 3.30039 0.853633 0
M  V30 12614 H 1225.34 2.86068 -0.900295 0
M  V30 12615 H 1222.9 1.47922 -0.504853 0
M  V30 12616 H 1223.63 2.77971 1.6704 0
M  V30 12617 H 1223.42 3.90935 0.302007 0
M  V30 12618 H 1224.91 3.97169 1.29022 0
M  V30 12619 N 1225.34 0.486708 1.49896 0
M  V30 12620 C 1226.76 0.0353906 1.86666 0
M  V30 12621 C 1227.11 -1.3743 1.40026 0
M  V30 12622 O 1226.23 -2.02163 0.77194 0
M  V30 12623 C 1226.83 0.0574475 3.38751 0
M  V30 12624 C 1225.39 -0.338464 3.74875 0
M  V30 12625 C 1224.53 0.436196 2.73848 0
M  V30 12626 H 1227.48 0.700215 1.42417 0
M  V30 12627 H 1227.5 -0.741175 3.73212 0
M  V30 12628 H 1227.02 1.08356 3.72667 0
M  V30 12629 H 1225.12 -1.36835 3.46565 0
M  V30 12630 H 1225.23 -0.0289519 4.79091 0
M  V30 12631 H 1223.59 -0.112141 2.54453 0
M  V30 12632 H 1224.38 1.46212 3.10608 0
M  V30 12633 N 1226.82 -1.56058 0.219941 0
M  V30 12634 C 1228.07 -1.97869 -0.411383 0
M  V30 12635 C 1228.39 -1.10878 -1.60409 0
M  V30 12636 O 1227.66 -0.185454 -1.9502 0
M  V30 12637 H 1226.24 -0.730747 -0.154979 0
M  V30 12638 H 1228.9 -1.92379 0.312461 0
M  V30 12639 H 1228 -3.0323 -0.738798 0
M  V30 12640 N 1228.3 0.053464 -1.57509 0
M  V30 12641 C 1229.55 0.748016 -1.87317 0
M  V30 12642 C 1229.86 1.77805 -0.815161 0
M  V30 12643 O 1231.07 2.52347 -1.00167 0
M  V30 12644 C 1229.53 1.38137 -3.32334 0
M  V30 12645 C 1229.13 0.388958 -4.46308 0
M  V30 12646 C 1230.88 2.05722 -3.7132 0
M  V30 12647 C 1228.78 1.02927 -5.82374 0
M  V30 12648 H 1227.71 0.283123 -0.698826 0
M  V30 12649 H 1230.37 0.00170723 -1.835 0
M  V30 12650 H 1228.75 2.17656 -3.3082 0
M  V30 12651 H 1229.92 -0.377752 -4.59249 0
M  V30 12652 H 1228.24 -0.183447 -4.15996 0
M  V30 12653 H 1230.83 2.54437 -4.70283 0
M  V30 12654 H 1231.18 2.86475 -3.02056 0
M  V30 12655 H 1231.71 1.3301 -3.74904 0
M  V30 12656 H 1228.45 0.261674 -6.54977 0
M  V30 12657 H 1227.97 1.7664 -5.732 0
M  V30 12658 H 1229.65 1.54378 -6.28312 0
M  V30 12659 N 1229.78 1.54207 0.325255 0
M  V30 12660 C 1230.73 1.84197 1.42036 0
M  V30 12661 C 1231.72 0.71375 1.53629 0
M  V30 12662 O 1232.93 0.897385 1.56035 0
M  V30 12663 H 1229.3 0.583848 0.473947 0
M  V30 12664 H 1231.27 2.7578 1.13965 0
M  V30 12665 C 1230.02 2.08459 2.78281 0
M  V30 12666 H 1229.35 2.94734 2.70133 0
M  V30 12667 H 1230.79 2.33398 3.5398 0
M  V30 12668 C 1229.24 0.875615 3.25322 0
M  V30 12669 O 1229.77 0.0840387 4.01612 0
M  V30 12670 N 1227.98 0.687721 2.82345 0
M  V30 12671 H 1227.53 1.33307 2.20425 0
M  V30 12672 H 1227.49 -0.119687 3.14172 0
M  V30 12673 N 1231.26 -0.58723 1.46251 0
M  V30 12674 C 1232.51 -1.34294 1.51028 0
M  V30 12675 C 1232.83 -1.94329 0.161623 0
M  V30 12676 O 1232.1 -1.78309 -0.811342 0
M  V30 12677 H 1230.68 -0.498607 0.556238 0
M  V30 12678 H 1233.34 -0.688074 1.8235 0
M  V30 12679 H 1232.43 -2.15197 2.26045 0
M  V30 12680 N 1232.74 -1.33881 -0.831482 0
M  V30 12681 C 1233.96 -1.28961 -1.62431 0
M  V30 12682 C 1234.39 0.135249 -1.87613 0
M  V30 12683 O 1233.74 1.09426 -1.44553 0
M  V30 12684 C 1233.79 -2.07767 -2.94729 0
M  V30 12685 O 1232.9 -1.44133 -3.86393 0
M  V30 12686 H 1232.24 -0.443313 -0.494337 0
M  V30 12687 H 1234.77 -1.76555 -1.0339 0
M  V30 12688 H 1234.78 -2.18806 -3.44366 0
M  V30 12689 H 1233.45 -3.11367 -2.75724 0
M  V30 12690 H 1232.03 -1.41784 -3.44894 0
M  V30 12691 N 1234.21 1.05064 -1.1747 0
M  V30 12692 C 1235.63 1.30256 -0.922248 0
M  V30 12693 C 1235.83 1.97119 0.417896 0
M  V30 12694 O 1234.89 2.24557 1.15457 0
M  V30 12695 C 1236.2 2.17109 -2.08049 0
M  V30 12696 C 1237.75 2.30487 -2.11766 0
M  V30 12697 C 1238.22 3.20701 -3.26979 0
M  V30 12698 N 1239.71 3.28287 -3.26775 0
M  V30 12699 C 1240.45 3.98218 -4.12565 0
M  V30 12700 N 1239.94 4.70567 -5.08467 0
M  V30 12701 N 1241.74 3.94395 -4.00511 0
M  V30 12702 H 1233.89 0.600653 -2.0373 0
M  V30 12703 H 1236.15 0.327475 -0.889643 0
M  V30 12704 H 1235.86 1.75273 -3.04914 0
M  V30 12705 H 1235.73 3.1775 -2.03261 0
M  V30 12706 H 1238.12 2.71564 -1.15486 0
M  V30 12707 H 1238.2 1.29471 -2.20615 0
M  V30 12708 H 1237.84 2.80337 -4.23525 0
M  V30 12709 H 1237.77 4.21725 -3.15366 0
M  V30 12710 H 1240.26 2.76739 -2.5734 0
M  V30 12711 H 1240.58 5.21492 -5.70321 0
M  V30 12712 H 1238.92 4.69505 -5.12436 0
M  V30 12713 H 1242.11 3.37 -3.24882 0
M  V30 12714 H 1242.29 4.48626 -4.67588 0
M  V30 12715 N 1235.69 0.975146 1.23809 0
M  V30 12716 C 1236.65 0.516157 2.23312 0
M  V30 12717 C 1237.65 -0.39136 1.55965 0
M  V30 12718 O 1238.84 -0.185783 1.73206 0
M  V30 12719 C 1235.98 -0.251534 3.39971 0
M  V30 12720 H 1237.17 1.3959 2.65433 0
M  V30 12721 H 1234.72 0.760493 1.36551 0
M  V30 12722 H 1235.46 -1.14805 3.03299 0
M  V30 12723 H 1235.24 0.399825 3.90056 0
M  V30 12724 H 1236.73 -0.561438 4.13809 0
M  V30 12725 N 1237.17 -1.38817 0.746158 0
M  V30 12726 C 1238.59 -1.53894 0.42294 0
M  V30 12727 C 1238.79 -1.71064 -1.06486 0
M  V30 12728 O 1237.84 -1.71744 -1.85095 0
M  V30 12729 C 1239.15 -2.75029 1.2157 0
M  V30 12730 C 1240.7 -2.88873 1.20504 0
M  V30 12731 C 1241.18 -4.1296 1.9806 0
M  V30 12732 N 1242.67 -4.20022 1.95283 0
M  V30 12733 C 1243.4 -5.15011 2.52093 0
M  V30 12734 N 1242.9 -6.1572 3.17586 0
M  V30 12735 N 1244.69 -5.07308 2.42064 0
M  V30 12736 H 1236.84 -1.25921 1.71049 0
M  V30 12737 H 1239.11 -0.611148 0.724708 0
M  V30 12738 H 1238.81 -2.68722 2.26895 0
M  V30 12739 H 1238.69 -3.68009 0.827593 0
M  V30 12740 H 1241.07 -2.94667 0.159877 0
M  V30 12741 H 1241.15 -1.96925 1.63261 0
M  V30 12742 H 1240.8 -4.07929 3.02583 0
M  V30 12743 H 1240.73 -5.03974 1.52702 0
M  V30 12744 H 1243.22 -3.47892 1.4758 0
M  V30 12745 H 1243.53 -6.84682 3.58373 0
M  V30 12746 H 1241.88 -6.16075 3.21678 0
M  V30 12747 H 1245.07 -4.27569 1.90532 0
M  V30 12748 H 1245.24 -5.81158 2.86635 0
M  V30 12749 N 1238.65 -0.49465 -1.49636 0
M  V30 12750 C 1239.58 0.276606 -2.31856 0
M  V30 12751 C 1240.56 0.968499 -1.39836 0
M  V30 12752 O 1241.74 0.96113 -1.68748 0
M  V30 12753 C 1238.87 1.34522 -3.20189 0
M  V30 12754 C 1237.83 0.773571 -4.20951 0
M  V30 12755 C 1237.15 1.94223 -4.98178 0
M  V30 12756 C 1238.45 -0.231096 -5.21788 0
M  V30 12757 H 1240.15 -0.409668 -2.96584 0
M  V30 12758 H 1237.69 -0.198461 -1.42626 0
M  V30 12759 H 1239.65 1.89244 -3.76517 0
M  V30 12760 H 1238.37 2.06059 -2.53392 0
M  V30 12761 H 1237.03 0.248144 -3.65759 0
M  V30 12762 H 1236.68 2.64514 -4.27834 0
M  V30 12763 H 1236.38 1.56584 -5.66353 0
M  V30 12764 H 1237.9 2.49391 -5.57348 0
M  V30 12765 H 1239.32 0.227768 -5.72847 0
M  V30 12766 H 1237.71 -0.522984 -5.97817 0
M  V30 12767 H 1238.78 -1.14914 -4.71087 0
M  V30 12768 N 1240.13 1.55939 -0.228214 0
M  V30 12769 C 1241.54 1.84612 0.278417 0
M  V30 12770 C 1241.89 1.14973 1.58983 0
M  V30 12771 O 1241.01 0.421673 2.12252 0
M  V30 12772 C 1241.61 3.3491 0.511935 0
M  V30 12773 C 1240.17 3.63876 0.962861 0
M  V30 12774 C 1239.31 2.77284 0.0296246 0
M  V30 12775 H 1242.26 1.52149 -0.451245 0
M  V30 12776 H 1242.29 3.55477 1.35707 0
M  V30 12777 H 1241.8 3.85567 -0.442697 0
M  V30 12778 H 1239.9 3.18682 1.93062 0
M  V30 12779 H 1240.01 4.71809 0.832659 0
M  V30 12780 H 1238.38 2.48961 0.53763 0
M  V30 12781 H 1239.16 3.30742 -0.920044 0
M  V30 12782 N 1241.6 -0.0451101 1.57535 0
M  V30 12783 C 1242.83 -0.750231 1.92497 0
M  V30 12784 C 1243.24 -1.70268 0.824946 0
M  V30 12785 O 1242.59 -1.82511 -0.208656 0
M  V30 12786 C 1242.65 -1.57543 3.23141 0
M  V30 12787 C 1242.31 -0.789495 4.50129 0
M  V30 12788 C 1243.31 -0.0968367 5.1981 0
M  V30 12789 C 1240.99 -0.748776 4.96688 0
M  V30 12790 C 1242.99 0.626018 6.34318 0
M  V30 12791 C 1240.67 -0.0221652 6.11096 0
M  V30 12792 C 1241.67 0.664006 6.79765 0
M  V30 12793 O 1241.36 1.37885 7.91987 0
M  V30 12794 H 1241.09 -0.216895 0.64026 0
M  V30 12795 H 1243.65 -0.011558 2.05397 0
M  V30 12796 H 1241.88 -2.35754 3.06524 0
M  V30 12797 H 1243.57 -2.16168 3.4355 0
M  V30 12798 H 1244.33 -0.119429 4.84853 0
M  V30 12799 H 1240.21 -1.27235 4.43094 0
M  V30 12800 H 1243.75 1.16215 6.87852 0
M  V30 12801 H 1239.65 0.00240707 6.455 0
M  V30 12802 H 1240.42 1.29087 8.08257 0
M  V30 12803 N 1243.08 -1.54377 -0.317073 0
M  V30 12804 C 1244.03 -1.84948 -1.41057 0
M  V30 12805 C 1245.02 -0.721887 -1.53249 0
M  V30 12806 O 1246.23 -0.905648 -1.55557 0
M  V30 12807 H 1242.61 -0.586353 -0.470844 0
M  V30 12808 H 1244.58 -2.7638 -1.12501 0
M  V30 12809 C 1243.33 -2.09932 -2.77171 0
M  V30 12810 H 1242.65 -2.96162 -2.68566 0
M  V30 12811 H 1244.09 -2.35272 -3.52737 0
M  V30 12812 C 1242.55 -0.892855 -3.24853 0
M  V30 12813 O 1243.08 -0.105336 -4.01562 0
M  V30 12814 N 1241.28 -0.702685 -2.81976 0
M  V30 12815 H 1240.83 -1.34474 -2.19715 0
M  V30 12816 H 1240.79 0.103024 -3.14231 0
M  V30 12817 N 1244.56 0.579466 -1.4656 0
M  V30 12818 C 1245.49 1.69846 -1.60233 0
M  V30 12819 C 1246.47 1.6397 -0.452533 0
M  V30 12820 O 1247.66 1.81936 -0.679174 0
M  V30 12821 C 1244.79 3.08488 -1.59538 0
M  V30 12822 C 1243.74 3.29197 -2.7352 0
M  V30 12823 C 1243.07 4.684 -2.57887 0
M  V30 12824 C 1244.37 3.16718 -4.15315 0
M  V30 12825 H 1246.06 1.5866 -2.53904 0
M  V30 12826 H 1243.61 0.761873 -1.22194 0
M  V30 12827 H 1245.56 3.86595 -1.67696 0
M  V30 12828 H 1244.28 3.20581 -0.62413 0
M  V30 12829 H 1242.94 2.53491 -2.64836 0
M  V30 12830 H 1242.59 4.77262 -1.58839 0
M  V30 12831 H 1242.29 4.83208 -3.34341 0
M  V30 12832 H 1243.81 5.48671 -2.67942 0
M  V30 12833 H 1245.23 3.84666 -4.25094 0
M  V30 12834 H 1243.63 3.43047 -4.92381 0
M  V30 12835 H 1244.7 2.13755 -4.35244 0
M  V30 12836 N 1246.04 1.3432 0.824371 0
M  V30 12837 C 1247.32 1.17178 1.56616 0
M  V30 12838 C 1247.7 -0.256195 2.0954 0
M  V30 12839 O 1247.04 -1.25732 1.90798 0
M  V30 12840 C 1247.25 2.22511 2.68867 0
M  V30 12841 C 1248.6 2.57414 3.37673 0
M  V30 12842 O 1249.63 2.2129 2.79122 0
M  V30 12843 O 1248.48 3.19462 4.43403 0
M  V30 12844 H 1245.58 0.454141 0.691147 0
M  V30 12845 H 1248.12 1.45948 0.865869 0
M  V30 12846 H 1246.9 3.18366 2.27505 0
M  V30 12847 H 1246.52 1.9491 3.46548 0
M  V30 12848 N 1247.52 -1.0444 1.18026 0
M  V30 12849 C 1248.93 -1.5903 0.978076 0
M  V30 12850 C 1249.28 -1.90407 -0.473241 0
M  V30 12851 O 1248.4 -1.69133 -1.34992 0
M  V30 12852 C 1249 -2.88942 1.76912 0
M  V30 12853 C 1247.56 -3.40164 1.61139 0
M  V30 12854 C 1246.7 -2.13797 1.76596 0
M  V30 12855 H 1249.66 -0.871574 1.32625 0
M  V30 12856 H 1249.68 -3.59173 1.25598 0
M  V30 12857 H 1249.19 -2.66074 2.82535 0
M  V30 12858 H 1247.29 -3.68053 0.580353 0
M  V30 12859 H 1247.4 -4.14241 2.40709 0
M  V30 12860 H 1245.77 -2.24922 1.19507 0
M  V30 12861 H 1246.55 -1.93389 2.83647 0
M  V30 12862 N 1248.99 -0.981699 -1.2329 0
M  V30 12863 C 1249.96 -0.527992 -2.23036 0
M  V30 12864 C 1250.96 0.383083 -1.5617 0
M  V30 12865 O 1252.15 0.176595 -1.73303 0
M  V30 12866 C 1249.28 0.233501 -3.40099 0
M  V30 12867 H 1250.47 -1.40995 -2.64689 0
M  V30 12868 H 1248.03 -0.767724 -1.36146 0
M  V30 12869 H 1248.76 1.13194 -3.03904 0
M  V30 12870 H 1248.55 -0.420505 -3.89839 0
M  V30 12871 H 1250.04 0.539485 -4.14101 0
M  V30 12872 N 1250.47 1.3842 -0.753509 0
M  V30 12873 C 1251.89 1.53668 -0.431095 0
M  V30 12874 C 1252.09 1.71626 1.05578 0
M  V30 12875 O 1251.14 1.72723 1.84182 0
M  V30 12876 C 1252.46 2.74381 -1.23027 0
M  V30 12877 C 1254.01 2.8823 -1.22034 0
M  V30 12878 C 1254.48 4.11904 -2.00248 0
M  V30 12879 N 1255.97 4.18981 -1.97508 0
M  V30 12880 C 1256.71 5.13667 -2.5482 0
M  V30 12881 N 1256.2 6.14027 -3.20846 0
M  V30 12882 N 1258 5.06017 -2.44751 0
M  V30 12883 H 1250.15 1.25012 -1.71714 0
M  V30 12884 H 1252.41 0.607296 -0.727939 0
M  V30 12885 H 1252.12 2.67515 -2.28317 0
M  V30 12886 H 1251.99 3.67565 -0.847098 0
M  V30 12887 H 1254.38 2.94578 -0.175502 0
M  V30 12888 H 1254.46 1.96057 -1.64303 0
M  V30 12889 H 1254.1 4.06318 -3.04742 0
M  V30 12890 H 1254.03 5.03157 -1.55373 0
M  V30 12891 H 1256.52 3.47104 -1.49423 0
M  V30 12892 H 1256.84 6.82771 -3.61999 0
M  V30 12893 H 1255.18 6.1436 -3.24941 0
M  V30 12894 H 1258.37 4.26552 -1.92797 0
M  V30 12895 H 1258.54 5.7963 -2.89713 0
M  V30 12896 N 1251.95 0.502579 1.49372 0
M  V30 12897 C 1253.18 -0.0381429 2.06865 0
M  V30 12898 C 1253.59 -1.30674 1.36271 0
M  V30 12899 O 1252.95 -1.77078 0.441532 0
M  V30 12900 C 1253 -0.294068 3.60302 0
M  V30 12901 O 1252.72 0.924244 4.2824 0
M  V30 12902 C 1254.22 -0.878253 4.34513 0
M  V30 12903 H 1251.44 0.0211756 0.670666 0
M  V30 12904 H 1253.99 0.700387 1.92132 0
M  V30 12905 H 1252.14 -0.982583 3.74732 0
M  V30 12906 H 1252.56 0.688062 5.19967 0
M  V30 12907 H 1254.03 -1.0069 5.42739 0
M  V30 12908 H 1254.51 -1.87643 3.97098 0
M  V30 12909 H 1255.11 -0.227157 4.24693 0
M  V30 12910 N 1253.43 -1.55816 0.23648 0
M  V30 12911 C 1254.84 -1.84757 -0.268622 0
M  V30 12912 C 1255.19 -1.15815 -1.58371 0
M  V30 12913 O 1254.32 -0.432923 -2.12025 0
M  V30 12914 C 1254.91 -3.35177 -0.494167 0
M  V30 12915 C 1253.47 -3.64382 -0.943551 0
M  V30 12916 C 1252.62 -2.77296 -0.0149191 0
M  V30 12917 H 1255.57 -1.51908 0.459308 0
M  V30 12918 H 1255.59 -3.56192 -1.3382 0
M  V30 12919 H 1255.1 -3.85327 0.463138 0
M  V30 12920 H 1253.2 -3.19701 -1.91369 0
M  V30 12921 H 1253.31 -4.72244 -0.807626 0
M  V30 12922 H 1251.68 -2.49243 -0.524419 0
M  V30 12923 H 1252.46 -3.30249 0.937571 0
M  V30 12924 N 1254.91 0.036755 -1.57557 0
M  V30 12925 C 1256.15 0.730186 -1.89199 0
M  V30 12926 C 1256.49 1.75414 -0.833271 0
M  V30 12927 O 1255.76 1.93901 0.152579 0
M  V30 12928 C 1256.04 1.40669 -3.31488 0
M  V30 12929 C 1255.9 0.396764 -4.48047 0
M  V30 12930 C 1257.22 2.34268 -3.72567 0
M  V30 12931 H 1254.33 0.263983 -0.6881 0
M  V30 12932 H 1256.98 -0.0069847 -1.89999 0
M  V30 12933 H 1255.13 2.03502 -3.30937 0
M  V30 12934 H 1256.8 -0.229062 -4.60731 0
M  V30 12935 H 1255.04 -0.284698 -4.32865 0
M  V30 12936 H 1255.71 0.908436 -5.44474 0
M  V30 12937 H 1258.19 1.81485 -3.74436 0
M  V30 12938 H 1257.06 2.78587 -4.72949 0
M  V30 12939 H 1257.33 3.20611 -3.04403 0
M  V30 12940 N 1256.39 1.54543 0.308881 0
M  V30 12941 C 1257.32 1.87947 1.38557 0
M  V30 12942 C 1258.3 0.737622 1.53275 0
M  V30 12943 O 1259.48 0.992664 1.66913 0
M  V30 12944 C 1256.61 2.11982 2.75102 0
M  V30 12945 C 1255.57 3.2783 2.75158 0
M  V30 12946 C 1254.89 3.37266 4.14917 0
M  V30 12947 C 1256.19 4.65129 2.37598 0
M  V30 12948 H 1257.89 2.78123 1.1085 0
M  V30 12949 H 1255.43 1.3382 0.531808 0
M  V30 12950 H 1257.38 2.33935 3.50503 0
M  V30 12951 H 1256.11 1.18569 3.04317 0
M  V30 12952 H 1254.77 3.05787 2.02212 0
M  V30 12953 H 1254.42 2.41384 4.41296 0
M  V30 12954 H 1254.12 4.15135 4.15857 0
M  V30 12955 H 1255.64 3.61471 4.92109 0
M  V30 12956 H 1257.05 4.86865 3.02714 0
M  V30 12957 H 1255.45 5.45653 2.49765 0
M  V30 12958 H 1256.52 4.6638 1.32731 0
M  V30 12959 N 1257.86 -0.571685 1.46866 0
M  V30 12960 C 1259.11 -1.32685 1.52444 0
M  V30 12961 C 1259.43 -1.94147 0.182225 0
M  V30 12962 O 1258.7 -1.79159 -0.792385 0
M  V30 12963 H 1257.28 -0.492679 0.561495 0
M  V30 12964 H 1259.94 -0.668694 1.8307 0
M  V30 12965 H 1259.04 -2.12788 2.28315 0
M  V30 12966 N 1259.34 -1.34755 -0.817236 0
M  V30 12967 C 1260.57 -1.30676 -1.61054 0
M  V30 12968 C 1260.99 0.115343 -1.87746 0
M  V30 12969 O 1260.35 1.07887 -1.45705 0
M  V30 12970 C 1260.4 -2.10881 -2.92509 0
M  V30 12971 O 1259.5 -1.48223 -3.84842 0
M  V30 12972 H 1258.84 -0.448531 -0.489608 0
M  V30 12973 H 1261.37 -1.77642 -1.01512 0
M  V30 12974 H 1261.38 -2.22446 -3.42026 0
M  V30 12975 H 1260.06 -3.14274 -2.72406 0
M  V30 12976 H 1258.63 -1.45434 -3.4337 0
M  V30 12977 N 1260.82 1.03812 -1.18578 0
M  V30 12978 C 1262.07 1.77447 -0.994191 0
M  V30 12979 C 1262.42 1.86546 0.470974 0
M  V30 12980 O 1261.71 1.3644 1.34517 0
M  V30 12981 C 1261.91 3.20297 -1.5857 0
M  V30 12982 C 1261.74 3.25122 -3.10686 0
M  V30 12983 C 1260.51 3.33604 -3.79521 0
M  V30 12984 C 1262.7 3.12923 -4.08147 0
M  V30 12985 N 1260.69 3.27705 -5.19117 0
M  V30 12986 C 1262.06 3.14553 -5.34281 0
M  V30 12987 C 1264.11 2.96983 -3.99631 0
M  V30 12988 C 1262.82 3.0188 -6.52887 0
M  V30 12989 C 1264.84 2.85657 -5.17836 0
M  V30 12990 C 1264.2 2.87933 -6.42864 0
M  V30 12991 H 1260.3 0.661013 -0.417835 0
M  V30 12992 H 1262.89 1.23648 -1.50397 0
M  V30 12993 H 1261.06 3.72437 -1.10207 0
M  V30 12994 H 1262.79 3.82243 -1.32937 0
M  V30 12995 H 1259.54 3.39442 -3.30266 0
M  V30 12996 H 1259.97 3.28188 -5.92133 0
M  V30 12997 H 1264.61 2.94052 -3.03798 0
M  V30 12998 H 1262.33 3.03563 -7.48916 0
M  V30 12999 H 1265.91 2.74374 -5.1304 0
M  V30 13000 H 1264.79 2.79259 -7.32792 0
M  V30 13001 N 1262.3 0.988223 1.22768 0
M  V30 13002 C 1263.71 0.69816 1.4352 0
M  V30 13003 C 1263.91 -0.732872 1.877 0
M  V30 13004 O 1262.97 -1.50436 2.02793 0
M  V30 13005 C 1264.28 1.69975 2.4805 0
M  V30 13006 C 1265.83 1.71467 2.61855 0
M  V30 13007 C 1266.31 2.70477 3.69603 0
M  V30 13008 N 1267.8 2.69043 3.77055 0
M  V30 13009 C 1268.53 3.42319 4.60006 0
M  V30 13010 N 1268.03 4.2518 5.46986 0
M  V30 13011 N 1269.82 3.31047 4.54274 0
M  V30 13012 H 1261.97 1.91251 0.923948 0
M  V30 13013 H 1264.23 0.82455 0.467783 0
M  V30 13014 H 1263.94 2.72354 2.22523 0
M  V30 13015 H 1263.81 1.48885 3.46573 0
M  V30 13016 H 1266.2 0.697889 2.86729 0
M  V30 13017 H 1266.28 1.96625 1.63622 0
M  V30 13018 H 1265.93 3.72302 3.45476 0
M  V30 13019 H 1265.86 2.42591 4.67394 0
M  V30 13020 H 1268.35 2.08914 3.14902 0
M  V30 13021 H 1268.66 4.77929 6.07292 0
M  V30 13022 H 1267.01 4.29268 5.46584 0
M  V30 13023 H 1270.2 2.65758 3.85345 0
M  V30 13024 H 1270.37 3.88413 5.1869 0
M  V30 13025 N 1263.78 -1.38018 0.760839 0
M  V30 13026 C 1264.74 -2.28734 0.146154 0
M  V30 13027 C 1265.74 -1.47525 -0.639768 0
M  V30 13028 O 1266.93 -1.6788 -0.464964 0
M  V30 13029 C 1264.06 -3.31356 -0.801019 0
M  V30 13030 H 1265.25 -2.84599 0.945692 0
M  V30 13031 H 1262.81 -1.471 0.528323 0
M  V30 13032 H 1263.54 -2.80594 -1.62597 0
M  V30 13033 H 1263.33 -3.91366 -0.239775 0
M  V30 13034 H 1264.82 -3.99171 -1.22687 0
M  V30 13035 N 1265.25 -0.510493 -1.49103 0
M  V30 13036 C 1266.5 0.0305831 -2.02077 0
M  V30 13037 C 1266.82 1.36602 -1.39157 0
M  V30 13038 O 1266.09 1.88016 -0.550154 0
M  V30 13039 H 1264.67 0.0142916 -0.746863 0
M  V30 13040 H 1267.33 -0.669895 -1.83026 0
M  V30 13041 H 1266.43 0.153283 -3.11723 0
M  V30 13042 N 1266.73 1.55688 -0.24474 0
M  V30 13043 C 1267.98 1.99186 0.381167 0
M  V30 13044 C 1268.31 1.13266 1.57748 0
M  V30 13045 O 1267.59 0.195568 1.93514 0
M  V30 13046 C 1267.87 3.51257 0.793142 0
M  V30 13047 C 1267.72 4.47942 -0.408409 0
M  V30 13048 C 1269.04 4.08365 1.64091 0
M  V30 13049 H 1266.16 0.724141 0.137073 0
M  V30 13050 H 1268.8 1.8683 -0.345619 0
M  V30 13051 H 1266.95 3.61917 1.4124 0
M  V30 13052 H 1268.62 4.49265 -1.04682 0
M  V30 13053 H 1266.87 4.20854 -1.05189 0
M  V30 13054 H 1267.54 5.51946 -0.0768531 0
M  V30 13055 H 1270.01 4.00794 1.1182 0
M  V30 13056 H 1268.89 5.1504 1.89802 0
M  V30 13057 H 1269.15 3.56687 2.61202 0
M  V30 13058 N 1268.21 -0.0283989 1.57574 0
M  V30 13059 C 1269.14 -1.05641 2.03403 0
M  V30 13060 C 1270.15 -1.32426 0.946953 0
M  V30 13061 O 1271.34 -1.29902 1.22425 0
M  V30 13062 C 1268.44 -2.39788 2.39489 0
M  V30 13063 C 1267.62 -2.32348 3.70585 0
M  V30 13064 C 1266.68 -3.4895 3.93853 0
M  V30 13065 O 1265.7 -3.28414 4.64901 0
M  V30 13066 N 1266.9 -4.7084 3.39543 0
M  V30 13067 H 1269.67 -0.665788 2.92211 0
M  V30 13068 H 1267.23 -0.21633 1.60448 0
M  V30 13069 H 1269.22 -3.16514 2.52193 0
M  V30 13070 H 1267.79 -2.70692 1.56348 0
M  V30 13071 H 1267.01 -1.40717 3.68229 0
M  V30 13072 H 1268.3 -2.24521 4.56582 0
M  V30 13073 H 1267.7 -4.90425 2.81956 0
M  V30 13074 H 1266.25 -5.44929 3.57625 0
M  V30 13075 N 1269.69 -1.54705 -0.300681 0
M  V30 13076 C 1270.93 -1.74259 -1.03738 0
M  V30 13077 C 1271.27 -0.52703 -1.86912 0
M  V30 13078 O 1270.54 0.475862 -1.88589 0
M  V30 13079 C 1270.82 -3.03175 -1.94311 0
M  V30 13080 C 1270.68 -4.35031 -1.14315 0
M  V30 13081 C 1272 -3.27962 -2.93478 0
M  V30 13082 H 1269.12 -0.634031 -0.37573 0
M  V30 13083 H 1271.76 -1.87421 -0.312012 0
M  V30 13084 H 1269.91 -2.92086 -2.5616 0
M  V30 13085 H 1271.58 -4.5804 -0.547489 0
M  V30 13086 H 1269.82 -4.31503 -0.44587 0
M  V30 13087 H 1270.49 -5.21502 -1.80941 0
M  V30 13088 H 1272.97 -3.38663 -2.41757 0
M  V30 13089 H 1271.85 -4.19481 -3.54016 0
M  V30 13090 H 1272.11 -2.46273 -3.67154 0
M  V30 13091 N 1271.17 0.563888 -1.47167 0
M  V30 13092 C 1272.58 1.14603 -1.47388 0
M  V30 13093 C 1272.93 1.94907 -0.224916 0
M  V30 13094 O 1272.05 2.05745 0.670672 0
M  V30 13095 C 1272.65 2.08501 -2.67044 0
M  V30 13096 C 1271.21 2.62 -2.70246 0
M  V30 13097 C 1270.35 1.38244 -2.40383 0
M  V30 13098 H 1273.31 0.350833 -1.54774 0
M  V30 13099 H 1273.33 2.92272 -2.43634 0
M  V30 13100 H 1272.84 1.50027 -3.57929 0
M  V30 13101 H 1270.94 3.24292 -1.83482 0
M  V30 13102 H 1271.05 3.0345 -3.70749 0
M  V30 13103 H 1269.42 1.68692 -1.90827 0
M  V30 13104 H 1270.2 0.815726 -3.33468 0
M  V30 13105 N 1272.64 1.35187 0.810078 0
M  V30 13106 C 1273.61 1.27698 1.90331 0
M  V30 13107 C 1274.61 0.189216 1.59683 0
M  V30 13108 O 1275.8 0.442689 1.68481 0
M  V30 13109 C 1272.93 0.974631 3.26671 0
M  V30 13110 H 1274.12 2.24902 1.98392 0
M  V30 13111 H 1271.68 1.1966 1.00554 0
M  V30 13112 H 1272.41 0.0063068 3.24299 0
M  V30 13113 H 1272.2 1.76158 3.50301 0
M  V30 13114 H 1273.69 0.947743 4.06703 0
M  V30 13115 N 1274.12 -1.03182 1.19127 0
M  V30 13116 C 1275.06 -2.10977 0.869702 0
M  V30 13117 C 1276.03 -1.61687 -0.172032 0
M  V30 13118 O 1277.22 -1.88436 -0.0490025 0
M  V30 13119 C 1274.34 -3.37359 0.301049 0
M  V30 13120 C 1273.39 -4.05515 1.32137 0
M  V30 13121 S 1274.22 -4.51415 2.88071 0
M  V30 13122 C 1275.38 -5.81018 2.32741 0
M  V30 13123 H 1275.61 -2.37929 1.78261 0
M  V30 13124 H 1273.15 -1.16079 1.01809 0
M  V30 13125 H 1275.1 -4.10495 -0.0205205 0
M  V30 13126 H 1273.76 -3.08507 -0.590118 0
M  V30 13127 H 1272.96 -4.9639 0.872547 0
M  V30 13128 H 1272.56 -3.38536 1.58963 0
M  V30 13129 H 1274.85 -6.5542 1.71552 0
M  V30 13130 H 1275.79 -6.30677 3.21951 0
M  V30 13131 H 1276.2 -5.36549 1.75429 0
M  V30 13132 N 1275.6 -0.99472 -1.22242 0
M  V30 13133 C 1276.53 -0.566499 -2.26524 0
M  V30 13134 C 1277.51 0.407541 -1.65146 0
M  V30 13135 O 1278.7 0.297777 -1.91903 0
M  V30 13136 C 1275.83 0.11786 -3.471 0
M  V30 13137 C 1274.78 -0.774908 -4.20927 0
M  V30 13138 C 1274.11 0.0424687 -5.34683 0
M  V30 13139 C 1275.41 -2.07263 -4.79416 0
M  V30 13140 H 1277.1 -1.43818 -2.62596 0
M  V30 13141 H 1274.65 -0.692971 -1.2623 0
M  V30 13142 H 1276.6 0.428842 -4.19212 0
M  V30 13143 H 1275.32 1.0241 -3.10129 0
M  V30 13144 H 1273.98 -1.06956 -3.50651 0
M  V30 13145 H 1273.63 0.949677 -4.93954 0
M  V30 13146 H 1273.33 -0.551867 -5.85003 0
M  V30 13147 H 1274.85 0.347504 -6.0961 0
M  V30 13148 H 1276.27 -1.82548 -5.4346 0
M  V30 13149 H 1274.67 -2.61594 -5.40082 0
M  V30 13150 H 1275.74 -2.75017 -3.99366 0
M  V30 13151 N 1277.08 1.37613 -0.768148 0
M  V30 13152 C 1278.49 1.53202 -0.44737 0
M  V30 13153 C 1278.69 1.72736 1.03752 0
M  V30 13154 O 1277.75 1.74667 1.8234 0
M  V30 13155 C 1279.06 2.7306 -1.25931 0
M  V30 13156 C 1280.61 2.8692 -1.25084 0
M  V30 13157 C 1281.09 4.09757 -2.04605 0
M  V30 13158 N 1282.58 4.16862 -2.0194 0
M  V30 13159 C 1283.31 5.10936 -2.60254 0
M  V30 13160 N 1282.81 6.1059 -3.27341 0
M  V30 13161 N 1284.6 5.03393 -2.50104 0
M  V30 13162 H 1276.75 1.23184 -1.7303 0
M  V30 13163 H 1279.02 0.599541 -0.73434 0
M  V30 13164 H 1278.72 2.65078 -2.31141 0
M  V30 13165 H 1278.6 3.66646 -0.886036 0
M  V30 13166 H 1280.98 2.94375 -0.206736 0
M  V30 13167 H 1281.06 1.94303 -1.66373 0
M  V30 13168 H 1280.71 4.03063 -3.09035 0
M  V30 13169 H 1280.64 5.01481 -1.60701 0
M  V30 13170 H 1283.13 3.455 -1.53096 0
M  V30 13171 H 1283.44 6.78893 -3.6922 0
M  V30 13172 H 1281.79 6.10879 -3.31439 0
M  V30 13173 H 1284.98 4.24483 -1.9731 0
M  V30 13174 H 1285.15 5.76524 -2.95844 0
M  V30 13175 N 1278.56 0.518393 1.4883 0
M  V30 13176 C 1279.78 -0.0183131 2.07392 0
M  V30 13177 C 1280.21 -1.28468 1.37396 0
M  V30 13178 O 1279.56 -1.75975 0.436177 0
M  V30 13179 C 1279.61 -0.237211 3.59819 0
M  V30 13180 O 1278.72 -1.30835 3.91096 0
M  V30 13181 H 1278.06 0.0339621 0.663131 0
M  V30 13182 H 1280.59 0.722993 1.914 0
M  V30 13183 H 1280.6 -0.463424 4.0536 0
M  V30 13184 H 1279.27 0.687925 4.10171 0
M  V30 13185 H 1277.85 -1.06571 3.57347 0
M  V30 13186 N 1280.03 -1.55556 0.252993 0
M  V30 13187 C 1281.28 -1.98697 -0.369319 0
M  V30 13188 C 1281.6 -1.14256 -1.58021 0
M  V30 13189 O 1280.87 -0.226779 -1.94583 0
M  V30 13190 H 1279.45 -0.733869 -0.139444 0
M  V30 13191 H 1282.12 -1.91673 0.353197 0
M  V30 13192 H 1281.21 -3.04728 -0.674312 0
M  V30 13193 N 1281.51 0.0200419 -1.57587 0
M  V30 13194 C 1282.76 0.704552 -1.90808 0
M  V30 13195 C 1283.11 1.72479 -0.852568 0
M  V30 13196 O 1282.41 1.91105 0.137682 0
M  V30 13197 C 1282.6 1.40729 -3.28527 0
M  V30 13198 C 1282.43 0.456634 -4.47376 0
M  V30 13199 C 1281.2 0.0743638 -5.05245 0
M  V30 13200 C 1283.4 -0.268767 -5.13597 0
M  V30 13201 N 1281.38 -0.876606 -6.07609 0
M  V30 13202 C 1282.75 -1.07509 -6.10608 0
M  V30 13203 C 1284.81 -0.334748 -4.96773 0
M  V30 13204 C 1283.51 -1.94135 -6.92607 0
M  V30 13205 C 1285.53 -1.18816 -5.79342 0
M  V30 13206 C 1284.9 -1.98238 -6.7593 0
M  V30 13207 H 1281 0.231633 -0.746907 0
M  V30 13208 H 1283.58 -0.0355944 -1.94667 0
M  V30 13209 H 1281.75 2.11785 -3.25579 0
M  V30 13210 H 1283.48 2.04491 -3.49236 0
M  V30 13211 H 1280.24 0.43848 -4.71566 0
M  V30 13212 H 1280.66 -1.34687 -6.63467 0
M  V30 13213 H 1285.3 0.264995 -4.21969 0
M  V30 13214 H 1283.02 -2.55185 -7.6675 0
M  V30 13215 H 1286.61 -1.24286 -5.6837 0
M  V30 13216 H 1285.49 -2.63208 -7.38709 0
M  V30 13217 N 1282.99 1.54862 0.292472 0
M  V30 13218 C 1284.22 1.78291 1.04383 0
M  V30 13219 C 1284.63 0.546703 1.81129 0
M  V30 13220 O 1283.97 -0.493286 1.76953 0
M  V30 13221 C 1284.03 2.94321 2.06435 0
M  V30 13222 C 1283.7 4.32095 1.48806 0
M  V30 13223 C 1284.69 5.11808 0.91369 0
M  V30 13224 C 1282.38 4.78714 1.52112 0
M  V30 13225 C 1284.37 6.36266 0.380053 0
M  V30 13226 C 1282.06 6.03132 0.983613 0
M  V30 13227 C 1283.06 6.81744 0.41406 0
M  V30 13228 O 1282.75 8.03817 -0.115268 0
M  V30 13229 H 1282.48 0.598147 0.314954 0
M  V30 13230 H 1285.03 2.02655 0.334661 0
M  V30 13231 H 1283.26 2.65602 2.81056 0
M  V30 13232 H 1284.95 3.05249 2.67541 0
M  V30 13233 H 1285.72 4.76931 0.880988 0
M  V30 13234 H 1281.6 4.17549 1.95382 0
M  V30 13235 H 1285.14 6.9757 -0.0651481 0
M  V30 13236 H 1281.04 6.37494 1.01349 0
M  V30 13237 H 1281.81 8.185 -0.00277496 0
M  V30 13238 N 1284.47 -0.556076 1.47464 0
M  V30 13239 C 1285.88 -0.882115 1.33007 0
M  V30 13240 C 1286.08 -1.9892 0.321407 0
M  V30 13241 O 1285.14 -2.51088 -0.266668 0
M  V30 13242 C 1286.45 -1.27428 2.72365 0
M  V30 13243 C 1288 -1.38564 2.80658 0
M  V30 13244 C 1288.48 -1.81136 4.20659 0
M  V30 13245 N 1289.97 -1.88284 4.23206 0
M  V30 13246 C 1290.7 -2.22555 5.28447 0
M  V30 13247 N 1290.2 -2.55432 6.43993 0
M  V30 13248 N 1291.99 -2.23339 5.15826 0
M  V30 13249 H 1284.14 0.17481 2.11679 0
M  V30 13250 H 1286.41 0.0155421 0.947873 0
M  V30 13251 H 1286.11 -0.53463 3.47613 0
M  V30 13252 H 1285.99 -2.23019 3.04208 0
M  V30 13253 H 1288.37 -2.1161 2.05682 0
M  V30 13254 H 1288.45 -0.411588 2.52467 0
M  V30 13255 H 1288.1 -1.08659 4.96141 0
M  V30 13256 H 1288.03 -2.79546 4.46275 0
M  V30 13257 H 1290.52 -1.65259 3.3985 0
M  V30 13258 H 1290.83 -2.80612 7.20053 0
M  V30 13259 H 1289.18 -2.5301 6.47311 0
M  V30 13260 H 1292.37 -1.97094 4.24584 0
M  V30 13261 H 1292.54 -2.49717 5.97951 0
M  V30 13262 N 1285.95 -1.35615 -0.802897 0
M  V30 13263 C 1286.88 -1.31506 -1.92947 0
M  V30 13264 C 1287.86 -0.188843 -1.69048 0
M  V30 13265 O 1289.04 -0.384384 -1.90358 0
M  V30 13266 C 1286.17 -1.09001 -3.29752 0
M  V30 13267 C 1285.13 -2.18303 -3.68141 0
M  V30 13268 C 1284.45 -1.80959 -5.03148 0
M  V30 13269 C 1285.75 -3.60296 -3.78132 0
M  V30 13270 H 1287.45 -2.25771 -1.96642 0
M  V30 13271 H 1284.99 -1.08682 -0.944685 0
M  V30 13272 H 1286.95 -1.04766 -4.08169 0
M  V30 13273 H 1285.67 -0.111832 -3.26408 0
M  V30 13274 H 1284.33 -2.21642 -2.92011 0
M  V30 13275 H 1283.98 -0.817495 -4.96312 0
M  V30 13276 H 1283.68 -2.54129 -5.29804 0
M  V30 13277 H 1285.2 -1.78255 -5.84001 0
M  V30 13278 H 1286.62 -3.59259 -4.46773 0
M  V30 13279 H 1285.01 -4.32258 -4.16261 0
M  V30 13280 H 1286.08 -3.9618 -2.79588 0
M  V30 13281 N 1287.43 1.02549 -1.19673 0
M  V30 13282 C 1288.84 1.57454 -1.00325 0
M  V30 13283 C 1289.19 1.91136 0.442889 0
M  V30 13284 O 1288.31 1.7126 1.32284 0
M  V30 13285 C 1288.91 2.86091 -1.81486 0
M  V30 13286 C 1287.47 3.37557 -1.6653 0
M  V30 13287 C 1286.61 2.1096 -1.79975 0
M  V30 13288 H 1289.56 0.850364 -1.33994 0
M  V30 13289 H 1289.59 3.5713 -1.31296 0
M  V30 13290 H 1289.1 2.61546 -2.86733 0
M  V30 13291 H 1287.2 3.67083 -0.638834 0
M  V30 13292 H 1287.31 4.1036 -2.47269 0
M  V30 13293 H 1285.68 2.22993 -1.23071 0
M  V30 13294 H 1286.46 1.88852 -2.86688 0
M  V30 13295 N 1288.9 1.00119 1.21713 0
M  V30 13296 C 1290.13 0.700431 1.94683 0
M  V30 13297 C 1290.55 -0.736333 1.73849 0
M  V30 13298 O 1289.9 -1.49778 1.04272 0
M  V30 13299 C 1289.95 1.00722 3.47185 0
M  V30 13300 O 1289.68 2.38754 3.67326 0
M  V30 13301 C 1291.18 0.725335 4.37326 0
M  V30 13302 H 1288.4 0.25843 0.619238 0
M  V30 13303 H 1290.94 1.3382 1.54636 0
M  V30 13304 H 1289.1 0.415117 3.85169 0
M  V30 13305 H 1289.51 2.49321 4.61454 0
M  V30 13306 H 1290.98 0.990202 5.43046 0
M  V30 13307 H 1291.46 -0.340649 4.37877 0
M  V30 13308 H 1292.07 1.29888 4.04981 0
M  V30 13309 N 1290.38 -1.37203 0.775435 0
M  V30 13310 C 1291.33 -2.32102 0.152051 0
M  V30 13311 C 1292.32 -1.55117 -0.680806 0
M  V30 13312 O 1293.53 -1.70486 -0.577455 0
M  V30 13313 H 1289.9 -0.751386 0.0303853 0
M  V30 13314 H 1291.88 -2.82259 0.968121 0
M  V30 13315 C 1290.62 -3.40378 -0.709788 0
M  V30 13316 H 1289.95 -3.99723 -0.0782879 0
M  V30 13317 H 1291.39 -4.09134 -1.11288 0
M  V30 13318 C 1289.85 -2.80769 -1.862 0
M  V30 13319 O 1290.38 -2.71813 -2.95771 0
M  V30 13320 N 1288.58 -2.38259 -1.66376 0
M  V30 13321 H 1288.13 -2.45743 -0.772531 0
M  V30 13322 H 1288.09 -1.98721 -2.43634 0
M  V30 13323 N 1291.86 -0.526279 -1.48553 0
M  V30 13324 C 1292.77 0.24244 -2.33344 0
M  V30 13325 C 1293.79 0.942658 -1.46253 0
M  V30 13326 O 1294.96 0.91844 -1.79239 0
M  V30 13327 C 1292.03 1.27801 -3.22285 0
M  V30 13328 C 1291.09 0.588543 -4.25247 0
M  V30 13329 C 1290.32 1.57478 -5.09938 0
M  V30 13330 O 1290.54 2.80707 -4.96548 0
M  V30 13331 O 1289.48 1.11621 -5.9146 0
M  V30 13332 H 1293.3 -0.452262 -3.00314 0
M  V30 13333 H 1290.89 -0.287249 -1.46613 0
M  V30 13334 H 1292.77 1.87656 -3.7731 0
M  V30 13335 H 1291.45 1.95519 -2.57981 0
M  V30 13336 H 1290.35 -0.0504022 -3.74066 0
M  V30 13337 H 1291.69 -0.046627 -4.92178 0
M  V30 13338 N 1293.34 1.5542 -0.261239 0
M  V30 13339 C 1294.27 2.19334 0.665214 0
M  V30 13340 C 1295.28 1.17388 1.128 0
M  V30 13341 O 1296.47 1.44183 1.0523 0
M  V30 13342 C 1293.57 2.79425 1.91768 0
M  V30 13343 C 1292.74 4.06929 1.60399 0
M  V30 13344 C 1291.8 4.51199 2.70751 0
M  V30 13345 O 1290.83 5.17272 2.37526 0
M  V30 13346 N 1292.03 4.20179 4.00537 0
M  V30 13347 H 1294.8 2.99467 0.118262 0
M  V30 13348 H 1292.36 1.61693 -0.0817727 0
M  V30 13349 H 1294.35 3.05992 2.64861 0
M  V30 13350 H 1292.92 2.03366 2.37405 0
M  V30 13351 H 1292.14 3.87798 0.707559 0
M  V30 13352 H 1293.43 4.9003 1.36924 0
M  V30 13353 H 1292.83 3.67164 4.30357 0
M  V30 13354 H 1291.38 4.51549 4.7005 0
M  V30 13355 N 1294.82 -0.0116844 1.57596 0
M  V30 13356 C 1296.23 -0.367602 1.55309 0
M  V30 13357 C 1296.43 -1.75524 0.98962 0
M  V30 13358 O 1295.49 -2.44813 0.618289 0
M  V30 13359 C 1296.8 -0.253532 2.99629 0
M  V30 13360 C 1298.35 -0.329335 3.11263 0
M  V30 13361 C 1298.82 -0.24452 4.57347 0
M  V30 13362 N 1300.31 -0.302782 4.62209 0
M  V30 13363 C 1301.05 -0.260315 5.72809 0
M  V30 13364 N 1300.55 -0.169124 6.92594 0
M  V30 13365 N 1302.34 -0.311323 5.61237 0
M  V30 13366 H 1294.49 0.896204 1.92567 0
M  V30 13367 H 1296.75 0.342445 0.883988 0
M  V30 13368 H 1296.46 0.70074 3.44648 0
M  V30 13369 H 1296.33 -1.04029 3.62571 0
M  V30 13370 H 1298.72 -1.27405 2.66181 0
M  V30 13371 H 1298.8 0.487084 2.5112 0
M  V30 13372 H 1298.44 0.696597 5.031 0
M  V30 13373 H 1298.37 -1.07927 5.15421 0
M  V30 13374 H 1300.87 -0.375067 3.76034 0
M  V30 13375 H 1301.18 -0.142296 7.72669 0
M  V30 13376 H 1299.52 -0.134919 6.94869 0
M  V30 13377 H 1302.71 -0.380678 4.6655 0
M  V30 13378 H 1302.89 -0.274761 6.47417 0
M  V30 13379 N 1296.29 -1.55015 -0.284256 0
M  V30 13380 C 1297.57 -1.6579 -1.03794 0
M  V30 13381 C 1297.95 -0.517029 -2.04671 0
M  V30 13382 O 1297.3 0.484287 -2.23309 0
M  V30 13383 C 1297.51 -3.04527 -1.70483 0
M  V30 13384 C 1298.86 -3.61903 -2.22062 0
M  V30 13385 O 1299.88 -3.07087 -1.80488 0
M  V30 13386 O 1298.74 -4.57917 -2.98286 0
M  V30 13387 H 1295.83 -0.672906 -0.480757 0
M  V30 13388 H 1298.38 -1.67357 -0.281009 0
M  V30 13389 H 1297.15 -3.79004 -0.973238 0
M  V30 13390 H 1296.77 -3.0681 -2.5289 0
M  V30 13391 N 1297.77 0.548248 -1.47757 0
M  V30 13392 C 1299.19 0.875048 -1.33473 0
M  V30 13393 C 1299.39 1.98747 -0.331952 0
M  V30 13394 O 1298.44 2.51226 0.253348 0
M  V30 13395 C 1299.76 1.25982 -2.73037 0
M  V30 13396 C 1301.3 1.37074 -2.81389 0
M  V30 13397 C 1301.78 1.78902 -4.21613 0
M  V30 13398 N 1303.27 1.86037 -4.24198 0
M  V30 13399 C 1304.01 2.1975 -5.2962 0
M  V30 13400 N 1303.5 2.52013 -6.45338 0
M  V30 13401 N 1305.29 2.206 -5.17003 0
M  V30 13402 H 1297.45 -0.186033 -2.11584 0
M  V30 13403 H 1299.71 -0.0205687 -0.947777 0
M  V30 13404 H 1299.41 0.516188 -3.47891 0
M  V30 13405 H 1299.29 2.21402 -3.05387 0
M  V30 13406 H 1301.68 2.10517 -2.06801 0
M  V30 13407 H 1301.76 0.398193 -2.52682 0
M  V30 13408 H 1301.4 1.06026 -4.9671 0
M  V30 13409 H 1301.33 2.77176 -4.47751 0
M  V30 13410 H 1303.82 1.63455 -3.40721 0
M  V30 13411 H 1304.13 2.7679 -7.21531 0
M  V30 13412 H 1302.48 2.49573 -6.48643 0
M  V30 13413 H 1305.67 1.9484 -4.25623 0
M  V30 13414 H 1305.84 2.46543 -5.99267 0
M  V30 13415 N 1299.25 1.36039 0.795694 0
M  V30 13416 C 1300.21 1.29709 1.88966 0
M  V30 13417 C 1301.21 0.206142 1.59473 0
M  V30 13418 O 1302.4 0.460534 1.68002 0
M  V30 13419 C 1299.53 1.00922 3.25619 0
M  V30 13420 H 1300.73 2.26993 1.95995 0
M  V30 13421 H 1298.28 1.2072 0.992791 0
M  V30 13422 H 1299.02 0.0407027 3.24274 0
M  V30 13423 H 1298.8 1.79863 3.48413 0
M  V30 13424 H 1300.29 0.990826 4.05675 0
M  V30 13425 N 1300.73 -1.01913 1.20215 0
M  V30 13426 C 1302.14 -1.5692 1.01159 0
M  V30 13427 C 1302.49 -1.91368 -0.432746 0
M  V30 13428 O 1301.62 -1.71959 -1.31374 0
M  V30 13429 C 1302.21 -2.85125 1.83001 0
M  V30 13430 C 1300.77 -3.36669 1.68318 0
M  V30 13431 C 1299.92 -2.10003 1.81091 0
M  V30 13432 H 1302.87 -0.843246 1.34443 0
M  V30 13433 H 1302.89 -3.56428 1.33188 0
M  V30 13434 H 1302.4 -2.60021 2.88116 0
M  V30 13435 H 1300.5 -3.66739 0.658292 0
M  V30 13436 H 1300.61 -4.09042 2.49442 0
M  V30 13437 H 1298.98 -2.22337 1.24252 0
M  V30 13438 H 1299.76 -1.87329 2.87685 0
M  V30 13439 N 1302.21 -1.00763 -1.2118 0
M  V30 13440 C 1303.14 -0.590493 -2.2591 0
M  V30 13441 C 1304.12 0.390002 -1.65569 0
M  V30 13442 O 1305.3 0.277406 -1.92208 0
M  V30 13443 C 1302.43 0.0810388 -3.47205 0
M  V30 13444 C 1301.39 -0.81951 -4.20081 0
M  V30 13445 C 1300.71 -0.014244 -5.34698 0
M  V30 13446 C 1302.01 -2.12336 -4.7719 0
M  V30 13447 H 1303.71 -1.46595 -2.61056 0
M  V30 13448 H 1301.25 -0.706321 -1.25487 0
M  V30 13449 H 1303.21 0.384355 -4.19644 0
M  V30 13450 H 1301.93 0.991145 -3.11197 0
M  V30 13451 H 1300.59 -1.10669 -3.49497 0
M  V30 13452 H 1300.24 0.897233 -4.94933 0
M  V30 13453 H 1299.94 -0.613883 -5.84384 0
M  V30 13454 H 1301.46 0.282827 -6.09945 0
M  V30 13455 H 1302.87 -1.88301 -5.41494 0
M  V30 13456 H 1301.27 -2.67308 -5.37277 0
M  V30 13457 H 1302.34 -2.79238 -3.96427 0
M  V30 13458 N 1303.68 1.3679 -0.7827 0
M  V30 13459 C 1304.61 2.32721 -0.190604 0
M  V30 13460 C 1305.6 1.56321 0.670663 0
M  V30 13461 O 1306.78 1.84507 0.605871 0
M  V30 13462 C 1303.91 3.40564 0.680717 0
M  V30 13463 C 1302.86 4.27925 -0.080118 0
M  V30 13464 C 1302.19 5.26876 0.911361 0
M  V30 13465 C 1303.49 5.06738 -1.26545 0
M  V30 13466 H 1305.18 2.82488 -0.992023 0
M  V30 13467 H 1302.73 1.35818 -0.478484 0
M  V30 13468 H 1304.68 4.06659 1.10482 0
M  V30 13469 H 1303.41 2.89348 1.51477 0
M  V30 13470 H 1302.07 3.63376 -0.485125 0
M  V30 13471 H 1301.71 4.71936 1.74026 0
M  V30 13472 H 1301.41 5.8619 0.406762 0
M  V30 13473 H 1302.94 5.95846 1.33418 0
M  V30 13474 H 1304.35 5.65911 -0.917448 0
M  V30 13475 H 1302.75 5.75432 -1.70289 0
M  V30 13476 H 1303.82 4.38772 -2.06415 0
M  V30 13477 N 1305.16 0.53415 1.48272 0
M  V30 13478 C 1306.41 0.00157492 2.028 0
M  V30 13479 C 1306.74 -1.33538 1.41001 0
M  V30 13480 O 1306.02 -1.86347 0.557245 0
M  V30 13481 C 1306.3 -0.116016 3.59913 0
M  V30 13482 C 1306.15 1.2464 4.32186 0
M  V30 13483 C 1307.47 -0.840775 4.31994 0
M  V30 13484 H 1304.59 0.00204634 0.736997 0
M  V30 13485 H 1307.23 0.691985 1.76951 0
M  V30 13486 H 1305.38 -0.704027 3.82068 0
M  V30 13487 H 1307.05 1.87584 4.21438 0
M  V30 13488 H 1305.3 1.8272 3.93441 0
M  V30 13489 H 1305.97 1.11708 5.40579 0
M  V30 13490 H 1308.44 -0.341746 4.14694 0
M  V30 13491 H 1307.32 -0.89196 5.41604 0
M  V30 13492 H 1307.58 -1.89197 3.99571 0
M  V30 13493 N 1306.64 -1.55279 0.269478 0
M  V30 13494 C 1307.89 -1.99767 -0.34943 0
M  V30 13495 C 1308.22 -1.15762 -1.55926 0
M  V30 13496 O 1307.49 -0.22633 -1.93179 0
M  V30 13497 C 1307.78 -3.52474 -0.73716 0
M  V30 13498 C 1307.63 -4.47236 0.479621 0
M  V30 13499 C 1308.95 -4.10924 -1.57573 0
M  V30 13500 H 1306.07 -0.72623 -0.125535 0
M  V30 13501 H 1308.71 -1.86257 0.375298 0
M  V30 13502 H 1306.86 -3.64118 -1.35464 0
M  V30 13503 H 1308.53 -4.47543 1.11816 0
M  V30 13504 H 1306.78 -4.19127 1.11871 0
M  V30 13505 H 1307.45 -5.51754 0.164653 0
M  V30 13506 H 1309.92 -4.02522 -1.05429 0
M  V30 13507 H 1308.8 -5.17995 -1.81584 0
M  V30 13508 H 1309.06 -3.60798 -2.55495 0
M  V30 13509 N 1308.12 0.00332656 -1.576 0
M  V30 13510 C 1309.35 0.699945 -1.94701 0
M  V30 13511 C 1309.76 1.67492 -0.871312 0
M  V30 13512 O 1309.12 1.81882 0.150054 0
M  V30 13513 C 1309.17 1.43471 -3.31811 0
M  V30 13514 O 1308.89 0.498835 -4.35251 0
M  V30 13515 C 1310.39 2.22614 -3.83351 0
M  V30 13516 H 1307.61 0.195158 -0.641993 0
M  V30 13517 H 1310.16 -0.0468044 -2.04446 0
M  V30 13518 H 1308.31 2.13311 -3.23384 0
M  V30 13519 H 1308.72 1.01688 -5.14548 0
M  V30 13520 H 1310.2 2.69527 -4.81725 0
M  V30 13521 H 1310.68 3.05146 -3.15883 0
M  V30 13522 H 1311.28 1.57796 -3.94944 0
M  V30 13523 N 1309.6 1.55164 0.276031 0
M  V30 13524 C 1310.56 1.87065 1.32436 0
M  V30 13525 C 1311.56 0.745024 1.42499 0
M  V30 13526 O 1312.75 1.01321 1.41702 0
M  V30 13527 C 1309.88 2.07322 2.70611 0
M  V30 13528 H 1311.07 2.80775 1.05382 0
M  V30 13529 H 1308.63 1.47609 0.513947 0
M  V30 13530 H 1309.36 1.15983 3.0285 0
M  V30 13531 H 1309.15 2.89275 2.64693 0
M  V30 13532 H 1310.64 2.33287 3.46362 0
M  V30 13533 N 1311.07 -0.540404 1.48045 0
M  V30 13534 C 1312.04 -1.62813 1.61322 0
M  V30 13535 C 1313.04 -1.53243 0.487161 0
M  V30 13536 O 1314.23 -1.571 0.752684 0
M  V30 13537 C 1311.36 -3.02408 1.5736 0
M  V30 13538 H 1312.55 -1.52385 2.583 0
M  V30 13539 H 1310.11 -0.761654 1.36486 0
M  V30 13540 H 1310.84 -3.18353 0.618195 0
M  V30 13541 H 1310.63 -3.10763 2.39099 0
M  V30 13542 H 1312.12 -3.8151 1.69822 0
M  V30 13543 N 1312.55 -1.36459 -0.788468 0
M  V30 13544 C 1313.8 -1.30483 -1.54333 0
M  V30 13545 C 1314.12 0.115266 -1.94659 0
M  V30 13546 O 1313.39 1.05573 -1.65019 0
M  V30 13547 H 1311.97 -0.480004 -0.572368 0
M  V30 13548 H 1314.63 -1.70765 -0.939428 0
M  V30 13549 H 1313.73 -1.93284 -2.45046 0
M  V30 13550 N 1314.03 1.01274 -1.20754 0
M  V30 13551 C 1315.45 1.27256 -0.963221 0
M  V30 13552 C 1315.65 1.98349 0.354972 0
M  V30 13553 O 1314.7 2.28116 1.08255 0
M  V30 13554 C 1316.02 2.1038 -2.14851 0
M  V30 13555 C 1317.56 2.23633 -2.18991 0
M  V30 13556 C 1318.04 3.10136 -3.37016 0
M  V30 13557 N 1319.53 3.17724 -3.37054 0
M  V30 13558 C 1320.26 3.84891 -4.25025 0
M  V30 13559 N 1319.76 4.54152 -5.23181 0
M  V30 13560 N 1321.55 3.81454 -4.12855 0
M  V30 13561 H 1313.7 0.535534 -2.05538 0
M  V30 13562 H 1315.97 0.299006 -0.899611 0
M  V30 13563 H 1315.67 1.65484 -3.10335 0
M  V30 13564 H 1315.55 3.11122 -2.13267 0
M  V30 13565 H 1317.93 2.67753 -1.24067 0
M  V30 13566 H 1318.02 1.22387 -2.24622 0
M  V30 13567 H 1317.66 2.66721 -4.32229 0
M  V30 13568 H 1317.59 4.11478 -3.28623 0
M  V30 13569 H 1320.08 2.68412 -2.66014 0
M  V30 13570 H 1320.39 5.03084 -5.86623 0
M  V30 13571 H 1318.74 4.52964 -5.27113 0
M  V30 13572 H 1321.93 3.26494 -3.35439 0
M  V30 13573 H 1322.1 4.33523 -4.81624 0
M  V30 13574 N 1315.51 1.01404 1.20644 0
M  V30 13575 C 1316.76 0.701909 1.89946 0
M  V30 13576 C 1317.08 -0.768212 1.78686 0
M  V30 13577 O 1316.34 -1.57348 1.16363 0
M  V30 13578 C 1316.64 1.07995 3.40693 0
M  V30 13579 C 1316.3 2.54585 3.72152 0
M  V30 13580 C 1314.97 2.94639 3.80449 0
M  V30 13581 C 1317.32 3.49497 3.86654 0
M  V30 13582 C 1314.65 4.2855 4.00702 0
M  V30 13583 C 1317 4.83093 4.08416 0
M  V30 13584 C 1315.66 5.22857 4.14942 0
M  V30 13585 H 1314.93 0.256847 0.695062 0
M  V30 13586 H 1317.58 1.27415 1.4296 0
M  V30 13587 H 1315.88 0.426089 3.89476 0
M  V30 13588 H 1317.58 0.816176 3.92606 0
M  V30 13589 H 1314.17 2.22548 3.66292 0
M  V30 13590 H 1318.36 3.19713 3.79602 0
M  V30 13591 H 1313.61 4.58916 4.03988 0
M  V30 13592 H 1317.79 5.56565 4.18579 0
M  V30 13593 H 1315.41 6.26634 4.30388 0
M  V30 13594 N 1316.99 -1.36373 0.789944 0
M  V30 13595 C 1318.26 -1.9349 0.286543 0
M  V30 13596 C 1318.64 -1.7218 -1.22136 0
M  V30 13597 O 1317.99 -1.08106 -2.01309 0
M  V30 13598 C 1318.2 -3.42316 0.679749 0
M  V30 13599 C 1319.55 -4.19442 0.659791 0
M  V30 13600 O 1320.57 -3.50758 0.620256 0
M  V30 13601 O 1319.43 -5.41957 0.703159 0
M  V30 13602 H 1316.53 -0.823942 0.0710537 0
M  V30 13603 H 1319.07 -1.45551 0.872523 0
M  V30 13604 H 1317.85 -3.51485 1.7197 0
M  V30 13605 H 1317.47 -3.97542 0.0676823 0
M  V30 13606 N 1318.47 -0.542005 -1.47987 0
M  V30 13607 C 1319.69 -0.0146835 -2.07395 0
M  V30 13608 C 1320.12 1.26266 -1.39422 0
M  V30 13609 O 1319.47 1.75259 -0.464118 0
M  V30 13610 C 1319.52 0.179937 -3.60151 0
M  V30 13611 O 1318.63 1.24596 -3.93128 0
M  V30 13612 H 1317.97 -0.0445076 -0.662507 0
M  V30 13613 H 1320.5 -0.753352 -1.90226 0
M  V30 13614 H 1320.51 0.398876 -4.06046 0
M  V30 13615 H 1319.18 -0.753093 -4.09025 0
M  V30 13616 H 1317.76 1.00872 -3.58997 0
M  V30 13617 N 1319.94 1.55134 -0.277709 0
M  V30 13618 C 1321.36 1.59417 0.0763615 0
M  V30 13619 C 1321.56 1.29491 1.54384 0
M  V30 13620 O 1320.62 1.05703 2.2931 0
M  V30 13621 C 1321.93 2.99194 -0.300607 0
M  V30 13622 C 1323.48 3.1202 -0.247438 0
M  V30 13623 C 1323.95 4.54068 -0.598884 0
M  V30 13624 N 1325.44 4.59917 -0.550534 0
M  V30 13625 C 1326.18 5.67859 -0.795235 0
M  V30 13626 N 1325.67 6.83936 -1.10469 0
M  V30 13627 N 1327.47 5.5742 -0.723859 0
M  V30 13628 H 1319.62 1.72851 -1.23435 0
M  V30 13629 H 1321.88 0.806137 -0.498846 0
M  V30 13630 H 1321.59 3.25937 -1.32129 0
M  V30 13631 H 1321.46 3.75504 0.35729 0
M  V30 13632 H 1323.85 2.8504 0.763959 0
M  V30 13633 H 1323.93 2.37917 -0.939629 0
M  V30 13634 H 1323.57 4.81774 -1.60798 0
M  V30 13635 H 1323.5 5.26474 0.115126 0
M  V30 13636 H 1325.99 3.76531 -0.321341 0
M  V30 13637 H 1326.31 7.62159 -1.278 0
M  V30 13638 H 1324.65 6.85545 -1.14249 0
M  V30 13639 H 1327.84 4.65613 -0.481925 0
M  V30 13640 H 1328.02 6.41465 -0.917944 0
M  V30 13641 N 1321.42 0.00503138 1.57599 0
M  V30 13642 C 1322.33 -1.00097 2.12174 0
M  V30 13643 C 1323.35 -1.37353 1.06818 0
M  V30 13644 O 1324.52 -1.45984 1.38747 0
M  V30 13645 C 1321.59 -2.27252 2.61835 0
M  V30 13646 C 1320.65 -1.96262 3.81811 0
M  V30 13647 C 1319.88 -3.17355 4.29094 0
M  V30 13648 O 1320.11 -4.2921 3.75679 0
M  V30 13649 O 1319.04 -3.01059 5.21198 0
M  V30 13650 H 1322.87 -0.567024 2.9836 0
M  V30 13651 H 1320.45 -0.214109 1.47858 0
M  V30 13652 H 1322.33 -3.01944 2.93952 0
M  V30 13653 H 1321.01 -2.69875 1.78744 0
M  V30 13654 H 1319.91 -1.19031 3.54658 0
M  V30 13655 H 1321.25 -1.58473 4.65991 0
M  V30 13656 N 1322.9 -1.55308 -0.267798 0
M  V30 13657 C 1324.15 -1.7642 -1.00019 0
M  V30 13658 C 1324.48 -0.566559 -1.85752 0
M  V30 13659 O 1323.75 0.435752 -1.89556 0
M  V30 13660 C 1324.04 -3.07229 -1.87836 0
M  V30 13661 C 1323.89 -4.37358 -1.05061 0
M  V30 13662 C 1325.21 -3.34113 -2.86455 0
M  V30 13663 H 1322.33 -0.641859 -0.362197 0
M  V30 13664 H 1324.97 -1.8804 -0.272188 0
M  V30 13665 H 1323.12 -2.97454 -2.49907 0
M  V30 13666 H 1324.79 -4.59098 -0.450208 0
M  V30 13667 H 1323.03 -4.32351 -0.354242 0
M  V30 13668 H 1323.71 -5.25223 -1.69838 0
M  V30 13669 H 1326.18 -3.43715 -2.34519 0
M  V30 13670 H 1325.06 -4.26896 -3.45038 0
M  V30 13671 H 1325.32 -2.54005 -3.61848 0
M  V30 13672 N 1324.38 0.532545 -1.4833 0
M  V30 13673 C 1325.79 0.860843 -1.34394 0
M  V30 13674 C 1325.99 1.98384 -0.353013 0
M  V30 13675 O 1325.05 2.5148 0.226688 0
M  V30 13676 C 1326.36 1.23079 -2.74358 0
M  V30 13677 C 1327.91 1.34082 -2.82827 0
M  V30 13678 C 1328.39 1.74421 -4.23487 0
M  V30 13679 N 1329.88 1.81528 -4.26148 0
M  V30 13680 C 1330.61 2.1412 -5.31921 0
M  V30 13681 N 1330.11 2.45154 -6.47975 0
M  V30 13682 N 1331.9 2.15104 -5.19314 0
M  V30 13683 H 1324.05 -0.208464 -2.11375 0
M  V30 13684 H 1326.31 -0.03062 -0.947505 0
M  V30 13685 H 1326.02 0.47926 -3.48419 0
M  V30 13686 H 1325.89 2.18151 -3.07718 0
M  V30 13687 H 1328.28 2.08311 -2.09022 0
M  V30 13688 H 1328.36 0.37137 -2.5309 0
M  V30 13689 H 1328.01 1.00752 -4.97807 0
M  V30 13690 H 1327.94 2.72411 -4.50666 0
M  V30 13691 H 1330.43 1.59832 -3.42436 0
M  V30 13692 H 1330.74 2.69121 -7.24426 0
M  V30 13693 H 1329.09 2.42679 -6.51254 0
M  V30 13694 H 1332.28 1.90315 -4.27666 0
M  V30 13695 H 1332.45 2.40173 -6.01848 0
M  V30 13696 N 1325.86 1.36875 0.78122 0
M  V30 13697 C 1326.79 1.34559 1.9083 0
M  V30 13698 C 1327.77 0.215713 1.68727 0
M  V30 13699 O 1328.95 0.41462 1.89722 0
M  V30 13700 C 1326.08 1.14233 3.27976 0
M  V30 13701 C 1325.04 2.24132 3.64621 0
M  V30 13702 C 1324.36 1.8894 5.00206 0
M  V30 13703 C 1325.66 3.66266 3.72353 0
M  V30 13704 H 1327.36 2.28871 1.93025 0
M  V30 13705 H 1324.9 1.10171 0.927275 0
M  V30 13706 H 1326.85 1.11246 4.06451 0
M  V30 13707 H 1325.58 0.163747 3.26189 0
M  V30 13708 H 1324.24 2.26259 2.88448 0
M  V30 13709 H 1323.89 0.896351 4.94949 0
M  V30 13710 H 1323.59 2.62525 5.25694 0
M  V30 13711 H 1325.11 1.87523 5.81092 0
M  V30 13712 H 1326.52 3.66321 4.41001 0
M  V30 13713 H 1324.92 4.38825 4.09332 0
M  V30 13714 H 1325.99 4.00578 2.7325 0
M  V30 13715 N 1327.33 -1.00632 1.21289 0
M  V30 13716 C 1328.27 -2.0954 0.928753 0
M  V30 13717 C 1329.28 -1.62565 -0.0875212 0
M  V30 13718 O 1330.47 -1.77912 0.144808 0
M  V30 13719 C 1327.57 -3.36844 0.37276 0
M  V30 13720 C 1326.74 -4.1291 1.44305 0
M  V30 13721 C 1325.8 -5.18506 0.896534 0
M  V30 13722 O 1324.83 -5.46841 1.57966 0
M  V30 13723 N 1326.03 -5.79781 -0.288888 0
M  V30 13724 H 1328.79 -2.34499 1.86629 0
M  V30 13725 H 1326.35 -1.17104 1.11796 0
M  V30 13726 H 1328.35 -4.04699 -0.00722737 0
M  V30 13727 H 1326.92 -3.09053 -0.469572 0
M  V30 13728 H 1326.14 -3.39876 1.99694 0
M  V30 13729 H 1327.42 -4.60508 2.16356 0
M  V30 13730 H 1326.82 -5.5911 -0.860951 0
M  V30 13731 H 1325.38 -6.48936 -0.6104 0
M  V30 13732 N 1328.81 -1.02043 -1.20104 0
M  V30 13733 C 1330.06 -0.722748 -1.90126 0
M  V30 13734 C 1330.41 0.739891 -1.77605 0
M  V30 13735 O 1329.71 1.531 -1.152 0
M  V30 13736 C 1329.9 -1.098 -3.40116 0
M  V30 13737 C 1329.73 -2.59558 -3.67233 0
M  V30 13738 C 1328.5 -3.264 -3.85735 0
M  V30 13739 C 1330.7 -3.57753 -3.69483 0
M  V30 13740 N 1328.68 -4.65348 -4.00406 0
M  V30 13741 C 1330.05 -4.8228 -3.89623 0
M  V30 13742 C 1332.1 -3.51671 -3.52465 0
M  V30 13743 C 1330.81 -6.0146 -3.9451 0
M  V30 13744 C 1332.83 -4.70257 -3.58625 0
M  V30 13745 C 1332.2 -5.93595 -3.79242 0
M  V30 13746 H 1328.29 -0.316203 -0.71522 0
M  V30 13747 H 1330.88 -1.30602 -1.44399 0
M  V30 13748 H 1329.05 -0.543026 -3.84585 0
M  V30 13749 H 1330.78 -0.753461 -3.97624 0
M  V30 13750 H 1327.54 -2.76822 -3.84274 0
M  V30 13751 H 1327.96 -5.37501 -4.11609 0
M  V30 13752 H 1332.6 -2.57308 -3.35488 0
M  V30 13753 H 1330.32 -6.962 -4.10281 0
M  V30 13754 H 1333.91 -4.67171 -3.4676 0
M  V30 13755 H 1332.79 -6.83821 -3.83872 0
M  V30 13756 N 1330.29 1.35952 -0.797165 0
M  V30 13757 C 1331.25 2.28266 -0.206748 0
M  V30 13758 C 1332.25 1.49169 0.60043 0
M  V30 13759 O 1333.44 1.69054 0.42029 0
M  V30 13760 C 1330.58 3.33363 0.712884 0
M  V30 13761 H 1331.77 2.81992 -1.02082 0
M  V30 13762 H 1329.32 1.45648 -0.567138 0
M  V30 13763 H 1330.06 2.84806 1.551 0
M  V30 13764 H 1329.84 3.91864 0.135926 0
M  V30 13765 H 1331.33 4.02284 1.1206 0
M  V30 13766 N 1331.77 0.549846 1.47697 0
M  V30 13767 C 1333 0.0276889 2.06881 0
M  V30 13768 C 1333.41 -1.26273 1.40359 0
M  V30 13769 O 1332.77 -1.75584 0.497644 0
M  V30 13770 C 1332.82 -0.179291 3.61055 0
M  V30 13771 O 1332.54 1.06002 4.25083 0
M  V30 13772 C 1334.04 -0.739571 4.37087 0
M  V30 13773 H 1331.26 0.0425016 0.669653 0
M  V30 13774 H 1333.81 0.761158 1.89807 0
M  V30 13775 H 1331.96 -0.862867 3.77668 0
M  V30 13776 H 1332.37 0.853137 5.17515 0
M  V30 13777 H 1333.85 -0.833722 5.45668 0
M  V30 13778 H 1334.33 -1.74915 4.02867 0
M  V30 13779 H 1334.93 -0.0919294 4.25201 0
M  V30 13780 N 1333.25 -1.54984 0.285932 0
M  V30 13781 C 1334.52 -1.91872 -0.380083 0
M  V30 13782 C 1334.9 -1.21146 -1.72878 0
M  V30 13783 O 1334.25 -0.341999 -2.25926 0
M  V30 13784 C 1334.46 -3.45258 -0.509667 0
M  V30 13785 C 1335.81 -4.17232 -0.787549 0
M  V30 13786 O 1336.83 -3.51211 -0.594062 0
M  V30 13787 O 1335.69 -5.34085 -1.15826 0
M  V30 13788 H 1332.79 -0.799931 -0.209856 0
M  V30 13789 H 1335.33 -1.66403 0.332882 0
M  V30 13790 H 1334.1 -3.88829 0.439049 0
M  V30 13791 H 1333.73 -3.76715 -1.27168 0
M  V30 13792 N 1334.72 -0.0133892 -1.57594 0
M  V30 13793 C 1335.63 0.989701 -2.12702 0
M  V30 13794 C 1336.65 1.36785 -1.07545 0
M  V30 13795 O 1337.83 1.45246 -1.39519 0
M  V30 13796 C 1334.89 2.2586 -2.63036 0
M  V30 13797 C 1333.95 1.94234 -3.82847 0
M  V30 13798 C 1333.19 3.15075 -4.30771 0
M  V30 13799 O 1333.41 4.27212 -3.7795 0
M  V30 13800 O 1332.34 2.98291 -5.22787 0
M  V30 13801 H 1336.17 0.551194 -2.98656 0
M  V30 13802 H 1333.75 0.206264 -1.47969 0
M  V30 13803 H 1335.64 3.0038 -2.9555 0
M  V30 13804 H 1334.31 2.68923 -1.80173 0
M  V30 13805 H 1333.22 1.17148 -3.55285 0
M  V30 13806 H 1334.55 1.55999 -4.66824 0
M  V30 13807 N 1336.2 1.55448 0.259558 0
M  V30 13808 C 1337.13 1.85678 1.34373 0
M  V30 13809 C 1338.15 0.742155 1.449 0
M  V30 13810 O 1339.34 1.02015 1.46476 0
M  V30 13811 C 1336.44 2.01668 2.72366 0
M  V30 13812 C 1335.61 3.32434 2.84265 0
M  V30 13813 C 1334.67 3.38322 4.03019 0
M  V30 13814 O 1333.69 4.11616 3.93143 0
M  V30 13815 N 1334.9 2.66697 5.1561 0
M  V30 13816 H 1337.66 2.79261 1.08781 0
M  V30 13817 H 1335.22 1.5553 0.449672 0
M  V30 13818 H 1337.21 2.02963 3.50126 0
M  V30 13819 H 1335.78 1.14889 2.90722 0
M  V30 13820 H 1335 3.43564 1.93281 0
M  V30 13821 H 1336.29 4.18649 2.89155 0
M  V30 13822 H 1335.69 2.06857 5.26523 0
M  V30 13823 H 1334.25 2.73699 5.91551 0
M  V30 13824 N 1337.68 -0.524672 1.4861 0
M  V30 13825 C 1338.64 -1.61092 1.63039 0
M  V30 13826 C 1339.64 -1.52718 0.503387 0
M  V30 13827 O 1340.83 -1.56293 0.769304 0
M  V30 13828 C 1337.97 -3.00722 1.60558 0
M  V30 13829 H 1339.16 -1.49636 2.59902 0
M  V30 13830 H 1336.71 -0.747135 1.37287 0
M  V30 13831 H 1337.45 -3.1768 0.651926 0
M  V30 13832 H 1337.23 -3.0821 2.42382 0
M  V30 13833 H 1338.72 -3.79688 1.73859 0
M  V30 13834 N 1339.16 -1.37287 -0.77395 0
M  V30 13835 C 1340.12 -1.32699 -1.86878 0
M  V30 13836 C 1341.12 -0.231486 -1.59125 0
M  V30 13837 O 1342.31 -0.487203 -1.67248 0
M  V30 13838 C 1339.44 -1.0609 -3.23972 0
M  V30 13839 H 1340.64 -2.30083 -1.92359 0
M  V30 13840 H 1338.19 -1.22284 -0.973459 0
M  V30 13841 H 1338.92 -0.0922868 -3.24169 0
M  V30 13842 H 1338.71 -1.85383 -3.45508 0
M  V30 13843 H 1340.2 -1.05524 -4.04048 0
M  V30 13844 N 1340.64 0.999871 -1.21821 0
M  V30 13845 C 1341.6 2.07024 -0.983541 0
M  V30 13846 C 1342.6 1.6073 0.0474011 0
M  V30 13847 O 1343.79 1.73156 -0.190398 0
M  V30 13848 C 1340.92 3.37444 -0.484199 0
M  V30 13849 H 1342.11 2.29276 -1.9332 0
M  V30 13850 H 1339.67 1.1704 -1.03592 0
M  V30 13851 H 1340.4 3.20874 0.470138 0
M  V30 13852 H 1340.19 3.72378 -1.2279 0
M  V30 13853 H 1341.68 4.16213 -0.34004 0
M  V30 13854 N 1342.11 1.02678 1.19562 0
M  V30 13855 C 1343.36 0.72059 1.88817 0
M  V30 13856 C 1343.68 -0.752942 1.79877 0
M  V30 13857 O 1342.95 -1.54233 1.20785 0
M  V30 13858 H 1341.53 0.26355 0.698964 0
M  V30 13859 H 1344.2 1.30056 1.4516 0
M  V30 13860 H 1343.29 1.01303 2.95202 0
M  V30 13861 N 1343.59 -1.35528 0.804364 0
M  V30 13862 C 1344.54 -2.27241 0.18591 0
M  V30 13863 C 1345.53 -1.47669 -0.638956 0
M  V30 13864 O 1346.72 -1.69891 -0.496578 0
M  V30 13865 C 1343.85 -3.36769 -0.666446 0
M  V30 13866 C 1342.93 -4.23767 0.168027 0
M  V30 13867 N 1343.32 -4.90618 1.22994 0
M  V30 13868 C 1341.62 -4.45971 -0.0507088 0
M  V30 13869 C 1342.32 -5.55092 1.7392 0
M  V30 13870 N 1341.3 -5.33441 1.04601 0
M  V30 13871 H 1345.1 -2.7642 0.998467 0
M  V30 13872 H 1342.62 -1.49029 0.645301 0
M  V30 13873 H 1344.61 -4.01419 -1.12554 0
M  V30 13874 H 1343.27 -2.89143 -1.47738 0
M  V30 13875 H 1344.28 -4.92155 1.61256 0
M  V30 13876 H 1340.96 -4.09147 -0.830958 0
M  V30 13877 H 1342.35 -6.18434 2.62659 0
M  V30 13878 N 1345.07 -0.557671 -1.47404 0
M  V30 13879 C 1346.02 0.210176 -2.27029 0
M  V30 13880 C 1347.01 0.884882 -1.34382 0
M  V30 13881 O 1348.2 0.783112 -1.58734 0
M  V30 13882 C 1345.33 1.23923 -3.20153 0
M  V30 13883 C 1344.41 0.567913 -4.2028 0
M  V30 13884 N 1344.8 -0.362279 -5.04501 0
M  V30 13885 C 1343.1 0.821776 -4.38364 0
M  V30 13886 C 1343.8 -0.752273 -5.76815 0
M  V30 13887 N 1342.78 -0.107008 -5.43495 0
M  V30 13888 H 1346.58 -0.505007 -2.89529 0
M  V30 13889 H 1344.09 -0.377642 -1.57948 0
M  V30 13890 H 1346.09 1.80328 -3.75882 0
M  V30 13891 H 1344.75 1.9555 -2.59211 0
M  V30 13892 H 1345.76 -0.736468 -5.12637 0
M  V30 13893 H 1342.44 1.52652 -3.88592 0
M  V30 13894 H 1343.83 -1.51664 -6.54559 0
M  V30 13895 N 1346.55 1.54831 -0.294147 0
M  V30 13896 C 1347.8 1.99606 0.316509 0
M  V30 13897 C 1348.12 1.18405 1.54936 0
M  V30 13898 O 1347.39 0.278289 1.93913 0
M  V30 13899 H 1345.97 0.737309 0.119938 0
M  V30 13900 H 1348.63 1.90669 -0.403891 0
M  V30 13901 H 1347.73 3.06409 0.593282 0
M  V30 13902 N 1348.03 0.0217466 1.57585 0
M  V30 13903 C 1349.28 -0.657187 1.91116 0
M  V30 13904 C 1349.6 -1.7309 0.898039 0
M  V30 13905 O 1348.87 -1.95803 -0.0615116 0
M  V30 13906 H 1347.45 -0.245732 0.705425 0
M  V30 13907 H 1350.11 0.0678096 1.94782 0
M  V30 13908 H 1349.2 -1.11462 2.91518 0
M  V30 13909 N 1349.51 -1.55583 -0.251311 0
M  V30 13910 C 1350.73 -1.81597 -1.00186 0
M  V30 13911 C 1351.16 -0.598216 -1.78334 0
M  V30 13912 O 1350.51 0.452667 -1.75558 0
M  V30 13913 C 1350.56 -3.05301 -1.91895 0
M  V30 13914 O 1349.67 -2.81907 -3.01002 0
M  V30 13915 H 1349.01 -0.599578 -0.285311 0
M  V30 13916 H 1351.54 -2.02762 -0.273638 0
M  V30 13917 H 1351.55 -3.34616 -2.33444 0
M  V30 13918 H 1350.22 -3.93574 -1.34433 0
M  V30 13919 H 1348.8 -2.63747 -2.63613 0
M  V30 13920 N 1350.98 0.516783 -1.48886 0
M  V30 13921 C 1351.92 1.63715 -1.58974 0
M  V30 13922 C 1352.89 1.56547 -0.439513 0
M  V30 13923 O 1354.08 1.76831 -0.652924 0
M  V30 13924 C 1351.21 3.02172 -1.53002 0
M  V30 13925 C 1350.25 3.27655 -2.73029 0
M  V30 13926 S 1351.08 3.12489 -4.34869 0
M  V30 13927 C 1352.24 4.53369 -4.31517 0
M  V30 13928 H 1352.47 1.5491 -2.53752 0
M  V30 13929 H 1350.01 0.700754 -1.37582 0
M  V30 13930 H 1351.96 3.82017 -1.50243 0
M  V30 13931 H 1350.63 3.08405 -0.59539 0
M  V30 13932 H 1349.82 4.28693 -2.65026 0
M  V30 13933 H 1349.42 2.55504 -2.73119 0
M  V30 13934 H 1351.71 5.45151 -4.02264 0
M  V30 13935 H 1352.66 4.66425 -5.32779 0
M  V30 13936 H 1353.06 4.3331 -3.61804 0
M  V30 13937 N 1352.46 1.37696 0.766659 0
M  V30 13938 C 1353.37 1.36075 1.91104 0
M  V30 13939 C 1354.39 0.259617 1.72052 0
M  V30 13940 O 1355.56 0.49586 1.952 0
M  V30 13941 C 1352.63 1.17176 3.26298 0
M  V30 13942 C 1351.69 2.36975 3.57968 0
M  V30 13943 C 1350.92 2.18968 4.86712 0
M  V30 13944 O 1351.15 1.17658 5.58133 0
M  V30 13945 O 1350.08 3.07269 5.17561 0
M  V30 13946 H 1353.91 2.32472 1.95424 0
M  V30 13947 H 1351.49 1.18478 0.910122 0
M  V30 13948 H 1353.37 1.08645 4.07154 0
M  V30 13949 H 1352.05 0.238559 3.2282 0
M  V30 13950 H 1350.95 2.51079 2.77327 0
M  V30 13951 H 1352.29 3.2888 3.66195 0
M  V30 13952 N 1353.94 -0.993397 1.22349 0
M  V30 13953 C 1355.19 -1.73287 1.04775 0
M  V30 13954 C 1355.51 -1.89973 -0.417201 0
M  V30 13955 O 1354.77 -1.43966 -1.32561 0
M  V30 13956 C 1355.07 -3.14191 1.70349 0
M  V30 13957 C 1354.73 -3.17421 3.20241 0
M  V30 13958 C 1353.4 -3.1801 3.61141 0
M  V30 13959 C 1355.75 -3.13751 4.16185 0
M  V30 13960 C 1353.08 -3.12628 4.96468 0
M  V30 13961 C 1355.43 -3.09911 5.51487 0
M  V30 13962 C 1354.09 -3.08815 5.91768 0
M  V30 13963 H 1353.36 -0.634102 0.3834 0
M  V30 13964 H 1356.01 -1.16346 1.52105 0
M  V30 13965 H 1354.31 -3.74437 1.15343 0
M  V30 13966 H 1356.01 -3.70149 1.54242 0
M  V30 13967 H 1352.6 -3.17713 2.87674 0
M  V30 13968 H 1356.79 -3.12446 3.85605 0
M  V30 13969 H 1352.04 -3.10125 5.26909 0
M  V30 13970 H 1356.22 -3.06026 6.25556 0
M  V30 13971 H 1353.84 -3.044 6.96595 0
M  V30 13972 N 1355.42 -1.03311 -1.19015 0
M  V30 13973 C 1356.38 -0.622114 -2.20596 0
M  V30 13974 C 1357.38 0.316502 -1.57654 0
M  V30 13975 O 1358.57 0.102932 -1.73896 0
M  V30 13976 C 1355.7 0.0890432 -3.40784 0
M  V30 13977 H 1356.9 -1.52095 -2.58471 0
M  V30 13978 H 1354.45 -0.824777 -1.32767 0
M  V30 13979 H 1355.18 1.00203 -3.08431 0
M  V30 13980 H 1354.97 -0.58547 -3.87704 0
M  V30 13981 H 1356.46 0.363366 -4.16016 0
M  V30 13982 N 1356.9 1.35099 -0.81154 0
M  V30 13983 C 1358.17 1.93009 -0.317289 0
M  V30 13984 C 1358.55 1.74101 1.19382 0
M  V30 13985 O 1357.9 1.11295 1.99564 0
M  V30 13986 C 1358.11 3.41191 -0.734123 0
M  V30 13987 C 1359.46 4.1834 -0.726437 0
M  V30 13988 O 1360.48 3.49727 -0.67598 0
M  V30 13989 O 1359.34 5.4077 -0.789291 0
M  V30 13990 H 1356.44 0.822707 -0.084153 0
M  V30 13991 H 1358.98 1.44145 -0.895569 0
M  V30 13992 H 1357.75 3.48705 -1.7754 0
M  V30 13993 H 1357.38 3.97384 -0.130919 0
M  V30 13994 N 1358.37 0.56548 1.47106 0
M  V30 13995 C 1359.62 0.0445914 2.02751 0
M  V30 13996 C 1359.95 -1.30517 1.43801 0
M  V30 13997 O 1359.23 -1.85123 0.596646 0
M  V30 13998 C 1359.51 -0.0396474 3.60078 0
M  V30 13999 C 1359.36 1.3378 4.29445 0
M  V30 14000 C 1360.68 -0.748954 4.3368 0
M  V30 14001 H 1357.8 0.0176787 0.736788 0
M  V30 14002 H 1360.44 0.729363 1.75443 0
M  V30 14003 H 1358.59 -0.622826 3.83475 0
M  V30 14004 H 1360.27 1.96482 4.17364 0
M  V30 14005 H 1358.51 1.91024 3.89477 0
M  V30 14006 H 1359.18 1.23149 5.38088 0
M  V30 14007 H 1361.66 -0.253707 4.15326 0
M  V30 14008 H 1360.53 -0.776877 5.43374 0
M  V30 14009 H 1360.79 -1.80679 4.03494 0
M  V30 14010 N 1359.85 -1.54672 0.302354 0
M  V30 14011 C 1361.1 -1.99771 -0.305919 0
M  V30 14012 C 1361.42 -1.19225 -1.54306 0
M  V30 14013 O 1360.69 -0.288569 -1.93763 0
M  V30 14014 H 1359.27 -0.737934 -0.116026 0
M  V30 14015 H 1361.93 -1.90452 0.413997 0
M  V30 14016 H 1361.03 -3.06719 -0.577024 0
M  V30 14017 N 1361.33 -0.0301034 -1.57571 0
M  V30 14018 C 1362.29 0.936465 -2.09196 0
M  V30 14019 C 1363.29 1.25347 -1.00722 0
M  V30 14020 O 1364.48 1.19364 -1.26877 0
M  V30 14021 C 1361.62 2.2527 -2.55864 0
M  V30 14022 H 1362.81 0.489332 -2.95881 0
M  V30 14023 H 1360.36 0.217948 -1.54773 0
M  V30 14024 H 1361.1 2.7461 -1.72511 0
M  V30 14025 H 1360.88 2.03573 -3.35113 0
M  V30 14026 H 1362.37 2.94549 -2.96025 0
M  V30 14027 N 1362.81 1.55714 0.243056 0
M  V30 14028 C 1363.77 1.89832 1.28438 0
M  V30 14029 C 1364.77 0.775083 1.40887 0
M  V30 14030 O 1365.96 1.04304 1.39521 0
M  V30 14031 C 1363.09 2.13016 2.66153 0
M  V30 14032 H 1364.29 2.82947 0.994022 0
M  V30 14033 H 1361.84 1.48665 0.482521 0
M  V30 14034 H 1362.57 1.22381 3.00322 0
M  V30 14035 H 1362.36 2.94824 2.58498 0
M  V30 14036 H 1363.85 2.40581 3.41336 0
M  V30 14037 N 1364.29 -0.50888 1.49158 0
M  V30 14038 C 1365.7 -1.09054 1.51539 0
M  V30 14039 C 1366.05 -1.93938 0.297099 0
M  V30 14040 O 1365.17 -2.08092 -0.593849 0
M  V30 14041 C 1365.77 -1.98447 2.74599 0
M  V30 14042 C 1364.33 -2.5179 2.79783 0
M  V30 14043 C 1363.47 -1.29227 2.45348 0
M  V30 14044 H 1366.43 -0.293148 1.55969 0
M  V30 14045 H 1366.45 -2.83028 2.54314 0
M  V30 14046 H 1365.96 -1.3664 3.63251 0
M  V30 14047 H 1364.06 -3.17258 1.95392 0
M  V30 14048 H 1364.17 -2.89481 3.81756 0
M  V30 14049 H 1362.54 -1.61494 1.96957 0
M  V30 14050 H 1363.32 -0.6914 3.36266 0
M  V30 14051 N 1365.76 -1.381 -0.759346 0
M  V30 14052 C 1366.73 -1.34674 -1.8546 0
M  V30 14053 C 1367.73 -0.248351 -1.58871 0
M  V30 14054 O 1368.92 -0.504915 -1.66722 0
M  V30 14055 C 1366.05 -1.0952 -3.22828 0
M  V30 14056 H 1367.24 -2.3211 -1.89908 0
M  V30 14057 H 1364.8 -1.2331 -0.960435 0
M  V30 14058 H 1365.53 -0.126664 -3.24053 0
M  V30 14059 H 1365.32 -1.89037 -3.43522 0
M  V30 14060 H 1366.81 -1.09804 -4.02906 0
M  V30 14061 N 1367.24 0.986894 -1.22875 0
M  V30 14062 C 1368.49 1.73071 -1.06856 0
M  V30 14063 C 1368.84 1.88376 0.39143 0
M  V30 14064 O 1368.14 1.42022 1.28609 0
M  V30 14065 C 1368.33 3.13283 -1.72012 0
M  V30 14066 C 1368.16 3.11652 -3.24196 0
M  V30 14067 C 1366.93 3.17207 -3.93329 0
M  V30 14068 C 1369.13 2.9533 -4.21052 0
M  V30 14069 N 1367.11 3.05393 -5.32549 0
M  V30 14070 C 1368.48 2.91609 -5.47142 0
M  V30 14071 C 1370.54 2.79766 -4.11868 0
M  V30 14072 C 1369.24 2.73917 -6.65103 0
M  V30 14073 C 1371.26 2.63437 -5.29486 0
M  V30 14074 C 1370.63 2.60408 -6.54498 0
M  V30 14075 H 1366.73 0.642696 -0.445495 0
M  V30 14076 H 1369.31 1.17158 -1.55506 0
M  V30 14077 H 1367.48 3.67427 -1.25904 0
M  V30 14078 H 1369.21 3.76261 -1.4903 0
M  V30 14079 H 1365.97 3.25129 -3.44366 0
M  V30 14080 H 1366.39 3.02779 -6.0552 0
M  V30 14081 H 1371.03 2.80903 -3.15996 0
M  V30 14082 H 1368.75 2.71526 -7.61117 0
M  V30 14083 H 1372.34 2.52367 -5.24216 0
M  V30 14084 H 1371.22 2.47928 -7.43977 0
M  V30 14085 N 1368.72 1.0394 1.18466 0
M  V30 14086 C 1370.14 0.758404 1.40429 0
M  V30 14087 C 1370.34 -0.652603 1.90639 0
M  V30 14088 O 1369.39 -1.417 2.08991 0
M  V30 14089 C 1370.71 1.80343 2.40618 0
M  V30 14090 C 1372.25 1.82419 2.54347 0
M  V30 14091 C 1372.73 2.8591 3.57798 0
M  V30 14092 N 1374.22 2.84793 3.65304 0
M  V30 14093 C 1374.95 3.61521 4.45073 0
M  V30 14094 N 1374.45 4.47997 5.28461 0
M  V30 14095 N 1376.24 3.50016 4.39824 0
M  V30 14096 H 1368.39 1.94998 0.842 0
M  V30 14097 H 1370.66 0.843649 0.43239 0
M  V30 14098 H 1370.36 2.81547 2.10771 0
M  V30 14099 H 1370.24 1.63451 3.39947 0
M  V30 14100 H 1372.62 0.818872 2.83511 0
M  V30 14101 H 1372.71 2.03388 1.55136 0
M  V30 14102 H 1372.35 3.8662 3.29375 0
M  V30 14103 H 1372.28 2.62196 4.56684 0
M  V30 14104 H 1374.77 2.22082 3.05758 0
M  V30 14105 H 1375.08 5.03257 5.86475 0
M  V30 14106 H 1373.43 4.52065 5.27885 0
M  V30 14107 H 1376.62 2.81862 3.73726 0
M  V30 14108 H 1376.79 4.10063 5.0175 0
M  V30 14109 N 1370.2 -1.34667 0.818693 0
M  V30 14110 C 1371.15 -2.31501 0.225816 0
M  V30 14111 C 1372.14 -1.57205 -0.631112 0
M  V30 14112 O 1373.35 -1.72237 -0.522924 0
M  V30 14113 H 1369.72 -0.750039 0.0542747 0
M  V30 14114 H 1371.69 -2.79036 1.05743 0
M  V30 14115 C 1370.44 -3.42464 -0.60114 0
M  V30 14116 H 1369.76 -3.9977 0.0489207 0
M  V30 14117 H 1371.2 -4.12468 -0.982154 0
M  V30 14118 C 1369.66 -2.86551 -1.77173 0
M  V30 14119 O 1370.19 -2.81085 -2.86974 0
M  V30 14120 N 1368.4 -2.43432 -1.58712 0
M  V30 14121 H 1367.95 -2.48077 -0.693958 0
M  V30 14122 H 1367.9 -2.06371 -2.37188 0
M  V30 14123 N 1371.68 -0.573274 -1.46804 0
M  V30 14124 C 1372.61 0.153316 -2.32996 0
M  V30 14125 C 1373.59 0.893013 -1.44773 0
M  V30 14126 O 1374.77 0.870329 -1.73606 0
M  V30 14127 C 1371.9 1.1736 -3.2687 0
M  V30 14128 C 1370.86 0.549347 -4.2446 0
M  V30 14129 C 1370.18 1.67542 -5.07773 0
M  V30 14130 C 1371.48 -0.50736 -5.1983 0
M  V30 14131 H 1373.18 -0.566305 -2.93995 0
M  V30 14132 H 1370.72 -0.273785 -1.41373 0
M  V30 14133 H 1372.68 1.6902 -3.86019 0
M  V30 14134 H 1371.4 1.92337 -2.63958 0
M  V30 14135 H 1370.06 0.0539142 -3.6656 0
M  V30 14136 H 1369.71 2.41463 -4.41253 0
M  V30 14137 H 1369.41 1.26343 -5.73856 0
M  V30 14138 H 1370.93 2.19496 -5.69784 0
M  V30 14139 H 1372.34 -0.0762061 -5.73249 0
M  V30 14140 H 1370.74 -0.839139 -5.94204 0
M  V30 14141 H 1371.81 -1.39723 -4.64333 0
M  V30 14142 N 1373.15 1.5451 -0.310553 0
M  V30 14143 C 1374.57 1.59543 0.0425296 0
M  V30 14144 C 1374.77 1.32737 1.51602 0
M  V30 14145 O 1373.83 1.10543 2.27016 0
M  V30 14146 C 1375.14 2.98489 -0.364002 0
M  V30 14147 C 1376.69 3.11425 -0.313566 0
M  V30 14148 C 1377.16 4.52695 -0.695064 0
M  V30 14149 N 1378.65 4.58645 -0.647966 0
M  V30 14150 C 1379.39 5.66044 -0.915508 0
M  V30 14151 N 1378.88 6.81439 -1.24951 0
M  V30 14152 N 1380.68 5.55759 -0.841933 0
M  V30 14153 H 1372.83 1.70194 -1.27074 0
M  V30 14154 H 1375.09 0.795374 -0.515833 0
M  V30 14155 H 1374.8 3.23061 -1.39012 0
M  V30 14156 H 1374.67 3.76177 0.27756 0
M  V30 14157 H 1377.06 2.86596 0.703326 0
M  V30 14158 H 1377.14 2.35871 -0.989883 0
M  V30 14159 H 1376.78 4.78255 -1.70981 0
M  V30 14160 H 1376.71 5.266 0.00342684 0
M  V30 14161 H 1379.2 3.75765 -0.401137 0
M  V30 14162 H 1379.52 7.59277 -1.43938 0
M  V30 14163 H 1377.86 6.82968 -1.28764 0
M  V30 14164 H 1381.05 4.64486 -0.58058 0
M  V30 14165 H 1381.23 6.39374 -1.0538 0
M  V30 14166 N 1374.63 0.0384594 1.57553 0
M  V30 14167 C 1375.6 -0.925358 2.0969 0
M  V30 14168 C 1376.6 -1.24811 1.01385 0
M  V30 14169 O 1377.79 -1.1869 1.27508 0
M  V30 14170 C 1374.92 -2.2391 2.57055 0
M  V30 14171 H 1376.11 -0.473633 2.96136 0
M  V30 14172 H 1373.66 -0.209736 1.54886 0
M  V30 14173 H 1374.4 -2.73691 1.73964 0
M  V30 14174 H 1374.18 -2.01793 3.36188 0
M  V30 14175 H 1375.67 -2.92974 2.97583 0
M  V30 14176 N 1376.11 -1.55841 -0.234795 0
M  V30 14177 C 1377.52 -1.68555 -0.802886 0
M  V30 14178 C 1377.87 -0.638107 -1.85533 0
M  V30 14179 O 1377 0.21333 -2.15346 0
M  V30 14180 C 1377.59 -3.0558 -1.46309 0
M  V30 14181 C 1376.15 -3.20192 -1.97874 0
M  V30 14182 C 1375.3 -2.64457 -0.834136 0
M  V30 14183 H 1378.25 -1.58697 -0.0103759 0
M  V30 14184 H 1378.27 -3.007 -2.33152 0
M  V30 14185 H 1377.78 -3.81792 -0.696868 0
M  V30 14186 H 1375.88 -2.48825 -2.77339 0
M  V30 14187 H 1376 -4.27251 -2.1678 0
M  V30 14188 H 1374.36 -2.22593 -1.23791 0
M  V30 14189 H 1375.14 -3.43205 -0.0807988 0
M  V30 14190 N 1377.59 0.500963 -1.49426 0
M  V30 14191 C 1378.52 1.61114 -1.69011 0
M  V30 14192 C 1379.5 1.61341 -0.538813 0
M  V30 14193 O 1380.69 1.78081 -0.77466 0
M  V30 14194 C 1377.82 2.99598 -1.75666 0
M  V30 14195 C 1376.77 3.14236 -2.90585 0
M  V30 14196 C 1376.1 4.54071 -2.82354 0
M  V30 14197 C 1377.4 2.94258 -4.3152 0
M  V30 14198 H 1379.09 1.44978 -2.61957 0
M  V30 14199 H 1376.64 0.69603 -1.26061 0
M  V30 14200 H 1378.59 3.77163 -1.87953 0
M  V30 14201 H 1377.31 3.16822 -0.793186 0
M  V30 14202 H 1375.97 2.39096 -2.779 0
M  V30 14203 H 1375.62 4.68172 -1.83914 0
M  V30 14204 H 1375.32 4.64806 -3.59485 0
M  V30 14205 H 1376.84 5.33696 -2.96649 0
M  V30 14206 H 1378.26 3.61592 -4.44886 0
M  V30 14207 H 1376.65 3.16464 -5.09873 0
M  V30 14208 H 1377.72 1.90383 -4.45962 0
M  V30 14209 N 1379.07 1.38501 0.752011 0
M  V30 14210 C 1380.29 1.38212 1.54636 0
M  V30 14211 C 1380.72 -0.0256356 1.88083 0
M  V30 14212 O 1380.08 -1.00812 1.50687 0
M  V30 14213 C 1380.12 2.24597 2.82114 0
M  V30 14214 O 1379.23 1.66415 3.77332 0
M  V30 14215 H 1378.57 0.47138 0.46765 0
M  V30 14216 H 1381.1 1.82283 0.929205 0
M  V30 14217 H 1381.11 2.38511 3.31023 0
M  V30 14218 H 1379.78 3.26913 2.57101 0
M  V30 14219 H 1378.36 1.61651 3.36041 0
M  V30 14220 N 1380.55 -0.980364 1.23396 0
M  V30 14221 C 1381.51 -2.05433 1.01635 0
M  V30 14222 C 1382.51 -1.60785 -0.0218244 0
M  V30 14223 O 1383.7 -1.72832 0.217922 0
M  V30 14224 C 1380.83 -3.36631 0.537822 0
M  V30 14225 H 1382.02 -2.26172 1.96943 0
M  V30 14226 H 1379.58 -1.15378 1.05441 0
M  V30 14227 H 1380.31 -3.21581 -0.41903 0
M  V30 14228 H 1380.1 -3.70377 1.28698 0
M  V30 14229 H 1381.59 -4.1562 0.406213 0
M  V30 14230 N 1382.02 -1.04567 -1.17913 0
M  V30 14231 C 1383.27 -0.747179 -1.8735 0
M  V30 14232 C 1383.59 0.728274 -1.81537 0
M  V30 14233 O 1384.79 1.14048 -2.46385 0
M  V30 14234 C 1383.25 -1.28629 -3.36129 0
M  V30 14235 C 1382.86 -2.79073 -3.5046 0
M  V30 14236 C 1384.6 -1.06455 -4.10935 0
M  V30 14237 C 1382.51 -3.26316 -4.93226 0
M  V30 14238 H 1381.44 -0.275807 -0.701745 0
M  V30 14239 H 1384.09 -1.26215 -1.33199 0
M  V30 14240 H 1382.47 -0.699151 -3.89779 0
M  V30 14241 H 1383.64 -3.43587 -3.07057 0
M  V30 14242 H 1381.96 -2.99716 -2.89066 0
M  V30 14243 H 1384.56 -1.3926 -5.16247 0
M  V30 14244 H 1384.9 -0.00201298 -4.163 0
M  V30 14245 H 1385.43 -1.61656 -3.63472 0
M  V30 14246 H 1382.17 -4.31972 -4.93032 0
M  V30 14247 H 1381.69 -2.6654 -5.37323 0
M  V30 14248 H 1383.37 -3.2063 -5.61966 0
M  V30 14249 N 1383.5 1.34231 -0.825823 0
M  V30 14250 C 1384.91 1.8059 -0.473724 0
M  V30 14251 C 1385.26 1.68438 1.00614 0
M  V30 14252 O 1384.39 1.22606 1.78317 0
M  V30 14253 C 1384.98 3.27884 -0.853099 0
M  V30 14254 C 1383.54 3.72311 -0.553327 0
M  V30 14255 C 1382.69 2.55889 -1.06845 0
M  V30 14256 H 1385.64 1.21937 -1.01573 0
M  V30 14257 H 1385.66 3.80172 -0.158014 0
M  V30 14258 H 1385.17 3.36696 -1.93021 0
M  V30 14259 H 1383.27 3.69034 0.514256 0
M  V30 14260 H 1383.39 4.66315 -1.09942 0
M  V30 14261 H 1381.75 2.49945 -0.489874 0
M  V30 14262 H 1382.53 2.67471 -2.15207 0
M  V30 14263 N 1384.98 0.581051 1.46498 0
M  V30 14264 C 1386.2 0.0696654 2.07283 0
M  V30 14265 C 1386.63 -1.22525 1.42721 0
M  V30 14266 O 1385.99 -1.73967 0.510421 0
M  V30 14267 C 1386.04 -0.0843864 3.60501 0
M  V30 14268 O 1385.14 -1.14129 3.96293 0
M  V30 14269 H 1384.48 0.0620572 0.661094 0
M  V30 14270 H 1387.01 0.803522 1.88161 0
M  V30 14271 H 1387.02 -0.29108 4.0696 0
M  V30 14272 H 1385.7 0.861274 4.06884 0
M  V30 14273 H 1384.27 -0.913186 3.61546 0
M  V30 14274 N 1386.46 -1.54343 0.318742 0
M  V30 14275 C 1387.69 -2.04894 -0.287378 0
M  V30 14276 C 1388.1 -1.19514 -1.46157 0
M  V30 14277 O 1387.46 -0.224722 -1.81111 0
M  V30 14278 C 1387.51 -3.54124 -0.726505 0
M  V30 14279 O 1387.23 -4.36261 0.400968 0
M  V30 14280 C 1388.73 -4.20748 -1.39594 0
M  V30 14281 H 1385.95 -0.668323 -0.0598724 0
M  V30 14282 H 1388.49 -1.99177 0.463531 0
M  V30 14283 H 1386.65 -3.60145 -1.4274 0
M  V30 14284 H 1387.06 -5.2447 0.0558714 0
M  V30 14285 H 1388.54 -5.26632 -1.65418 0
M  V30 14286 H 1389.01 -3.71566 -2.3417 0
M  V30 14287 H 1389.62 -4.18852 -0.737749 0
M  V30 14288 N 1387.94 -0.0468143 -1.5753 0
M  V30 14289 C 1388.9 0.914225 -2.10177 0
M  V30 14290 C 1389.9 1.24271 -1.02045 0
M  V30 14291 O 1391.09 1.18012 -1.28136 0
M  V30 14292 C 1388.22 2.22544 -2.58238 0
M  V30 14293 H 1389.41 0.457922 -2.96383 0
M  V30 14294 H 1386.97 0.20152 -1.54995 0
M  V30 14295 H 1387.7 2.72765 -1.75413 0
M  V30 14296 H 1387.49 2.00007 -3.37253 0
M  V30 14297 H 1388.98 2.91392 -2.99133 0
M  V30 14298 N 1389.41 1.55964 0.226527 0
M  V30 14299 C 1390.64 1.82823 0.968673 0
M  V30 14300 C 1391.06 0.625281 1.78145 0
M  V30 14301 O 1390.41 -0.40617 1.77923 0
M  V30 14302 C 1390.47 3.08143 1.89024 0
M  V30 14303 O 1390.19 4.23797 1.11032 0
M  V30 14304 C 1391.69 3.47954 2.74669 0
M  V30 14305 H 1388.91 0.607876 0.284126 0
M  V30 14306 H 1391.45 2.03048 0.243258 0
M  V30 14307 H 1389.61 2.89908 2.56967 0
M  V30 14308 H 1390.02 4.94957 1.73546 0
M  V30 14309 H 1391.49 4.38691 3.35044 0
M  V30 14310 H 1391.97 2.69476 3.46813 0
M  V30 14311 H 1392.58 3.6861 2.12147 0
M  V30 14312 N 1390.89 -0.493031 1.4969 0
M  V30 14313 C 1391.82 -1.61058 1.63074 0
M  V30 14314 C 1392.84 -1.54504 0.513069 0
M  V30 14315 O 1394.03 -1.60291 0.785431 0
M  V30 14316 C 1391.13 -2.99877 1.57883 0
M  V30 14317 C 1390.3 -3.31531 2.85317 0
M  V30 14318 C 1389.36 -4.49799 2.7307 0
M  V30 14319 O 1388.38 -4.51189 3.47012 0
M  V30 14320 N 1389.59 -5.50182 1.85148 0
M  V30 14321 H 1392.35 -1.5 2.59461 0
M  V30 14322 H 1389.91 -0.681057 1.46878 0
M  V30 14323 H 1391.9 -3.76928 1.47333 0
M  V30 14324 H 1390.47 -3.04817 0.693218 0
M  V30 14325 H 1389.69 -2.433 3.10159 0
M  V30 14326 H 1390.98 -3.49481 3.69784 0
M  V30 14327 H 1390.38 -5.51865 1.24345 0
M  V30 14328 H 1388.94 -6.26305 1.80516 0
M  V30 14329 N 1392.37 -1.38898 -0.744656 0
M  V30 14330 C 1393.62 -1.35795 -1.50623 0
M  V30 14331 C 1393.95 0.0491775 -1.94138 0
M  V30 14332 O 1393.22 1.01219 -1.66087 0
M  V30 14333 C 1393.51 -2.32168 -2.75263 0
M  V30 14334 C 1393.36 -3.81781 -2.3783 0
M  V30 14335 C 1394.68 -2.26526 -3.77325 0
M  V30 14336 H 1391.8 -0.494591 -0.546396 0
M  V30 14337 H 1394.44 -1.69816 -0.852211 0
M  V30 14338 H 1392.59 -2.03287 -3.31069 0
M  V30 14339 H 1394.26 -4.21373 -1.8773 0
M  V30 14340 H 1392.51 -3.99027 -1.70176 0
M  V30 14341 H 1393.18 -4.44687 -3.27044 0
M  V30 14342 H 1395.65 -2.52041 -3.31081 0
M  V30 14343 H 1394.53 -2.96053 -4.62216 0
M  V30 14344 H 1394.79 -1.26705 -4.23554 0
M  V30 14345 N 1393.85 0.973806 -1.23914 0
M  V30 14346 C 1395.26 1.24128 -1.00322 0
M  V30 14347 C 1395.46 1.99378 0.29169 0
M  V30 14348 O 1394.52 2.31445 1.00943 0
M  V30 14349 C 1395.83 2.03438 -2.21435 0
M  V30 14350 C 1397.38 2.16553 -2.25995 0
M  V30 14351 C 1397.86 2.99257 -3.46712 0
M  V30 14352 N 1399.35 3.0684 -3.46992 0
M  V30 14353 C 1400.08 3.71174 -4.37055 0
M  V30 14354 N 1399.58 4.37277 -5.37364 0
M  V30 14355 N 1401.37 3.68126 -4.24782 0
M  V30 14356 H 1393.52 0.469872 -2.07138 0
M  V30 14357 H 1395.79 0.270234 -0.908668 0
M  V30 14358 H 1395.49 1.55527 -3.15443 0
M  V30 14359 H 1395.37 3.0418 -2.23057 0
M  V30 14360 H 1397.75 2.6367 -1.32522 0
M  V30 14361 H 1397.83 1.15179 -2.28402 0
M  V30 14362 H 1397.48 2.52835 -4.40496 0
M  V30 14363 H 1397.41 4.00815 -3.41547 0
M  V30 14364 H 1399.9 2.59813 -2.74419 0
M  V30 14365 H 1400.21 4.84166 -6.02331 0
M  V30 14366 H 1398.56 4.35965 -5.41257 0
M  V30 14367 H 1401.75 3.15657 -3.45656 0
M  V30 14368 H 1401.92 4.17981 -4.95173 0
M  V30 14369 N 1395.33 1.05191 1.17357 0
M  V30 14370 C 1396.26 0.673931 2.23563 0
M  V30 14371 C 1397.24 -0.328284 1.66902 0
M  V30 14372 O 1398.42 -0.205878 1.93106 0
M  V30 14373 C 1395.55 0.0478801 3.47267 0
M  V30 14374 C 1394.51 0.974855 4.1675 0
M  V30 14375 C 1393.83 0.212684 5.34277 0
M  V30 14376 C 1395.13 2.299 4.68981 0
M  V30 14377 H 1396.83 1.56183 2.55436 0
M  V30 14378 H 1394.37 0.752408 1.2278 0
M  V30 14379 H 1396.33 -0.228343 4.20781 0
M  V30 14380 H 1395.05 -0.874963 3.14662 0
M  V30 14381 H 1393.71 1.23564 3.45148 0
M  V30 14382 H 1393.36 -0.712924 4.97922 0
M  V30 14383 H 1393.06 0.830351 5.81703 0
M  V30 14384 H 1394.58 -0.056255 6.10574 0
M  V30 14385 H 1395.99 2.08269 5.34132 0
M  V30 14386 H 1394.39 2.87064 5.26986 0
M  V30 14387 H 1395.46 2.93759 3.8579 0
M  V30 14388 N 1396.8 -1.33791 0.83293 0
M  V30 14389 C 1398.05 -1.98266 0.426412 0
M  V30 14390 C 1398.38 -1.65848 -1.01035 0
M  V30 14391 O 1397.66 -0.93528 -1.70537 0
M  V30 14392 C 1397.94 -3.54356 0.640586 0
M  V30 14393 C 1397.79 -3.96482 2.12419 0
M  V30 14394 C 1399.11 -4.40022 0.0829237 0
M  V30 14395 H 1396.23 -0.720213 0.156404 0
M  V30 14396 H 1398.87 -1.58527 1.04735 0
M  V30 14397 H 1397.02 -3.88338 0.11204 0
M  V30 14398 H 1398.7 -3.72786 2.71714 0
M  V30 14399 H 1396.94 -3.46429 2.61092 0
M  V30 14400 H 1397.61 -5.05179 2.22482 0
M  V30 14401 H 1400.09 -4.12651 0.534634 0
M  V30 14402 H 1398.96 -5.48272 0.262511 0
M  V30 14403 H 1399.22 -4.30341 -1.01287 0
M  V30 14404 N 1398.28 -0.588812 -1.46187 0
M  V30 14405 C 1399.25 0.130803 -2.28826 0
M  V30 14406 C 1400.25 0.813037 -1.38731 0
M  V30 14407 O 1401.44 0.664061 -1.61046 0
M  V30 14408 C 1398.57 1.19484 -3.19275 0
M  V30 14409 H 1399.76 -0.595514 -2.93928 0
M  V30 14410 H 1397.31 -0.347038 -1.52399 0
M  V30 14411 H 1398.05 1.95254 -2.58933 0
M  V30 14412 H 1397.83 0.710077 -3.85617 0
M  V30 14413 H 1399.32 1.69938 -3.81459 0
M  V30 14414 N 1399.76 1.54172 -0.326923 0
M  V30 14415 C 1401.04 1.92812 0.329078 0
M  V30 14416 C 1401.42 1.25687 1.69605 0
M  V30 14417 O 1400.77 0.401779 2.2494 0
M  V30 14418 C 1400.98 3.46488 0.417949 0
M  V30 14419 C 1402.32 4.19174 0.67665 0
M  V30 14420 O 1403.35 3.52663 0.500735 0
M  V30 14421 O 1402.21 5.36968 1.01625 0
M  V30 14422 H 1399.3 0.805214 0.188573 0
M  V30 14423 H 1401.85 1.65462 -0.376884 0
M  V30 14424 H 1400.62 3.87528 -0.541986 0
M  V30 14425 H 1400.24 3.79954 1.17136 0
M  V30 14426 N 1401.24 0.0551678 1.57503 0
M  V30 14427 C 1402.52 -0.657808 1.84207 0
M  V30 14428 C 1402.9 -1.88798 0.944372 0
M  V30 14429 O 1402.24 -2.28499 0.00641728 0
M  V30 14430 C 1402.45 -1.0113 3.34026 0
M  V30 14431 C 1403.8 -1.39189 4.01138 0
M  V30 14432 O 1404.83 -1.10353 3.38675 0
M  V30 14433 O 1403.68 -1.93023 5.11277 0
M  V30 14434 H 1400.78 -0.325084 0.760427 0
M  V30 14435 H 1403.32 0.0848352 1.69488 0
M  V30 14436 H 1402.1 -0.13688 3.91061 0
M  V30 14437 H 1401.72 -1.81126 3.53948 0
M  V30 14438 N 1402.72 -1.56081 -0.218252 0
M  V30 14439 C 1403.65 -1.89176 -1.29403 0
M  V30 14440 C 1404.66 -0.780312 -1.42881 0
M  V30 14441 O 1405.85 -1.05863 -1.4372 0
M  V30 14442 C 1402.95 -2.08818 -2.66923 0
M  V30 14443 C 1402.12 -3.39854 -2.75351 0
M  V30 14444 C 1401.18 -3.48889 -3.93908 0
M  V30 14445 O 1400.21 -4.21894 -3.82091 0
M  V30 14446 N 1401.41 -2.80273 -5.08357 0
M  V30 14447 H 1404.18 -2.82047 -1.01338 0
M  V30 14448 H 1401.74 -1.56667 -0.408278 0
M  V30 14449 H 1403.73 -2.12175 -3.44622 0
M  V30 14450 H 1402.3 -1.22557 -2.87574 0
M  V30 14451 H 1401.52 -3.48568 -1.84104 0
M  V30 14452 H 1402.81 -4.26168 -2.77954 0
M  V30 14453 H 1402.2 -2.20744 -5.20854 0
M  V30 14454 H 1400.76 -2.89286 -5.84086 0
M  V30 14455 N 1404.2 0.485086 -1.49949 0
M  V30 14456 C 1405.47 1.24639 -1.50747 0
M  V30 14457 C 1405.85 2.09683 -0.244162 0
M  V30 14458 O 1405.2 2.1503 0.772949 0
M  V30 14459 C 1405.41 2.08946 -2.7954 0
M  V30 14460 C 1406.76 2.67604 -3.29656 0
M  V30 14461 O 1407.78 2.192 -2.80766 0
M  V30 14462 O 1406.64 3.55761 -4.14845 0
M  V30 14463 H 1403.74 0.564849 -0.604049 0
M  V30 14464 H 1406.28 0.498052 -1.62227 0
M  V30 14465 H 1405.05 1.46185 -3.62968 0
M  V30 14466 H 1404.68 2.90941 -2.70997 0
M  V30 14467 N 1405.67 1.39291 0.737279 0
M  V30 14468 C 1406.6 1.40562 1.86452 0
M  V30 14469 C 1407.58 0.269283 1.67955 0
M  V30 14470 O 1408.77 0.474769 1.88307 0
M  V30 14471 C 1405.9 1.2461 3.24175 0
M  V30 14472 C 1404.85 2.35619 3.57306 0
M  V30 14473 C 1404.18 2.04758 4.93941 0
M  V30 14474 C 1405.48 3.77927 3.60512 0
M  V30 14475 H 1407.17 2.34896 1.85646 0
M  V30 14476 H 1404.72 1.13065 0.891756 0
M  V30 14477 H 1406.67 1.2412 4.02706 0
M  V30 14478 H 1405.4 0.267438 3.25503 0
M  V30 14479 H 1404.06 2.35322 2.81104 0
M  V30 14480 H 1403.7 1.05336 4.91847 0
M  V30 14481 H 1403.4 2.79117 5.17076 0
M  V30 14482 H 1404.93 2.05915 5.74832 0
M  V30 14483 H 1406.34 3.80166 4.29123 0
M  V30 14484 H 1404.74 4.51626 3.95164 0
M  V30 14485 H 1405.81 4.09068 2.60368 0
M  V30 14486 N 1407.15 -0.967221 1.24429 0
M  V30 14487 C 1408.11 -2.04344 1.03808 0
M  V30 14488 C 1409.11 -1.60799 -0.00476972 0
M  V30 14489 O 1410.3 -1.72591 0.236241 0
M  V30 14490 C 1407.44 -3.36041 0.573496 0
M  V30 14491 H 1408.63 -2.2407 1.9933 0
M  V30 14492 H 1406.18 -1.14253 1.06658 0
M  V30 14493 H 1406.92 -3.22008 -0.384898 0
M  V30 14494 H 1406.7 -3.68991 1.32619 0
M  V30 14495 H 1408.19 -4.15165 0.450272 0
M  V30 14496 N 1408.63 -1.05812 -1.16797 0
M  V30 14497 C 1410.04 -0.79707 -1.6883 0
M  V30 14498 C 1410.39 0.679967 -1.8404 0
M  V30 14499 O 1409.52 1.5279 -1.53245 0
M  V30 14500 C 1410.11 -1.44029 -3.06661 0
M  V30 14501 C 1408.67 -1.22714 -3.55835 0
M  V30 14502 C 1407.82 -1.51988 -2.31937 0
M  V30 14503 H 1410.77 -1.22224 -1.01227 0
M  V30 14504 H 1410.79 -0.852962 -3.70816 0
M  V30 14505 H 1410.3 -2.51529 -2.95559 0
M  V30 14506 H 1408.4 -0.171671 -3.72204 0
M  V30 14507 H 1408.52 -1.93646 -4.38221 0
M  V30 14508 H 1406.88 -0.940215 -2.36711 0
M  V30 14509 H 1407.66 -2.60635 -2.23438 0
M  V30 14510 N 1410.11 1.33347 -0.840014 0
M  V30 14511 C 1411.04 2.28029 -0.231432 0
M  V30 14512 C 1412.05 1.51792 0.588488 0
M  V30 14513 O 1413.24 1.736 0.415371 0
M  V30 14514 C 1410.34 3.31745 0.692721 0
M  V30 14515 C 1409.51 4.37311 -0.0881144 0
M  V30 14516 C 1408.57 5.20689 0.759557 0
M  V30 14517 O 1407.6 5.68854 0.198347 0
M  V30 14518 N 1408.8 5.42082 2.07672 0
M  V30 14519 H 1411.57 2.80893 -1.04495 0
M  V30 14520 H 1409.13 1.46053 -0.698586 0
M  V30 14521 H 1411.12 3.84428 1.2648 0
M  V30 14522 H 1409.69 2.79148 1.40695 0
M  V30 14523 H 1408.91 3.85112 -0.841579 0
M  V30 14524 H 1410.2 5.04947 -0.624986 0
M  V30 14525 H 1409.6 5.04654 2.55619 0
M  V30 14526 H 1408.15 5.97817 2.59726 0
M  V30 14527 N 1411.59 0.596556 1.45873 0
M  V30 14528 C 1412.54 -0.14991 2.27507 0
M  V30 14529 C 1413.52 -0.848942 1.36681 0
M  V30 14530 O 1414.71 -0.740752 1.60754 0
M  V30 14531 C 1411.84 -1.15391 3.23326 0
M  V30 14532 C 1410.93 -0.456283 4.21638 0
M  V30 14533 N 1411.32 0.495911 5.03363 0
M  V30 14534 C 1409.62 -0.705263 4.40389 0
M  V30 14535 C 1410.32 0.904941 5.74618 0
M  V30 14536 N 1409.29 0.251069 5.4302 0
M  V30 14537 H 1413.09 0.581593 2.88088 0
M  V30 14538 H 1410.61 0.419386 1.56891 0
M  V30 14539 H 1412.61 -1.70299 3.80531 0
M  V30 14540 H 1411.27 -1.88609 2.64305 0
M  V30 14541 H 1412.28 0.872126 5.10504 0
M  V30 14542 H 1408.95 -1.42296 3.92502 0
M  V30 14543 H 1410.34 1.68965 6.50308 0
M  V30 14544 N 1413.06 -1.53996 0.335095 0
M  V30 14545 C 1414.31 -2.01769 -0.257101 0
M  V30 14546 C 1414.66 -1.21883 -1.4887 0
M  V30 14547 O 1413.96 -0.295897 -1.89301 0
M  V30 14548 C 1414.15 -3.51769 -0.631907 0
M  V30 14549 C 1413.98 -4.46177 0.561818 0
M  V30 14550 C 1412.75 -4.9396 1.06451 0
M  V30 14551 C 1414.95 -4.94376 1.41763 0
M  V30 14552 N 1412.93 -5.72298 2.22144 0
M  V30 14553 C 1414.3 -5.70753 2.42158 0
M  V30 14554 C 1416.36 -4.76499 1.44406 0
M  V30 14555 C 1415.06 -6.31156 3.45014 0
M  V30 14556 C 1417.09 -5.37745 2.46139 0
M  V30 14557 C 1416.45 -6.13983 3.4526 0
M  V30 14558 H 1412.55 -0.779875 -0.0576132 0
M  V30 14559 H 1415.13 -1.88873 0.472746 0
M  V30 14560 H 1413.3 -3.64887 -1.33087 0
M  V30 14561 H 1415.03 -3.86295 -1.20656 0
M  V30 14562 H 1411.79 -4.69338 0.633942 0
M  V30 14563 H 1412.21 -6.16141 2.80534 0
M  V30 14564 H 1416.85 -4.17109 0.691369 0
M  V30 14565 H 1414.57 -6.89659 4.21184 0
M  V30 14566 H 1418.16 -5.25823 2.49 0
M  V30 14567 H 1417.04 -6.60532 4.2269 0
M  V30 14568 N 1414.54 -0.0635198 -1.57472 0
M  V30 14569 C 1415.79 0.607008 -1.92349 0
M  V30 14570 C 1416.1 1.71268 -0.944806 0
M  V30 14571 O 1417.31 2.44221 -1.18609 0
M  V30 14572 C 1415.77 1.13105 -3.41666 0
M  V30 14573 C 1415.37 0.0568256 -4.47964 0
M  V30 14574 C 1417.12 1.77611 -3.85557 0
M  V30 14575 C 1415.02 0.594443 -5.88405 0
M  V30 14576 H 1413.95 0.230506 -0.717902 0
M  V30 14577 H 1416.61 -0.134413 -1.83007 0
M  V30 14578 H 1414.99 1.92517 -3.46054 0
M  V30 14579 H 1416.16 -0.717371 -4.55182 0
M  V30 14580 H 1414.48 -0.491517 -4.13489 0
M  V30 14581 H 1417.07 2.18852 -4.87861 0
M  V30 14582 H 1417.42 2.6328 -3.22474 0
M  V30 14583 H 1417.95 1.04834 -3.83738 0
M  V30 14584 H 1414.69 -0.224893 -6.55114 0
M  V30 14585 H 1414.21 1.33635 -5.84724 0
M  V30 14586 H 1415.89 1.07346 -6.38033 0
M  V30 14587 N 1416.02 1.56195 0.209972 0
M  V30 14588 C 1416.98 1.92514 1.24383 0
M  V30 14589 C 1417.98 0.804793 1.39211 0
M  V30 14590 O 1419.17 1.0724 1.37278 0
M  V30 14591 C 1416.3 2.18613 2.61574 0
M  V30 14592 H 1417.5 2.84992 0.933781 0
M  V30 14593 H 1415.05 1.49656 0.450878 0
M  V30 14594 H 1415.79 1.28724 2.97659 0
M  V30 14595 H 1415.57 3.00241 2.52186 0
M  V30 14596 H 1417.06 2.47767 3.36156 0
M  V30 14597 N 1417.5 -0.477127 1.50204 0
M  V30 14598 C 1418.43 -1.58405 1.71552 0
M  V30 14599 C 1419.41 -1.60463 0.564413 0
M  V30 14600 O 1420.59 -1.76826 0.802893 0
M  V30 14601 C 1417.72 -2.96765 1.8041 0
M  V30 14602 C 1416.68 -3.09573 2.95548 0
M  V30 14603 C 1416 -4.49522 2.89542 0
M  V30 14604 C 1417.3 -2.87356 4.36147 0
M  V30 14605 H 1419 -1.40792 2.64231 0
M  V30 14606 H 1416.54 -0.675886 1.27153 0
M  V30 14607 H 1418.5 -3.74125 1.9393 0
M  V30 14608 H 1417.22 -3.1552 0.843489 0
M  V30 14609 H 1415.88 -2.34645 2.81669 0
M  V30 14610 H 1415.53 -4.65186 1.91339 0
M  V30 14611 H 1415.23 -4.59028 3.66834 0
M  V30 14612 H 1416.75 -5.28909 3.05102 0
M  V30 14613 H 1418.17 -3.54469 4.50583 0
M  V30 14614 H 1416.56 -3.08313 5.14843 0
M  V30 14615 H 1417.63 -1.83264 4.48935 0
M  V30 14616 N 1418.98 -1.3968 -0.729882 0
M  V30 14617 C 1420.2 -1.40467 -1.5191 0
M  V30 14618 C 1420.62 -0.000529943 -1.888 0
M  V30 14619 O 1419.98 0.972072 -1.54457 0
M  V30 14620 C 1420.03 -2.2823 -2.80345 0
M  V30 14621 O 1419.75 -3.63176 -2.4502 0
M  V30 14622 C 1421.25 -2.37455 -3.74339 0
M  V30 14623 H 1418.47 -0.479604 -0.469277 0
M  V30 14624 H 1421.01 -1.83558 -0.901484 0
M  V30 14625 H 1419.17 -1.88538 -3.38426 0
M  V30 14626 H 1419.58 -4.0964 -3.2756 0
M  V30 14627 H 1421.06 -3.031 -4.6134 0
M  V30 14628 H 1421.53 -1.39525 -4.16449 0
M  V30 14629 H 1422.14 -2.77638 -3.22176 0
M  V30 14630 N 1420.45 0.960609 -1.2494 0
M  V30 14631 C 1421.87 1.51915 -1.0853 0
M  V30 14632 C 1422.22 1.93215 0.340949 0
M  V30 14633 O 1421.34 1.78031 1.2302 0
M  V30 14634 C 1421.94 2.76069 -1.96396 0
M  V30 14635 C 1420.5 3.28255 -1.84189 0
M  V30 14636 C 1419.64 2.01124 -1.90905 0
M  V30 14637 H 1422.59 0.778141 -1.38314 0
M  V30 14638 H 1422.61 3.49668 -1.50042 0
M  V30 14639 H 1422.13 2.45979 -3.00193 0
M  V30 14640 H 1420.23 3.6318 -0.832518 0
M  V30 14641 H 1420.34 3.96675 -2.68673 0
M  V30 14642 H 1418.7 2.16155 -1.34718 0
M  V30 14643 H 1419.49 1.73389 -2.96295 0
M  V30 14644 N 1421.93 1.0643 1.16234 0
M  V30 14645 C 1423.34 0.806012 1.68405 0
M  V30 14646 C 1423.69 -0.670197 1.84398 0
M  V30 14647 O 1422.82 -1.51975 1.54054 0
M  V30 14648 C 1423.41 1.45654 3.05893 0
M  V30 14649 C 1421.97 1.24599 3.55179 0
M  V30 14650 C 1421.12 1.53216 2.31128 0
M  V30 14651 H 1424.07 1.22759 1.00578 0
M  V30 14652 H 1424.09 0.872616 3.70359 0
M  V30 14653 H 1423.6 2.53092 2.94221 0
M  V30 14654 H 1421.71 0.191407 3.72108 0
M  V30 14655 H 1421.82 1.95967 4.37188 0
M  V30 14656 H 1420.18 0.952755 2.36209 0
M  V30 14657 H 1420.97 2.61816 2.22052 0
M  V30 14658 N 1423.41 -1.329 0.847073 0
M  V30 14659 C 1424.83 -1.50333 0.53593 0
M  V30 14660 C 1425.03 -1.78492 -0.93504 0
M  V30 14661 O 1424.08 -1.85001 -1.71846 0
M  V30 14662 C 1425.4 -2.65254 1.41636 0
M  V30 14663 C 1426.94 -2.79139 1.416 0
M  V30 14664 C 1427.42 -3.97131 2.28147 0
M  V30 14665 N 1428.91 -4.0438 2.25901 0
M  V30 14666 C 1429.64 -4.94893 2.89601 0
M  V30 14667 N 1429.14 -5.90466 3.62383 0
M  V30 14668 N 1430.93 -4.87955 2.79028 0
M  V30 14669 H 1423.08 -1.12886 1.79918 0
M  V30 14670 H 1425.35 -0.555707 0.768045 0
M  V30 14671 H 1425.05 -2.51151 2.46203 0
M  V30 14672 H 1424.93 -3.60856 1.09829 0
M  V30 14673 H 1427.31 -2.92669 0.378013 0
M  V30 14674 H 1427.4 -1.84273 1.77418 0
M  V30 14675 H 1427.04 -3.8436 3.32009 0
M  V30 14676 H 1426.97 -4.91258 1.89665 0
M  V30 14677 H 1429.46 -3.35986 1.72979 0
M  V30 14678 H 1429.77 -6.56212 4.08174 0
M  V30 14679 H 1428.12 -5.90516 3.66491 0
M  V30 14680 H 1431.31 -4.12258 2.21723 0
M  V30 14681 H 1431.48 -5.58295 3.28954 0
M  V30 14682 N 1424.89 -0.604284 -1.45555 0
M  V30 14683 C 1426.14 -0.0957836 -2.01472 0
M  V30 14684 C 1426.45 1.28016 -1.47889 0
M  V30 14685 O 1427.66 1.88121 -1.95762 0
M  V30 14686 C 1426.11 -0.120566 -3.59698 0
M  V30 14687 C 1425.72 -1.49616 -4.22278 0
M  V30 14688 C 1427.46 0.332865 -4.23193 0
M  V30 14689 C 1425.37 -1.4775 -5.72646 0
M  V30 14690 H 1424.3 -0.0320399 -0.753319 0
M  V30 14691 H 1426.95 -0.759125 -1.67061 0
M  V30 14692 H 1425.33 0.609365 -3.91283 0
M  V30 14693 H 1426.51 -2.24753 -4.02272 0
M  V30 14694 H 1424.82 -1.89141 -3.70965 0
M  V30 14695 H 1427.42 0.365951 -5.33446 0
M  V30 14696 H 1427.76 1.35487 -3.93635 0
M  V30 14697 H 1428.3 -0.343692 -3.96313 0
M  V30 14698 H 1425.04 -2.47701 -6.06898 0
M  V30 14699 H 1424.56 -0.768659 -5.94854 0
M  V30 14700 H 1426.23 -1.19971 -6.3578 0
M  V30 14701 N 1426.37 1.53816 -0.343257 0
M  V30 14702 C 1427.78 1.86169 0.140709 0
M  V30 14703 C 1428.13 1.26449 1.50017 0
M  V30 14704 O 1427.25 0.577955 2.08539 0
M  V30 14705 C 1427.85 3.37785 0.262097 0
M  V30 14706 C 1426.41 3.70016 0.690294 0
M  V30 14707 C 1425.55 2.7674 -0.17614 0
M  V30 14708 H 1428.51 1.48383 -0.562863 0
M  V30 14709 H 1428.53 3.64564 1.08964 0
M  V30 14710 H 1428.04 3.81221 -0.727481 0
M  V30 14711 H 1426.14 3.32124 1.68891 0
M  V30 14712 H 1426.25 4.76686 0.480388 0
M  V30 14713 H 1424.62 2.52263 0.351476 0
M  V30 14714 H 1425.4 3.23006 -1.16285 0
M  V30 14715 N 1427.84 0.0718701 1.57436 0
M  V30 14716 C 1429.26 -0.28476 1.57039 0
M  V30 14717 C 1429.46 -1.70032 1.08127 0
M  V30 14718 O 1428.52 -2.41191 0.747189 0
M  V30 14719 C 1429.83 -0.0943482 3.00552 0
M  V30 14720 C 1431.38 -0.163879 3.12571 0
M  V30 14721 C 1431.85 -0.00174658 4.58 0
M  V30 14722 N 1433.34 -0.0573489 4.63164 0
M  V30 14723 C 1434.08 0.0436849 5.73383 0
M  V30 14724 N 1433.57 0.198243 6.92516 0
M  V30 14725 N 1435.37 -0.0133856 5.62098 0
M  V30 14726 H 1427.52 0.99702 1.87545 0
M  V30 14727 H 1429.78 0.388822 0.864593 0
M  V30 14728 H 1429.49 0.882445 3.40449 0
M  V30 14729 H 1429.36 -0.846636 3.67576 0
M  V30 14730 H 1431.75 -1.13116 2.7256 0
M  V30 14731 H 1431.83 0.619513 2.48185 0
M  V30 14732 H 1431.47 0.9623 4.98701 0
M  V30 14733 H 1431.4 -0.804543 5.20418 0
M  V30 14734 H 1433.89 -0.175212 3.77494 0
M  V30 14735 H 1434.21 0.267479 7.72337 0
M  V30 14736 H 1432.55 0.233606 6.94607 0
M  V30 14737 H 1435.74 -0.132835 4.67911 0
M  V30 14738 H 1435.92 0.0688076 6.47963 0
M  V30 14739 N 1429.32 -1.56304 -0.201686 0
M  V30 14740 C 1430.57 -1.80504 -0.92446 0
M  V30 14741 C 1430.9 -0.644832 -1.83182 0
M  V30 14742 O 1430.18 0.354963 -1.91234 0
M  V30 14743 C 1430.46 -3.14919 -1.74636 0
M  V30 14744 C 1430.31 -4.41421 -0.864169 0
M  V30 14745 C 1431.63 -3.45962 -2.72026 0
M  V30 14746 H 1428.75 -0.656643 -0.334648 0
M  V30 14747 H 1431.39 -1.89025 -0.192188 0
M  V30 14748 H 1429.54 -3.07785 -2.37066 0
M  V30 14749 H 1431.21 -4.60594 -0.255084 0
M  V30 14750 H 1429.46 -4.33465 -0.170548 0
M  V30 14751 H 1430.13 -5.31954 -1.47409 0
M  V30 14752 H 1432.6 -3.53353 -2.1973 0
M  V30 14753 H 1431.48 -4.41146 -3.26622 0
M  V30 14754 H 1431.74 -2.69124 -3.50749 0
M  V30 14755 N 1430.8 0.469154 -1.50455 0
M  V30 14756 C 1432.22 0.803067 -1.37924 0
M  V30 14757 C 1432.42 1.96708 -0.436837 0
M  V30 14758 O 1431.47 2.52216 0.119823 0
M  V30 14759 C 1432.79 1.11332 -2.79331 0
M  V30 14760 C 1434.33 1.21965 -2.88259 0
M  V30 14761 C 1434.81 1.56302 -4.30504 0
M  V30 14762 N 1436.3 1.6329 -4.33464 0
M  V30 14763 C 1437.03 1.91367 -5.40524 0
M  V30 14764 N 1436.53 2.17451 -6.57789 0
M  V30 14765 N 1438.32 1.92885 -5.2797 0
M  V30 14766 H 1430.47 -0.297928 -2.103 0
M  V30 14767 H 1432.74 -0.0707794 -0.945354 0
M  V30 14768 H 1432.44 0.331052 -3.50138 0
M  V30 14769 H 1432.32 2.04903 -3.16693 0
M  V30 14770 H 1434.7 1.99259 -2.17669 0
M  V30 14771 H 1434.79 0.263692 -2.54437 0
M  V30 14772 H 1434.43 0.795479 -5.01632 0
M  V30 14773 H 1434.36 2.53052 -4.61814 0
M  V30 14774 H 1436.85 1.45164 -3.48907 0
M  V30 14775 H 1437.16 2.38154 -7.35189 0
M  V30 14776 H 1435.51 2.14839 -6.60961 0
M  V30 14777 H 1438.7 1.72005 -4.35353 0
M  V30 14778 H 1438.87 2.1443 -6.11493 0
M  V30 14779 N 1432.28 1.40065 0.722464 0
M  V30 14780 C 1433.51 1.41271 1.51163 0
M  V30 14781 C 1433.92 0.0105425 1.88797 0
M  V30 14782 O 1433.28 -0.963867 1.5497 0
M  V30 14783 C 1433.33 2.29713 2.79131 0
M  V30 14784 O 1433.05 3.6447 2.43091 0
M  V30 14785 C 1434.55 2.39437 3.73075 0
M  V30 14786 H 1431.77 0.482086 0.466727 0
M  V30 14787 H 1434.32 1.84033 0.891736 0
M  V30 14788 H 1432.47 1.9033 3.37421 0
M  V30 14789 H 1432.88 4.11371 3.25383 0
M  V30 14790 H 1434.36 3.05543 4.59726 0
M  V30 14791 H 1434.84 1.41731 4.15703 0
M  V30 14792 H 1435.44 2.79342 3.20699 0
M  V30 14793 N 1433.76 -0.95397 1.25448 0
M  V30 14794 C 1434.69 -2.06828 1.08372 0
M  V30 14795 C 1435.67 -1.70098 -0.00741585 0
M  V30 14796 O 1436.85 -1.93521 0.16224 0
M  V30 14797 C 1433.98 -3.40124 0.702365 0
M  V30 14798 C 1432.94 -3.90865 1.74381 0
M  V30 14799 C 1432.26 -5.20663 1.21712 0
M  V30 14800 C 1433.56 -4.17169 3.14273 0
M  V30 14801 H 1435.26 -2.21372 2.01581 0
M  V30 14802 H 1432.8 -1.06374 0.970592 0
M  V30 14803 H 1434.76 -4.17529 0.569837 0
M  V30 14804 H 1433.48 -3.2552 -0.265428 0
M  V30 14805 H 1432.14 -3.15628 1.86479 0
M  V30 14806 H 1431.79 -5.02429 0.23954 0
M  V30 14807 H 1431.49 -5.55581 1.91319 0
M  V30 14808 H 1433.01 -6.00665 1.097 0
M  V30 14809 H 1434.43 -4.85231 3.05325 0
M  V30 14810 H 1432.82 -4.63344 3.81356 0
M  V30 14811 H 1433.89 -3.23421 3.61285 0
M  V30 14812 N 1435.24 -1.07045 -1.15668 0
M  V30 14813 C 1436.17 -0.645945 -2.1991 0
M  V30 14814 C 1437.18 0.29995 -1.60013 0
M  V30 14815 O 1438.37 0.0897537 -1.78274 0
M  V30 14816 C 1435.47 0.0721917 -3.38823 0
M  V30 14817 C 1434.64 -0.889103 -4.28268 0
M  V30 14818 C 1433.7 -0.208829 -5.25785 0
M  V30 14819 O 1432.73 -0.848894 -5.62834 0
M  V30 14820 N 1433.93 1.04671 -5.70985 0
M  V30 14821 H 1436.69 -1.54266 -2.56948 0
M  V30 14822 H 1434.26 -0.954736 -1.30753 0
M  V30 14823 H 1436.25 0.537882 -4.0111 0
M  V30 14824 H 1434.82 0.870805 -3.00226 0
M  V30 14825 H 1434.04 -1.53399 -3.63129 0
M  V30 14826 H 1435.33 -1.54097 -4.84904 0
M  V30 14827 H 1434.72 1.58673 -5.42991 0
M  V30 14828 H 1433.28 1.45613 -6.35327 0
M  V30 14829 N 1436.71 1.32449 -0.85411 0
M  V30 14830 C 1437.66 2.30821 -0.287115 0
M  V30 14831 C 1438.66 1.58823 0.58921 0
M  V30 14832 O 1439.86 1.73563 0.477075 0
M  V30 14833 H 1436.24 0.748336 -0.0741416 0
M  V30 14834 H 1438.21 2.76134 -1.13104 0
M  V30 14835 C 1436.96 3.43937 0.51013 0
M  V30 14836 H 1436.28 3.995 -0.154895 0
M  V30 14837 H 1437.72 4.14927 0.872451 0
M  V30 14838 C 1436.18 2.91147 1.69513 0
M  V30 14839 O 1436.71 2.88595 2.7942 0
M  V30 14840 N 1434.91 2.47554 1.52202 0
M  V30 14841 H 1434.46 2.49829 0.627941 0
M  V30 14842 H 1434.42 2.12587 2.31633 0
M  V30 14843 N 1438.19 0.611994 1.45232 0
M  V30 14844 C 1439.44 0.109073 2.02506 0
M  V30 14845 C 1439.77 -1.25876 1.47881 0
M  V30 14846 O 1439.05 -1.83131 0.65524 0
M  V30 14847 C 1439.33 0.0749288 3.60022 0
M  V30 14848 C 1439.18 1.47374 4.24972 0
M  V30 14849 C 1440.5 -0.610602 4.35844 0
M  V30 14850 H 1437.62 0.0411101 0.735853 0
M  V30 14851 H 1440.26 0.78481 1.73034 0
M  V30 14852 H 1438.41 -0.500511 3.85262 0
M  V30 14853 H 1440.08 2.0966 4.10902 0
M  V30 14854 H 1438.33 2.03319 3.83202 0
M  V30 14855 H 1439 1.40206 5.33897 0
M  V30 14856 H 1441.47 -0.121445 4.15923 0
M  V30 14857 H 1440.35 -0.603614 5.45571 0
M  V30 14858 H 1440.61 -1.6775 4.09038 0
M  V30 14859 N 1439.67 -1.53632 0.351409 0
M  V30 14860 C 1440.92 -2.01338 -0.243047 0
M  V30 14861 C 1441.25 -1.23864 -1.4957 0
M  V30 14862 O 1440.52 -0.328412 -1.91707 0
M  V30 14863 C 1440.81 -3.55886 -0.549284 0
M  V30 14864 C 1440.66 -4.44064 0.716016 0
M  V30 14865 C 1441.98 -4.18699 -1.35569 0
M  V30 14866 H 1439.1 -0.731863 -0.0868627 0
M  V30 14867 H 1441.74 -1.84005 0.473501 0
M  V30 14868 H 1439.89 -3.70787 -1.15972 0
M  V30 14869 H 1441.56 -4.40987 1.35383 0
M  V30 14870 H 1439.8 -4.12608 1.3393 0
M  V30 14871 H 1440.48 -5.50106 0.456895 0
M  V30 14872 H 1442.95 -4.07545 -0.839441 0
M  V30 14873 H 1441.83 -5.26892 -1.53871 0
M  V30 14874 H 1442.09 -3.73834 -2.3601 0
M  V30 14875 N 1441.15 -0.0802183 -1.57396 0
M  V30 14876 C 1442.4 0.585802 -1.93424 0
M  V30 14877 C 1442.72 1.69638 -0.961662 0
M  V30 14878 O 1441.99 1.95897 -0.011202 0
M  V30 14879 H 1440.57 0.219382 -0.714059 0
M  V30 14880 H 1443.23 -0.140055 -1.94396 0
M  V30 14881 H 1442.32 1.00566 -2.95454 0
M  V30 14882 N 1442.63 1.56409 0.193394 0
M  V30 14883 C 1443.59 1.93822 1.22334 0
M  V30 14884 C 1444.59 0.819513 1.3835 0
M  V30 14885 O 1445.78 1.0869 1.36132 0
M  V30 14886 C 1442.91 2.21375 2.59241 0
M  V30 14887 H 1444.1 2.85967 0.903502 0
M  V30 14888 H 1441.66 1.50125 0.43498 0
M  V30 14889 H 1442.39 1.31874 2.96277 0
M  V30 14890 H 1442.18 3.02899 2.48988 0
M  V30 14891 H 1443.67 2.51319 3.33509 0
M  V30 14892 N 1444.1 -0.461169 1.50702 0
M  V30 14893 C 1445.07 -1.54032 1.69725 0
M  V30 14894 C 1446.07 -1.50445 0.567707 0
M  V30 14895 O 1447.26 -1.52889 0.834901 0
M  V30 14896 C 1444.39 -2.93642 1.73168 0
M  V30 14897 H 1445.58 -1.38478 2.66015 0
M  V30 14898 H 1443.13 -0.688235 1.40332 0
M  V30 14899 H 1443.87 -3.14629 0.786078 0
M  V30 14900 H 1443.65 -2.97652 2.55236 0
M  V30 14901 H 1445.14 -3.71972 1.89807 0
M  V30 14902 N 1445.58 -1.40446 -0.715026 0
M  V30 14903 C 1446.86 -1.29253 -1.4681 0
M  V30 14904 C 1447.24 0.0888738 -2.10913 0
M  V30 14905 O 1446.59 1.10172 -2.00186 0
M  V30 14906 C 1446.8 -2.43173 -2.50335 0
M  V30 14907 C 1448.14 -2.83433 -3.1615 0
M  V30 14908 O 1449.17 -2.4277 -2.60655 0
M  V30 14909 O 1448.03 -3.53687 -4.16615 0
M  V30 14910 H 1445.12 -0.507627 -0.652873 0
M  V30 14911 H 1447.67 -1.52367 -0.747153 0
M  V30 14912 H 1446.44 -3.35438 -2.01486 0
M  V30 14913 H 1446.06 -2.21832 -3.29964 0
M  V30 14914 N 1447.06 0.947303 -1.25952 0
M  V30 14915 C 1448.47 1.50755 -1.10136 0
M  V30 14916 C 1448.82 1.93566 0.320437 0
M  V30 14917 O 1447.95 1.79326 1.21125 0
M  V30 14918 C 1448.54 2.7397 -1.99313 0
M  V30 14919 C 1447.1 3.26283 -1.8766 0
M  V30 14920 C 1446.25 1.99088 -1.93027 0
M  V30 14921 H 1449.2 0.763427 -1.39131 0
M  V30 14922 H 1449.22 3.48057 -1.53742 0
M  V30 14923 H 1448.73 2.42781 -3.02785 0
M  V30 14924 H 1446.83 3.62277 -0.870992 0
M  V30 14925 H 1446.95 3.93803 -2.72866 0
M  V30 14926 H 1445.31 2.14714 -1.37003 0
M  V30 14927 H 1446.09 1.70237 -2.98118 0
M  V30 14928 N 1448.54 1.07657 1.15099 0
M  V30 14929 C 1449.78 0.802796 1.86234 0
M  V30 14930 C 1450.12 -0.669555 1.82293 0
M  V30 14931 O 1449.39 -1.49162 1.24823 0
M  V30 14932 C 1449.68 1.3156 3.35208 0
M  V30 14933 C 1449.53 2.85272 3.47764 0
M  V30 14934 C 1450.85 0.934641 4.30061 0
M  V30 14935 H 1447.97 0.293099 0.676212 0
M  V30 14936 H 1450.61 1.33488 1.35207 0
M  V30 14937 H 1448.76 0.86298 3.78794 0
M  V30 14938 H 1450.43 3.38847 3.13018 0
M  V30 14939 H 1448.67 3.23316 2.89222 0
M  V30 14940 H 1449.34 3.16223 4.52446 0
M  V30 14941 H 1451.82 1.3247 3.9445 0
M  V30 14942 H 1450.7 1.32074 5.32774 0
M  V30 14943 H 1450.96 -0.159122 4.41814 0
M  V30 14944 N 1450.02 -1.31994 0.861122 0
M  V30 14945 C 1451.26 -1.97025 0.467678 0
M  V30 14946 C 1451.59 -1.68116 -0.978129 0
M  V30 14947 O 1450.85 -0.965342 -1.70234 0
M  V30 14948 C 1451.15 -3.51232 0.661135 0
M  V30 14949 C 1450.81 -4.00142 2.07839 0
M  V30 14950 C 1449.47 -4.1321 2.466 0
M  V30 14951 C 1451.83 -4.25986 3.00309 0
M  V30 14952 C 1449.15 -4.49467 3.7709 0
M  V30 14953 C 1451.51 -4.63704 4.30304 0
M  V30 14954 C 1450.17 -4.74978 4.68991 0
M  V30 14955 H 1449.44 -0.720967 0.171136 0
M  V30 14956 H 1452.09 -1.57285 1.09242 0
M  V30 14957 H 1450.39 -3.91772 -0.0467947 0
M  V30 14958 H 1452.09 -3.99584 0.336669 0
M  V30 14959 H 1448.68 -3.90461 1.76743 0
M  V30 14960 H 1452.86 -4.15393 2.71592 0
M  V30 14961 H 1448.12 -4.56391 4.06838 0
M  V30 14962 H 1452.29 -4.82654 5.02014 0
M  V30 14963 H 1449.92 -5.02828 5.70147 0
M  V30 14964 N 1451.49 -0.619688 -1.44906 0
M  V30 14965 C 1452.42 0.0791121 -2.33366 0
M  V30 14966 C 1453.41 0.846503 -1.47541 0
M  V30 14967 O 1454.59 0.814657 -1.76287 0
M  V30 14968 C 1451.72 1.06901 -3.30438 0
M  V30 14969 C 1450.67 0.41403 -4.25993 0
M  V30 14970 C 1450 1.51303 -5.12846 0
M  V30 14971 C 1451.3 -0.672483 -5.17953 0
M  V30 14972 H 1452.99 -0.659551 -2.92045 0
M  V30 14973 H 1450.54 -0.318623 -1.40431 0
M  V30 14974 H 1452.49 1.56653 -3.912 0
M  V30 14975 H 1451.22 1.83842 -2.69944 0
M  V30 14976 H 1449.88 -0.0627315 -3.66546 0
M  V30 14977 H 1449.52 2.27303 -4.48712 0
M  V30 14978 H 1449.22 1.08022 -5.77586 0
M  V30 14979 H 1450.75 2.01258 -5.76479 0
M  V30 14980 H 1452.16 -0.258542 -5.72717 0
M  V30 14981 H 1450.56 -1.02776 -5.91234 0
M  V30 14982 H 1451.63 -1.54425 -4.59653 0
M  V30 14983 N 1452.97 1.53444 -0.359552 0
M  V30 14984 C 1454.25 1.93467 0.288106 0
M  V30 14985 C 1454.63 1.29256 1.66901 0
M  V30 14986 O 1453.98 0.449402 2.24037 0
M  V30 14987 C 1454.19 3.47297 0.344359 0
M  V30 14988 C 1455.54 4.20515 0.587585 0
M  V30 14989 O 1456.56 3.53646 0.425818 0
M  V30 14990 O 1455.42 5.39003 0.902119 0
M  V30 14991 H 1452.51 0.809033 0.171451 0
M  V30 14992 H 1455.06 1.64625 -0.411896 0
M  V30 14993 H 1453.83 3.86292 -0.624064 0
M  V30 14994 H 1453.45 3.82353 1.0905 0
M  V30 14995 N 1454.45 0.0885642 1.57351 0
M  V30 14996 C 1455.7 -0.571435 1.95208 0
M  V30 14997 C 1456.05 -1.66196 0.96936 0
M  V30 14998 O 1455.34 -1.91599 -0.00570677 0
M  V30 14999 C 1455.54 -1.17764 3.37441 0
M  V30 15000 C 1455.37 -0.147362 4.49458 0
M  V30 15001 C 1454.14 0.273866 5.04557 0
M  V30 15002 C 1456.34 0.621935 5.10526 0
M  V30 15003 N 1454.32 1.29309 6.00127 0
M  V30 15004 C 1455.69 1.49317 6.01751 0
M  V30 15005 C 1457.74 0.676169 4.93287 0
M  V30 15006 C 1456.45 2.41386 6.77588 0
M  V30 15007 C 1458.47 1.58443 5.6978 0
M  V30 15008 C 1457.83 2.44331 6.60668 0
M  V30 15009 H 1453.93 -0.179629 0.76109 0
M  V30 15010 H 1456.52 0.169612 1.9396 0
M  V30 15011 H 1454.69 -1.88853 3.39395 0
M  V30 15012 H 1456.42 -1.79947 3.62493 0
M  V30 15013 H 1453.18 -0.112587 4.73466 0
M  V30 15014 H 1453.6 1.80072 6.52613 0
M  V30 15015 H 1458.24 0.0263199 4.22792 0
M  V30 15016 H 1455.96 3.07399 7.4735 0
M  V30 15017 H 1459.55 1.63145 5.58458 0
M  V30 15018 H 1458.43 3.1347 7.18823 0
M  V30 15019 N 1455.93 -1.56509 -0.185096 0
M  V30 15020 C 1456.86 -1.98363 -1.23184 0
M  V30 15021 C 1457.84 -0.85709 -1.46929 0
M  V30 15022 O 1459.02 -1.12216 -1.58497 0
M  V30 15023 C 1456.15 -2.33172 -2.57387 0
M  V30 15024 C 1455.11 -3.48658 -2.48236 0
M  V30 15025 C 1454.43 -3.69171 -3.86804 0
M  V30 15026 C 1455.73 -4.82538 -1.99885 0
M  V30 15027 H 1457.43 -2.86053 -0.883982 0
M  V30 15028 H 1454.97 -1.37623 -0.423786 0
M  V30 15029 H 1456.93 -2.61048 -3.30805 0
M  V30 15030 H 1455.65 -1.42377 -2.93933 0
M  V30 15031 H 1454.31 -3.20889 -1.77273 0
M  V30 15032 H 1453.96 -2.75689 -4.20719 0
M  V30 15033 H 1453.66 -4.46868 -3.81553 0
M  V30 15034 H 1455.18 -3.99433 -4.61829 0
M  V30 15035 H 1456.6 -5.0938 -2.63068 0
M  V30 15036 H 1454.99 -5.63775 -2.05614 0
M  V30 15037 H 1456.06 -4.75453 -0.952503 0
M  V30 15038 N 1457.41 0.45317 -1.50944 0
M  V30 15039 C 1458.65 1.20568 -1.63068 0
M  V30 15040 C 1458.99 1.91229 -0.338375 0
M  V30 15041 O 1458.26 1.82916 0.661207 0
M  V30 15042 C 1458.54 2.23522 -2.8233 0
M  V30 15043 C 1458.4 1.57047 -4.21493 0
M  V30 15044 C 1459.72 3.24663 -2.97123 0
M  V30 15045 H 1456.83 0.436971 -0.593486 0
M  V30 15046 H 1459.48 0.497008 -1.83384 0
M  V30 15047 H 1457.63 2.83961 -2.65139 0
M  V30 15048 H 1459.3 1.00067 -4.50316 0
M  V30 15049 H 1457.54 0.873143 -4.24922 0
M  V30 15050 H 1458.21 2.31949 -5.00903 0
M  V30 15051 H 1460.69 2.74264 -3.12919 0
M  V30 15052 H 1459.56 3.9401 -3.82161 0
M  V30 15053 H 1459.83 3.89843 -2.08506 0
M  V30 15054 N 1458.88 1.40823 0.707568 0
M  V30 15055 C 1460.13 1.39259 1.46463 0
M  V30 15056 C 1460.45 -0.00157854 1.95 0
M  V30 15057 O 1459.72 -0.957723 1.70893 0
M  V30 15058 H 1458.3 0.512558 0.543409 0
M  V30 15059 H 1460.97 1.75952 0.838269 0
M  V30 15060 H 1460.06 2.07243 2.3336 0
M  V30 15061 N 1460.36 -0.94061 1.26453 0
M  V30 15062 C 1461.29 -2.05667 1.10559 0
M  V30 15063 C 1462.27 -1.70097 0.0106258 0
M  V30 15064 O 1463.46 -1.93338 0.182756 0
M  V30 15065 C 1460.59 -3.3936 0.7384 0
M  V30 15066 C 1459.54 -3.88993 1.78517 0
M  V30 15067 C 1458.87 -5.19343 1.27228 0
M  V30 15068 C 1460.17 -4.13812 3.1868 0
M  V30 15069 H 1461.86 -2.19221 2.03918 0
M  V30 15070 H 1459.41 -1.05339 0.98182 0
M  V30 15071 H 1461.36 -4.16902 0.61409 0
M  V30 15072 H 1460.09 -3.25783 -0.230887 0
M  V30 15073 H 1458.74 -3.13633 1.89816 0
M  V30 15074 H 1458.39 -5.02147 0.292816 0
M  V30 15075 H 1458.09 -5.53521 1.97201 0
M  V30 15076 H 1459.62 -5.99468 1.16065 0
M  V30 15077 H 1461.03 -4.81966 3.10455 0
M  V30 15078 H 1459.43 -4.59273 3.86249 0
M  V30 15079 H 1460.5 -3.19571 3.64695 0
M  V30 15080 N 1461.84 -1.08266 -1.14527 0
M  V30 15081 C 1462.8 -0.715117 -2.17758 0
M  V30 15082 C 1463.8 0.24935 -1.58855 0
M  V30 15083 O 1464.99 0.0290846 -1.74176 0
M  V30 15084 C 1462.13 -0.055575 -3.40855 0
M  V30 15085 H 1463.32 -1.62921 -2.51787 0
M  V30 15086 H 1460.87 -0.880346 -1.2915 0
M  V30 15087 H 1461.61 0.870312 -3.12404 0
M  V30 15088 H 1461.39 -0.749382 -3.84872 0
M  V30 15089 H 1462.88 0.186592 -4.17183 0
M  V30 15090 N 1463.32 1.31536 -0.86811 0
M  V30 15091 C 1464.57 1.96775 -0.47812 0
M  V30 15092 C 1464.89 1.68632 0.9692 0
M  V30 15093 O 1464.15 0.974357 1.6972 0
M  V30 15094 C 1464.45 3.50876 -0.679752 0
M  V30 15095 C 1464.11 3.99034 -2.09958 0
M  V30 15096 C 1462.78 4.11896 -2.48787 0
M  V30 15097 C 1465.13 4.24387 -3.02564 0
M  V30 15098 C 1462.46 4.47461 -3.79468 0
M  V30 15099 C 1464.81 4.61415 -4.32757 0
M  V30 15100 C 1463.47 4.72484 -4.71503 0
M  V30 15101 H 1462.74 0.720049 -0.174957 0
M  V30 15102 H 1465.39 1.56703 -1.10074 0
M  V30 15103 H 1463.69 3.91791 0.0260174 0
M  V30 15104 H 1465.39 3.994 -0.357855 0
M  V30 15105 H 1461.98 3.89518 -1.78811 0
M  V30 15106 H 1466.17 4.13947 -2.73791 0
M  V30 15107 H 1461.42 4.54227 -4.09252 0
M  V30 15108 H 1465.6 4.79985 -5.04566 0
M  V30 15109 H 1463.22 4.99798 -5.72806 0
M  V30 15110 N 1464.8 0.627364 1.44575 0
M  V30 15111 C 1466.21 0.213149 1.85479 0
M  V30 15112 C 1466.56 -1.23458 1.52488 0
M  V30 15113 O 1465.68 -1.93885 0.961115 0
M  V30 15114 C 1466.28 0.380063 3.36661 0
M  V30 15115 C 1464.84 0.020385 3.76394 0
M  V30 15116 C 1463.99 0.695225 2.68444 0
M  V30 15117 H 1466.94 0.832771 1.35095 0
M  V30 15118 H 1466.96 -0.382078 3.78577 0
M  V30 15119 H 1466.47 1.43383 3.60642 0
M  V30 15120 H 1464.57 -1.03179 3.58029 0
M  V30 15121 H 1464.68 0.42782 4.77186 0
M  V30 15122 H 1463.05 0.130898 2.54363 0
M  V30 15123 H 1463.83 1.75151 2.95257 0
M  V30 15124 N 1466.28 -1.53251 0.367684 0
M  V30 15125 C 1467.52 -2.03197 -0.221396 0
M  V30 15126 C 1467.88 -1.249 -1.45822 0
M  V30 15127 O 1469.08 -1.64863 -2.12306 0
M  V30 15128 C 1467.35 -3.53827 -0.504134 0
M  V30 15129 S 1468.91 -4.2564 -1.06658 0
M  V30 15130 H 1465.73 -0.708089 -0.0642774 0
M  V30 15131 H 1468.33 -1.88703 0.511037 0
M  V30 15132 H 1467.03 -4.08412 0.403477 0
M  V30 15133 H 1466.57 -3.72487 -1.26558 0
M  V30 15134 H 1468.58 -4.36987 -2.35068 0
M  V30 15135 N 1467.75 -0.0969077 -1.57302 0
M  V30 15136 C 1468.69 0.891431 -2.11154 0
M  V30 15137 C 1469.7 1.24482 -1.04919 0
M  V30 15138 O 1470.89 1.19762 -1.3236 0
M  V30 15139 C 1467.99 2.19998 -2.57787 0
M  V30 15140 C 1467.16 2.02165 -3.87876 0
M  V30 15141 C 1466.22 3.16549 -4.20337 0
M  V30 15142 O 1465.25 2.90432 -4.89528 0
M  V30 15143 N 1466.45 4.42369 -3.75885 0
M  V30 15144 H 1469.21 0.431477 -2.96578 0
M  V30 15145 H 1466.77 0.0881458 -1.6166 0
M  V30 15146 H 1468.77 2.95472 -2.76547 0
M  V30 15147 H 1467.34 2.57412 -1.77364 0
M  V30 15148 H 1466.56 1.11011 -3.78246 0
M  V30 15149 H 1467.84 1.87529 -4.7298 0
M  V30 15150 H 1467.24 4.66469 -3.20036 0
M  V30 15151 H 1465.8 5.14787 -3.99797 0
M  V30 15152 N 1469.23 1.56605 0.176793 0
M  V30 15153 C 1470.65 1.50601 0.528354 0
M  V30 15154 C 1470.85 0.800205 1.8493 0
M  V30 15155 O 1469.9 0.358299 2.49945 0
M  V30 15156 C 1471.22 2.95322 0.566172 0
M  V30 15157 C 1472.76 3.06097 0.653751 0
M  V30 15158 C 1473.24 4.52265 0.722511 0
M  V30 15159 N 1474.73 4.5649 0.785548 0
M  V30 15160 C 1475.47 5.66926 0.859232 0
M  V30 15161 N 1474.96 6.87006 0.894088 0
M  V30 15162 N 1476.75 5.54883 0.897832 0
M  V30 15163 H 1468.91 2.00899 -0.689442 0
M  V30 15164 H 1471.17 0.915011 -0.24791 0
M  V30 15165 H 1470.87 3.50095 -0.33566 0
M  V30 15166 H 1470.75 3.49671 1.41456 0
M  V30 15167 H 1473.14 2.51361 1.54601 0
M  V30 15168 H 1473.22 2.54842 -0.221207 0
M  V30 15169 H 1472.86 5.0763 -0.165469 0
M  V30 15170 H 1472.79 5.01271 1.61353 0
M  V30 15171 H 1475.28 3.70032 0.767117 0
M  V30 15172 H 1475.59 7.66922 0.951333 0
M  V30 15173 H 1473.94 6.89628 0.862457 0
M  V30 15174 H 1477.13 4.5999 0.867564 0
M  V30 15175 H 1477.3 6.40972 0.951795 0
M  V30 15176 N 1470.71 -0.445159 1.51182 0
M  V30 15177 C 1472.12 -1.02528 1.56028 0
M  V30 15178 C 1472.47 -1.92503 0.379087 0
M  V30 15179 O 1471.6 -2.10424 -0.505056 0
M  V30 15180 C 1472.19 -1.86621 2.82768 0
M  V30 15181 C 1470.75 -2.39697 2.90211 0
M  V30 15182 C 1469.9 -1.18705 2.50608 0
M  V30 15183 H 1472.85 -0.226732 1.57072 0
M  V30 15184 H 1472.87 -2.71987 2.66089 0
M  V30 15185 H 1472.38 -1.2111 3.68719 0
M  V30 15186 H 1470.48 -3.08686 2.08672 0
M  V30 15187 H 1470.6 -2.73029 3.9369 0
M  V30 15188 H 1468.96 -1.52995 2.03629 0
M  V30 15189 H 1469.74 -0.548156 3.38895 0
M  V30 15190 N 1472.19 -1.41197 -0.700089 0
M  V30 15191 C 1473.43 -1.40311 -1.46011 0
M  V30 15192 C 1473.76 -0.0106853 -1.94497 0
M  V30 15193 O 1473.02 0.976648 -1.69588 0
M  V30 15194 C 1473.32 -2.35259 -2.6905 0
M  V30 15195 C 1472.98 -3.82194 -2.39245 0
M  V30 15196 C 1471.64 -4.22223 -2.30827 0
M  V30 15197 C 1474 -4.74983 -2.1457 0
M  V30 15198 C 1471.32 -5.53055 -1.95824 0
M  V30 15199 C 1473.68 -6.0613 -1.81077 0
M  V30 15200 C 1472.34 -6.45185 -1.71151 0
M  V30 15201 H 1471.61 -0.513434 -0.534291 0
M  V30 15202 H 1474.26 -1.73963 -0.800574 0
M  V30 15203 H 1472.56 -1.94845 -3.39915 0
M  V30 15204 H 1474.26 -2.31849 -3.2718 0
M  V30 15205 H 1470.85 -3.50488 -2.4669 0
M  V30 15206 H 1475.03 -4.44864 -2.20021 0
M  V30 15207 H 1470.29 -5.822 -1.86689 0
M  V30 15208 H 1474.46 -6.77533 -1.61002 0
M  V30 15209 H 1472.09 -7.46476 -1.43796 0
M  V30 15210 N 1473.67 0.933891 -1.2695 0
M  V30 15211 C 1474.91 1.67759 -1.12701 0
M  V30 15212 C 1475.23 1.92207 0.328848 0
M  V30 15213 O 1474.5 1.52394 1.23097 0
M  V30 15214 H 1473.08 0.621729 -0.41408 0
M  V30 15215 H 1475.75 1.1217 -1.59386 0
M  V30 15216 H 1474.84 2.64834 -1.65135 0
M  V30 15217 N 1475.14 1.08871 1.13951 0
M  V30 15218 C 1476.09 0.692507 2.17229 0
M  V30 15219 C 1477.08 -0.290264 1.5826 0
M  V30 15220 O 1478.27 -0.101531 1.76709 0
M  V30 15221 C 1475.4 0.108487 3.43129 0
M  V30 15222 C 1474.48 1.11733 4.09117 0
M  V30 15223 N 1474.88 2.30244 4.50357 0
M  V30 15224 C 1473.17 0.954172 4.35674 0
M  V30 15225 C 1473.87 2.94373 5.01716 0
M  V30 15226 N 1472.85 2.2196 4.96221 0
M  V30 15227 H 1476.65 1.59489 2.46861 0
M  V30 15228 H 1474.17 0.964113 1.30685 0
M  V30 15229 H 1476.16 -0.193345 4.16451 0
M  V30 15230 H 1474.82 -0.78882 3.14973 0
M  V30 15231 H 1475.83 2.67871 4.43244 0
M  V30 15232 H 1472.51 0.111069 4.17352 0
M  V30 15233 H 1473.9 3.95089 5.43465 0
M  V30 15234 N 1476.62 -1.31073 0.875073 0
M  V30 15235 C 1477.55 -2.27335 0.291809 0
M  V30 15236 C 1478.57 -1.53298 -0.548036 0
M  V30 15237 O 1479.76 -1.7464 -0.369198 0
M  V30 15238 C 1476.86 -3.33465 -0.604521 0
M  V30 15239 C 1476.03 -4.36924 0.204029 0
M  V30 15240 C 1475.09 -5.2252 -0.621238 0
M  V30 15241 O 1474.11 -5.6918 -0.0474551 0
M  V30 15242 N 1475.32 -5.47397 -1.93227 0
M  V30 15243 H 1478.08 -2.78024 1.11906 0
M  V30 15244 H 1475.64 -1.44149 0.737064 0
M  V30 15245 H 1477.63 -3.87646 -1.16243 0
M  V30 15246 H 1476.2 -2.8278 -1.33244 0
M  V30 15247 H 1475.42 -3.82745 0.943389 0
M  V30 15248 H 1476.71 -5.03112 0.758644 0
M  V30 15249 H 1476.11 -5.11253 -2.4215 0
M  V30 15250 H 1474.67 -6.04493 -2.43785 0
M  V30 15251 N 1478.1 -0.635022 -1.4424 0
M  V30 15252 C 1479.33 -0.148045 -2.06069 0
M  V30 15253 C 1479.74 1.1842 -1.47558 0
M  V30 15254 O 1479.08 1.73817 -0.594425 0
M  V30 15255 C 1479.14 0.0369593 -3.59481 0
M  V30 15256 C 1478.81 -1.21773 -4.40478 0
M  V30 15257 C 1479.8 -2.14233 -4.73709 0
M  V30 15258 C 1477.49 -1.45423 -4.80788 0
M  V30 15259 C 1479.48 -3.2865 -5.46139 0
M  V30 15260 C 1477.17 -2.60136 -5.52967 0
M  V30 15261 C 1478.17 -3.51576 -5.85562 0
M  V30 15262 O 1477.86 -4.64289 -6.5627 0
M  V30 15263 H 1477.59 -0.0787231 -0.671401 0
M  V30 15264 H 1480.14 -0.870639 -1.86035 0
M  V30 15265 H 1478.37 0.814739 -3.7802 0
M  V30 15266 H 1480.06 0.478984 -4.03064 0
M  V30 15267 H 1480.83 -1.97196 -4.43101 0
M  V30 15268 H 1476.71 -0.751378 -4.54835 0
M  V30 15269 H 1480.25 -4.00043 -5.71499 0
M  V30 15270 H 1476.15 -2.77114 -5.82991 0
M  V30 15271 H 1476.92 -4.6332 -6.74742 0
M  V30 15272 N 1479.58 1.53054 -0.375806 0
M  V30 15273 C 1480.83 2.01003 0.210257 0
M  V30 15274 C 1481.15 1.26451 1.48442 0
M  V30 15275 O 1480.42 0.380687 1.92166 0
M  V30 15276 H 1479 0.74263 0.0806861 0
M  V30 15277 H 1481.66 1.8826 -0.504393 0
M  V30 15278 H 1480.76 3.09123 0.430027 0
M  V30 15279 N 1481.06 0.105248 1.57248 0
M  V30 15280 C 1482.3 -0.556878 1.95004 0
M  V30 15281 C 1482.64 -1.672 0.987818 0
M  V30 15282 O 1481.91 -1.94487 0.022616 0
M  V30 15283 C 1482.19 -1.10252 3.42807 0
M  V30 15284 C 1482.05 0.00823908 4.49799 0
M  V30 15285 C 1483.37 -1.99774 3.92146 0
M  V30 15286 H 1480.48 -0.200959 0.709073 0
M  V30 15287 H 1483.13 0.178019 1.89164 0
M  V30 15288 H 1481.28 -1.7288 3.47915 0
M  V30 15289 H 1482.95 0.642944 4.56797 0
M  V30 15290 H 1481.19 0.673265 4.28544 0
M  V30 15291 H 1481.86 -0.414538 5.50441 0
M  V30 15292 H 1484.34 -1.47036 3.89255 0
M  V30 15293 H 1483.21 -2.34874 4.9611 0
M  V30 15294 H 1483.48 -2.91902 3.32033 0
M  V30 15295 N 1482.53 -1.56697 -0.168486 0
M  V30 15296 C 1483.81 -1.73032 -0.912097 0
M  V30 15297 C 1484.19 -0.667424 -2.00271 0
M  V30 15298 O 1483.54 0.317307 -2.26286 0
M  V30 15299 C 1483.75 -3.16334 -1.47424 0
M  V30 15300 C 1485.1 -3.77378 -1.94606 0
M  V30 15301 O 1486.12 -3.19629 -1.57212 0
M  V30 15302 O 1484.98 -4.78781 -2.63497 0
M  V30 15303 H 1482.07 -0.706713 -0.429518 0
M  V30 15304 H 1484.62 -1.68981 -0.156093 0
M  V30 15305 H 1483.39 -3.85179 -0.689421 0
M  V30 15306 H 1483.02 -3.24723 -2.29435 0
M  V30 15307 N 1484.01 0.437135 -1.51416 0
M  V30 15308 C 1484.92 1.55581 -1.75589 0
M  V30 15309 C 1485.94 1.61797 -0.640132 0
M  V30 15310 O 1487.11 1.79035 -0.922406 0
M  V30 15311 C 1484.18 2.91561 -1.87598 0
M  V30 15312 C 1483.24 2.9546 -3.11451 0
M  V30 15313 C 1482.47 4.24954 -3.22878 0
M  V30 15314 O 1482.7 5.17341 -2.40238 0
M  V30 15315 O 1481.63 4.35141 -4.15856 0
M  V30 15316 H 1485.46 1.38098 -2.70486 0
M  V30 15317 H 1483.04 0.620163 -1.3592 0
M  V30 15318 H 1484.92 3.72262 -1.97481 0
M  V30 15319 H 1483.6 3.09171 -0.958889 0
M  V30 15320 H 1482.51 2.13713 -3.07046 0
M  V30 15321 H 1483.84 2.82794 -4.0285 0
M  V30 15322 N 1485.49 1.41566 0.692592 0
M  V30 15323 C 1486.72 1.44445 1.48132 0
M  V30 15324 C 1487.13 0.0505867 1.88732 0
M  V30 15325 O 1486.49 -0.930779 1.5698 0
M  V30 15326 C 1486.54 2.35582 2.74196 0
M  V30 15327 O 1486.26 3.69545 2.35305 0
M  V30 15328 C 1487.76 2.47296 3.67912 0
M  V30 15329 H 1484.98 0.491877 0.456396 0
M  V30 15330 H 1487.53 1.85884 0.852499 0
M  V30 15331 H 1485.68 1.97445 3.33308 0
M  V30 15332 H 1486.1 4.1818 3.16584 0
M  V30 15333 H 1487.57 3.15225 4.53141 0
M  V30 15334 H 1488.05 1.50517 4.12603 0
M  V30 15335 H 1488.65 2.86082 3.14702 0
M  V30 15336 N 1486.97 -0.927146 1.27443 0
M  V30 15337 C 1488.38 -1.48984 1.1252 0
M  V30 15338 C 1488.73 -1.94051 -0.289602 0
M  V30 15339 O 1487.86 -1.8123 -1.18257 0
M  V30 15340 C 1488.45 -2.70765 2.03646 0
M  V30 15341 C 1487.01 -3.23256 1.92827 0
M  V30 15342 C 1486.16 -1.95991 1.9617 0
M  V30 15343 H 1489.11 -0.741196 1.40328 0
M  V30 15344 H 1489.13 -3.45567 1.5926 0
M  V30 15345 H 1488.64 -2.37933 3.0661 0
M  V30 15346 H 1486.74 -3.60845 0.928516 0
M  V30 15347 H 1486.85 -3.89413 2.79096 0
M  V30 15348 H 1485.22 -2.12508 1.40402 0
M  V30 15349 H 1486 -1.65473 3.00788 0
M  V30 15350 N 1488.45 -1.09474 -1.13372 0
M  V30 15351 C 1489.39 -0.73458 -2.18798 0
M  V30 15352 C 1490.36 0.284433 -1.63647 0
M  V30 15353 O 1491.55 0.165958 -1.90077 0
M  V30 15354 C 1488.69 -0.161826 -3.4472 0
M  V30 15355 C 1487.8 -1.23494 -4.13973 0
M  V30 15356 C 1486.94 -0.624886 -5.27512 0
M  V30 15357 C 1485.98 -1.67927 -5.88614 0
M  V30 15358 N 1485.11 -1.09021 -6.93584 0
M  V30 15359 H 1489.95 -1.63787 -2.48954 0
M  V30 15360 H 1487.49 -0.818297 -1.22239 0
M  V30 15361 H 1489.45 0.188053 -4.16776 0
M  V30 15362 H 1488.08 0.70473 -3.15013 0
M  V30 15363 H 1487.13 -1.70209 -3.40196 0
M  V30 15364 H 1488.44 -2.0335 -4.55467 0
M  V30 15365 H 1487.6 -0.22388 -6.06287 0
M  V30 15366 H 1486.33 0.205214 -4.87268 0
M  V30 15367 H 1485.34 -2.08982 -5.08534 0
M  V30 15368 H 1486.56 -2.51204 -6.3093 0
M  V30 15369 H 1484.51 -0.281401 -6.55396 0
M  V30 15370 H 1484.43 -1.82573 -7.33623 0
M  V30 15371 H 1485.7 -0.715428 -7.7621 0
M  V30 15372 N 1489.92 1.30607 -0.882012 0
M  V30 15373 C 1491.17 1.96927 -0.509063 0
M  V30 15374 C 1491.53 1.6838 0.930903 0
M  V30 15375 O 1490.82 0.976464 1.64851 0
M  V30 15376 C 1491.01 3.50136 -0.716929 0
M  V30 15377 C 1490.84 3.93573 -2.17555 0
M  V30 15378 C 1489.61 4.19321 -2.81954 0
M  V30 15379 C 1491.81 4.06619 -3.14906 0
M  V30 15380 N 1489.79 4.49198 -4.18443 0
M  V30 15381 C 1491.16 4.40345 -4.36459 0
M  V30 15382 C 1493.22 3.89035 -3.10734 0
M  V30 15383 C 1491.92 4.58322 -5.54377 0
M  V30 15384 C 1493.95 4.08212 -4.27922 0
M  V30 15385 C 1493.31 4.42281 -5.4824 0
M  V30 15386 H 1489.41 0.745681 -0.23555 0
M  V30 15387 H 1491.99 1.57898 -1.13913 0
M  V30 15388 H 1490.16 3.88226 -0.116371 0
M  V30 15389 H 1491.89 4.03502 -0.311174 0
M  V30 15390 H 1488.65 4.12412 -2.32838 0
M  V30 15391 H 1489.07 4.68276 -4.88924 0
M  V30 15392 H 1493.72 3.61774 -2.18813 0
M  V30 15393 H 1491.43 4.84426 -6.46805 0
M  V30 15394 H 1495.02 3.96079 -4.2616 0
M  V30 15395 H 1493.9 4.56815 -6.37408 0
M  V30 15396 N 1491.4 0.642663 1.43901 0
M  V30 15397 C 1492.82 0.309286 1.56575 0
M  V30 15398 C 1493.02 -1.18709 1.6282 0
M  V30 15399 O 1492.07 -1.97157 1.57751 0
M  V30 15400 C 1493.39 1.01136 2.83182 0
M  V30 15401 C 1494.94 0.9906 2.96911 0
M  V30 15402 C 1495.41 1.67336 4.26336 0
M  V30 15403 N 1496.9 1.6405 4.33177 0
M  V30 15404 C 1497.64 2.13762 5.32065 0
M  V30 15405 N 1497.13 2.71716 6.37293 0
M  V30 15406 N 1498.93 2.04323 5.23649 0
M  V30 15407 H 1491.08 1.61384 1.38091 0
M  V30 15408 H 1493.34 0.678084 0.6625 0
M  V30 15409 H 1493.05 2.0664 2.84592 0
M  V30 15410 H 1492.92 0.556304 3.73075 0
M  V30 15411 H 1495.31 -0.0559997 2.95047 0
M  V30 15412 H 1495.39 1.48425 2.08335 0
M  V30 15413 H 1495.03 2.71947 4.2896 0
M  V30 15414 H 1494.96 1.15445 5.1379 0
M  V30 15415 H 1497.45 1.21749 3.57751 0
M  V30 15416 H 1497.77 3.07352 7.09052 0
M  V30 15417 H 1496.11 2.75772 6.37946 0
M  V30 15418 H 1499.3 1.5876 4.40355 0
M  V30 15419 H 1499.47 2.43376 6.0056 0
M  V30 15420 N 1492.88 -1.52852 0.383918 0
M  V30 15421 C 1494.13 -2.00694 -0.201206 0
M  V30 15422 C 1494.44 -1.2748 -1.48352 0
M  V30 15423 O 1495.65 -1.66005 -2.14836 0
M  V30 15424 C 1494.11 -3.57567 -0.409117 0
M  V30 15425 C 1493.71 -4.39675 0.859628 0
M  V30 15426 C 1495.46 -4.13713 -0.950899 0
M  V30 15427 C 1493.36 -5.88138 0.620292 0
M  V30 15428 H 1492.29 -0.749854 -0.0789656 0
M  V30 15429 H 1494.95 -1.764 0.505488 0
M  V30 15430 H 1493.33 -3.78088 -1.17753 0
M  V30 15431 H 1494.5 -4.30923 1.63224 0
M  V30 15432 H 1492.82 -3.94724 1.32597 0
M  V30 15433 H 1495.41 -5.22284 -1.14558 0
M  V30 15434 H 1495.76 -3.69463 -1.9184 0
M  V30 15435 H 1496.29 -3.97062 -0.242195 0
M  V30 15436 H 1493.03 -6.367 1.55864 0
M  V30 15437 H 1492.55 -5.99693 -0.113483 0
M  V30 15438 H 1494.23 -6.46506 0.252775 0
M  V30 15439 N 1494.36 -0.113586 -1.5719 0
M  V30 15440 C 1495.29 0.835363 -2.18046 0
M  V30 15441 C 1496.27 1.28114 -1.11897 0
M  V30 15442 O 1497.46 1.34472 -1.40111 0
M  V30 15443 C 1494.59 2.08759 -2.77556 0
M  V30 15444 C 1493.54 1.77979 -3.8924 0
M  V30 15445 C 1492.87 3.10185 -4.35533 0
M  V30 15446 C 1494.17 1.05231 -5.11589 0
M  V30 15447 H 1495.86 0.328275 -2.97595 0
M  V30 15448 H 1493.41 0.156456 -1.43148 0
M  V30 15449 H 1495.36 2.75597 -3.18785 0
M  V30 15450 H 1494.08 2.61783 -1.95288 0
M  V30 15451 H 1492.74 1.13532 -3.48577 0
M  V30 15452 H 1492.39 3.61133 -3.50131 0
M  V30 15453 H 1492.09 2.90367 -5.10843 0
M  V30 15454 H 1493.61 3.78151 -4.7941 0
M  V30 15455 H 1495.03 1.62213 -5.49872 0
M  V30 15456 H 1493.42 0.955269 -5.92448 0
M  V30 15457 H 1494.49 0.038137 -4.84885 0
M  V30 15458 N 1495.84 1.56784 0.160173 0
M  V30 15459 C 1497.25 1.72193 0.721552 0
M  V30 15460 C 1497.6 0.725901 1.82278 0
M  V30 15461 O 1496.72 -0.110343 2.16118 0
M  V30 15462 C 1497.32 3.12212 1.31563 0
M  V30 15463 C 1495.88 3.29268 1.82371 0
M  V30 15464 C 1495.03 2.68136 0.70701 0
M  V30 15465 H 1497.98 1.58565 -0.0653521 0
M  V30 15466 H 1498 3.11481 2.1854 0
M  V30 15467 H 1497.51 3.84682 0.513917 0
M  V30 15468 H 1495.61 2.61774 2.65152 0
M  V30 15469 H 1495.72 4.37107 1.96149 0
M  V30 15470 H 1494.09 2.28246 1.1303 0
M  V30 15471 H 1494.87 3.432 -0.0830407 0
M  V30 15472 N 1497.32 -0.429099 1.51646 0
M  V30 15473 C 1498.59 -1.18958 1.55269 0
M  V30 15474 C 1498.97 -2.08633 0.321816 0
M  V30 15475 O 1498.32 -2.1775 -0.69261 0
M  V30 15476 C 1498.53 -1.98427 2.87102 0
M  V30 15477 C 1499.88 -2.55185 3.39361 0
M  V30 15478 O 1500.9 -2.08629 2.88708 0
M  V30 15479 O 1499.76 -3.40119 4.27763 0
M  V30 15480 H 1496.86 -0.542041 0.624596 0
M  V30 15481 H 1499.4 -0.437499 1.63964 0
M  V30 15482 H 1498.17 -1.32613 3.68143 0
M  V30 15483 H 1497.8 -2.80683 2.81608 0
M  V30 15484 N 1498.79 -1.41931 -0.685074 0
M  V30 15485 C 1500.21 -1.24631 -0.996957 0
M  V30 15486 C 1500.41 -0.143146 -2.00991 0
M  V30 15487 O 1499.47 0.489012 -2.47719 0
M  V30 15488 C 1500.78 -2.59947 -1.51156 0
M  V30 15489 C 1502.33 -2.67216 -1.62986 0
M  V30 15490 C 1502.8 -4.02874 -2.17845 0
M  V30 15491 N 1504.29 -4.04775 -2.25192 0
M  V30 15492 C 1505.03 -5.0655 -2.68691 0
M  V30 15493 N 1504.52 -6.18712 -3.11717 0
M  V30 15494 N 1506.32 -4.93909 -2.68348 0
M  V30 15495 H 1498.47 -2.12395 -0.0142223 0
M  V30 15496 H 1500.73 -0.945496 -0.0688552 0
M  V30 15497 H 1500.44 -3.41477 -0.841793 0
M  V30 15498 H 1500.31 -2.83159 -2.49201 0
M  V30 15499 H 1502.7 -1.86038 -2.29071 0
M  V30 15500 H 1502.78 -2.47804 -0.634584 0
M  V30 15501 H 1502.42 -4.84505 -1.52372 0
M  V30 15502 H 1502.35 -4.19633 -3.18144 0
M  V30 15503 H 1504.84 -3.23798 -1.94841 0
M  V30 15504 H 1505.16 -6.9223 -3.43565 0
M  V30 15505 H 1503.5 -6.22232 -3.096 0
M  V30 15506 H 1506.69 -4.05364 -2.34089 0
M  V30 15507 H 1506.87 -5.73361 -3.01929 0
M  V30 15508 N 1500.27 0.920374 -1.27933 0
M  V30 15509 C 1501.52 1.66883 -1.147 0
M  V30 15510 C 1501.85 1.92082 0.305732 0
M  V30 15511 O 1501.1 1.51449 1.23942 0
M  V30 15512 C 1501.4 3.03725 -1.88377 0
M  V30 15513 C 1501.07 2.9821 -3.38203 0
M  V30 15514 C 1499.73 2.96413 -3.79068 0
M  V30 15515 C 1502.08 2.88952 -4.3377 0
M  V30 15516 C 1499.41 2.83151 -5.13851 0
M  V30 15517 C 1501.76 2.77231 -5.68618 0
M  V30 15518 C 1500.42 2.73788 -6.08766 0
M  V30 15519 H 1499.69 0.61067 -0.419718 0
M  V30 15520 H 1502.34 1.0728 -1.58629 0
M  V30 15521 H 1500.65 3.67075 -1.36978 0
M  V30 15522 H 1502.34 3.60527 -1.7556 0
M  V30 15523 H 1498.93 3.004 -3.05709 0
M  V30 15524 H 1503.12 2.89433 -4.03165 0
M  V30 15525 H 1498.37 2.78877 -5.44093 0
M  V30 15526 H 1502.55 2.69034 -6.42335 0
M  V30 15527 H 1500.17 2.63268 -7.13158 0
M  V30 15528 N 1501.75 1.10074 1.1279 0
M  V30 15529 C 1503 0.839212 1.83852 0
M  V30 15530 C 1503.32 -0.637023 1.84301 0
M  V30 15531 O 1502.59 -1.46239 1.30349 0
M  V30 15532 H 1501.17 0.307468 0.680788 0
M  V30 15533 H 1503.83 1.39025 1.36595 0
M  V30 15534 H 1502.93 1.19872 2.88162 0
M  V30 15535 N 1503.23 -1.30138 0.888926 0
M  V30 15536 C 1504.19 -2.26299 0.363504 0
M  V30 15537 C 1505.19 -1.52951 -0.496244 0
M  V30 15538 O 1506.38 -1.71548 -0.302834 0
M  V30 15539 C 1503.51 -3.37482 -0.481544 0
M  V30 15540 H 1504.71 -2.7429 1.21265 0
M  V30 15541 H 1502.26 -1.41395 0.666124 0
M  V30 15542 H 1502.99 -2.94814 -1.35112 0
M  V30 15543 H 1502.78 -3.9187 0.134344 0
M  V30 15544 H 1504.27 -4.09048 -0.840816 0
M  V30 15545 N 1504.71 -0.650285 -1.43559 0
M  V30 15546 C 1505.62 0.0438076 -2.34559 0
M  V30 15547 C 1506.63 0.815316 -1.53716 0
M  V30 15548 O 1507.81 0.76323 -1.86378 0
M  V30 15549 C 1504.87 1.00028 -3.31957 0
M  V30 15550 C 1503.93 0.226027 -4.28705 0
M  V30 15551 C 1503.17 1.13694 -5.21449 0
M  V30 15552 O 1503.39 2.37614 -5.18551 0
M  V30 15553 O 1502.32 0.610924 -5.98792 0
M  V30 15554 H 1506.15 -0.705152 -2.954 0
M  V30 15555 H 1503.73 -0.410471 -1.43651 0
M  V30 15556 H 1505.62 1.55004 -3.91857 0
M  V30 15557 H 1504.29 1.72952 -2.73623 0
M  V30 15558 H 1503.2 -0.367244 -3.72293 0
M  V30 15559 H 1504.53 -0.463582 -4.90012 0
M  V30 15560 N 1506.18 1.52647 -0.392018 0
M  V30 15561 C 1507.15 2.25135 0.429754 0
M  V30 15562 C 1508.15 1.26871 0.987946 0
M  V30 15563 O 1509.34 1.50947 0.86952 0
M  V30 15564 C 1506.47 3.00849 1.60321 0
M  V30 15565 H 1507.66 2.99199 -0.204918 0
M  V30 15566 H 1505.21 1.55634 -0.144188 0
M  V30 15567 H 1505.95 2.31092 2.27524 0
M  V30 15568 H 1505.73 3.72975 1.20964 0
M  V30 15569 H 1507.22 3.55879 2.18494 0
M  V30 15570 N 1507.66 0.121921 1.57128 0
M  V30 15571 C 1508.61 -0.844503 2.16728 0
M  V30 15572 C 1509.6 -1.2733 1.1173 0
M  V30 15573 O 1510.81 -1.2447 1.30028 0
M  V30 15574 H 1507.19 -0.290459 0.693641 0
M  V30 15575 H 1509.16 -0.317379 2.96707 0
M  V30 15576 C 1507.91 -2.08359 2.78356 0
M  V30 15577 H 1507.23 -1.76258 3.5885 0
M  V30 15578 H 1508.67 -2.73978 3.23592 0
M  V30 15579 C 1507.13 -2.87526 1.75586 0
M  V30 15580 O 1507.66 -3.83011 1.21101 0
M  V30 15581 N 1505.86 -2.51575 1.4546 0
M  V30 15582 H 1505.41 -1.73993 1.89958 0
M  V30 15583 H 1505.37 -3.0484 0.769411 0
M  V30 15584 N 1509.14 -1.56867 -0.151857 0
M  V30 15585 C 1510.37 -1.87601 -0.884347 0
M  V30 15586 C 1510.79 -0.710419 -1.74168 0
M  V30 15587 O 1510.15 0.340103 -1.78081 0
M  V30 15588 C 1510.2 -3.16887 -1.72091 0
M  V30 15589 O 1509.3 -3.00479 -2.82464 0
M  V30 15590 H 1508.64 -0.616509 -0.246603 0
M  V30 15591 H 1511.17 -2.04092 -0.144135 0
M  V30 15592 H 1511.18 -3.48785 -2.11691 0
M  V30 15593 H 1509.86 -4.01327 -1.09131 0
M  V30 15594 H 1508.43 -2.79978 -2.46306 0
M  V30 15595 N 1510.62 0.421051 -1.51871 0
M  V30 15596 C 1512.03 1.00033 -1.5764 0
M  V30 15597 C 1512.38 1.91875 -0.409665 0
M  V30 15598 O 1511.51 2.11201 0.471516 0
M  V30 15599 C 1512.1 1.82099 -2.85701 0
M  V30 15600 C 1510.66 2.35049 -2.93988 0
M  V30 15601 C 1509.81 1.14703 -2.52465 0
M  V30 15602 H 1512.76 0.201715 -1.57413 0
M  V30 15603 H 1512.78 2.67719 -2.70382 0
M  V30 15604 H 1512.29 1.15229 -3.706 0
M  V30 15605 H 1510.39 3.05327 -2.13556 0
M  V30 15606 H 1510.5 2.66731 -3.97984 0
M  V30 15607 H 1508.87 1.49736 -2.06037 0
M  V30 15608 H 1509.65 0.494171 -3.39725 0
M  V30 15609 N 1512.1 1.42293 0.677538 0
M  V30 15610 C 1513.34 1.42827 1.43973 0
M  V30 15611 C 1513.68 0.0435041 1.94151 0
M  V30 15612 O 1512.95 -0.931794 1.70727 0
M  V30 15613 C 1513.23 2.45037 2.63873 0
M  V30 15614 C 1513.09 3.92694 2.19344 0
M  V30 15615 C 1514.41 2.4427 3.66087 0
M  V30 15616 H 1511.52 0.520097 0.522176 0
M  V30 15617 H 1514.17 1.73688 0.770219 0
M  V30 15618 H 1512.32 2.18851 3.20993 0
M  V30 15619 H 1513.99 4.2985 1.67412 0
M  V30 15620 H 1512.23 4.06692 1.50944 0
M  V30 15621 H 1512.9 4.59784 3.05455 0
M  V30 15622 H 1515.38 2.67551 3.18678 0
M  V30 15623 H 1514.25 3.17769 4.47564 0
M  V30 15624 H 1514.52 1.46769 4.17027 0
M  V30 15625 N 1513.57 -0.913576 1.28419 0
M  V30 15626 C 1514.51 -2.01727 1.06683 0
M  V30 15627 C 1515.49 -1.62591 -0.0171379 0
M  V30 15628 O 1516.67 -1.88045 0.130827 0
M  V30 15629 C 1513.8 -3.32954 0.621229 0
M  V30 15630 C 1512.84 -3.91074 1.70187 0
M  V30 15631 S 1513.68 -4.21902 3.29786 0
M  V30 15632 C 1514.83 -5.5619 2.8706 0
M  V30 15633 H 1515.06 -2.19855 2.00127 0
M  V30 15634 H 1512.6 -1.05846 1.1241 0
M  V30 15635 H 1514.56 -4.08822 0.370832 0
M  V30 15636 H 1513.22 -3.12727 -0.293381 0
M  V30 15637 H 1512.41 -4.85813 1.3417 0
M  V30 15638 H 1512.01 -3.21843 1.90507 0
M  V30 15639 H 1514.3 -6.36085 2.33242 0
M  V30 15640 H 1515.25 -5.97119 3.80598 0
M  V30 15641 H 1515.65 -5.17386 2.25771 0
M  V30 15642 N 1515.05 -1.1067 -1.12204 0
M  V30 15643 C 1516.33 -0.762632 -1.8012 0
M  V30 15644 C 1516.71 0.750529 -1.97308 0
M  V30 15645 O 1516.06 1.67764 -1.55137 0
M  V30 15646 C 1516.27 -1.51651 -3.14329 0
M  V30 15647 C 1517.62 -1.69061 -3.89491 0
M  V30 15648 O 1518.64 -1.48009 -3.23994 0
M  V30 15649 O 1517.5 -2.03984 -5.07004 0
M  V30 15650 H 1514.59 -0.275417 -0.779791 0
M  V30 15651 H 1517.14 -1.20966 -1.19018 0
M  V30 15652 H 1515.91 -2.54622 -2.97125 0
M  V30 15653 H 1515.53 -1.0625 -3.83141 0
M  V30 15654 N 1516.53 1.29665 -0.895815 0
M  V30 15655 C 1517.48 2.2542 -0.34201 0
M  V30 15656 C 1518.46 1.5172 0.535712 0
M  V30 15657 O 1519.66 1.72909 0.378364 0
M  V30 15658 C 1516.79 3.4056 0.43287 0
M  V30 15659 C 1515.87 4.21603 -0.459552 0
M  V30 15660 N 1516.26 4.8098 -1.565 0
M  V30 15661 C 1514.56 4.45261 -0.256632 0
M  V30 15662 C 1515.26 5.41792 -2.11746 0
M  V30 15663 N 1514.24 5.24968 -1.411 0
M  V30 15664 H 1518.04 2.68885 -1.18651 0
M  V30 15665 H 1515.55 1.4423 -0.74643 0
M  V30 15666 H 1517.55 4.08219 0.846334 0
M  V30 15667 H 1516.21 2.98633 1.27468 0
M  V30 15668 H 1517.22 4.79877 -1.94777 0
M  V30 15669 H 1513.9 4.13899 0.547131 0
M  V30 15670 H 1515.29 5.9887 -3.04637 0
M  V30 15671 N 1518.01 0.657889 1.43212 0
M  V30 15672 C 1518.96 -0.0427288 2.32561 0
M  V30 15673 C 1519.95 -0.808236 1.48875 0
M  V30 15674 O 1521.16 -0.718109 1.65055 0
M  V30 15675 H 1517.53 -0.0326049 0.751293 0
M  V30 15676 H 1519.5 0.728503 2.89371 0
M  V30 15677 C 1518.25 -0.99216 3.33244 0
M  V30 15678 H 1517.57 -0.412542 3.97666 0
M  V30 15679 H 1519.01 -1.45138 3.98385 0
M  V30 15680 C 1517.47 -2.09044 2.64201 0
M  V30 15681 O 1518 -3.17481 2.46107 0
M  V30 15682 N 1516.21 -1.85732 2.23499 0
M  V30 15683 H 1515.76 -0.975483 2.38416 0
M  V30 15684 H 1515.71 -2.5941 1.77634 0
M  V30 15685 N 1519.49 -1.52437 0.400108 0
M  V30 15686 C 1520.73 -2.01312 -0.178252 0
M  V30 15687 C 1521.06 -1.28797 -1.46411 0
M  V30 15688 O 1520.33 -0.411211 -1.91536 0
M  V30 15689 H 1518.91 -0.743819 -0.0688613 0
M  V30 15690 H 1521.57 -1.87434 0.53428 0
M  V30 15691 H 1520.66 -3.09768 -0.380793 0
M  V30 15692 N 1520.96 -0.130252 -1.57061 0
M  V30 15693 C 1522.21 0.523969 -1.9519 0
M  V30 15694 C 1522.53 1.66493 -1.01514 0
M  V30 15695 O 1521.8 1.95762 -0.0735194 0
M  V30 15696 H 1520.38 0.196553 -0.720677 0
M  V30 15697 H 1523.05 -0.20183 -1.93852 0
M  V30 15698 H 1522.14 0.911156 -2.98504 0
M  V30 15699 N 1522.44 1.56945 0.143535 0
M  V30 15700 C 1523.69 1.83176 0.853873 0
M  V30 15701 C 1524.01 0.71168 1.81549 0
M  V30 15702 O 1523.28 -0.266391 1.9408 0
M  V30 15703 H 1521.86 0.675785 0.318313 0
M  V30 15704 H 1524.52 1.9442 0.136712 0
M  V30 15705 H 1523.62 2.7823 1.41402 0
M  V30 15706 N 1523.92 -0.412991 1.52093 0
M  V30 15707 C 1525.33 -0.991955 1.58168 0
M  V30 15708 C 1525.68 -1.91655 0.419834 0
M  V30 15709 O 1524.81 -2.11448 -0.460308 0
M  V30 15710 C 1525.4 -1.80581 2.86663 0
M  V30 15711 C 1523.96 -2.33487 2.9523 0
M  V30 15712 C 1523.11 -1.13362 2.5307 0
M  V30 15713 H 1526.06 -0.193364 1.57518 0
M  V30 15714 H 1526.08 -2.66282 2.71798 0
M  V30 15715 H 1525.59 -1.13262 3.71205 0
M  V30 15716 H 1523.69 -3.0419 2.15173 0
M  V30 15717 H 1523.81 -2.64617 3.99393 0
M  V30 15718 H 1522.17 -1.48641 2.06828 0
M  V30 15719 H 1522.95 -0.476148 3.39982 0
M  V30 15720 N 1525.4 -1.4265 -0.669982 0
M  V30 15721 C 1526.33 -1.49298 -1.79534 0
M  V30 15722 C 1527.31 -0.34911 -1.66479 0
M  V30 15723 O 1528.5 -0.564072 -1.85828 0
M  V30 15724 C 1525.63 -1.39935 -3.17861 0
M  V30 15725 C 1524.58 -2.52398 -3.45657 0
M  V30 15726 C 1523.91 -2.28092 -4.8361 0
M  V30 15727 C 1525.21 -3.94697 -3.4207 0
M  V30 15728 H 1526.9 -2.43486 -1.74227 0
M  V30 15729 H 1524.45 -1.17191 -0.836796 0
M  V30 15730 H 1526.4 -1.43193 -3.96325 0
M  V30 15731 H 1525.12 -0.422436 -3.23857 0
M  V30 15732 H 1523.78 -2.48465 -2.69556 0
M  V30 15733 H 1523.43 -1.28683 -4.86261 0
M  V30 15734 H 1523.13 -3.03469 -5.0317 0
M  V30 15735 H 1524.65 -2.33107 -5.64352 0
M  V30 15736 H 1526.07 -4.00207 -4.10496 0
M  V30 15737 H 1524.46 -4.69965 -3.73166 0
M  V30 15738 H 1525.53 -4.21025 -2.40554 0
M  V30 15739 N 1526.88 0.906753 -1.28902 0
M  V30 15740 C 1528.13 1.6533 -1.16234 0
M  V30 15741 C 1528.45 1.92861 0.288004 0
M  V30 15742 O 1527.72 1.54971 1.19837 0
M  V30 15743 H 1526.3 0.612806 -0.427174 0
M  V30 15744 H 1528.96 1.08764 -1.6173 0
M  V30 15745 H 1528.05 2.61271 -1.70715 0
M  V30 15746 N 1528.36 1.11264 1.11616 0
M  V30 15747 C 1529.6 0.855139 1.82675 0
M  V30 15748 C 1529.92 -0.621194 1.85474 0
M  V30 15749 O 1531.12 -0.994886 2.52615 0
M  V30 15750 C 1529.58 1.48007 3.28058 0
M  V30 15751 C 1529.19 2.99031 3.33593 0
M  V30 15752 C 1530.93 1.30233 4.04029 0
M  V30 15753 C 1528.84 3.54517 4.73362 0
M  V30 15754 H 1527.77 0.316252 0.684471 0
M  V30 15755 H 1530.42 1.33766 1.25614 0
M  V30 15756 H 1528.8 0.925214 3.8504 0
M  V30 15757 H 1529.98 3.60905 2.86503 0
M  V30 15758 H 1528.29 3.16059 2.711 0
M  V30 15759 H 1530.89 1.69122 5.07249 0
M  V30 15760 H 1531.23 0.244724 4.1558 0
M  V30 15761 H 1531.76 1.82573 3.53429 0
M  V30 15762 H 1528.5 4.59982 4.67008 0
M  V30 15763 H 1528.02 2.97414 5.20869 0
M  V30 15764 H 1529.7 3.52848 5.42316 0
M  V30 15765 N 1529.83 -1.29188 0.902679 0
M  V30 15766 C 1531.06 -1.99576 0.545635 0
M  V30 15767 C 1531.48 -1.67541 -0.870372 0
M  V30 15768 O 1530.83 -0.922082 -1.57493 0
M  V30 15769 C 1530.88 -3.54013 0.731916 0
M  V30 15770 O 1530.61 -3.84914 2.09219 0
M  V30 15771 C 1532.11 -4.41666 0.38022 0
M  V30 15772 H 1529.33 -0.637593 0.209083 0
M  V30 15773 H 1531.87 -1.64652 1.21284 0
M  V30 15774 H 1530.03 -3.87239 0.111849 0
M  V30 15775 H 1530.44 -4.79581 2.12373 0
M  V30 15776 H 1531.91 -5.49138 0.561382 0
M  V30 15777 H 1532.39 -4.33858 -0.682915 0
M  V30 15778 H 1533 -4.13918 0.977354 0
M  V30 15779 N 1531.31 -0.665475 -1.42861 0
M  V30 15780 C 1532.22 0.018927 -2.34592 0
M  V30 15781 C 1533.24 0.798967 -1.54572 0
M  V30 15782 O 1534.41 0.743419 -1.87177 0
M  V30 15783 C 1531.48 0.965013 -3.32999 0
M  V30 15784 C 1530.54 0.180544 -4.2892 0
M  V30 15785 C 1529.77 1.08157 -5.22626 0
M  V30 15786 O 1530 2.32101 -5.21043 0
M  V30 15787 O 1528.93 0.54738 -5.99406 0
M  V30 15788 H 1532.76 -0.736444 -2.94636 0
M  V30 15789 H 1530.34 -0.425684 -1.43207 0
M  V30 15790 H 1532.22 1.50839 -3.93479 0
M  V30 15791 H 1530.9 1.7004 -2.75442 0
M  V30 15792 H 1529.8 -0.40671 -3.71883 0
M  V30 15793 H 1531.14 -0.515529 -4.89493 0
M  V30 15794 N 1532.79 1.52222 -0.408187 0
M  V30 15795 C 1533.72 2.29892 0.408868 0
M  V30 15796 C 1534.7 1.34063 1.04695 0
M  V30 15797 O 1535.89 1.6297 1.05615 0
M  V30 15798 C 1533.02 3.11964 1.52629 0
M  V30 15799 C 1531.97 4.15833 1.01326 0
M  V30 15800 C 1531.3 4.86244 2.2242 0
M  V30 15801 C 1532.6 5.22256 0.0679573 0
M  V30 15802 H 1534.29 2.98443 -0.23923 0
M  V30 15803 H 1531.84 1.43528 -0.116496 0
M  V30 15804 H 1533.79 3.65067 2.10486 0
M  V30 15805 H 1532.51 2.41181 2.20225 0
M  V30 15806 H 1531.17 3.63739 0.4571 0
M  V30 15807 H 1530.82 4.11991 2.88569 0
M  V30 15808 H 1530.52 5.56461 1.88746 0
M  V30 15809 H 1532.04 5.42159 2.80885 0
M  V30 15810 H 1533.46 5.70604 0.555295 0
M  V30 15811 H 1531.85 5.9983 -0.179934 0
M  V30 15812 H 1532.92 4.76892 -0.877599 0
M  V30 15813 N 1534.27 0.138579 1.5699 0
M  V30 15814 C 1535.2 -0.800568 2.19347 0
M  V30 15815 C 1536.18 -1.26318 1.13921 0
M  V30 15816 O 1537.36 -1.32226 1.42232 0
M  V30 15817 C 1534.49 -2.04317 2.80842 0
M  V30 15818 C 1533.45 -1.71764 3.92022 0
M  V30 15819 C 1532.77 -3.03217 4.40413 0
M  V30 15820 C 1534.07 -0.970789 5.13199 0
M  V30 15821 H 1535.77 -0.280888 2.98079 0
M  V30 15822 H 1533.31 -0.133663 1.43378 0
M  V30 15823 H 1535.27 -2.70491 3.2313 0
M  V30 15824 H 1533.99 -2.58643 1.99428 0
M  V30 15825 H 1532.65 -1.07972 3.50339 0
M  V30 15826 H 1532.3 -3.55517 3.55832 0
M  V30 15827 H 1532 -2.82203 5.15398 0
M  V30 15828 H 1533.52 -3.70477 4.85365 0
M  V30 15829 H 1534.94 -1.53445 5.52384 0
M  V30 15830 H 1533.33 -0.860895 5.93893 0
M  V30 15831 H 1534.4 0.0390088 4.84884 0
M  V30 15832 N 1535.75 -1.57019 -0.13521 0
M  V30 15833 C 1536.68 -1.94319 -1.19646 0
M  V30 15834 C 1537.66 -0.810603 -1.40954 0
M  V30 15835 O 1538.84 -1.0673 -1.55374 0
M  V30 15836 C 1535.97 -2.22542 -2.55328 0
M  V30 15837 C 1535.01 -3.45151 -2.50546 0
M  V30 15838 S 1535.85 -4.98307 -1.96089 0
M  V30 15839 C 1537 -5.29665 -3.33476 0
M  V30 15840 H 1537.24 -2.8403 -0.878294 0
M  V30 15841 H 1534.77 -1.5058 -0.341313 0
M  V30 15842 H 1536.73 -2.39482 -3.33405 0
M  V30 15843 H 1535.39 -1.33474 -2.8433 0
M  V30 15844 H 1534.58 -3.62213 -3.50454 0
M  V30 15845 H 1534.18 -3.27514 -1.80583 0
M  V30 15846 H 1536.47 -5.23854 -4.29631 0
M  V30 15847 H 1537.42 -6.31031 -3.21256 0
M  V30 15848 H 1537.83 -4.57161 -3.31156 0
M  V30 15849 N 1537.22 0.404919 -1.52309 0
M  V30 15850 C 1538.64 0.743846 -1.41206 0
M  V30 15851 C 1538.84 1.94678 -0.519874 0
M  V30 15852 O 1537.9 2.52497 0.0127417 0
M  V30 15853 C 1539.21 0.99384 -2.83802 0
M  V30 15854 C 1540.76 1.0963 -2.93173 0
M  V30 15855 C 1541.23 1.37902 -4.36746 0
M  V30 15856 N 1542.72 1.44758 -4.39999 0
M  V30 15857 C 1543.46 1.68269 -5.48154 0
M  V30 15858 N 1542.95 1.89356 -6.6642 0
M  V30 15859 N 1544.75 1.70318 -5.35675 0
M  V30 15860 H 1536.9 -0.386855 -2.08847 0
M  V30 15861 H 1539.16 -0.110811 -0.941501 0
M  V30 15862 H 1538.87 0.182249 -3.51227 0
M  V30 15863 H 1538.74 1.91287 -3.25099 0
M  V30 15864 H 1541.13 1.89847 -2.25925 0
M  V30 15865 H 1541.21 0.155539 -2.55327 0
M  V30 15866 H 1540.85 0.582004 -5.04554 0
M  V30 15867 H 1540.78 2.33237 -4.72132 0
M  V30 15868 H 1543.27 1.30235 -3.5475 0
M  V30 15869 H 1543.59 2.06758 -7.44628 0
M  V30 15870 H 1541.93 1.86612 -6.69478 0
M  V30 15871 H 1545.12 1.53385 -4.42256 0
M  V30 15872 H 1545.3 1.88302 -6.20037 0
M  V30 15873 N 1538.7 1.43003 0.662408 0
M  V30 15874 C 1539.67 1.4713 1.75743 0
M  V30 15875 C 1540.67 0.357203 1.56782 0
M  V30 15876 O 1541.86 0.618566 1.62848 0
M  V30 15877 C 1538.99 1.31499 3.14517 0
M  V30 15878 H 1540.18 2.44641 1.73467 0
M  V30 15879 H 1537.73 1.29633 0.873208 0
M  V30 15880 H 1538.47 0.349596 3.2241 0
M  V30 15881 H 1538.25 2.12253 3.29683 0
M  V30 15882 H 1539.74 1.37298 3.94384 0
M  V30 15883 N 1540.18 -0.899904 1.29381 0
M  V30 15884 C 1541.41 -1.68383 1.20227 0
M  V30 15885 C 1541.82 -1.87305 -0.237135 0
M  V30 15886 O 1541.18 -1.40992 -1.15877 0
M  V30 15887 C 1541.23 -3.06845 1.91124 0
M  V30 15888 O 1540.95 -2.88787 3.29444 0
M  V30 15889 C 1542.45 -4.01253 1.88444 0
M  V30 15890 H 1539.67 -0.525917 0.416717 0
M  V30 15891 H 1542.22 -1.12537 1.7075 0
M  V30 15892 H 1540.37 -3.59467 1.44438 0
M  V30 15893 H 1540.79 -3.7652 3.65148 0
M  V30 15894 H 1542.26 -4.95824 2.42616 0
M  V30 15895 H 1542.74 -4.30699 0.859925 0
M  V30 15896 H 1543.34 -3.54562 2.34874 0
M  V30 15897 N 1541.66 -1.11854 -1.11024 0
M  V30 15898 C 1542.89 -0.892714 -1.8665 0
M  V30 15899 C 1543.3 0.557721 -1.80374 0
M  V30 15900 O 1542.66 1.3853 -1.1881 0
M  V30 15901 C 1542.71 -1.35135 -3.35292 0
M  V30 15902 O 1542.43 -2.74493 -3.41446 0
M  V30 15903 C 1543.93 -1.16157 -4.27811 0
M  V30 15904 H 1541.15 -0.319409 -0.590101 0
M  V30 15905 H 1543.7 -1.48697 -1.40391 0
M  V30 15906 H 1541.85 -0.80046 -3.7904 0
M  V30 15907 H 1542.26 -2.94474 -4.34034 0
M  V30 15908 H 1543.74 -1.53144 -5.30331 0
M  V30 15909 H 1544.22 -0.101546 -4.39083 0
M  V30 15910 H 1544.82 -1.69966 -3.89861 0
M  V30 15911 N 1543.14 1.28707 -0.909517 0
M  V30 15912 C 1544.38 1.95443 -0.541281 0
M  V30 15913 C 1544.72 1.71457 0.911934 0
M  V30 15914 O 1543.99 1.03312 1.64794 0
M  V30 15915 C 1544.27 3.50019 -0.846097 0
M  V30 15916 C 1544.13 3.83423 -2.35173 0
M  V30 15917 C 1545.45 4.3879 -0.339328 0
M  V30 15918 H 1542.56 0.709869 -0.198128 0
M  V30 15919 H 1545.21 1.52151 -1.13799 0
M  V30 15920 H 1543.36 3.87025 -0.338262 0
M  V30 15921 H 1545.03 3.5631 -2.92986 0
M  V30 15922 H 1543.27 3.30618 -2.80846 0
M  V30 15923 H 1543.94 4.91348 -2.51557 0
M  V30 15924 H 1546.42 4.08832 -0.774312 0
M  V30 15925 H 1545.29 5.45809 -0.581722 0
M  V30 15926 H 1545.56 4.35514 0.760244 0
M  V30 15927 N 1544.61 0.673042 1.42506 0
M  V30 15928 C 1545.58 0.00283156 2.292 0
M  V30 15929 C 1546.58 -0.73077 1.43235 0
M  V30 15930 O 1547.77 -0.569037 1.64644 0
M  V30 15931 C 1544.9 -1.00666 3.25698 0
M  V30 15932 H 1546.09 0.765869 2.89956 0
M  V30 15933 H 1543.65 0.435301 1.50116 0
M  V30 15934 H 1544.38 -1.79825 2.69877 0
M  V30 15935 H 1544.17 -0.484043 3.89101 0
M  V30 15936 H 1545.66 -1.47409 3.90718 0
M  V30 15937 N 1546.09 -1.52004 0.416254 0
M  V30 15938 C 1547.32 -2.0679 -0.158937 0
M  V30 15939 C 1547.74 -1.28366 -1.37491 0
M  V30 15940 O 1547.1 -0.315815 -1.78528 0
M  V30 15941 C 1547.15 -3.57381 -0.480717 0
M  V30 15942 O 1546.25 -3.81321 -1.5706 0
M  V30 15943 H 1545.59 -0.663907 -0.0110938 0
M  V30 15944 H 1548.12 -1.95863 0.591509 0
M  V30 15945 H 1548.13 -4.01283 -0.737297 0
M  V30 15946 H 1546.81 -4.13893 0.408137 0
M  V30 15947 H 1545.39 -3.49296 -1.30563 0
M  V30 15948 N 1547.57 -0.146903 -1.56914 0
M  V30 15949 C 1548.8 0.51044 -2.00195 0
M  V30 15950 C 1549.21 1.58966 -1.02599 0
M  V30 15951 O 1548.55 1.83694 -0.0149611 0
M  V30 15952 C 1548.61 1.17055 -3.39909 0
M  V30 15953 C 1548.28 0.235944 -4.56391 0
M  V30 15954 C 1549.27 -0.536351 -5.17126 0
M  V30 15955 C 1546.96 0.138878 -5.02108 0
M  V30 15956 C 1548.95 -1.39316 -6.21989 0
M  V30 15957 C 1546.64 -0.721538 -6.06825 0
M  V30 15958 C 1547.64 -1.48616 -6.66635 0
M  V30 15959 O 1547.33 -2.33224 -7.69325 0
M  V30 15960 H 1547.06 0.137381 -0.661893 0
M  V30 15961 H 1549.61 -0.23844 -2.04011 0
M  V30 15962 H 1547.84 1.96707 -3.32931 0
M  V30 15963 H 1549.53 1.72761 -3.67299 0
M  V30 15964 H 1550.3 -0.471393 -4.82704 0
M  V30 15965 H 1546.18 0.723769 -4.55283 0
M  V30 15966 H 1549.72 -1.99044 -6.68601 0
M  V30 15967 H 1545.62 -0.787788 -6.40675 0
M  V30 15968 H 1546.39 -2.26471 -7.86545 0
M  V30 15969 N 1549.05 1.57088 0.126881 0
M  V30 15970 C 1549.98 2.02799 1.15737 0
M  V30 15971 C 1550.96 0.911031 1.43646 0
M  V30 15972 O 1552.14 1.18021 1.54223 0
M  V30 15973 C 1549.27 2.42565 2.48555 0
M  V30 15974 C 1548.23 3.57631 2.35125 0
M  V30 15975 C 1547.55 3.83272 3.72836 0
M  V30 15976 C 1548.85 4.89625 1.81838 0
M  V30 15977 H 1550.55 2.89136 0.777207 0
M  V30 15978 H 1548.09 1.39101 0.372416 0
M  V30 15979 H 1550.05 2.73146 3.20888 0
M  V30 15980 H 1548.77 1.53188 2.88446 0
M  V30 15981 H 1547.43 3.27247 1.65242 0
M  V30 15982 H 1547.08 2.91114 4.10197 0
M  V30 15983 H 1546.78 4.60721 3.64705 0
M  V30 15984 H 1548.3 4.16298 4.46686 0
M  V30 15985 H 1549.72 5.18793 2.43981 0
M  V30 15986 H 1548.11 5.71018 1.84548 0
M  V30 15987 H 1549.18 4.7866 0.775385 0
M  V30 15988 N 1550.53 -0.396836 1.52522 0
M  V30 15989 C 1551.47 -1.48427 1.76743 0
M  V30 15990 C 1552.44 -1.54481 0.610321 0
M  V30 15991 O 1553.63 -1.7086 0.849201 0
M  V30 15992 C 1550.77 -2.85744 1.93505 0
M  V30 15993 C 1549.88 -2.88904 3.21183 0
M  V30 15994 C 1549.02 -4.17598 3.28307 0
M  V30 15995 C 1548.06 -4.14779 4.50138 0
M  V30 15996 N 1547.19 -5.35065 4.54587 0
M  V30 15997 H 1552.03 -1.27075 2.69548 0
M  V30 15998 H 1549.57 -0.61661 1.33553 0
M  V30 15999 H 1551.53 -3.65474 2.01208 0
M  V30 16000 H 1550.16 -3.05564 1.04069 0
M  V30 16001 H 1549.21 -2.01592 3.22591 0
M  V30 16002 H 1550.52 -2.82688 4.10961 0
M  V30 16003 H 1549.68 -5.05727 3.35149 0
M  V30 16004 H 1548.41 -4.26526 2.36489 0
M  V30 16005 H 1547.42 -3.25039 4.4343 0
M  V30 16006 H 1548.64 -4.07481 5.43264 0
M  V30 16007 H 1546.59 -5.44638 3.65658 0
M  V30 16008 H 1546.51 -5.30894 5.38227 0
M  V30 16009 H 1547.78 -6.25114 4.65675 0
M  V30 16010 N 1552.01 -1.43353 -0.654814 0
M  V30 16011 C 1553.28 -1.35363 -1.41195 0
M  V30 16012 C 1553.66 -0.000661523 -2.111 0
M  V30 16013 O 1553.01 1.01583 -2.04678 0
M  V30 16014 C 1553.22 -2.53572 -2.39796 0
M  V30 16015 C 1554.57 -2.96587 -3.03844 0
M  V30 16016 O 1555.59 -2.53607 -2.50124 0
M  V30 16017 O 1554.45 -3.71039 -4.01239 0
M  V30 16018 H 1551.55 -0.534861 -0.630756 0
M  V30 16019 H 1554.09 -1.55399 -0.681857 0
M  V30 16020 H 1552.86 -3.43682 -1.87078 0
M  V30 16021 H 1552.49 -2.35628 -3.20258 0
M  V30 16022 N 1553.48 0.89303 -1.29857 0
M  V30 16023 C 1554.76 1.62492 -1.08884 0
M  V30 16024 C 1555.14 2.07926 0.364695 0
M  V30 16025 O 1554.49 1.84009 1.35473 0
M  V30 16026 C 1554.7 2.80063 -2.08245 0
M  V30 16027 C 1556.05 3.50589 -2.39526 0
M  V30 16028 O 1557.07 2.90241 -2.06492 0
M  V30 16029 O 1555.93 4.59399 -2.95998 0
M  V30 16030 H 1553.02 0.713805 -0.417626 0
M  V30 16031 H 1555.57 0.940513 -1.41253 0
M  V30 16032 H 1554.34 2.43735 -3.06119 0
M  V30 16033 H 1553.96 3.56205 -1.76645 0
M  V30 16034 N 1554.96 1.12442 1.10429 0
M  V30 16035 C 1556.21 0.890989 1.82847 0
M  V30 16036 C 1556.56 -0.576982 1.83545 0
M  V30 16037 O 1555.86 -1.42106 1.28516 0
M  V30 16038 C 1556.05 1.39976 3.28849 0
M  V30 16039 C 1555.88 2.91567 3.42373 0
M  V30 16040 C 1554.65 3.59803 3.54781 0
M  V30 16041 C 1556.85 3.89566 3.35772 0
M  V30 16042 N 1554.83 4.99508 3.56882 0
M  V30 16043 C 1556.2 5.154 3.44619 0
M  V30 16044 C 1558.25 3.81977 3.19372 0
M  V30 16045 C 1556.96 6.34537 3.38756 0
M  V30 16046 C 1558.98 5.00636 3.1483 0
M  V30 16047 C 1558.35 6.25328 3.24259 0
M  V30 16048 H 1554.44 0.379313 0.683846 0
M  V30 16049 H 1557.03 1.43073 1.32054 0
M  V30 16050 H 1555.2 0.887076 3.78134 0
M  V30 16051 H 1556.93 1.1084 3.89226 0
M  V30 16052 H 1553.69 3.10295 3.5779 0
M  V30 16053 H 1554.11 5.72376 3.61544 0
M  V30 16054 H 1558.75 2.86468 3.1096 0
M  V30 16055 H 1556.47 7.30312 3.45934 0
M  V30 16056 H 1560.06 4.96494 3.03291 0
M  V30 16057 H 1558.94 7.15605 3.20747 0
M  V30 16058 N 1556.44 -1.28223 0.91633 0
M  V30 16059 C 1557.69 -1.94865 0.550823 0
M  V30 16060 C 1558.01 -1.72113 -0.905945 0
M  V30 16061 O 1557.27 -1.03668 -1.65987 0
M  V30 16062 C 1557.57 -3.48112 0.809509 0
M  V30 16063 C 1557.23 -3.90967 2.24623 0
M  V30 16064 C 1555.9 -4.02379 2.63903 0
M  V30 16065 C 1558.25 -4.12865 3.18106 0
M  V30 16066 C 1555.58 -4.33069 3.95814 0
M  V30 16067 C 1557.93 -4.45036 4.49584 0
M  V30 16068 C 1556.59 -4.54659 4.88714 0
M  V30 16069 H 1555.86 -0.71306 0.20156 0
M  V30 16070 H 1558.51 -1.5251 1.15814 0
M  V30 16071 H 1556.81 -3.91618 0.119411 0
M  V30 16072 H 1558.51 -3.97797 0.505843 0
M  V30 16073 H 1555.1 -3.82614 1.93144 0
M  V30 16074 H 1559.29 -4.035 2.88966 0
M  V30 16075 H 1554.54 -4.38725 4.25829 0
M  V30 16076 H 1558.72 -4.60928 5.22033 0
M  V30 16077 H 1556.34 -4.78194 5.90961 0
M  V30 16078 N 1557.92 -0.68059 -1.42147 0
M  V30 16079 C 1559.33 -0.350691 -1.55699 0
M  V30 16080 C 1559.53 1.1435 -1.6591 0
M  V30 16081 O 1558.59 1.92905 -1.62923 0
M  V30 16082 C 1559.9 -1.08608 -2.80401 0
M  V30 16083 C 1561.45 -1.06897 -2.9418 0
M  V30 16084 C 1561.93 -1.78581 -4.2175 0
M  V30 16085 N 1563.42 -1.75477 -4.28675 0
M  V30 16086 C 1564.15 -2.27794 -5.26211 0
M  V30 16087 N 1563.65 -2.88518 -6.29865 0
M  V30 16088 N 1565.44 -2.18135 -5.18048 0
M  V30 16089 H 1557.59 -1.64988 -1.33763 0
M  V30 16090 H 1559.85 -0.695411 -0.644289 0
M  V30 16091 H 1559.56 -2.14113 -2.79014 0
M  V30 16092 H 1559.43 -0.655022 -3.71469 0
M  V30 16093 H 1561.82 -0.0222464 -2.95092 0
M  V30 16094 H 1561.9 -1.53897 -2.04327 0
M  V30 16095 H 1561.55 -2.83225 -4.21599 0
M  V30 16096 H 1561.48 -1.29027 -5.10548 0
M  V30 16097 H 1563.97 -1.31191 -3.54397 0
M  V30 16098 H 1564.28 -3.26043 -7.00654 0
M  V30 16099 H 1562.63 -2.92589 -6.3041 0
M  V30 16100 H 1565.82 -1.7038 -4.35991 0
M  V30 16101 H 1565.99 -2.59213 -5.93896 0
M  V30 16102 N 1559.4 1.51781 -0.424309 0
M  V30 16103 C 1560.67 1.94514 0.205791 0
M  V30 16104 C 1561.05 1.36219 1.61269 0
M  V30 16105 O 1560.4 0.544019 2.21929 0
M  V30 16106 C 1560.61 3.48445 0.196749 0
M  V30 16107 C 1561.96 4.22628 0.408702 0
M  V30 16108 O 1562.98 3.55133 0.275441 0
M  V30 16109 O 1561.84 5.42344 0.672698 0
M  V30 16110 H 1558.94 0.815576 0.136983 0
M  V30 16111 H 1561.48 1.6273 -0.481349 0
M  V30 16112 H 1560.25 3.83297 -0.787342 0
M  V30 16113 H 1559.88 3.86634 0.92735 0
M  V30 16114 N 1560.87 0.155222 1.56834 0
M  V30 16115 C 1562.12 -0.488126 1.97456 0
M  V30 16116 C 1562.47 -1.61935 1.03898 0
M  V30 16117 O 1561.77 -1.91451 0.0755621 0
M  V30 16118 C 1561.96 -1.03346 3.42132 0
M  V30 16119 C 1561.79 0.0434014 4.49679 0
M  V30 16120 C 1560.56 0.487619 5.02942 0
M  V30 16121 C 1562.76 0.837907 5.07428 0
M  V30 16122 N 1560.74 1.54646 5.94102 0
M  V30 16123 C 1562.11 1.74705 5.94877 0
M  V30 16124 C 1564.17 0.884781 4.89976 0
M  V30 16125 C 1562.87 2.69907 6.6674 0
M  V30 16126 C 1564.9 1.82467 5.62548 0
M  V30 16127 C 1564.26 2.72132 6.4971 0
M  V30 16128 H 1560.36 -0.147187 0.768023 0
M  V30 16129 H 1562.94 0.251725 1.93066 0
M  V30 16130 H 1561.11 -1.74288 3.471 0
M  V30 16131 H 1562.84 -1.6441 3.69799 0
M  V30 16132 H 1559.6 0.0883276 4.73518 0
M  V30 16133 H 1560.02 2.07589 6.44388 0
M  V30 16134 H 1564.66 0.205617 4.223 0
M  V30 16135 H 1562.38 3.3882 7.33639 0
M  V30 16136 H 1565.97 1.86684 5.51036 0
M  V30 16137 H 1564.85 3.43676 7.0488 0
M  V30 16138 N 1562.35 -1.57153 -0.118549 0
M  V30 16139 C 1563.6 -1.84511 -0.824623 0
M  V30 16140 C 1563.92 -0.740473 -1.80394 0
M  V30 16141 O 1563.19 0.235481 -1.9448 0
M  V30 16142 H 1561.77 -0.680764 -0.307522 0
M  V30 16143 H 1564.43 -1.94613 -0.105764 0
M  V30 16144 H 1563.53 -2.80444 -1.36958 0
M  V30 16145 N 1563.83 0.388742 -1.5273 0
M  V30 16146 C 1564.79 1.45759 -1.76881 0
M  V30 16147 C 1565.79 1.47565 -0.63884 0
M  V30 16148 O 1566.98 1.48731 -0.906895 0
M  V30 16149 C 1564.11 2.85045 -1.86981 0
M  V30 16150 H 1565.31 1.25629 -2.72319 0
M  V30 16151 H 1562.86 0.620497 -1.43456 0
M  V30 16152 H 1563.6 3.1052 -0.935296 0
M  V30 16153 H 1563.38 2.85136 -2.69147 0
M  V30 16154 H 1564.87 3.62492 -2.07338 0
M  V30 16155 N 1565.31 1.43698 0.647203 0
M  V30 16156 C 1566.24 1.52135 1.77136 0
M  V30 16157 C 1567.22 0.375551 1.65902 0
M  V30 16158 O 1568.4 0.593564 1.84907 0
M  V30 16159 C 1565.53 1.44974 3.15594 0
M  V30 16160 C 1564.49 2.57866 3.41598 0
M  V30 16161 C 1563.81 2.35757 4.7992 0
M  V30 16162 C 1565.11 4.00089 3.35747 0
M  V30 16163 H 1566.81 2.46227 1.70332 0
M  V30 16164 H 1564.35 1.18507 0.818046 0
M  V30 16165 H 1566.31 1.4948 3.93997 0
M  V30 16166 H 1565.03 0.473905 3.23143 0
M  V30 16167 H 1563.69 2.52722 2.65569 0
M  V30 16168 H 1563.34 1.36403 4.84152 0
M  V30 16169 H 1563.04 3.11436 4.98278 0
M  V30 16170 H 1564.56 2.42055 5.60572 0
M  V30 16171 H 1565.98 4.06687 4.04078 0
M  V30 16172 H 1564.37 4.75842 3.65642 0
M  V30 16173 H 1565.44 4.24798 2.33825 0
M  V30 16174 N 1566.79 -0.886131 1.30328 0
M  V30 16175 C 1567.72 -1.99733 1.12425 0
M  V30 16176 C 1568.73 -1.62659 0.067824 0
M  V30 16177 O 1569.92 -1.75721 0.313723 0
M  V30 16178 C 1567.02 -3.31757 0.692122 0
M  V30 16179 C 1566.19 -3.97276 1.83004 0
M  V30 16180 C 1565.25 -5.076 1.38666 0
M  V30 16181 O 1564.28 -5.29295 2.09368 0
M  V30 16182 N 1565.48 -5.79895 0.265039 0
M  V30 16183 H 1568.25 -2.15643 2.0813 0
M  V30 16184 H 1565.81 -1.05915 1.22449 0
M  V30 16185 H 1567.8 -4.02926 0.37854 0
M  V30 16186 H 1566.37 -3.12122 -0.172864 0
M  V30 16187 H 1565.59 -3.19295 2.3118 0
M  V30 16188 H 1566.88 -4.37789 2.59264 0
M  V30 16189 H 1566.27 -5.64771 -0.324121 0
M  V30 16190 H 1564.83 -6.51799 0.0109044 0
M  V30 16191 N 1568.26 -1.13026 -1.09832 0
M  V30 16192 C 1569.68 -0.867598 -1.33959 0
M  V30 16193 C 1569.88 0.499047 -1.95222 0
M  V30 16194 O 1568.94 1.24644 -2.19591 0
M  V30 16195 C 1570.25 -1.98893 -2.25526 0
M  V30 16196 C 1571.8 -2.02054 -2.39047 0
M  V30 16197 C 1572.27 -3.13438 -3.33947 0
M  V30 16198 N 1573.76 -3.12921 -3.41518 0
M  V30 16199 C 1574.5 -3.95746 -4.14937 0
M  V30 16200 N 1573.99 -4.88574 -4.91189 0
M  V30 16201 N 1575.79 -3.8386 -4.10619 0
M  V30 16202 H 1567.94 -2.01072 -0.684382 0
M  V30 16203 H 1570.2 -0.875341 -0.363982 0
M  V30 16204 H 1569.91 -2.97405 -1.87731 0
M  V30 16205 H 1569.78 -1.89948 -3.25883 0
M  V30 16206 H 1572.17 -1.04158 -2.76107 0
M  V30 16207 H 1572.25 -2.15072 -1.38483 0
M  V30 16208 H 1571.89 -4.11571 -2.9761 0
M  V30 16209 H 1571.82 -2.97658 -4.34405 0
M  V30 16210 H 1574.31 -2.45677 -2.87144 0
M  V30 16211 H 1574.63 -5.48269 -5.44629 0
M  V30 16212 H 1572.97 -4.92583 -4.90292 0
M  V30 16213 H 1576.16 -3.10669 -3.50146 0
M  V30 16214 H 1576.34 -4.48637 -4.67577 0
M  V30 16215 N 1569.74 1.27735 -0.923117 0
M  V30 16216 C 1570.67 2.29395 -0.435907 0
M  V30 16217 C 1571.65 1.62542 0.501403 0
M  V30 16218 O 1572.84 1.89884 0.407135 0
M  V30 16219 C 1569.97 3.45856 0.316348 0
M  V30 16220 C 1568.92 4.24672 -0.532697 0
M  V30 16221 C 1568.25 5.33563 0.348454 0
M  V30 16222 C 1569.55 4.90494 -1.79481 0
M  V30 16223 H 1571.24 2.70398 -1.28551 0
M  V30 16224 H 1568.79 1.29989 -0.619581 0
M  V30 16225 H 1570.74 4.1607 0.668098 0
M  V30 16226 H 1569.47 3.03758 1.19994 0
M  V30 16227 H 1568.12 3.56198 -0.867093 0
M  V30 16228 H 1567.77 4.87708 1.23086 0
M  V30 16229 H 1567.47 5.87202 -0.216104 0
M  V30 16230 H 1569 6.06622 0.695878 0
M  V30 16231 H 1570.41 5.53019 -1.5114 0
M  V30 16232 H 1568.81 5.5417 -2.30251 0
M  V30 16233 H 1569.88 4.14454 -2.51707 0
M  V30 16234 N 1571.22 0.688118 1.41784 0
M  V30 16235 C 1572.45 0.22475 2.05676 0
M  V30 16236 C 1572.86 -1.1232 1.51755 0
M  V30 16237 O 1572.22 -1.70041 0.662735 0
M  V30 16238 C 1572.27 0.165661 3.6112 0
M  V30 16239 O 1571.99 1.46035 4.13044 0
M  V30 16240 C 1573.49 -0.319599 4.42146 0
M  V30 16241 H 1570.71 0.106135 0.662553 0
M  V30 16242 H 1573.26 0.938605 1.81688 0
M  V30 16243 H 1571.41 -0.498968 3.84173 0
M  V30 16244 H 1571.83 1.34252 5.07027 0
M  V30 16245 H 1573.3 -0.30983 5.5113 0
M  V30 16246 H 1573.78 -1.3572 4.17704 0
M  V30 16247 H 1574.38 0.313764 4.24141 0
M  V30 16248 N 1572.7 -1.51554 0.432352 0
M  V30 16249 C 1574.11 -1.86673 -0.0319274 0
M  V30 16250 C 1574.46 -1.34981 -1.42389 0
M  V30 16251 O 1573.59 -0.698556 -2.04815 0
M  V30 16252 C 1574.18 -3.38738 -0.0647127 0
M  V30 16253 C 1572.74 -3.73411 -0.47339 0
M  V30 16254 C 1571.89 -2.75242 0.337187 0
M  V30 16255 H 1574.84 -1.44849 0.648417 0
M  V30 16256 H 1574.86 -3.70297 -0.875239 0
M  V30 16257 H 1574.37 -3.76331 0.948507 0
M  V30 16258 H 1572.47 -3.41406 -1.4924 0
M  V30 16259 H 1572.58 -4.78675 -0.20165 0
M  V30 16260 H 1570.95 -2.53883 -0.203801 0
M  V30 16261 H 1571.73 -3.15677 1.34919 0
M  V30 16262 N 1574.18 -0.163538 -1.56749 0
M  V30 16263 C 1575.41 0.489178 -2.00725 0
M  V30 16264 C 1575.81 1.57869 -1.04279 0
M  V30 16265 O 1575.16 1.83668 -0.0344434 0
M  V30 16266 C 1575.22 1.13443 -3.41132 0
M  V30 16267 C 1574.88 0.187525 -4.56615 0
M  V30 16268 C 1575.88 -0.591169 -5.16528 0
M  V30 16269 C 1573.57 0.0856149 -5.02227 0
M  V30 16270 C 1575.56 -1.45905 -6.20476 0
M  V30 16271 C 1573.25 -0.785859 -6.06026 0
M  V30 16272 C 1574.24 -1.55678 -6.65021 0
M  V30 16273 O 1573.93 -2.41371 -7.66809 0
M  V30 16274 H 1573.66 0.130353 -0.663313 0
M  V30 16275 H 1576.22 -0.260065 -2.03747 0
M  V30 16276 H 1574.45 1.93165 -3.34999 0
M  V30 16277 H 1576.14 1.68856 -3.69111 0
M  V30 16278 H 1576.9 -0.522563 -4.82177 0
M  V30 16279 H 1572.78 0.675439 -4.56025 0
M  V30 16280 H 1576.33 -2.06125 -6.66452 0
M  V30 16281 H 1572.22 -0.855696 -6.39803 0
M  V30 16282 H 1572.99 -2.34801 -7.84099 0
M  V30 16283 N 1575.65 1.57214 0.110213 0
M  V30 16284 C 1576.88 1.8923 0.829187 0
M  V30 16285 C 1577.29 0.753834 1.73534 0
M  V30 16286 O 1576.64 -0.283946 1.81492 0
M  V30 16287 C 1576.7 3.16351 1.7077 0
M  V30 16288 C 1576.36 4.46479 0.974949 0
M  V30 16289 C 1577.36 5.18965 0.311696 0
M  V30 16290 C 1575.04 4.93167 0.953516 0
M  V30 16291 C 1577.04 6.36364 -0.363191 0
M  V30 16292 C 1574.72 6.10482 0.274836 0
M  V30 16293 C 1575.72 6.81929 -0.382355 0
M  V30 16294 O 1575.41 7.97011 -1.05019 0
M  V30 16295 H 1575.14 0.630744 0.243184 0
M  V30 16296 H 1577.7 2.05173 0.09648 0
M  V30 16297 H 1575.93 2.96513 2.48227 0
M  V30 16298 H 1577.62 3.34317 2.30189 0
M  V30 16299 H 1578.38 4.83944 0.319815 0
M  V30 16300 H 1574.26 4.37454 1.45448 0
M  V30 16301 H 1577.8 6.92069 -0.876728 0
M  V30 16302 H 1573.7 6.44958 0.26451 0
M  V30 16303 H 1574.47 8.12903 -0.95555 0
M  V30 16304 N 1577.13 -0.380637 1.52934 0
M  V30 16305 C 1578.54 -0.958182 1.60237 0
M  V30 16306 C 1578.89 -1.90722 0.460393 0
M  V30 16307 O 1578.02 -2.12376 -0.415354 0
M  V30 16308 C 1578.61 -1.7446 2.90429 0
M  V30 16309 C 1577.17 -2.27172 3.00116 0
M  V30 16310 C 1576.32 -1.07969 2.55417 0
M  V30 16311 H 1579.27 -0.159908 1.57892 0
M  V30 16312 H 1579.29 -2.60456 2.77385 0
M  V30 16313 H 1578.8 -1.05362 3.73524 0
M  V30 16314 H 1576.91 -2.99557 2.21577 0
M  V30 16315 H 1577.02 -2.56086 4.04916 0
M  V30 16316 H 1575.38 -1.4422 2.09935 0
M  V30 16317 H 1576.17 -0.403925 3.40915 0
M  V30 16318 N 1578.61 -1.44039 -0.639573 0
M  V30 16319 C 1579.89 -1.36853 -1.39752 0
M  V30 16320 C 1580.27 -0.0230515 -2.11087 0
M  V30 16321 O 1579.62 0.994061 -2.05744 0
M  V30 16322 C 1579.83 -2.56101 -2.37093 0
M  V30 16323 C 1581.17 -2.99793 -3.00681 0
M  V30 16324 O 1582.2 -2.56246 -2.4742 0
M  V30 16325 O 1581.06 -3.75274 -3.97281 0
M  V30 16326 H 1578.15 -0.541521 -0.625047 0
M  V30 16327 H 1580.7 -1.56113 -0.665336 0
M  V30 16328 H 1579.47 -3.45647 -1.83422 0
M  V30 16329 H 1579.09 -2.39011 -3.17741 0
M  V30 16330 N 1580.09 0.879207 -1.30796 0
M  V30 16331 C 1581.05 1.96707 -1.17639 0
M  V30 16332 C 1582.05 1.6045 -0.106013 0
M  V30 16333 O 1583.24 1.70553 -0.354573 0
M  V30 16334 C 1580.37 3.31292 -0.803625 0
M  V30 16335 H 1581.57 2.09806 -2.14293 0
M  V30 16336 H 1579.12 1.06634 -1.14276 0
M  V30 16337 H 1579.85 3.23894 0.162159 0
M  V30 16338 H 1579.64 3.58979 -1.57723 0
M  V30 16339 H 1581.13 4.11077 -0.735201 0
M  V30 16340 N 1581.57 1.13606 1.09231 0
M  V30 16341 C 1582.5 0.77306 2.15769 0
M  V30 16342 C 1583.51 -0.206148 1.6149 0
M  V30 16343 O 1584.7 0.014338 1.78494 0
M  V30 16344 C 1581.8 0.125475 3.38668 0
M  V30 16345 C 1580.97 1.13728 4.22356 0
M  V30 16346 C 1580.03 0.515021 5.23674 0
M  V30 16347 O 1579.06 1.1756 5.56928 0
M  V30 16348 N 1580.26 -0.712028 5.76117 0
M  V30 16349 H 1583.03 1.68984 2.47517 0
M  V30 16350 H 1580.59 1.02935 1.24964 0
M  V30 16351 H 1582.58 -0.303109 4.03563 0
M  V30 16352 H 1581.15 -0.694284 3.04792 0
M  V30 16353 H 1580.37 1.74309 3.53568 0
M  V30 16354 H 1581.66 1.82106 4.75094 0
M  V30 16355 H 1581.06 -1.26745 5.51319 0
M  V30 16356 H 1579.61 -1.08324 6.42736 0
M  V30 16357 N 1583.05 -1.27244 0.929878 0
M  V30 16358 C 1584.46 -1.76254 0.615732 0
M  V30 16359 C 1584.81 -1.759 -0.869111 0
M  V30 16360 O 1583.93 -1.36388 -1.6801 0
M  V30 16361 C 1584.53 -3.20068 1.11095 0
M  V30 16362 C 1583.09 -3.66736 0.847435 0
M  V30 16363 C 1582.23 -2.4659 1.26842 0
M  V30 16364 H 1585.18 -1.1348 1.10942 0
M  V30 16365 H 1585.21 -3.77714 0.459618 0
M  V30 16366 H 1584.72 -3.20293 2.19166 0
M  V30 16367 H 1582.82 -3.71954 -0.219376 0
M  V30 16368 H 1582.93 -4.56104 1.4665 0
M  V30 16369 H 1581.3 -2.45261 0.686944 0
M  V30 16370 H 1582.08 -2.49524 2.35781 0
M  V30 16371 N 1584.52 -0.695628 -1.41417 0
M  V30 16372 C 1585.49 -0.0392949 -2.29166 0
M  V30 16373 C 1586.49 0.70789 -1.4438 0
M  V30 16374 O 1587.68 0.542771 -1.65528 0
M  V30 16375 C 1584.81 0.954719 -3.27258 0
M  V30 16376 H 1586 -0.811902 -2.88701 0
M  V30 16377 H 1583.55 -0.459128 -1.49405 0
M  V30 16378 H 1584.29 1.75509 -2.72703 0
M  V30 16379 H 1584.07 0.422079 -3.89822 0
M  V30 16380 H 1585.56 1.41174 -3.93014 0
M  V30 16381 N 1586 1.51322 -0.440383 0
M  V30 16382 C 1587.28 1.94722 0.185148 0
M  V30 16383 C 1587.66 1.37922 1.59815 0
M  V30 16384 O 1587.01 0.567527 2.2134 0
M  V30 16385 C 1587.22 3.48634 0.159781 0
M  V30 16386 C 1588.56 4.23038 0.363853 0
M  V30 16387 O 1589.59 3.55406 0.237759 0
M  V30 16388 O 1588.45 5.43027 0.615137 0
M  V30 16389 H 1585.54 0.816983 0.128325 0
M  V30 16390 H 1588.09 1.62211 -0.498581 0
M  V30 16391 H 1586.86 3.8244 -0.827952 0
M  V30 16392 H 1586.48 3.87596 0.88629 0
M  V30 16393 N 1587.48 0.171848 1.5666 0
M  V30 16394 C 1588.41 -0.753861 2.20996 0
M  V30 16395 C 1589.39 -1.23873 1.16574 0
M  V30 16396 O 1590.58 -1.29179 1.45005 0
M  V30 16397 C 1587.71 -1.98314 2.85112 0
M  V30 16398 C 1586.66 -1.6341 3.95577 0
M  V30 16399 C 1585.99 -2.93807 4.46745 0
M  V30 16400 C 1587.29 -0.861713 5.15142 0
M  V30 16401 H 1588.98 -0.217598 2.98608 0
M  V30 16402 H 1586.53 -0.10322 1.4363 0
M  V30 16403 H 1588.48 -2.63576 3.28794 0
M  V30 16404 H 1587.2 -2.54354 2.04869 0
M  V30 16405 H 1585.86 -1.00516 3.52551 0
M  V30 16406 H 1585.51 -3.47889 3.63293 0
M  V30 16407 H 1585.21 -2.71207 5.21268 0
M  V30 16408 H 1586.73 -3.60098 4.93114 0
M  V30 16409 H 1588.15 -1.41693 5.55514 0
M  V30 16410 H 1586.54 -0.734727 5.95585 0
M  V30 16411 H 1587.61 0.141851 4.84692 0
M  V30 16412 N 1588.96 -1.5727 -0.101874 0
M  V30 16413 C 1589.91 -2.0258 -1.14297 0
M  V30 16414 C 1590.9 -0.925674 -1.41872 0
M  V30 16415 O 1592.11 -1.11086 -1.41633 0
M  V30 16416 H 1588.48 -0.645504 -0.385782 0
M  V30 16417 H 1590.45 -2.8922 -0.734453 0
M  V30 16418 C 1589.2 -2.46036 -2.45686 0
M  V30 16419 H 1588.52 -3.30266 -2.2531 0
M  V30 16420 H 1589.96 -2.81522 -3.17051 0
M  V30 16421 C 1588.42 -1.33089 -3.09498 0
M  V30 16422 O 1588.95 -0.656277 -3.96303 0
M  V30 16423 N 1587.16 -1.08359 -2.69642 0
M  V30 16424 H 1586.71 -1.63397 -1.99146 0
M  V30 16425 H 1586.66 -0.329859 -3.12665 0
M  V30 16426 N 1590.44 0.372521 -1.53134 0
M  V30 16427 C 1591.37 1.4621 -1.82057 0
M  V30 16428 C 1592.35 1.56194 -0.673612 0
M  V30 16429 O 1593.53 1.70875 -0.922797 0
M  V30 16430 C 1590.66 2.83632 -2.00425 0
M  V30 16431 C 1589.62 2.88478 -3.16171 0
M  V30 16432 C 1588.94 4.28508 -3.19821 0
M  V30 16433 C 1590.24 2.56628 -4.54906 0
M  V30 16434 H 1591.94 1.22256 -2.73302 0
M  V30 16435 H 1589.48 0.586688 -1.31507 0
M  V30 16436 H 1591.43 3.59876 -2.19242 0
M  V30 16437 H 1590.16 3.0896 -1.05884 0
M  V30 16438 H 1588.82 2.14684 -2.97164 0
M  V30 16439 H 1588.47 4.509 -2.2293 0
M  V30 16440 H 1588.17 4.32667 -3.97584 0
M  V30 16441 H 1589.69 5.06635 -3.40813 0
M  V30 16442 H 1591.1 3.22587 -4.73931 0
M  V30 16443 H 1589.5 2.72114 -5.34859 0
M  V30 16444 H 1590.57 1.51902 -4.60493 0
M  V30 16445 N 1591.91 1.44376 0.631925 0
M  V30 16446 C 1593.16 1.46827 1.38875 0
M  V30 16447 C 1593.48 0.101789 1.94734 0
M  V30 16448 O 1592.75 -0.86579 1.7573 0
M  V30 16449 H 1591.33 0.540642 0.515475 0
M  V30 16450 H 1593.99 1.80148 0.743822 0
M  V30 16451 H 1593.09 2.19321 2.22047 0
M  V30 16452 N 1593.39 -0.872258 1.31261 0
M  V30 16453 C 1594.62 -1.65795 1.23772 0
M  V30 16454 C 1595.03 -1.87766 -0.197351 0
M  V30 16455 O 1594.39 -1.43418 -1.1286 0
M  V30 16456 C 1594.44 -3.02722 1.9759 0
M  V30 16457 O 1594.16 -2.81734 3.35496 0
M  V30 16458 C 1595.66 -3.97165 1.96913 0
M  V30 16459 H 1592.88 -0.516959 0.427778 0
M  V30 16460 H 1595.43 -1.0889 1.73099 0
M  V30 16461 H 1593.58 -3.56322 1.5203 0
M  V30 16462 H 1594 -3.6869 3.73052 0
M  V30 16463 H 1595.47 -4.90566 2.53079 0
M  V30 16464 H 1595.95 -4.28778 0.951089 0
M  V30 16465 H 1596.55 -3.495 2.42342 0
M  V30 16466 N 1594.87 -1.14184 -1.08627 0
M  V30 16467 C 1596.12 -0.91001 -1.81236 0
M  V30 16468 C 1596.45 0.562134 -1.85886 0
M  V30 16469 O 1595.72 1.41631 -1.33307 0
M  V30 16470 C 1596.01 -1.50879 -3.26967 0
M  V30 16471 C 1595.86 -3.05063 -3.3054 0
M  V30 16472 C 1597.18 -1.18379 -4.2388 0
M  V30 16473 H 1594.3 -0.332025 -0.657973 0
M  V30 16474 H 1596.94 -1.41144 -1.27194 0
M  V30 16475 H 1595.09 -1.08236 -3.73118 0
M  V30 16476 H 1596.76 -3.5652 -2.9273 0
M  V30 16477 H 1595 -3.39628 -2.6988 0
M  V30 16478 H 1595.68 -3.42064 -4.33239 0
M  V30 16479 H 1598.15 -1.55242 -3.86056 0
M  V30 16480 H 1597.03 -1.62911 -5.24167 0
M  V30 16481 H 1597.29 -0.0987385 -4.4199 0
M  V30 16482 N 1596.35 1.26749 -0.936613 0
M  V30 16483 C 1597.58 1.98059 -0.598357 0
M  V30 16484 C 1597.99 1.6979 0.825646 0
M  V30 16485 O 1597.35 0.963514 1.54992 0
M  V30 16486 C 1597.4 3.51948 -0.825519 0
M  V30 16487 O 1597.12 3.79232 -2.19351 0
M  V30 16488 C 1598.62 4.40503 -0.497186 0
M  V30 16489 H 1595.84 0.631826 -0.225914 0
M  V30 16490 H 1598.39 1.61379 -1.25607 0
M  V30 16491 H 1596.54 3.86806 -0.214479 0
M  V30 16492 H 1596.95 4.73782 -2.25014 0
M  V30 16493 H 1598.43 5.47457 -0.706779 0
M  V30 16494 H 1598.91 4.35516 0.567645 0
M  V30 16495 H 1599.51 4.11181 -1.08675 0
M  V30 16496 N 1597.83 0.703118 1.41046 0
M  V30 16497 C 1599.24 0.375417 1.55122 0
M  V30 16498 C 1599.44 -1.11696 1.67709 0
M  V30 16499 O 1598.5 -1.90289 1.65971 0
M  V30 16500 C 1599.81 1.13056 2.78638 0
M  V30 16501 C 1601.36 1.11564 2.92442 0
M  V30 16502 C 1601.83 1.85268 4.18855 0
M  V30 16503 N 1603.33 1.82275 4.25829 0
M  V30 16504 C 1604.06 2.36137 5.2252 0
M  V30 16505 N 1603.56 2.98502 6.25195 0
M  V30 16506 N 1605.35 2.26349 5.14512 0
M  V30 16507 H 1597.5 1.67096 1.31121 0
M  V30 16508 H 1599.76 0.705573 0.633144 0
M  V30 16509 H 1599.47 2.18524 2.75572 0
M  V30 16510 H 1599.34 0.714037 3.7038 0
M  V30 16511 H 1601.73 0.0691901 2.95019 0
M  V30 16512 H 1601.81 1.57128 2.01853 0
M  V30 16513 H 1601.46 2.89896 4.1704 0
M  V30 16514 H 1601.39 1.37133 5.08431 0
M  V30 16515 H 1603.88 1.36812 3.52265 0
M  V30 16516 H 1604.19 3.37149 6.95378 0
M  V30 16517 H 1602.53 3.02582 6.25675 0
M  V30 16518 H 1605.73 1.77294 4.33226 0
M  V30 16519 H 1605.9 2.68629 5.89697 0
M  V30 16520 N 1599.3 -1.51086 0.448402 0
M  V30 16521 C 1600.53 -2.07081 -0.115038 0
M  V30 16522 C 1600.95 -1.31253 -1.34737 0
M  V30 16523 O 1600.31 -0.353613 -1.77818 0
M  V30 16524 C 1600.36 -3.58321 -0.404803 0
M  V30 16525 O 1599.46 -3.84567 -1.48936 0
M  V30 16526 H 1598.81 -0.663993 0.00299118 0
M  V30 16527 H 1601.34 -1.94564 0.632921 0
M  V30 16528 H 1601.35 -4.02756 -0.652013 0
M  V30 16529 H 1600.02 -4.12934 0.495838 0
M  V30 16530 H 1598.6 -3.51987 -1.23124 0
M  V30 16531 N 1600.78 -0.180154 -1.56567 0
M  V30 16532 C 1602.03 0.461606 -1.96758 0
M  V30 16533 C 1602.35 1.63179 -1.0676 0
M  V30 16534 O 1601.62 1.95429 -0.135762 0
M  V30 16535 H 1600.2 0.173526 -0.726566 0
M  V30 16536 H 1602.86 -0.2634 -1.93112 0
M  V30 16537 H 1601.96 0.815729 -3.01251 0
M  V30 16538 N 1602.26 1.57322 0.0935319 0
M  V30 16539 C 1603.19 2.05208 1.11409 0
M  V30 16540 C 1604.17 0.941295 1.41681 0
M  V30 16541 O 1605.36 1.21266 1.51684 0
M  V30 16542 C 1602.49 2.47782 2.43354 0
M  V30 16543 C 1601.44 3.62538 2.27486 0
M  V30 16544 C 1600.77 3.91095 3.64622 0
M  V30 16545 C 1602.07 4.93371 1.71412 0
M  V30 16546 H 1603.76 2.9072 0.715702 0
M  V30 16547 H 1601.31 1.3986 0.342827 0
M  V30 16548 H 1603.26 2.79891 3.15022 0
M  V30 16549 H 1601.98 1.59272 2.85132 0
M  V30 16550 H 1600.64 3.30679 1.58263 0
M  V30 16551 H 1600.29 2.99749 4.0393 0
M  V30 16552 H 1599.99 4.68353 3.5485 0
M  V30 16553 H 1601.51 4.25679 4.37755 0
M  V30 16554 H 1602.93 5.23851 2.32922 0
M  V30 16555 H 1601.33 5.74804 1.72395 0
M  V30 16556 H 1602.4 4.80197 0.67368 0
M  V30 16557 N 1603.74 -0.364395 1.53329 0
M  V30 16558 C 1604.98 -1.10501 1.70766 0
M  V30 16559 C 1605.34 -1.86955 0.45448 0
M  V30 16560 O 1604.63 -1.8346 -0.552528 0
M  V30 16561 C 1604.83 -2.09208 2.8977 0
M  V30 16562 C 1604.66 -1.42453 4.26541 0
M  V30 16563 C 1603.43 -1.17816 4.91373 0
M  V30 16564 C 1605.62 -0.861619 5.07031 0
M  V30 16565 N 1603.61 -0.474233 6.12066 0
M  V30 16566 C 1604.98 -0.28712 6.19335 0
M  V30 16567 C 1607.03 -0.760424 4.92059 0
M  V30 16568 C 1605.73 0.378707 7.18302 0
M  V30 16569 C 1607.76 -0.108375 5.91301 0
M  V30 16570 C 1607.12 0.455245 7.02927 0
M  V30 16571 H 1603.22 -0.38946 0.678119 0
M  V30 16572 H 1605.81 -0.391247 1.90728 0
M  V30 16573 H 1603.98 -2.77897 2.71345 0
M  V30 16574 H 1605.71 -2.75956 2.96024 0
M  V30 16575 H 1602.46 -1.45975 4.50542 0
M  V30 16576 H 1602.89 -0.137599 6.7686 0
M  V30 16577 H 1607.53 -1.18194 4.05943 0
M  V30 16578 H 1605.25 0.812171 8.04008 0
M  V30 16579 H 1608.83 -0.0309878 5.81792 0
M  V30 16580 H 1607.71 0.951813 7.78402 0
M  V30 16581 N 1605.22 -1.44709 -0.62426 0
M  V30 16582 C 1606.44 -1.51573 -1.41564 0
M  V30 16583 C 1606.87 -0.143806 -1.87549 0
M  V30 16584 O 1606.22 0.868361 -1.59151 0
M  V30 16585 C 1606.27 -2.49085 -2.60747 0
M  V30 16586 O 1605.38 -1.99712 -3.60817 0
M  V30 16587 H 1604.72 -0.51157 -0.423311 0
M  V30 16588 H 1607.25 -1.89908 -0.761316 0
M  V30 16589 H 1607.26 -2.67346 -3.08205 0
M  V30 16590 H 1605.93 -3.48733 -2.26624 0
M  V30 16591 H 1604.51 -1.9125 -3.20122 0
M  V30 16592 N 1606.69 0.865285 -1.31722 0
M  V30 16593 C 1608.11 1.43445 -1.195 0
M  V30 16594 C 1608.46 1.95212 0.196688 0
M  V30 16595 O 1607.58 1.86666 1.09475 0
M  V30 16596 C 1608.18 2.6074 -2.16333 0
M  V30 16597 C 1606.74 3.13688 -2.08031 0
M  V30 16598 C 1605.88 1.86409 -2.05298 0
M  V30 16599 H 1608.83 0.6734 -1.43705 0
M  V30 16600 H 1608.85 3.37575 -1.75566 0
M  V30 16601 H 1608.37 2.23033 -3.17612 0
M  V30 16602 H 1606.47 3.56004 -1.09962 0
M  V30 16603 H 1606.58 3.75653 -2.97358 0
M  V30 16604 H 1604.94 2.05567 -1.50381 0
M  V30 16605 H 1605.73 1.50933 -3.08341 0
M  V30 16606 N 1608.17 1.14759 1.0802 0
M  V30 16607 C 1609.14 0.840859 2.13219 0
M  V30 16608 C 1610.14 -0.156309 1.60038 0
M  V30 16609 O 1611.33 0.0725143 1.74049 0
M  V30 16610 C 1608.46 0.254208 3.39951 0
M  V30 16611 H 1609.65 1.77323 2.4186 0
M  V30 16612 H 1607.2 0.954146 1.23797 0
M  V30 16613 H 1607.94 -0.686692 3.16946 0
M  V30 16614 H 1607.72 0.972499 3.79848 0
M  V30 16615 H 1609.21 0.0569551 4.17561 0
M  V30 16616 N 1609.65 -1.26251 0.943322 0
M  V30 16617 C 1611.06 -1.75591 0.634391 0
M  V30 16618 C 1611.41 -1.76812 -0.850406 0
M  V30 16619 O 1610.54 -1.38162 -1.66554 0
M  V30 16620 C 1611.13 -3.18871 1.14484 0
M  V30 16621 C 1609.69 -3.65817 0.886285 0
M  V30 16622 C 1608.84 -2.4523 1.2945 0
M  V30 16623 H 1611.79 -1.12297 1.12139 0
M  V30 16624 H 1611.81 -3.77205 0.499654 0
M  V30 16625 H 1611.32 -3.17951 2.22551 0
M  V30 16626 H 1609.42 -3.72165 -0.179913 0
M  V30 16627 H 1609.54 -4.54523 1.5148 0
M  V30 16628 H 1607.9 -2.44519 0.712919 0
M  V30 16629 H 1608.68 -2.47009 2.38415 0
M  V30 16630 N 1611.13 -0.710588 -1.40671 0
M  V30 16631 C 1612.06 -0.0694601 -2.33397 0
M  V30 16632 C 1613.04 0.750959 -1.52626 0
M  V30 16633 O 1614.23 0.700896 -1.81111 0
M  V30 16634 C 1611.36 0.856704 -3.36568 0
M  V30 16635 C 1610.31 0.142276 -4.27763 0
M  V30 16636 C 1609.64 1.18382 -5.21431 0
M  V30 16637 C 1610.94 -1.00052 -5.12627 0
M  V30 16638 H 1612.63 -0.843945 -2.87259 0
M  V30 16639 H 1610.18 -0.407287 -1.3812 0
M  V30 16640 H 1612.13 1.31457 -4.00371 0
M  V30 16641 H 1610.85 1.66303 -2.81089 0
M  V30 16642 H 1609.51 -0.295714 -3.65405 0
M  V30 16643 H 1609.16 1.98306 -4.62259 0
M  V30 16644 H 1608.86 0.71071 -5.83286 0
M  V30 16645 H 1610.38 1.64189 -5.88111 0
M  V30 16646 H 1611.8 -0.622246 -5.69913 0
M  V30 16647 H 1610.19 -1.40168 -5.83501 0
M  V30 16648 H 1611.26 -1.83345 -4.48902 0
M  V30 16649 N 1612.61 1.50847 -0.456408 0
M  V30 16650 C 1614.02 1.59222 -0.109731 0
M  V30 16651 C 1614.22 1.46582 1.3826 0
M  V30 16652 O 1613.28 1.31678 2.15446 0
M  V30 16653 C 1614.59 2.9366 -0.646846 0
M  V30 16654 C 1616.14 3.07019 -0.60897 0
M  V30 16655 C 1616.62 4.44009 -1.12338 0
M  V30 16656 N 1618.11 4.50381 -1.08217 0
M  V30 16657 C 1618.84 5.54741 -1.45086 0
M  V30 16658 N 1618.34 6.66427 -1.89333 0
M  V30 16659 N 1620.13 5.45204 -1.36782 0
M  V30 16660 H 1612.28 1.57307 -1.42717 0
M  V30 16661 H 1614.54 0.742587 -0.589295 0
M  V30 16662 H 1614.25 3.0834 -1.69172 0
M  V30 16663 H 1614.12 3.7711 -0.0822535 0
M  V30 16664 H 1616.51 2.91995 0.426958 0
M  V30 16665 H 1616.59 2.25362 -1.21019 0
M  V30 16666 H 1616.24 4.59781 -2.15787 0
M  V30 16667 H 1616.17 5.24235 -0.498512 0
M  V30 16668 H 1618.66 3.70231 -0.757467 0
M  V30 16669 H 1618.97 7.42101 -2.15652 0
M  V30 16670 H 1617.32 6.67585 -1.93275 0
M  V30 16671 H 1620.51 4.56837 -1.02066 0
M  V30 16672 H 1620.68 6.26419 -1.65842 0
M  V30 16673 N 1614.09 0.188454 1.56469 0
M  V30 16674 C 1615.5 -0.167487 1.58719 0
M  V30 16675 C 1615.7 -1.61543 1.20442 0
M  V30 16676 O 1614.76 -2.34985 0.924041 0
M  V30 16677 C 1616.07 0.128854 3.00424 0
M  V30 16678 C 1617.62 0.0684301 3.12925 0
M  V30 16679 C 1618.09 0.337991 4.56751 0
M  V30 16680 N 1619.58 0.286373 4.62314 0
M  V30 16681 C 1620.32 0.468886 5.7148 0
M  V30 16682 N 1619.82 0.711388 6.89138 0
M  V30 16683 N 1621.61 0.403602 5.60649 0
M  V30 16684 H 1613.76 1.13339 1.79633 0
M  V30 16685 H 1616.02 0.451885 0.833369 0
M  V30 16686 H 1615.73 1.13255 3.32966 0
M  V30 16687 H 1615.6 -0.571644 3.72843 0
M  V30 16688 H 1617.99 -0.925864 2.802 0
M  V30 16689 H 1618.07 0.801903 2.42906 0
M  V30 16690 H 1617.71 1.32957 4.90189 0
M  V30 16691 H 1617.64 -0.416293 5.24952 0
M  V30 16692 H 1620.14 0.105286 3.77753 0
M  V30 16693 H 1620.45 0.839643 7.68225 0
M  V30 16694 H 1618.79 0.748205 6.90961 0
M  V30 16695 H 1621.98 0.214616 4.67608 0
M  V30 16696 H 1622.16 0.549261 6.45668 0
M  V30 16697 N 1615.56 -1.5737 -0.0851874 0
M  V30 16698 C 1616.81 -1.86219 -0.7853 0
M  V30 16699 C 1617.13 -0.77857 -1.78783 0
M  V30 16700 O 1616.4 0.194176 -1.94935 0
M  V30 16701 H 1614.98 -0.687134 -0.293013 0
M  V30 16702 H 1617.64 -1.94793 -0.0644597 0
M  V30 16703 H 1616.74 -2.83286 -1.30978 0
M  V30 16704 O 1617.08 0.229012 -1.59868 0
M  V30 16705 H 1617.77 0.870815 -1.73022 0
M  V30 END ATOM
M  V30 BEGIN BOND
M  V30 END BOND
M  V30 END CTAB
M  END
$$$$
