drugbank_target|P9WN38 Glutamine synthetase (DB04272)
 OpenBabel12092120223D

  0  0  0     0  0            999 V3000
M  V30 BEGIN CTAB
M  V30 COUNTS 7402 7508 0 0 0
M  V30 BEGIN ATOM
M  V30 1 H -0.908 1.98254 -0.117106 0
M  V30 2 N 0 1.576 0 0
M  V30 3 C 0.933 2.03868 1.02534 0
M  V30 4 C 1.911 0.928543 1.3348 0
M  V30 5 O 3.095 1.19667 1.45644 0
M  V30 6 C 0.222 2.43627 2.35294 0
M  V30 7 C -0.732 3.65373 2.2001 0
M  V30 8 S 0.101 5.13292 1.52614 0
M  V30 9 C 1.257 5.56322 2.86805 0
M  V30 10 H 1.49 2.90518 0.631377 0
M  V30 11 H -0.977 1.52953 0.210867 0
M  V30 12 H 0.981 2.67203 3.11629 0
M  V30 13 H -0.358 1.57376 2.7183 0
M  V30 14 H -1.165 3.90944 3.18086 0
M  V30 15 H -1.563 3.418 1.51819 0
M  V30 16 H 0.729 5.58782 3.83104 0
M  V30 17 H 1.672 6.56266 2.65933 0
M  V30 18 H 2.08 4.83886 2.90714 0
M  V30 19 N 1.4781 -0.272755 1.55222 0
M  V30 20 C 2.7061 -1.02255 1.79865 0
M  V30 21 C 3.1211 -1.79924 0.572088 0
M  V30 22 O 2.4781 -1.76638 -0.458842 0
M  V30 23 C 2.5291 -1.98094 3.02392 0
M  V30 24 O 2.2501 -1.23572 4.20311 0
M  V30 25 C 3.7511 -2.84884 3.39641 0
M  V30 26 H 0.9711 -0.302057 0.599168 0
M  V30 27 H 3.5151 -0.303465 2.02236 0
M  V30 28 H 1.6701 -2.65465 2.82147 0
M  V30 29 H 2.0841 -1.88172 4.89583 0
M  V30 30 H 3.5581 -3.47927 4.28545 0
M  V30 31 H 4.0351 -3.54665 2.59055 0
M  V30 32 H 4.6411 -2.23003 3.62146 0
M  V30 33 N 2.9562 -1.48159 -0.537278 0
M  V30 34 C 3.8662 -1.64807 -1.6696 0
M  V30 35 C 4.8822 -0.530651 -1.65711 0
M  V30 36 O 6.0582 -0.800784 -1.84796 0
M  V30 37 C 3.1232 -1.67708 -3.03438 0
M  V30 38 C 2.1842 -2.91025 -3.156 0
M  V30 39 C 1.4172 -2.93778 -4.45567 0
M  V30 40 O 1.6402 -2.05153 -5.3223 0
M  V30 41 O 0.5742 -3.85868 -4.61941 0
M  V30 42 H 4.4002 -2.6066 -1.55853 0
M  V30 43 H 1.9852 -1.31475 -0.709549 0
M  V30 44 H 3.8672 -1.7218 -3.84619 0
M  V30 45 H 2.5422 -0.750278 -3.14885 0
M  V30 46 H 1.4492 -2.92089 -2.33741 0
M  V30 47 H 2.7822 -3.83065 -3.09066 0
M  V30 48 N 4.4343 0.785586 -1.36625 0
M  V30 49 C 5.3813 1.89838 -1.31264 0
M  V30 50 C 6.3513 1.65115 -0.180633 0
M  V30 51 O 7.5363 1.87222 -0.36777 0
M  V30 52 C 4.6763 3.26706 -1.11163 0
M  V30 53 C 3.7893 3.63476 -2.33472 0
M  V30 54 C 2.9243 4.89481 -2.06353 0
M  V30 55 C 1.9633 5.18941 -3.24602 0
M  V30 56 N 1.1003 6.36131 -2.97123 0
M  V30 57 H 5.9403 1.93756 -2.26413 0
M  V30 58 H 3.4773 0.947454 -1.12524 0
M  V30 59 H 5.4353 4.05639 -0.975337 0
M  V30 60 H 4.0653 3.222 -0.196674 0
M  V30 61 H 3.1173 2.79636 -2.57891 0
M  V30 62 H 4.4293 3.81193 -3.21704 0
M  V30 63 H 3.5833 5.76288 -1.89675 0
M  V30 64 H 2.3223 4.73841 -1.15437 0
M  V30 65 H 1.3273 4.30615 -3.41834 0
M  V30 66 H 2.5523 5.36498 -4.16349 0
M  V30 67 H 0.4983 6.21875 -2.08823 0
M  V30 68 H 0.4153 6.54198 -3.78894 0
M  V30 69 H 1.6833 7.2591 -2.84033 0
M  V30 70 N 5.9124 1.20967 1.01018 0
M  V30 71 C 7.1404 1.04956 1.78303 0
M  V30 72 C 7.5554 -0.400915 1.84494 0
M  V30 73 O 6.9124 -1.27826 1.30257 0
M  V30 74 C 6.9634 1.63403 3.22462 0
M  V30 75 O 6.6844 3.02775 3.16637 0
M  V30 76 C 8.1854 1.52432 4.16268 0
M  V30 77 H 5.4054 0.368858 0.560522 0
M  V30 78 H 7.9494 1.60193 1.27116 0
M  V30 79 H 6.1044 1.1227 3.70775 0
M  V30 80 H 6.5184 3.30626 4.07169 0
M  V30 81 H 7.9924 1.98078 5.15237 0
M  V30 82 H 8.4694 0.477875 4.36592 0
M  V30 83 H 9.0754 2.02787 3.73841 0
M  V30 84 N 7.3905 -1.2043 1.01659 0
M  V30 85 C 8.8015 -1.71517 0.737482 0
M  V30 86 C 9.1525 -1.81547 -0.743973 0
M  V30 87 O 8.2775 -1.47803 -1.58061 0
M  V30 88 C 8.8725 -3.11515 1.33206 0
M  V30 89 C 7.4315 -3.59912 1.10183 0
M  V30 90 C 6.5785 -2.37116 1.43776 0
M  V30 91 H 9.5295 -1.05444 1.18606 0
M  V30 92 H 9.5505 -3.73575 0.722636 0
M  V30 93 H 9.0625 -3.04182 2.41028 0
M  V30 94 H 7.1635 -3.72577 0.0412756 0
M  V30 95 H 7.2765 -4.44731 1.78188 0
M  V30 96 H 5.6405 -2.39857 0.856778 0
M  V30 97 H 6.4235 -2.32424 2.52654 0
M  V30 98 N 8.8686 -0.792821 -1.36206 0
M  V30 99 C 10.1456 -0.290627 -1.93429 0
M  V30 100 C 10.5256 1.21773 -1.72437 0
M  V30 101 O 9.8736 2.0108 -1.08531 0
M  V30 102 C 10.0836 -0.686973 -3.42172 0
M  V30 103 C 11.4316 -0.668643 -4.19302 0
M  V30 104 O 12.4556 -0.627658 -3.50626 0
M  V30 105 O 11.3146 -0.714597 -5.41808 0
M  V30 106 H 8.4086 -0.0727927 -0.82379 0
M  V30 107 H 10.9546 -0.875593 -1.45367 0
M  V30 108 H 9.7266 -1.72711 -3.51122 0
M  V30 109 H 9.3496 -0.0760733 -3.97527 0
M  V30 110 N 10.3467 1.47872 -0.545128 0
M  V30 111 C 11.6237 1.9554 0.0485222 0
M  V30 112 C 12.0037 1.4876 1.49779 0
M  V30 113 O 11.3517 0.720925 2.16829 0
M  V30 114 C 11.5617 3.48898 -0.084417 0
M  V30 115 C 12.9097 4.24547 0.0671239 0
M  V30 116 O 13.9337 3.56198 -0.0113649 0
M  V30 117 O 12.7927 5.45999 0.233882 0
M  V30 118 H 9.8867 0.823957 0.0708773 0
M  V30 119 H 12.4327 1.58327 -0.610798 0
M  V30 120 H 11.2047 3.75714 -1.09337 0
M  V30 121 H 10.8277 3.92845 0.613066 0
M  V30 122 N 11.8248 0.280983 1.55075 0
M  V30 123 C 13.0708 -0.33461 2.00021 0
M  V30 124 C 13.4038 -1.55063 1.16915 0
M  V30 125 O 12.6788 -1.93006 0.240646 0
M  V30 126 C 12.9618 -0.711007 3.53011 0
M  V30 127 C 12.8148 0.512766 4.46868 0
M  V30 128 C 14.1338 -1.54522 4.12081 0
M  V30 129 H 11.2528 -0.120147 0.727141 0
M  V30 130 H 13.8948 0.389097 1.85973 0
M  V30 131 H 12.0448 -1.32761 3.65112 0
M  V30 132 H 13.7168 1.15131 4.46702 0
M  V30 133 H 11.9598 1.14975 4.18286 0
M  V30 134 H 12.6308 0.205556 5.51617 0
M  V30 135 H 15.1068 -1.02442 4.03293 0
M  V30 136 H 13.9828 -1.77739 5.19327 0
M  V30 137 H 14.2438 -2.52813 3.62682 0
M  V30 138 N 13.3029 -1.57598 0.00835791 0
M  V30 139 C 14.5499 -1.90928 -0.674732 0
M  V30 140 C 14.8779 -0.88277 -1.73313 0
M  V30 141 O 14.1329 0.111294 -1.95383 0
M  V30 142 C 14.4319 -3.3101 -1.34787 0
M  V30 143 C 14.0979 -4.48922 -0.421861 0
M  V30 144 C 12.7599 -4.8091 -0.166927 0
M  V30 145 C 15.1119 -5.20755 0.215211 0
M  V30 146 C 12.4399 -5.821 0.733232 0
M  V30 147 C 14.7919 -6.22905 1.1033 0
M  V30 148 C 13.4559 -6.53346 1.36733 0
M  V30 149 H 12.7259 -0.698656 -0.246902 0
M  V30 150 H 15.3729 -1.91387 0.0656779 0
M  V30 151 H 13.6779 -3.26714 -2.16253 0
M  V30 152 H 15.3749 -3.54061 -1.8826 0
M  V30 153 H 11.9649 -4.23934 -0.630729 0
M  V30 154 H 16.1489 -4.9629 0.0312829 0
M  V30 155 H 11.4049 -6.04042 0.945712 0
M  V30 156 H 15.5789 -6.77694 1.60325 0
M  V30 157 H 13.2059 -7.31573 2.06652 0
M  V30 158 N 14.781 0.264519 -1.55364 0
M  V30 159 C 15.728 1.32717 -1.88825 0
M  V30 160 C 16.698 1.48675 -0.740605 0
M  V30 161 O 17.883 1.62945 -0.992657 0
M  V30 162 C 15.023 2.68089 -2.17307 0
M  V30 163 C 14.136 2.60284 -3.44785 0
M  V30 164 C 13.271 3.87892 -3.62924 0
M  V30 165 C 12.31 3.74631 -4.84064 0
M  V30 166 N 11.447 4.94092 -4.98816 0
M  V30 167 H 16.287 1.03481 -2.79456 0
M  V30 168 H 13.824 0.499757 -1.3835 0
M  V30 169 H 15.782 3.46864 -2.31821 0
M  V30 170 H 14.412 2.95509 -1.299 0
M  V30 171 H 13.464 1.73173 -3.38697 0
M  V30 172 H 14.776 2.46388 -4.33698 0
M  V30 173 H 13.93 4.75109 -3.77302 0
M  V30 174 H 12.669 4.04664 -2.7221 0
M  V30 175 H 11.674 2.85797 -4.69681 0
M  V30 176 H 12.899 3.5937 -5.76221 0
M  V30 177 H 10.845 5.11259 -4.11036 0
M  V30 178 H 10.762 4.8276 -5.81789 0
M  V30 179 H 12.03 5.82857 -5.17588 0
M  V30 180 N 16.2591 1.48442 0.529413 0
M  V30 181 C 17.1891 1.65902 1.64313 0
M  V30 182 C 18.1701 0.507897 1.6234 0
M  V30 183 O 19.3551 0.740503 1.79528 0
M  V30 184 C 16.4851 1.69911 3.02898 0
M  V30 185 C 15.4391 2.8453 3.19729 0
M  V30 186 C 14.7651 2.73629 4.59381 0
M  V30 187 C 16.0651 4.25821 3.02447 0
M  V30 188 H 17.7591 2.5914 1.49955 0
M  V30 189 H 15.3051 1.24709 0.719982 0
M  V30 190 H 17.2581 1.80715 3.80684 0
M  V30 191 H 15.9821 0.732524 3.18279 0
M  V30 192 H 14.6411 2.73283 2.44361 0
M  V30 193 H 14.2891 1.74938 4.71599 0
M  V30 194 H 13.9891 3.50541 4.71588 0
M  V30 195 H 15.5131 2.86401 5.39265 0
M  V30 196 H 16.9271 4.37898 3.70024 0
M  V30 197 H 15.3241 5.03735 3.26146 0
M  V30 198 H 16.3941 4.42244 1.98867 0
M  V30 199 N 17.7372 -0.778329 1.37039 0
M  V30 200 C 18.7002 -1.87301 1.32102 0
M  V30 201 C 19.7002 -1.59198 0.226405 0
M  V30 202 O 20.8902 -1.67403 0.481861 0
M  V30 203 C 18.0222 -3.24309 1.05055 0
M  V30 204 H 19.2152 -1.93093 2.29467 0
M  V30 205 H 16.7682 -0.977358 1.21973 0
M  V30 206 H 17.5032 -3.24196 0.0819373 0
M  V30 207 H 17.2882 -3.46098 1.84279 0
M  V30 208 H 18.7782 -4.04382 1.04234 0
M  V30 209 N 19.2153 -1.21501 -1.00376 0
M  V30 210 C 20.1623 -0.975387 -2.09177 0
M  V30 211 C 21.1323 0.0990615 -1.65804 0
M  V30 212 O 22.3173 -0.0483147 -1.90739 0
M  V30 213 C 19.4573 -0.547507 -3.40729 0
M  V30 214 C 18.5703 -1.69153 -3.97506 0
M  V30 215 C 17.7053 -1.2127 -5.17172 0
M  V30 216 C 16.7443 -2.32897 -5.66061 0
M  V30 217 N 15.8813 -1.86138 -6.76976 0
M  V30 218 H 20.7213 -1.9068 -2.29009 0
M  V30 219 H 18.2583 -0.950257 -1.12288 0
M  V30 220 H 20.2163 -0.280667 -4.16255 0
M  V30 221 H 18.8463 0.346904 -3.20931 0
M  V30 222 H 17.8983 -2.07298 -3.18954 0
M  V30 223 H 19.2103 -2.5316 -4.29781 0
M  V30 224 H 18.3643 -0.902591 -5.99948 0
M  V30 225 H 17.1033 -0.342692 -4.86495 0
M  V30 226 H 16.1083 -2.64709 -4.81881 0
M  V30 227 H 17.3333 -3.20396 -5.98768 0
M  V30 228 H 15.2793 -1.01484 -6.48103 0
M  V30 229 H 15.1963 -2.63717 -7.08512 0
M  V30 230 H 16.4643 -1.58165 -7.63285 0
M  V30 231 N 20.6934 1.19889 -1.02296 0
M  V30 232 C 21.9704 1.85148 -0.630832 0
M  V30 233 C 22.3504 1.91385 0.890782 0
M  V30 234 O 21.6984 1.42642 1.78509 0
M  V30 235 C 21.9084 3.24442 -1.28602 0
M  V30 236 C 23.2564 4.00663 -1.4055 0
M  V30 237 O 24.2804 3.33818 -1.24273 0
M  V30 238 O 23.1394 5.20387 -1.66913 0
M  V30 239 H 20.2334 0.797613 -0.218499 0
M  V30 240 H 22.7794 1.27427 -1.12074 0
M  V30 241 H 21.5514 3.14704 -2.32545 0
M  V30 242 H 21.1744 3.89802 -0.7836 0
M  V30 243 N 22.1715 0.800033 1.35784 0
M  V30 244 C 23.0815 0.207204 2.33683 0
M  V30 245 C 24.0975 -0.64631 1.61551 0
M  V30 246 O 25.2735 -0.559604 1.93469 0
M  V30 247 C 22.3385 -0.639659 3.40748 0
M  V30 248 C 21.3995 0.233585 4.28664 0
M  V30 249 C 20.6325 -0.572954 5.30616 0
M  V30 250 O 20.8555 -1.80816 5.40982 0
M  V30 251 O 19.7895 0.0327285 6.01891 0
M  V30 252 H 23.6155 1.01692 2.86169 0
M  V30 253 H 21.2005 0.561691 1.38439 0
M  V30 254 H 23.0825 -1.12223 4.06182 0
M  V30 255 H 21.7575 -1.42708 2.90544 0
M  V30 256 H 20.6645 0.763147 3.66233 0
M  V30 257 H 21.9975 0.984784 4.82248 0
M  V30 258 N 23.6496 -1.47581 0.552962 0
M  V30 259 C 24.5966 -2.29957 -0.197108 0
M  V30 260 C 25.5666 -1.38799 -0.912359 0
M  V30 261 O 26.7516 -1.67761 -0.908888 0
M  V30 262 C 23.8916 -3.22672 -1.22379 0
M  V30 263 C 23.0046 -4.28919 -0.515038 0
M  V30 264 C 22.1396 -5.0879 -1.52664 0
M  V30 265 C 21.1786 -6.06815 -0.802631 0
M  V30 266 N 20.3156 -6.7966 -1.76086 0
M  V30 267 H 25.1556 -2.93578 0.511486 0
M  V30 268 H 22.6926 -1.4471 0.264067 0
M  V30 269 H 24.6506 -3.74845 -1.83159 0
M  V30 270 H 23.2806 -2.60925 -1.90047 0
M  V30 271 H 22.3326 -3.79835 0.207192 0
M  V30 272 H 23.6446 -4.98773 0.0523425 0
M  V30 273 H 22.7986 -5.65091 -2.20809 0
M  V30 274 H 21.5376 -4.38828 -2.12794 0
M  V30 275 H 20.5426 -5.49695 -0.107238 0
M  V30 276 H 21.7676 -6.78784 -0.207135 0
M  V30 277 H 19.7136 -6.12432 -2.35081 0
M  V30 278 H 19.6306 -7.45669 -1.24552 0
M  V30 279 H 20.8986 -7.40538 -2.43359 0
M  V30 280 N 25.1277 -0.289203 -1.54924 0
M  V30 281 C 26.3737 0.323998 -2.00195 0
M  V30 282 C 26.7067 1.54441 -1.17735 0
M  V30 283 O 25.9817 1.92875 -0.250878 0
M  V30 284 C 26.2647 0.692276 -3.53383 0
M  V30 285 C 26.1177 -0.536457 -4.46589 0
M  V30 286 C 27.4367 1.52335 -4.12895 0
M  V30 287 H 24.5557 0.116289 -0.727768 0
M  V30 288 H 27.1977 -0.398954 -1.85764 0
M  V30 289 H 25.3477 1.30822 -3.65811 0
M  V30 290 H 27.0197 -1.17499 -4.46085 0
M  V30 291 H 25.2627 -1.17192 -4.1767 0
M  V30 292 H 25.9337 -0.234806 -5.515 0
M  V30 293 H 28.4097 1.00302 -4.0383 0
M  V30 294 H 27.2857 1.74982 -5.20262 0
M  V30 295 H 27.5467 2.50886 -3.64018 0
M  V30 296 N 26.6058 1.57591 -0.0167156 0
M  V30 297 C 27.5158 2.1291 0.98521 0
M  V30 298 C 28.5318 1.07834 1.36557 0
M  V30 299 O 29.7078 1.39826 1.44951 0
M  V30 300 C 26.7728 2.63512 2.25305 0
M  V30 301 C 25.8338 3.83256 1.93426 0
M  V30 302 C 25.0668 4.31435 3.14165 0
M  V30 303 O 25.2898 3.78851 4.26413 0
M  V30 304 O 24.2238 5.23416 2.97186 0
M  V30 305 H 28.0498 2.98772 0.544888 0
M  V30 306 H 25.6348 1.48012 0.203141 0
M  V30 307 H 27.5168 2.96183 2.99756 0
M  V30 308 H 26.1918 1.8074 2.68542 0
M  V30 309 H 25.0988 3.55531 1.16398 0
M  V30 310 H 26.4318 4.67153 1.55013 0
M  V30 311 N 28.0839 -0.256276 1.55502 0
M  V30 312 C 29.3139 -1.00196 1.80677 0
M  V30 313 C 29.7219 -1.79805 0.588797 0
M  V30 314 O 29.0649 -1.78055 -0.451883 0
M  V30 315 C 29.1269 -1.99515 2.99055 0
M  V30 316 C 28.7909 -1.38688 4.35448 0
M  V30 317 C 29.7879 -0.794079 5.138 0
M  V30 318 C 27.4729 -1.40906 4.82132 0
M  V30 319 C 29.4669 -0.231562 6.36979 0
M  V30 320 C 27.1539 -0.842684 6.05262 0
M  V30 321 C 28.1519 -0.254953 6.82524 0
M  V30 322 O 27.8399 0.3027 8.0333 0
M  V30 323 H 27.5719 -0.300919 0.60533 0
M  V30 324 H 30.1259 -0.287307 2.03381 0
M  V30 325 H 28.3559 -2.74785 2.72084 0
M  V30 326 H 30.0449 -2.60349 3.11405 0
M  V30 327 H 30.8109 -0.769519 4.78856 0
M  V30 328 H 26.6899 -1.85591 4.21992 0
M  V30 329 H 30.2339 0.227816 6.97228 0
M  V30 330 H 26.1309 -0.86454 6.39684 0
M  V30 331 H 26.8989 0.193662 8.18271 0
M  V30 332 N 29.562 -1.4872 -0.521534 0
M  V30 333 C 30.808 -1.574 -1.27879 0
M  V30 334 C 31.141 -0.250817 -1.92573 0
M  V30 335 O 30.416 0.743934 -1.79711 0
M  V30 336 C 30.699 -2.71843 -2.36164 0
M  V30 337 C 30.552 -4.13893 -1.76105 0
M  V30 338 C 31.871 -2.82008 -3.37875 0
M  V30 339 H 28.99 -0.572941 -0.463581 0
M  V30 340 H 31.632 -1.80927 -0.580119 0
M  V30 341 H 29.782 -2.51914 -2.95756 0
M  V30 342 H 31.454 -4.45284 -1.20499 0
M  V30 343 H 29.697 -4.20498 -1.06601 0
M  V30 344 H 30.368 -4.89804 -2.5455 0
M  V30 345 H 32.844 -3.00086 -2.88249 0
M  V30 346 H 31.72 -3.63796 -4.11028 0
M  V30 347 H 31.981 -1.90511 -3.98946 0
M  V30 348 N 31.0401 0.771051 -1.3745 0
M  V30 349 C 32.3171 1.519 -1.23231 0
M  V30 350 C 32.6971 2.10383 0.173809 0
M  V30 351 O 32.0451 1.95583 1.18151 0
M  V30 352 C 32.2551 2.59933 -2.32886 0
M  V30 353 C 33.6031 3.27316 -2.70461 0
M  V30 354 O 34.6271 2.70228 -2.32068 0
M  V30 355 O 33.4861 4.30531 -3.36608 0
M  V30 356 H 30.5801 0.672803 -0.480901 0
M  V30 357 H 33.1261 0.807957 -1.49232 0
M  V30 358 H 31.8981 2.14842 -3.27045 0
M  V30 359 H 31.5211 3.38637 -2.08353 0
M  V30 360 N 32.5182 1.22032 0.997298 0
M  V30 361 C 33.7642 1.04376 1.73878 0
M  V30 362 C 34.0972 -0.420716 1.89588 0
M  V30 363 O 33.3722 -1.31202 1.43583 0
M  V30 364 C 33.6552 1.75047 3.14691 0
M  V30 365 C 33.5082 3.29062 3.06656 0
M  V30 366 C 34.8272 1.49928 4.13775 0
M  V30 367 H 31.9462 0.380578 0.631133 0
M  V30 368 H 34.5882 1.50312 1.16217 0
M  V30 369 H 32.7382 1.35996 3.63919 0
M  V30 370 H 34.4102 3.7753 2.65083 0
M  V30 371 H 32.6532 3.58967 2.43568 0
M  V30 372 H 33.3242 3.73683 4.06282 0
M  V30 373 H 35.8002 1.83842 3.73285 0
M  V30 374 H 34.6762 2.01878 5.10428 0
M  V30 375 H 34.9372 0.430929 4.39995 0
M  V30 376 N 33.9963 -1.19345 1.0293 0
M  V30 377 C 35.4123 -1.41069 0.746446 0
M  V30 378 C 35.6123 -1.90078 -0.668776 0
M  V30 379 O 34.6683 -2.0778 -1.4347 0
M  V30 380 C 35.9813 -2.42141 1.78292 0
M  V30 381 C 37.5293 -2.55887 1.80252 0
M  V30 382 C 38.0043 -3.60214 2.8286 0
M  V30 383 N 39.4953 -3.67711 2.81679 0
M  V30 384 C 40.2303 -4.48128 3.57727 0
M  V30 385 N 39.7263 -5.32248 4.43491 0
M  V30 386 N 41.5193 -4.42782 3.46267 0
M  V30 387 H 33.6703 -0.858536 1.94275 0
M  V30 388 H 35.9333 -0.439541 0.839945 0
M  V30 389 H 35.6393 -2.13155 2.79746 0
M  V30 390 H 35.5133 -3.41323 1.60557 0
M  V30 391 H 37.9003 -2.84196 0.794757 0
M  V30 392 H 37.9813 -1.56858 2.02062 0
M  V30 393 H 37.6253 -3.32647 3.83807 0
M  V30 394 H 37.5553 -4.58895 2.58307 0
M  V30 395 H 40.0463 -3.07634 2.19476 0
M  V30 396 H 40.3593 -5.90729 4.98256 0
M  V30 397 H 38.7043 -5.31707 4.47564 0
M  V30 398 H 41.8953 -3.76107 2.78677 0
M  V30 399 H 42.0683 -5.05215 4.05785 0
M  V30 400 N 35.4744 -0.807222 -1.35358 0
M  V30 401 C 36.7214 -0.387888 -1.9875 0
M  V30 402 C 37.0494 1.04509 -1.64037 0
M  V30 403 O 36.3044 1.73986 -0.895946 0
M  V30 404 C 36.6034 -0.519036 -3.53611 0
M  V30 405 C 36.2694 -1.91542 -4.08194 0
M  V30 406 C 34.9314 -2.29745 -4.22813 0
M  V30 407 C 37.2834 -2.82896 -4.37744 0
M  V30 408 C 34.6114 -3.58668 -4.643 0
M  V30 409 C 36.9634 -4.11265 -4.8067 0
M  V30 410 C 35.6274 -4.49466 -4.93494 0
M  V30 411 H 34.8974 -0.141938 -0.727279 0
M  V30 412 H 37.5444 -1.02814 -1.6156 0
M  V30 413 H 35.8494 0.204658 -3.91265 0
M  V30 414 H 37.5464 -0.175345 -4.00616 0
M  V30 415 H 34.1364 -1.60862 -3.97268 0
M  V30 416 H 38.3204 -2.54629 -4.26002 0
M  V30 417 H 33.5764 -3.88113 -4.72418 0
M  V30 418 H 37.7504 -4.82153 -5.02496 0
M  V30 419 H 35.3774 -5.49418 -5.25399 0
M  V30 420 N 36.9525 1.47285 -0.560781 0
M  V30 421 C 38.1925 2.0436 -0.0404627 0
M  V30 422 C 38.5565 1.42534 1.28639 0
M  V30 423 O 39.7575 1.90677 1.89462 0
M  V30 424 C 38.0285 3.57369 0.0471856 0
M  V30 425 S 39.5875 4.3579 0.513109 0
M  V30 426 H 36.4055 0.710492 -0.0268674 0
M  V30 427 H 39.0075 1.80611 -0.748323 0
M  V30 428 H 37.7115 3.9989 -0.922817 0
M  V30 429 H 37.2425 3.8562 0.778491 0
M  V30 430 H 39.2575 4.63476 1.77212 0
M  V30 431 N 38.4306 0.297415 1.54768 0
M  V30 432 C 39.7076 -0.365847 1.92148 0
M  V30 433 C 40.0876 -1.71975 1.22424 0
M  V30 434 O 39.4356 -2.25666 0.358739 0
M  V30 435 C 39.6456 -0.484056 3.45627 0
M  V30 436 C 40.9936 -0.756594 4.17805 0
M  V30 437 O 42.0176 -0.568007 3.51642 0
M  V30 438 O 40.8766 -1.11863 5.34929 0
M  V30 439 H 37.9706 -0.203919 0.801465 0
M  V30 440 H 40.5166 0.34521 1.66152 0
M  V30 441 H 39.2886 0.467865 3.88493 0
M  V30 442 H 38.9116 -1.24372 3.77647 0
M  V30 443 N 39.9087 -1.5758 0.0250728 0
M  V30 444 C 40.8387 -2.13007 -0.956575 0
M  V30 445 C 41.8197 -1.0452 -1.342 0
M  V30 446 O 43.0047 -1.32332 -1.42133 0
M  V30 447 C 40.1347 -2.65386 -2.24026 0
M  V30 448 C 39.0887 -3.78623 -1.99571 0
M  V30 449 C 38.4147 -4.17414 -3.3417 0
M  V30 450 C 39.7147 -5.04867 -1.33814 0
M  V30 451 H 41.4087 -2.9528 -0.494991 0
M  V30 452 H 38.9547 -1.42042 -0.236651 0
M  V30 453 H 40.9077 -3.02794 -2.93076 0
M  V30 454 H 39.6317 -1.80268 -2.72343 0
M  V30 455 H 38.2907 -3.41646 -1.32941 0
M  V30 456 H 37.9387 -3.29284 -3.80238 0
M  V30 457 H 37.6387 -4.93719 -3.18615 0
M  V30 458 H 39.1627 -4.57402 -4.04495 0
M  V30 459 H 40.5767 -5.39888 -1.92857 0
M  V30 460 H 38.9737 -5.86144 -1.28669 0
M  V30 461 H 40.0437 -4.83904 -0.310561 0
M  V30 462 N 41.3868 0.248026 -1.55636 0
M  V30 463 C 42.7978 0.817177 -1.67866 0
M  V30 464 C 43.1488 1.86069 -0.622322 0
M  V30 465 O 42.2738 2.15157 0.231618 0
M  V30 466 C 42.8688 1.489 -3.04326 0
M  V30 467 C 41.4278 2.00587 -3.185 0
M  V30 468 C 40.5748 0.856573 -2.63739 0
M  V30 469 H 43.5258 0.0238579 -1.58682 0
M  V30 470 H 43.5468 2.35698 -2.98708 0
M  V30 471 H 43.0588 0.729279 -3.81186 0
M  V30 472 H 41.1598 2.79443 -2.4646 0
M  V30 473 H 41.2728 2.20402 -4.25393 0
M  V30 474 H 39.6368 1.25678 -2.21534 0
M  V30 475 H 40.4198 0.109953 -3.43124 0
M  V30 476 N 42.8649 1.48995 0.513639 0
M  V30 477 C 44.1129 1.57531 1.26604 0
M  V30 478 C 44.4339 0.258236 1.93283 0
M  V30 479 O 43.7039 -0.721502 1.8213 0
M  V30 480 H 42.2839 0.580387 0.470276 0
M  V30 481 H 44.9459 1.85552 0.596373 0
M  V30 482 H 44.0419 2.36486 2.03669 0
M  V30 483 N 44.343 -0.763751 1.37857 0
M  V30 484 C 45.592 -1.51789 1.32827 0
M  V30 485 C 45.905 -1.95426 -0.0823719 0
M  V30 486 O 47.111 -2.70298 -0.255172 0
M  V30 487 C 45.567 -2.74133 2.33193 0
M  V30 488 C 45.175 -2.37562 3.79827 0
M  V30 489 C 46.919 -3.52054 2.37188 0
M  V30 490 C 44.826 -3.56456 4.71904 0
M  V30 491 H 43.756 -0.569896 0.493695 0
M  V30 492 H 46.407 -0.835822 1.63359 0
M  V30 493 H 44.789 -3.4427 1.9569 0
M  V30 494 H 45.963 -1.75157 4.26212 0
M  V30 495 H 44.278 -1.72798 3.78853 0
M  V30 496 H 46.875 -4.40437 3.03182 0
M  V30 497 H 47.218 -3.92486 1.38782 0
M  V30 498 H 47.751 -2.88921 2.7344 0
M  V30 499 H 44.49 -3.21099 5.71468 0
M  V30 500 H 44.01 -4.17938 4.30218 0
M  V30 501 H 45.689 -4.23168 4.89426 0
M  V30 502 N 45.8211 -1.22559 -0.990812 0
M  V30 503 C 46.7541 -0.940773 -2.07905 0
M  V30 504 C 47.7321 0.117082 -1.62178 0
M  V30 505 O 48.9161 -0.0149506 -1.88494 0
M  V30 506 C 46.0431 -0.415321 -3.36144 0
M  V30 507 C 45.0891 -1.45818 -4.00799 0
M  V30 508 S 45.9221 -3.03219 -4.41382 0
M  V30 509 C 47.0781 -2.52317 -5.72789 0
M  V30 510 H 47.3111 -1.8623 -2.31745 0
M  V30 511 H 44.8441 -1.05688 -1.12558 0
M  V30 512 H 46.8021 -0.118747 -4.10328 0
M  V30 513 H 45.4631 0.485121 -3.10331 0
M  V30 514 H 44.6561 -1.04044 -4.93144 0
M  V30 515 H 44.2581 -1.70356 -3.32949 0
M  V30 516 H 46.5501 -1.93688 -6.49224 0
M  V30 517 H 47.4931 -3.43161 -6.19392 0
M  V30 518 H 47.9011 -1.93529 -5.30289 0
M  V30 519 N 47.2992 1.18797 -1.03562 0
M  V30 520 C 48.2312 2.21731 -0.580337 0
M  V30 521 C 49.2442 1.59051 0.347349 0
M  V30 522 O 50.4332 1.77929 0.142669 0
M  V30 523 C 47.5332 3.38459 0.172805 0
M  V30 524 C 46.7062 4.3072 -0.761496 0
M  V30 525 C 45.7652 5.26174 -0.0525547 0
M  V30 526 O 44.7912 5.65108 -0.681333 0
M  V30 527 N 45.9932 5.67624 1.21586 0
M  V30 528 H 48.7582 2.61417 -1.46565 0
M  V30 529 H 46.3192 1.33531 -0.915476 0
M  V30 530 H 48.3112 3.99335 0.656793 0
M  V30 531 H 46.8812 2.97507 0.959602 0
M  V30 532 H 46.1012 3.67525 -1.42544 0
M  V30 533 H 47.3892 4.89267 -1.39626 0
M  V30 534 H 46.7872 5.38038 1.74732 0
M  V30 535 H 45.3442 6.30721 1.64421 0
M  V30 536 N 48.7773 0.814389 1.34928 0
M  V30 537 C 49.7273 0.202752 2.27097 0
M  V30 538 C 50.7113 -0.62799 1.48139 0
M  V30 539 O 51.9033 -0.483969 1.70255 0
M  V30 540 C 49.0323 -0.64146 3.37254 0
M  V30 541 C 48.1183 0.19944 4.23631 0
M  V30 542 N 48.5093 1.26628 4.89693 0
M  V30 543 C 46.8073 -0.0176433 4.45997 0
M  V30 544 C 47.5083 1.78031 5.53787 0
M  V30 545 N 46.4843 1.08553 5.32651 0
M  V30 546 H 50.2863 1.01893 2.75672 0
M  V30 547 H 47.8003 0.656332 1.48546 0
M  V30 548 H 49.7973 -1.09575 4.02243 0
M  V30 549 H 48.4573 -1.4559 2.9023 0
M  V30 550 H 49.4683 1.64901 4.90946 0
M  V30 551 H 46.1453 -0.800601 4.09752 0
M  V30 552 H 47.5353 2.67236 6.16469 0
M  V30 553 N 50.2554 -1.46986 0.568584 0
M  V30 554 C 51.5024 -2.02441 0.0487986 0
M  V30 555 C 51.8304 -1.44169 -1.30559 0
M  V30 556 O 51.0854 -0.591213 -1.86556 0
M  V30 557 C 51.3844 -3.57306 -0.081836 0
M  V30 558 C 51.0504 -4.34552 1.20313 0
M  V30 559 C 49.7124 -4.55376 1.5552 0
M  V30 560 C 52.0644 -4.79016 2.05411 0
M  V30 561 C 49.3924 -5.17913 2.7565 0
M  V30 562 C 51.7444 -5.42879 3.24754 0
M  V30 563 C 50.4084 -5.61933 3.60261 0
M  V30 564 H 49.6784 -0.740785 0.0178567 0
M  V30 565 H 52.3254 -1.76525 0.742384 0
M  V30 566 H 50.6304 -3.8228 -0.858463 0
M  V30 567 H 52.3274 -3.97876 -0.499546 0
M  V30 568 H 48.9174 -4.18631 0.919014 0
M  V30 569 H 53.1014 -4.62696 1.79516 0
M  V30 570 H 48.3574 -5.30858 3.03315 0
M  V30 571 H 52.5314 -5.76293 3.90973 0
M  V30 572 H 50.1584 -6.10161 4.53439 0
M  V30 573 N 51.7335 -0.305618 -1.54608 0
M  V30 574 C 52.9615 0.304775 -2.04643 0
M  V30 575 C 53.3765 1.47167 -1.18268 0
M  V30 576 O 52.7335 1.81296 -0.209328 0
M  V30 577 C 52.7845 0.756564 -3.53495 0
M  V30 578 O 52.5055 -0.36389 -4.36586 0
M  V30 579 C 54.0065 1.43163 -4.19546 0
M  V30 580 H 51.2265 0.0655481 -0.667791 0
M  V30 581 H 53.7705 -0.446592 -1.99564 0
M  V30 582 H 51.9255 1.45794 -3.58919 0
M  V30 583 H 52.3395 -0.0113121 -5.24499 0
M  V30 584 H 53.8135 1.69886 -5.25207 0
M  V30 585 H 54.2905 2.37318 -3.69563 0
M  V30 586 H 54.8965 0.773307 -4.18211 0
M  V30 587 N 53.2116 1.57565 -0.0334293 0
M  V30 588 C 54.4606 1.91155 0.643639 0
M  V30 589 C 54.7736 0.91192 1.73042 0
M  V30 590 O 55.9796 1.13923 2.46442 0
M  V30 591 C 54.4356 3.39443 1.1961 0
M  V30 592 C 54.0436 4.47774 0.142381 0
M  V30 593 C 55.7876 3.82094 1.84944 0
M  V30 594 C 53.6946 5.87162 0.706727 0
M  V30 595 H 52.6246 0.713368 0.244176 0
M  V30 596 H 55.2756 1.8323 -0.0994323 0
M  V30 597 H 53.6576 3.42313 1.99092 0
M  V30 598 H 54.8316 4.56469 -0.630296 0
M  V30 599 H 53.1466 4.14352 -0.412446 0
M  V30 600 H 55.7436 4.83591 2.2813 0
M  V30 601 H 56.0866 3.17386 2.69392 0
M  V30 602 H 56.6196 3.81665 1.12145 0
M  V30 603 H 53.3586 6.55424 -0.0997178 0
M  V30 604 H 52.8786 5.82064 1.44779 0
M  V30 605 H 54.5576 6.35866 1.19514 0
M  V30 606 N 54.6897 -0.239769 1.55765 0
M  V30 607 C 56.1007 -0.808263 1.68297 0
M  V30 608 C 56.4517 -1.85736 0.632181 0
M  V30 609 O 55.5767 -2.15277 -0.220204 0
M  V30 610 C 56.1717 -1.47284 3.05111 0
M  V30 611 C 54.7307 -1.98895 3.19559 0
M  V30 612 C 53.8777 -0.842575 2.64189 0
M  V30 613 H 56.8287 -0.0154422 1.58692 0
M  V30 614 H 56.8497 -2.34111 2.99954 0
M  V30 615 H 56.3617 -0.709053 3.81568 0
M  V30 616 H 54.4627 -2.78132 2.47938 0
M  V30 617 H 54.5757 -2.18143 4.26556 0
M  V30 618 H 52.9397 -1.24501 2.22197 0
M  V30 619 H 53.7227 -0.0917552 3.43177 0
M  V30 620 N 56.1678 -1.49265 -0.50573 0
M  V30 621 C 57.1308 -1.65075 -1.59006 0
M  V30 622 C 58.1308 -0.522768 -1.52065 0
M  V30 623 O 59.3208 -0.789117 -1.55302 0
M  V30 624 C 56.4528 -1.64369 -2.98656 0
M  V30 625 H 57.6458 -2.61784 -1.46319 0
M  V30 626 H 55.1988 -1.38226 -0.729616 0
M  V30 627 H 55.9338 -0.692272 -3.16825 0
M  V30 628 H 55.7188 -2.46282 -3.05103 0
M  V30 629 H 57.2088 -1.78674 -3.77446 0
M  V30 630 N 57.6459 0.756429 -1.3826 0
M  V30 631 C 58.8709 1.55077 -1.37717 0
M  V30 632 C 59.2959 1.88073 0.03164 0
M  V30 633 O 58.6539 1.50364 1.01293 0
M  V30 634 C 58.7019 2.8283 -2.23695 0
M  V30 635 O 57.8059 3.77862 -1.6521 0
M  V30 636 H 57.1469 0.469152 -0.469885 0
M  V30 637 H 59.6769 0.935019 -1.81985 0
M  V30 638 H 59.6869 3.31783 -2.37453 0
M  V30 639 H 58.3619 2.58144 -3.2609 0
M  V30 640 H 56.9389 3.36555 -1.60578 0
M  V30 641 N 59.124 1.23083 0.984299 0
M  V30 642 C 60.087 1.00979 2.05757 0
M  V30 643 C 61.087 -0.0269573 1.60777 0
M  V30 644 O 62.277 0.212403 1.729 0
M  V30 645 C 59.409 0.527072 3.36801 0
M  V30 646 H 60.602 1.9622 2.26799 0
M  V30 647 H 58.155 1.05072 1.15714 0
M  V30 648 H 58.89 -0.429294 3.21446 0
M  V30 649 H 58.675 1.27515 3.70786 0
M  V30 650 H 60.165 0.392942 4.15747 0
M  V30 651 N 60.6021 -1.18246 1.0419 0
M  V30 652 C 61.8491 -1.88257 0.746017 0
M  V30 653 C 62.1771 -1.80429 -0.726331 0
M  V30 654 O 61.4321 -1.2 -1.54591 0
M  V30 655 C 61.7311 -3.38082 1.15911 0
M  V30 656 C 61.3971 -3.66114 2.63195 0
M  V30 657 C 60.0591 -3.73474 3.03432 0
M  V30 658 C 62.4111 -3.78398 3.5842 0
M  V30 659 C 59.7391 -3.90599 4.37778 0
M  V30 660 C 62.0911 -3.97039 4.92487 0
M  V30 661 C 60.7551 -4.02635 5.32392 0
M  V30 662 H 60.0251 -0.688883 0.272987 0
M  V30 663 H 62.6721 -1.3995 1.30715 0
M  V30 664 H 60.9771 -3.88377 0.516806 0
M  V30 665 H 62.6741 -3.90596 0.907516 0
M  V30 666 H 59.2641 -3.61003 2.3103 0
M  V30 667 H 63.4481 -3.72042 3.28479 0
M  V30 668 H 58.7041 -3.93175 4.68213 0
M  V30 669 H 62.8781 -4.05486 5.66175 0
M  V30 670 H 60.5051 -4.15657 6.36501 0
M  V30 671 N 62.0802 -0.821533 -1.34494 0
M  V30 672 C 63.3572 -0.33159 -1.92769 0
M  V30 673 C 63.7372 1.18088 -1.74981 0
M  V30 674 O 63.0852 1.98733 -1.12772 0
M  V30 675 C 63.2952 -0.759398 -3.40638 0
M  V30 676 C 64.6432 -0.757433 -4.1779 0
M  V30 677 O 65.6672 -0.70189 -3.49216 0
M  V30 678 O 64.5262 -0.829361 -5.4017 0
M  V30 679 H 61.6202 -0.0902502 -0.822061 0
M  V30 680 H 64.1662 -0.906231 -1.43477 0
M  V30 681 H 62.9382 -1.8012 -3.47379 0
M  V30 682 H 62.5612 -0.160378 -3.97276 0
M  V30 683 N 63.5583 1.46682 -0.576371 0
M  V30 684 C 64.5053 2.30241 0.160499 0
M  V30 685 C 65.4753 1.40233 0.890162 0
M  V30 686 O 66.6603 1.69186 0.882084 0
M  V30 687 C 63.8003 3.24578 1.1723 0
M  V30 688 C 62.9133 4.29684 0.446736 0
M  V30 689 C 62.0483 5.11154 1.44551 0
M  V30 690 C 61.0873 6.08015 0.70599 0
M  V30 691 N 60.2243 6.82376 1.65251 0
M  V30 692 H 65.0643 2.92727 -0.558127 0
M  V30 693 H 62.6013 1.44272 -0.287056 0
M  V30 694 H 64.5593 3.77711 1.77172 0
M  V30 695 H 63.1893 2.63916 1.85872 0
M  V30 696 H 62.2413 3.79458 -0.267594 0
M  V30 697 H 63.5533 4.98626 -0.131686 0
M  V30 698 H 62.7073 5.68533 2.11791 0
M  V30 699 H 61.4463 4.42158 2.05786 0
M  V30 700 H 60.4513 5.49796 0.0197725 0
M  V30 701 H 61.6763 6.79028 0.09912 0
M  V30 702 H 59.6223 6.16094 2.25308 0
M  V30 703 H 59.5393 7.47556 1.12673 0
M  V30 704 H 60.8073 7.44316 2.31546 0
M  V30 705 N 65.0364 0.313813 1.54444 0
M  V30 706 C 66.2614 -0.296681 2.05267 0
M  V30 707 C 66.6864 -1.45757 1.18897 0
M  V30 708 O 66.0444 -1.80239 0.195886 0
M  V30 709 C 66.0924 -0.71831 3.53373 0
M  V30 710 O 65.1964 -1.82175 3.69981 0
M  V30 711 H 64.5374 -0.0554061 0.661684 0
M  V30 712 H 67.0674 0.459387 1.99376 0
M  V30 713 H 67.0774 -1.00364 3.95463 0
M  V30 714 H 65.7524 0.130821 4.15694 0
M  V30 715 H 64.3294 -1.53598 3.39797 0
M  V30 716 N 66.5145 -1.57545 0.0417849 0
M  V30 717 C 67.7605 -1.92601 -0.635021 0
M  V30 718 C 68.0935 -0.919627 -1.71045 0
M  V30 719 O 67.3685 0.0557892 -1.9442 0
M  V30 720 C 67.6515 -3.38085 -1.23979 0
M  V30 721 C 67.5045 -4.49467 -0.173057 0
M  V30 722 C 68.8235 -3.83776 -2.15416 0
M  V30 723 H 65.9425 -0.700397 -0.229374 0
M  V30 724 H 68.5845 -1.89728 0.101633 0
M  V30 725 H 66.7345 -3.40664 -1.86762 0
M  V30 726 H 68.4065 -4.59018 0.458312 0
M  V30 727 H 66.6495 -4.30909 0.499996 0
M  V30 728 H 67.3205 -5.48323 -0.636054 0
M  V30 729 H 69.7965 -3.83013 -1.62605 0
M  V30 730 H 68.6725 -4.8624 -2.54679 0
M  V30 731 H 68.9335 -3.19998 -3.05047 0
M  V30 732 N 67.9926 0.231505 -1.5589 0
M  V30 733 C 69.2396 0.957352 -1.78441 0
M  V30 734 C 69.5676 1.84726 -0.60882 0
M  V30 735 O 68.8226 1.91416 0.40725 0
M  V30 736 C 69.1216 1.83577 -3.0665 0
M  V30 737 C 68.7876 1.09993 -4.37278 0
M  V30 738 C 67.4496 0.896629 -4.72773 0
M  V30 739 C 69.8016 0.579558 -5.17968 0
M  V30 740 C 67.1296 0.160896 -5.86479 0
M  V30 741 C 69.4816 -0.142783 -6.32439 0
M  V30 742 C 68.1456 -0.357427 -6.66542 0
M  V30 743 H 67.4156 0.35032 -0.65296 0
M  V30 744 H 70.0626 0.226259 -1.90159 0
M  V30 745 H 68.3676 2.63441 -2.90011 0
M  V30 746 H 70.0646 2.39934 -3.21298 0
M  V30 747 H 66.6546 1.26835 -4.09403 0
M  V30 748 H 70.8386 0.724125 -4.90989 0
M  V30 749 H 66.0946 -0.0157293 -6.11398 0
M  V30 750 H 70.2686 -0.553559 -6.94196 0
M  V30 751 H 67.8956 -0.929466 -7.54497 0
M  V30 752 N 69.4707 1.49531 0.497807 0
M  V30 753 C 70.7477 1.49682 1.25915 0
M  V30 754 C 71.1277 0.226339 2.09883 0
M  V30 755 O 70.4757 -0.791189 2.14365 0
M  V30 756 C 70.6857 2.77755 2.11313 0
M  V30 757 C 72.0337 3.27371 2.70395 0
M  V30 758 O 73.0577 2.78894 2.21578 0
M  V30 759 O 71.9167 4.11808 3.59272 0
M  V30 760 H 69.0107 0.599228 0.56996 0
M  V30 761 H 71.5567 1.61798 0.511816 0
M  V30 762 H 70.3287 3.61713 1.49264 0
M  V30 763 H 69.9517 2.68515 2.93233 0
M  V30 764 N 70.9488 -0.749086 1.3866 0
M  V30 765 C 72.2258 -1.4992 1.25632 0
M  V30 766 C 72.6058 -2.10633 -0.140317 0
M  V30 767 O 71.9538 -1.97437 -1.15025 0
M  V30 768 C 72.1638 -2.56195 2.36992 0
M  V30 769 C 73.5118 -3.22972 2.75634 0
M  V30 770 O 74.5358 -2.66502 2.36337 0
M  V30 771 O 73.3948 -4.25122 3.43415 0
M  V30 772 H 70.4888 -0.665067 0.491544 0
M  V30 773 H 73.0348 -0.784113 1.50498 0
M  V30 774 H 71.8068 -2.09612 3.30422 0
M  V30 775 H 71.4298 -3.35279 2.13714 0
M  V30 776 N 72.4269 -1.23603 -0.977757 0
M  V30 777 C 73.6749 -1.06759 -1.71601 0
M  V30 778 C 73.9959 0.395929 -1.90938 0
M  V30 779 O 73.2659 1.28356 -1.47992 0
M  V30 780 H 71.8459 -0.392062 -0.635843 0
M  V30 781 H 74.5079 -1.55362 -1.1768 0
M  V30 782 H 73.6039 -1.55763 -2.70452 0
M  V30 783 N 73.905 1.17692 -1.04816 0
M  V30 784 C 74.835 2.23777 -0.666791 0
M  V30 785 C 75.816 1.66796 0.33361 0
M  V30 786 O 77.001 1.93039 0.212042 0
M  V30 787 C 74.131 3.47281 -0.0367933 0
M  V30 788 C 73.085 4.17059 -0.961546 0
M  V30 789 C 72.411 5.34342 -0.195626 0
M  V30 790 C 73.711 4.69713 -2.28402 0
M  V30 791 H 75.405 2.55933 -1.55367 0
M  V30 792 H 72.951 1.23019 -0.748484 0
M  V30 793 H 74.904 4.20706 0.241775 0
M  V30 794 H 73.628 3.14381 0.885004 0
M  V30 795 H 72.287 3.45541 -1.22462 0
M  V30 796 H 71.935 4.97692 0.728816 0
M  V30 797 H 71.635 5.81966 -0.811775 0
M  V30 798 H 73.159 6.10553 0.0757473 0
M  V30 799 H 74.573 5.34794 -2.06563 0
M  V30 800 H 72.97 5.279 -2.8538 0
M  V30 801 H 74.04 3.86726 -2.92525 0
M  V30 802 N 75.3831 0.828654 1.34056 0
M  V30 803 C 76.3461 0.259927 2.27721 0
M  V30 804 C 77.3461 -0.565478 1.50529 0
M  V30 805 O 78.5361 -0.38075 1.69988 0
M  V30 806 C 75.6681 -0.634944 3.34935 0
M  V30 807 H 76.8611 1.0863 2.79534 0
M  V30 808 H 74.4141 0.600951 1.44285 0
M  V30 809 H 75.1491 -1.48416 2.88346 0
M  V30 810 H 74.9341 -0.0444999 3.92075 0
M  V30 811 H 76.4241 -1.02648 4.04788 0
M  V30 812 N 76.8612 -1.46375 0.584142 0
M  V30 813 C 78.1082 -2.02378 0.0702675 0
M  V30 814 C 78.4362 -1.45545 -1.29023 0
M  V30 815 O 77.6912 -0.610967 -1.85918 0
M  V30 816 C 77.9902 -3.57373 -0.0439342 0
M  V30 817 C 77.6562 -4.33252 1.24915 0
M  V30 818 C 76.3182 -4.53701 1.60341 0
M  V30 819 C 78.6702 -4.7681 2.1048 0
M  V30 820 C 75.9982 -5.1496 2.81128 0
M  V30 821 C 78.3502 -5.39404 3.30494 0
M  V30 822 C 77.0142 -5.5808 3.66201 0
M  V30 823 H 76.2842 -0.740554 0.0257127 0
M  V30 824 H 78.9312 -1.75727 0.761065 0
M  V30 825 H 77.2362 -3.83169 -0.817869 0
M  V30 826 H 78.9332 -3.98384 -0.457318 0
M  V30 827 H 75.5232 -4.17633 0.963364 0
M  V30 828 H 79.7072 -4.60766 1.84414 0
M  V30 829 H 74.9632 -5.27611 3.08928 0
M  V30 830 H 79.1372 -5.72114 3.97063 0
M  V30 831 H 76.7642 -6.05318 4.59885 0
M  V30 832 N 78.3393 -0.321999 -1.54275 0
M  V30 833 C 79.6163 0.335232 -1.92706 0
M  V30 834 C 79.9963 1.70006 -1.25145 0
M  V30 835 O 79.3443 2.25067 -0.394596 0
M  V30 836 C 79.5543 0.429008 -3.46353 0
M  V30 837 C 80.9023 0.690029 -4.18956 0
M  V30 838 O 81.9263 0.511992 -3.52501 0
M  V30 839 O 80.7853 1.03338 -5.36641 0
M  V30 840 H 77.8793 0.191143 -0.804608 0
M  V30 841 H 80.4253 -0.3716 -1.65581 0
M  V30 842 H 79.1973 -0.529611 -3.87699 0
M  V30 843 H 78.8203 1.18348 -3.79578 0
M  V30 844 N 79.8174 1.5752 -0.0501392 0
M  V30 845 C 81.0654 1.9227 0.622642 0
M  V30 846 C 81.3864 0.929083 1.71444 0
M  V30 847 O 80.6564 -0.0262186 1.95882 0
M  V30 848 H 79.2364 0.709739 0.232981 0
M  V30 849 H 81.8984 1.94628 -0.102898 0
M  V30 850 H 80.9944 2.93479 1.06191 0
M  V30 851 N 81.2955 -0.223234 1.56011 0
M  V30 852 C 82.5205 -0.968978 1.83373 0
M  V30 853 C 82.9455 -1.77227 0.630254 0
M  V30 854 O 82.3035 -1.76345 -0.420959 0
M  V30 855 C 82.3515 -1.86363 3.08709 0
M  V30 856 O 81.4555 -2.95873 2.87285 0
M  V30 857 H 80.7965 -0.274461 0.604622 0
M  V30 858 H 83.3265 -0.237056 2.03222 0
M  V30 859 H 83.3365 -2.27376 3.38768 0
M  V30 860 H 82.0115 -1.27319 3.95933 0
M  V30 861 H 80.5885 -2.58818 2.68454 0
M  V30 862 N 82.7736 -1.49793 -0.48987 0
M  V30 863 C 83.9986 -1.63836 -1.27172 0
M  V30 864 C 84.4236 -0.31402 -1.8546 0
M  V30 865 O 83.7816 0.719803 -1.66399 0
M  V30 866 C 83.8296 -2.71797 -2.36978 0
M  V30 867 O 82.9336 -2.31744 -3.41128 0
M  V30 868 H 82.2746 -0.547997 -0.37496 0
M  V30 869 H 84.8046 -1.96053 -0.585191 0
M  V30 870 H 84.8146 -2.94305 -2.82575 0
M  V30 871 H 83.4896 -3.67923 -1.93921 0
M  V30 872 H 82.0666 -2.1961 -3.01373 0
M  V30 873 N 84.2517 0.741722 -1.39055 0
M  V30 874 C 85.5007 1.49656 -1.35225 0
M  V30 875 C 85.8137 1.95533 0.0512708 0
M  V30 876 O 87.0197 2.7067 0.212138 0
M  V30 877 C 85.4757 2.70389 -2.37525 0
M  V30 878 C 85.0837 2.31489 -3.83558 0
M  V30 879 C 86.8277 3.48236 -2.42759 0
M  V30 880 C 84.7347 3.48903 -4.77515 0
M  V30 881 H 83.6647 0.56197 -0.502699 0
M  V30 882 H 86.3157 0.809727 -1.64668 0
M  V30 883 H 84.6977 3.41113 -2.01142 0
M  V30 884 H 85.8717 1.68354 -4.28945 0
M  V30 885 H 84.1867 1.66749 -3.81554 0
M  V30 886 H 86.7837 4.35558 -3.1015 0
M  V30 887 H 87.1267 3.90229 -1.45008 0
M  V30 888 H 87.6597 2.84535 -2.78002 0
M  V30 889 H 84.3987 3.11966 -5.76504 0
M  V30 890 H 83.9187 4.11041 -4.36813 0
M  V30 891 H 85.5977 4.15328 -4.96096 0
M  V30 892 N 85.7298 1.2412 0.971189 0
M  V30 893 C 87.1458 1.00584 1.23916 0
M  V30 894 C 87.3458 -0.287481 1.99439 0
M  V30 895 O 86.4018 -1.00454 2.31658 0
M  V30 896 C 87.7148 2.21864 2.0297 0
M  V30 897 C 89.2628 2.26452 2.16076 0
M  V30 898 C 89.7378 3.47343 2.98524 0
M  V30 899 N 91.2288 3.47639 3.06107 0
M  V30 900 C 91.9638 4.37837 3.70251 0
M  V30 901 N 91.4598 5.38286 4.36142 0
M  V30 902 N 93.2528 4.25558 3.67228 0
M  V30 903 H 85.4038 2.07236 0.465499 0
M  V30 904 H 87.6668 0.909236 0.268315 0
M  V30 905 H 87.3728 3.15771 1.54861 0
M  V30 906 H 87.2468 2.23698 3.03709 0
M  V30 907 H 89.6338 1.33078 2.6339 0
M  V30 908 H 89.7148 2.28645 1.14696 0
M  V30 909 H 89.3588 4.41029 2.51905 0
M  V30 910 H 89.2888 3.42393 4.00093 0
M  V30 911 H 91.7798 2.74966 2.59233 0
M  V30 912 H 92.0928 6.03352 4.82894 0
M  V30 913 H 90.4378 5.42176 4.34822 0
M  V30 914 H 93.6288 3.46322 3.14927 0
M  V30 915 H 93.8018 4.96054 4.16935 0
M  V30 916 N 87.2079 -1.17134 1.05439 0
M  V30 917 C 88.4559 -1.87085 0.764429 0
M  V30 918 C 88.7769 -1.81584 -0.710787 0
M  V30 919 O 88.0469 -1.24349 -1.51374 0
M  V30 920 H 86.6269 -0.692627 0.279779 0
M  V30 921 H 89.2889 -1.42087 1.33406 0
M  V30 922 H 88.3849 -2.92759 1.0816 0
M  V30 923 N 88.686 -0.835752 -1.33615 0
M  V30 924 C 89.933 -0.429959 -1.97883 0
M  V30 925 C 90.261 1.01006 -1.66217 0
M  V30 926 O 89.516 1.72047 -0.93265 0
M  V30 927 C 89.815 -0.593925 -3.52431 0
M  V30 928 C 89.481 -2.00158 -4.04039 0
M  V30 929 C 88.143 -2.38662 -4.17844 0
M  V30 930 C 90.495 -2.92117 -4.31644 0
M  V30 931 C 87.823 -3.68435 -4.56588 0
M  V30 932 C 90.175 -4.21368 -4.71838 0
M  V30 933 C 88.839 -4.59833 -4.83849 0
M  V30 934 H 88.109 -0.157333 -0.724104 0
M  V30 935 H 90.756 -1.06217 -1.59343 0
M  V30 936 H 89.061 0.121619 -3.91611 0
M  V30 937 H 90.758 -0.260282 -4.00154 0
M  V30 938 H 87.348 -1.69252 -3.93766 0
M  V30 939 H 91.532 -2.63608 -4.20505 0
M  V30 940 H 86.788 -3.98046 -4.64079 0
M  V30 941 H 90.962 -4.92703 -4.92155 0
M  V30 942 H 88.589 -5.60438 -5.13627 0
M  V30 943 N 90.1641 1.46063 -0.591896 0
M  V30 944 C 91.0961 2.28539 0.174001 0
M  V30 945 C 92.1091 1.39047 0.846753 0
M  V30 946 O 93.2981 1.63564 0.714774 0
M  V30 947 C 90.3981 3.14347 1.26645 0
M  V30 948 C 89.5711 4.32021 0.683856 0
M  V30 949 C 88.6301 4.99157 1.66518 0
M  V30 950 O 87.6561 5.56458 1.19763 0
M  V30 951 N 88.8581 4.97005 2.99943 0
M  V30 952 H 91.6231 2.94911 -0.533633 0
M  V30 953 H 89.1841 1.56077 -0.430294 0
M  V30 954 H 91.1761 3.56125 1.92242 0
M  V30 955 H 89.7461 2.49988 1.87682 0
M  V30 956 H 88.9661 3.93915 -0.1498 0
M  V30 957 H 90.2541 5.08059 0.274567 0
M  V30 958 H 89.6521 4.51714 3.40545 0
M  V30 959 H 88.2091 5.42696 3.61004 0
M  V30 960 N 91.6422 0.330177 1.54103 0
M  V30 961 C 92.8672 -0.274893 2.0557 0
M  V30 962 C 93.2922 -1.44487 1.20437 0
M  V30 963 O 92.6502 -1.80021 0.214991 0
M  V30 964 C 92.6982 -0.68079 3.54115 0
M  V30 965 O 91.8022 -1.7824 3.71893 0
M  V30 966 H 91.1432 -0.0483849 0.662235 0
M  V30 967 H 93.6732 0.480508 1.98878 0
M  V30 968 H 93.6832 -0.961635 3.96505 0
M  V30 969 H 92.3582 0.174903 4.15532 0
M  V30 970 H 90.9352 -1.49985 3.41407 0
M  V30 971 N 93.1203 -1.57491 0.0584922 0
M  V30 972 C 94.3693 -1.92155 -0.613146 0
M  V30 973 C 94.6823 -0.939334 -1.71569 0
M  V30 974 O 95.8883 -1.17829 -2.44599 0
M  V30 975 C 94.3443 -3.41303 -1.14195 0
M  V30 976 C 93.9523 -4.47944 -0.0711265 0
M  V30 977 C 95.6963 -3.84988 -1.78841 0
M  V30 978 C 93.6033 -5.88212 -0.613225 0
M  V30 979 H 92.5333 -0.717162 -0.232796 0
M  V30 980 H 95.1843 -1.83049 0.12857 0
M  V30 981 H 93.5663 -3.45437 -1.93621 0
M  V30 982 H 94.7403 -4.55408 0.702836 0
M  V30 983 H 93.0553 -4.13644 0.478313 0
M  V30 984 H 95.6523 -4.87159 -2.20408 0
M  V30 985 H 95.9953 -3.21632 -2.64308 0
M  V30 986 H 96.5283 -3.83401 -1.06059 0
M  V30 987 H 93.2673 -6.55183 0.203978 0
M  V30 988 H 92.7873 -5.84294 -1.35501 0
M  V30 989 H 94.4663 -6.37687 -1.09383 0
M  V30 990 N 94.5984 0.214957 -1.56127 0
M  V30 991 C 95.5484 1.27006 -1.8935 0
M  V30 992 C 96.5324 1.41969 -0.757202 0
M  V30 993 O 97.7244 1.44673 -1.01973 0
M  V30 994 C 94.8534 2.61911 -2.2194 0
M  V30 995 C 93.9394 2.50822 -3.41978 0
M  V30 996 N 94.3304 2.09391 -4.60423 0
M  V30 997 C 92.6284 2.81765 -3.45723 0
M  V30 998 C 93.3294 2.09712 -5.42582 0
M  V30 999 N 92.3054 2.50454 -4.82466 0
M  V30 1000 H 96.1074 0.940734 -2.78437 0
M  V30 1001 H 93.6214 0.423492 -1.56781 0
M  V30 1002 H 95.6184 3.38096 -2.43919 0
M  V30 1003 H 94.2784 2.95684 -1.34169 0
M  V30 1004 H 95.2894 1.80416 -4.85459 0
M  V30 1005 H 91.9664 3.19865 -2.68314 0
M  V30 1006 H 93.3564 1.79748 -6.4741 0
M  V30 1007 N 96.0765 1.50051 0.48192 0
M  V30 1008 C 96.9865 1.7089 1.60728 0
M  V30 1009 C 98.0025 0.591788 1.63627 0
M  V30 1010 O 99.1785 0.868817 1.81696 0
M  V30 1011 C 96.2435 1.78855 2.97005 0
M  V30 1012 C 95.3045 3.02537 3.04581 0
M  V30 1013 C 94.5375 3.10112 4.34357 0
M  V30 1014 O 94.7605 2.24765 5.24249 0
M  V30 1015 O 93.6945 4.02747 4.47301 0
M  V30 1016 H 97.5205 2.66264 1.46072 0
M  V30 1017 H 95.1055 1.34018 0.660264 0
M  V30 1018 H 96.9875 1.86336 3.77964 0
M  V30 1019 H 95.6625 0.866628 3.11883 0
M  V30 1020 H 94.5695 3.00563 2.22739 0
M  V30 1021 H 95.9025 3.94272 2.94636 0
M  V30 1022 N 97.5546 -0.734337 1.39446 0
M  V30 1023 C 98.7796 -1.52866 1.40167 0
M  V30 1024 C 99.2046 -1.881 -0.00171513 0
M  V30 1025 O 98.5626 -1.51957 -0.988879 0
M  V30 1026 C 98.6106 -2.79235 2.28167 0
M  V30 1027 O 97.7146 -3.75185 1.71201 0
M  V30 1028 H 97.0556 -0.461618 0.477289 0
M  V30 1029 H 99.5856 -0.905949 1.8345 0
M  V30 1030 H 99.5956 -3.27963 2.42702 0
M  V30 1031 H 98.2706 -2.52923 3.30156 0
M  V30 1032 H 96.8476 -3.33958 1.65912 0
M  V30 1033 N 99.0327 -1.24633 -0.964593 0
M  V30 1034 C 100.31 -0.995809 -1.68354 0
M  V30 1035 C 100.69 0.480964 -2.05548 0
M  V30 1036 O 100.038 1.45599 -1.76105 0
M  V30 1037 C 100.248 -1.92177 -2.91323 0
M  V30 1038 C 101.596 -2.19446 -3.63495 0
M  V30 1039 O 102.62 -1.89855 -3.01386 0
M  V30 1040 O 101.479 -2.69714 -4.75307 0
M  V30 1041 H 98.5727 -0.376854 -0.736146 0
M  V30 1042 H 101.119 -1.35745 -1.0184 0
M  V30 1043 H 99.8907 -2.91938 -2.60553 0
M  V30 1044 H 99.5137 -1.56349 -3.65569 0
M  V30 1045 N 100.511 1.16574 -1.06058 0
M  V30 1046 C 101.444 2.19798 -0.61352 0
M  V30 1047 C 102.422 1.58509 0.362453 0
M  V30 1048 O 103.606 1.86527 0.271994 0
M  V30 1049 C 100.733 3.3855 0.100915 0
M  V30 1050 C 99.7788 4.18317 -0.831438 0
M  V30 1051 S 100.612 4.82375 -2.32539 0
M  V30 1052 C 101.768 6.04508 -1.62238 0
M  V30 1053 H 102.001 2.5738 -1.48805 0
M  V30 1054 H 99.5338 1.27327 -0.873338 0
M  V30 1055 H 101.492 4.07358 0.506898 0
M  V30 1056 H 100.153 2.99338 0.951604 0
M  V30 1057 H 99.3458 5.03232 -0.278071 0
M  V30 1058 H 98.9478 3.5499 -1.17719 0
M  V30 1059 H 101.24 6.71133 -0.926622 0
M  V30 1060 H 102.183 6.64389 -2.44934 0
M  V30 1061 H 102.591 5.53559 -1.106 0
M  V30 1062 N 101.989 0.842826 1.3317 0
M  V30 1063 C 102.919 0.294028 2.31641 0
M  V30 1064 C 103.9 -0.600401 1.59151 0
M  V30 1065 O 105.085 -0.523124 1.87022 0
M  V30 1066 C 102.215 -0.528416 3.43257 0
M  V30 1067 C 101.169 0.27056 4.27144 0
M  V30 1068 C 100.495 -0.675881 5.30411 0
M  V30 1069 C 101.795 1.48981 5.00602 0
M  V30 1070 H 103.489 1.11681 2.77791 0
M  V30 1071 H 101.035 0.538478 1.33553 0
M  V30 1072 H 102.988 -0.922674 4.11175 0
M  V30 1073 H 101.712 -1.38445 2.95805 0
M  V30 1074 H 100.371 0.646427 3.60856 0
M  V30 1075 H 100.019 -1.52842 4.79216 0
M  V30 1076 H 99.7189 -0.145374 5.8742 0
M  V30 1077 H 101.243 -1.06757 6.01195 0
M  V30 1078 H 102.657 1.16849 5.61266 0
M  V30 1079 H 101.054 1.95739 5.6728 0
M  V30 1080 H 102.124 2.25746 4.29147 0
M  V30 1081 N 103.467 -1.45747 0.599634 0
M  V30 1082 C 104.397 -2.33235 -0.111306 0
M  V30 1083 C 105.378 -1.46359 -0.866781 0
M  V30 1084 O 106.563 -1.75146 -0.838904 0
M  V30 1085 C 103.693 -3.28932 -1.11451 0
M  V30 1086 C 102.647 -4.25381 -0.472772 0
M  V30 1087 C 101.973 -5.1071 -1.58365 0
M  V30 1088 C 103.273 -5.18831 0.600948 0
M  V30 1089 H 104.967 -2.92927 0.61919 0
M  V30 1090 H 102.513 -1.40857 0.299215 0
M  V30 1091 H 104.466 -3.89002 -1.62036 0
M  V30 1092 H 103.19 -2.67381 -1.8755 0
M  V30 1093 H 101.849 -3.66598 0.0121472 0
M  V30 1094 H 101.497 -4.45533 -2.33473 0
M  V30 1095 H 101.197 -5.7604 -1.15982 0
M  V30 1096 H 102.721 -5.73647 -2.09194 0
M  V30 1097 H 104.135 -5.73019 0.179491 0
M  V30 1098 H 102.532 -5.92595 0.946076 0
M  V30 1099 H 103.602 -4.6174 1.48068 0
M  V30 1100 N 104.945 -0.338344 -1.53925 0
M  V30 1101 C 105.875 0.51328 -2.27789 0
M  V30 1102 C 106.856 1.107 -1.29149 0
M  V30 1103 O 108.041 1.12937 -1.57984 0
M  V30 1104 C 105.171 1.66697 -3.04679 0
M  V30 1105 C 104.125 1.20183 -4.1078 0
M  V30 1106 C 103.451 2.44363 -4.75595 0
M  V30 1107 C 104.751 0.30605 -5.21403 0
M  V30 1108 H 106.445 -0.102883 -2.99223 0
M  V30 1109 H 103.991 -0.0509219 -1.4391 0
M  V30 1110 H 105.944 2.26915 -3.55088 0
M  V30 1111 H 104.668 2.30995 -2.30887 0
M  V30 1112 H 103.327 0.622499 -3.61276 0
M  V30 1113 H 102.975 3.07057 -3.98403 0
M  V30 1114 H 102.675 2.13925 -5.47275 0
M  V30 1115 H 104.199 3.05317 -5.28786 0
M  V30 1116 H 105.613 0.814929 -5.67478 0
M  V30 1117 H 104.01 0.0937929 -6.00027 0
M  V30 1118 H 105.08 -0.65921 -4.80398 0
M  V30 1119 N 106.423 1.57458 -0.0668435 0
M  V30 1120 C 107.834 1.80776 0.466558 0
M  V30 1121 C 108.185 0.980361 1.69951 0
M  V30 1122 O 107.31 0.201441 2.1546 0
M  V30 1123 C 107.905 3.27881 0.85321 0
M  V30 1124 C 106.464 3.52062 1.3315 0
M  V30 1125 C 105.611 2.75513 0.314264 0
M  V30 1126 H 108.562 1.5598 -0.292588 0
M  V30 1127 H 108.583 3.39659 1.715 0
M  V30 1128 H 108.095 3.88075 -0.0443439 0
M  V30 1129 H 106.196 2.97167 2.24772 0
M  V30 1130 H 106.309 4.60762 1.31285 0
M  V30 1131 H 104.673 2.42123 0.790492 0
M  V30 1132 H 105.456 3.38442 -0.575477 0
M  V30 1133 N 107.901 -0.206675 1.56239 0
M  V30 1134 C 109.178 -0.954051 1.70755 0
M  V30 1135 C 109.558 -2.01841 0.618353 0
M  V30 1136 O 108.906 -2.25444 -0.372434 0
M  V30 1137 C 109.116 -1.551 3.12642 0
M  V30 1138 C 110.464 -2.03757 3.72516 0
M  V30 1139 O 111.488 -1.64965 3.15698 0
M  V30 1140 O 110.347 -2.75103 4.72208 0
M  V30 1141 H 107.441 -0.446636 0.696021 0
M  V30 1142 H 109.987 -0.197283 1.68549 0
M  V30 1143 H 108.759 -0.783212 3.83382 0
M  V30 1144 H 108.382 -2.37291 3.19028 0
M  V30 1145 N 109.379 -1.50304 -0.473955 0
M  V30 1146 C 110.79 -1.54042 -1.0549 0
M  V30 1147 C 111.141 -0.342248 -1.93192 0
M  V30 1148 O 110.266 0.545157 -2.09421 0
M  V30 1149 C 110.861 -2.79152 -1.91989 0
M  V30 1150 C 109.42 -2.8558 -2.45196 0
M  V30 1151 C 108.567 -2.48295 -1.2347 0
M  V30 1152 H 111.518 -1.5661 -0.256693 0
M  V30 1153 H 111.539 -2.60845 -2.7702 0
M  V30 1154 H 111.051 -3.66339 -1.28131 0
M  V30 1155 H 109.152 -2.02738 -3.12615 0
M  V30 1156 H 109.265 -3.88403 -2.80499 0
M  V30 1157 H 107.629 -2.00669 -1.56856 0
M  V30 1158 H 108.412 -3.37787 -0.612789 0
M  V30 1159 N 110.857 0.726932 -1.39834 0
M  V30 1160 C 111.767 1.87131 -1.41489 0
M  V30 1161 C 112.783 1.71239 -0.308757 0
M  V30 1162 O 113.959 1.93701 -0.551529 0
M  V30 1163 C 111.024 3.22811 -1.26468 0
M  V30 1164 C 110.085 3.51039 -2.47124 0
M  V30 1165 C 109.318 4.80245 -2.3281 0
M  V30 1166 O 109.541 5.54537 -1.33585 0
M  V30 1167 O 108.475 5.08554 -3.21957 0
M  V30 1168 H 112.301 1.8869 -2.3797 0
M  V30 1169 H 109.886 0.875837 -1.21035 0
M  V30 1170 H 111.768 4.03877 -1.20255 0
M  V30 1171 H 110.443 3.22005 -0.330862 0
M  V30 1172 H 109.35 2.70027 -2.58914 0
M  V30 1173 H 110.683 3.56632 -3.39227 0
M  V30 1174 N 112.336 1.25143 0.95797 0
M  V30 1175 C 113.564 1.12424 1.73691 0
M  V30 1176 C 113.979 -0.322304 1.86029 0
M  V30 1177 O 113.336 -1.22186 1.35561 0
M  V30 1178 C 113.387 1.76933 3.15241 0
M  V30 1179 O 113.108 3.15932 3.03511 0
M  V30 1180 C 114.609 1.6995 4.09429 0
M  V30 1181 H 111.829 0.3923 0.544373 0
M  V30 1182 H 114.373 1.6544 1.20207 0
M  V30 1183 H 112.528 1.27895 3.6568 0
M  V30 1184 H 112.942 3.47598 3.9278 0
M  V30 1185 H 114.416 2.19753 5.06372 0
M  V30 1186 H 114.893 0.662619 4.34173 0
M  V30 1187 H 115.499 2.18461 3.64904 0
M  V30 1188 N 113.814 -1.1601 1.06675 0
M  V30 1189 C 114.777 -2.18724 0.685001 0
M  V30 1190 C 115.777 -1.58496 -0.271246 0
M  V30 1191 O 116.967 -1.74119 -0.0531156 0
M  V30 1192 C 114.099 -3.40899 0.00853648 0
M  V30 1193 H 115.292 -2.54011 1.59431 0
M  V30 1194 H 112.845 -1.30352 0.862441 0
M  V30 1195 H 113.58 -3.11173 -0.913337 0
M  V30 1196 H 113.365 -3.8587 0.696204 0
M  V30 1197 H 114.855 -4.16886 -0.24414 0
M  V30 1198 N 115.292 -0.849877 -1.32721 0
M  V30 1199 C 116.708 -0.539102 -1.50219 0
M  V30 1200 C 116.908 0.931271 -1.78689 0
M  V30 1201 O 115.964 1.71455 -1.85363 0
M  V30 1202 C 117.277 -1.42196 -2.64954 0
M  V30 1203 C 118.825 -1.42189 -2.78839 0
M  V30 1204 C 119.3 -2.28985 -3.96648 0
M  V30 1205 N 120.791 -2.26754 -4.03902 0
M  V30 1206 C 121.526 -2.90644 -4.94281 0
M  V30 1207 N 121.022 -3.63629 -5.897 0
M  V30 1208 N 122.815 -2.80057 -4.87365 0
M  V30 1209 H 114.966 -1.80156 -1.12506 0
M  V30 1210 H 117.229 -0.769217 -0.554085 0
M  V30 1211 H 116.935 -2.46733 -2.50631 0
M  V30 1212 H 116.809 -1.10591 -3.60624 0
M  V30 1213 H 119.196 -0.38419 -2.92588 0
M  V30 1214 H 119.277 -1.77807 -1.83898 0
M  V30 1215 H 118.921 -3.32819 -3.83658 0
M  V30 1216 H 118.851 -1.90702 -4.90857 0
M  V30 1217 H 121.342 -1.73688 -3.3562 0
M  V30 1218 H 121.655 -4.09558 -6.55349 0
M  V30 1219 H 120 -3.67737 -5.89741 0
M  V30 1220 H 123.191 -2.22593 -4.11789 0
M  V30 1221 H 123.364 -3.30132 -5.57599 0
M  V30 1222 N 116.77 1.45427 -0.607355 0
M  V30 1223 C 118.019 2.01452 -0.100036 0
M  V30 1224 C 118.332 1.48159 1.27704 0
M  V30 1225 O 119.538 1.96159 1.87707 0
M  V30 1226 C 117.994 3.59672 -0.128158 0
M  V30 1227 C 117.602 4.21962 -1.50507 0
M  V30 1228 C 119.346 4.23262 0.323932 0
M  V30 1229 C 117.253 5.72333 -1.48959 0
M  V30 1230 H 116.183 0.75325 -0.0336299 0
M  V30 1231 H 118.834 1.66901 -0.76265 0
M  V30 1232 H 117.216 3.91411 0.601105 0
M  V30 1233 H 118.39 4.01796 -2.25602 0
M  V30 1234 H 116.705 3.70565 -1.89923 0
M  V30 1235 H 119.302 5.33522 0.354691 0
M  V30 1236 H 119.645 3.93921 1.34656 0
M  V30 1237 H 120.178 3.96239 -0.352056 0
M  V30 1238 H 116.917 6.06373 -2.48981 0
M  V30 1239 H 116.437 5.94691 -0.781214 0
M  V30 1240 H 118.116 6.35525 -1.21313 0
M  V30 1241 N 118.248 0.346503 1.53744 0
M  V30 1242 C 119.525 -0.304532 1.93215 0
M  V30 1243 C 119.905 -1.67993 1.27834 0
M  V30 1244 O 119.253 -2.24411 0.430352 0
M  V30 1245 C 119.463 -0.373852 3.46992 0
M  V30 1246 C 120.811 -0.62329 4.2 0
M  V30 1247 O 121.835 -0.455847 3.53271 0
M  V30 1248 O 120.694 -0.947879 5.38217 0
M  V30 1249 H 117.788 -0.178318 0.807547 0
M  V30 1250 H 120.334 0.397895 1.64969 0
M  V30 1251 H 119.106 0.591224 3.86808 0
M  V30 1252 H 118.729 -1.12294 3.81413 0
M  V30 1253 N 119.726 -1.57421 0.075193 0
M  V30 1254 C 121.137 -1.81021 -0.456964 0
M  V30 1255 C 121.488 -0.98936 -1.69429 0
M  V30 1256 O 120.613 -0.212865 -2.15351 0
M  V30 1257 C 121.208 -3.28329 -0.83581 0
M  V30 1258 C 119.767 -3.52764 -1.31281 0
M  V30 1259 C 118.914 -2.75676 -0.299648 0
M  V30 1260 H 121.865 -1.55822 0.300856 0
M  V30 1261 H 121.886 -3.40564 -1.69696 0
M  V30 1262 H 121.398 -3.88046 0.0649238 0
M  V30 1263 H 119.499 -2.98355 -2.23193 0
M  V30 1264 H 119.612 -4.61451 -1.28839 0
M  V30 1265 H 117.976 -2.42538 -0.777641 0
M  V30 1266 H 118.759 -3.38132 0.593417 0
M  V30 1267 N 121.204 0.198386 -1.56346 0
M  V30 1268 C 122.451 0.919286 -1.80431 0
M  V30 1269 C 122.779 1.83393 -0.647866 0
M  V30 1270 O 122.034 1.92236 0.366556 0
M  V30 1271 C 122.333 1.77031 -3.10475 0
M  V30 1272 C 121.999 1.00693 -4.39513 0
M  V30 1273 C 120.661 0.796145 -4.74568 0
M  V30 1274 C 123.013 0.469559 -5.19081 0
M  V30 1275 C 120.341 0.0364588 -5.86689 0
M  V30 1276 C 122.693 -0.2769 -6.31994 0
M  V30 1277 C 121.357 -0.49873 -6.65634 0
M  V30 1278 H 120.627 0.336391 -0.660244 0
M  V30 1279 H 123.274 0.185872 -1.90596 0
M  V30 1280 H 121.579 2.5723 -2.95533 0
M  V30 1281 H 123.276 2.33065 -3.26315 0
M  V30 1282 H 119.866 1.18122 -4.12001 0
M  V30 1283 H 124.05 0.619816 -4.92414 0
M  V30 1284 H 119.306 -0.145412 -6.11227 0
M  V30 1285 H 123.48 -0.700684 -6.92866 0
M  V30 1286 H 121.107 -1.0893 -7.52355 0
M  V30 1287 N 122.682 1.50554 0.465978 0
M  V30 1288 C 124.098 1.38093 0.800154 0
M  V30 1289 C 124.298 0.440988 1.96615 0
M  V30 1290 O 123.354 -0.114499 2.5224 0
M  V30 1291 C 124.667 2.79565 1.10742 0
M  V30 1292 C 126.215 2.88516 1.21357 0
M  V30 1293 C 126.69 4.30833 1.55393 0
M  V30 1294 N 128.181 4.33807 1.62375 0
M  V30 1295 C 128.916 5.40927 1.90225 0
M  V30 1296 N 128.412 6.58247 2.16062 0
M  V30 1297 N 130.205 5.28376 1.9177 0
M  V30 1298 H 122.356 2.10237 -0.302366 0
M  V30 1299 H 124.619 0.945203 -0.0727746 0
M  V30 1300 H 124.325 3.50208 0.323661 0
M  V30 1301 H 124.199 3.17125 2.04234 0
M  V30 1302 H 126.586 2.1809 1.98799 0
M  V30 1303 H 126.667 2.54492 0.258321 0
M  V30 1304 H 126.311 5.01799 0.784889 0
M  V30 1305 H 126.241 4.62347 2.52076 0
M  V30 1306 H 128.732 3.49212 1.44427 0
M  V30 1307 H 129.045 7.3569 2.36601 0
M  V30 1308 H 127.39 6.61413 2.13444 0
M  V30 1309 H 130.581 4.35715 1.71085 0
M  V30 1310 H 130.754 6.11944 2.13139 0
M  V30 1311 N 124.16 -0.719506 1.40217 0
M  V30 1312 C 125.123 -1.8153 1.39927 0
M  V30 1313 C 126.123 -1.58095 0.293723 0
M  V30 1314 O 127.313 -1.65209 0.552429 0
M  V30 1315 C 124.445 -3.19561 1.18716 0
M  V30 1316 H 125.638 -1.83186 2.37451 0
M  V30 1317 H 123.191 -0.924746 1.26008 0
M  V30 1318 H 123.926 -3.23557 0.219366 0
M  V30 1319 H 123.711 -3.3797 1.98793 0
M  V30 1320 H 125.201 -3.99598 1.21291 0
M  V30 1321 N 125.638 -1.25649 -0.95132 0
M  V30 1322 C 126.601 -1.06399 -2.03007 0
M  V30 1323 C 127.601 -0.0156794 -1.60792 0
M  V30 1324 O 128.791 -0.25817 -1.72276 0
M  V30 1325 C 125.923 -0.616184 -3.35285 0
M  V30 1326 H 127.116 -2.02164 -2.21517 0
M  V30 1327 H 124.669 -1.08103 -1.12887 0
M  V30 1328 H 125.404 0.343917 -3.22471 0
M  V30 1329 H 125.189 -1.37301 -3.67275 0
M  V30 1330 H 126.679 -0.503032 -4.14559 0
M  V30 1331 N 127.117 1.15442 -1.07289 0
M  V30 1332 C 128.064 2.20161 -0.692653 0
M  V30 1333 C 129.034 1.63073 0.31564 0
M  V30 1334 O 130.219 1.89725 0.202235 0
M  V30 1335 C 127.359 3.44967 -0.0959509 0
M  V30 1336 C 126.472 4.16256 -1.15564 0
M  V30 1337 C 125.607 5.28609 -0.524011 0
M  V30 1338 C 124.646 5.91715 -1.56653 0
M  V30 1339 N 123.783 6.9554 -0.957531 0
M  V30 1340 H 128.623 2.52037 -1.59002 0
M  V30 1341 H 126.16 1.2378 -0.794798 0
M  V30 1342 H 128.118 4.16341 0.267628 0
M  V30 1343 H 126.748 3.1361 0.764772 0
M  V30 1344 H 125.8 3.43385 -1.6368 0
M  V30 1345 H 127.112 4.59268 -1.94613 0
M  V30 1346 H 126.266 6.06604 -0.108032 0
M  V30 1347 H 125.005 4.86787 0.29825 0
M  V30 1348 H 124.01 5.12433 -1.9923 0
M  V30 1349 H 125.235 6.35614 -2.39107 0
M  V30 1350 H 123.181 6.55814 -0.156162 0
M  V30 1351 H 123.098 7.36977 -1.68526 0
M  V30 1352 H 124.366 7.77435 -0.567032 0
M  V30 1353 N 128.595 0.856903 1.32268 0
M  V30 1354 C 129.823 0.475439 2.01363 0
M  V30 1355 C 130.238 -0.928486 1.64392 0
M  V30 1356 O 129.595 -1.60624 0.866387 0
M  V30 1357 C 129.646 0.607545 3.56358 0
M  V30 1358 O 129.367 1.95617 3.92002 0
M  V30 1359 C 130.868 0.225382 4.42727 0
M  V30 1360 H 128.088 0.186636 0.644521 0
M  V30 1361 H 130.632 1.15446 1.68797 0
M  V30 1362 H 128.787 -0.0237719 3.87393 0
M  V30 1363 H 129.201 1.95455 4.86721 0
M  V30 1364 H 130.675 0.368813 5.50767 0
M  V30 1365 H 131.152 -0.834369 4.31202 0
M  V30 1366 H 131.758 0.831864 4.17085 0
M  V30 1367 N 130.073 -1.45103 0.615059 0
M  V30 1368 C 131.003 -2.33339 -0.0865619 0
M  V30 1369 C 131.984 -1.4727 -0.851209 0
M  V30 1370 O 133.169 -1.76026 -0.820281 0
M  V30 1371 C 130.299 -3.30095 -1.07956 0
M  V30 1372 C 129.253 -4.25858 -0.427628 0
M  V30 1373 C 128.579 -5.12361 -1.5294 0
M  V30 1374 C 129.879 -5.18165 0.655944 0
M  V30 1375 H 131.573 -2.92254 0.650224 0
M  V30 1376 H 129.119 -1.40532 0.314138 0
M  V30 1377 H 131.072 -3.90698 -1.57901 0
M  V30 1378 H 129.796 -2.69355 -1.84703 0
M  V30 1379 H 128.455 -3.66564 0.0510292 0
M  V30 1380 H 128.103 -4.47984 -2.28734 0
M  V30 1381 H 127.803 -5.77238 -1.09865 0
M  V30 1382 H 129.327 -5.75833 -2.03098 0
M  V30 1383 H 130.741 -5.72796 0.240257 0
M  V30 1384 H 129.138 -5.91559 1.00888 0
M  V30 1385 H 130.208 -4.60144 1.52957 0
M  V30 1386 N 131.551 -0.354651 -1.53558 0
M  V30 1387 C 132.499 0.512195 -2.26891 0
M  V30 1388 C 133.493 1.09263 -1.29452 0
M  V30 1389 O 134.699 1.03709 -1.47121 0
M  V30 1390 H 131.074 0.183878 -0.729173 0
M  V30 1391 H 133.045 -0.128202 -2.98124 0
M  V30 1392 C 131.794 1.64563 -3.06291 0
M  V30 1393 H 131.117 1.20829 -3.81104 0
M  V30 1394 H 132.557 2.22711 -3.60799 0
M  V30 1395 C 131.016 2.58158 -2.16462 0
M  V30 1396 O 131.546 3.60695 -1.76811 0
M  V30 1397 N 129.752 2.27096 -1.81317 0
M  V30 1398 H 129.299 1.43751 -2.1376 0
M  V30 1399 H 129.257 2.89975 -1.21498 0
M  V30 1400 N 133.029 1.57378 -0.0835403 0
M  V30 1401 C 134.278 1.93106 0.582498 0
M  V30 1402 C 134.591 0.96651 1.70053 0
M  V30 1403 O 135.797 1.21705 2.42693 0
M  V30 1404 C 134.253 3.43076 1.08751 0
M  V30 1405 C 133.861 4.48 -0.000146404 0
M  V30 1406 C 135.605 3.87785 1.72694 0
M  V30 1407 C 133.512 5.89113 0.519568 0
M  V30 1408 H 132.442 0.720775 0.221358 0
M  V30 1409 H 135.093 1.82821 -0.157675 0
M  V30 1410 H 133.475 3.48474 1.88101 0
M  V30 1411 H 134.649 4.54233 -0.775199 0
M  V30 1412 H 132.964 4.1283 -0.54406 0
M  V30 1413 H 135.561 4.90604 2.1263 0
M  V30 1414 H 135.904 3.25796 2.59158 0
M  V30 1415 H 136.437 3.8504 0.999457 0
M  V30 1416 H 133.176 6.54775 -0.308186 0
M  V30 1417 H 132.696 5.86376 1.26188 0
M  V30 1418 H 134.375 6.39346 0.992237 0
M  V30 1419 N 134.507 -0.190092 1.56449 0
M  V30 1420 C 135.455 -1.25501 1.95837 0
M  V30 1421 C 136.449 -1.4685 0.844485 0
M  V30 1422 O 137.655 -1.47651 1.02952 0
M  V30 1423 H 134.03 -0.421447 0.622805 0
M  V30 1424 H 136.001 -0.895821 2.84636 0
M  V30 1425 C 134.75 -2.59124 2.31841 0
M  V30 1426 H 134.073 -2.43514 3.17082 0
M  V30 1427 H 135.513 -3.32371 2.6326 0
M  V30 1428 C 133.972 -3.16488 1.15486 0
M  V30 1429 O 134.502 -3.99365 0.432535 0
M  V30 1430 N 132.708 -2.75305 0.930349 0
M  V30 1431 H 132.255 -2.08013 1.51948 0
M  V30 1432 H 132.213 -3.14024 0.153634 0
M  V30 1433 N 135.985 -1.50799 -0.457987 0
M  V30 1434 C 137.232 -1.62442 -1.20908 0
M  V30 1435 C 137.56 -0.330865 -1.91665 0
M  V30 1436 O 136.815 0.68401 -1.83357 0
M  V30 1437 C 137.114 -2.76358 -2.2663 0
M  V30 1438 C 136.78 -4.16378 -1.73033 0
M  V30 1439 C 135.442 -4.54473 -1.58138 0
M  V30 1440 C 137.794 -5.03836 -1.33413 0
M  V30 1441 C 135.122 -5.77754 -1.02065 0
M  V30 1442 C 137.474 -6.27676 -0.78778 0
M  V30 1443 C 136.138 -6.64562 -0.625561 0
M  V30 1444 H 135.408 -0.594417 -0.442435 0
M  V30 1445 H 138.055 -1.84772 -0.503136 0
M  V30 1446 H 136.36 -2.48167 -3.03184 0
M  V30 1447 H 138.057 -2.82568 -2.84528 0
M  V30 1448 H 134.647 -3.86331 -1.85598 0
M  V30 1449 H 138.831 -4.75026 -1.4375 0
M  V30 1450 H 134.087 -6.04997 -0.882547 0
M  V30 1451 H 138.261 -6.94797 -0.472177 0
M  V30 1452 H 135.888 -7.59965 -0.188926 0
M  V30 1453 N 137.463 0.71206 -1.40597 0
M  V30 1454 C 138.71 1.47197 -1.39065 0
M  V30 1455 C 139.038 1.94499 0.00583891 0
M  V30 1456 O 138.293 1.68752 0.99102 0
M  V30 1457 C 138.592 2.71039 -2.32965 0
M  V30 1458 C 138.258 2.42484 -3.80148 0
M  V30 1459 C 136.92 2.34406 -4.20247 0
M  V30 1460 C 139.272 2.18598 -4.73143 0
M  V30 1461 C 136.6 2.00516 -5.51371 0
M  V30 1462 C 138.952 1.8622 -6.0457 0
M  V30 1463 C 137.616 1.76626 -6.43708 0
M  V30 1464 H 136.886 0.538634 -0.508876 0
M  V30 1465 H 139.533 0.815325 -1.73276 0
M  V30 1466 H 137.838 3.41558 -1.91951 0
M  V30 1467 H 139.535 3.29138 -2.29061 0
M  V30 1468 H 136.125 2.49659 -3.4838 0
M  V30 1469 H 140.309 2.23793 -4.42979 0
M  V30 1470 H 135.565 1.91628 -5.80593 0
M  V30 1471 H 139.739 1.66752 -6.76141 0
M  V30 1472 H 137.366 1.50133 -7.45228 0
M  V30 1473 N 138.941 1.26152 0.944643 0
M  V30 1474 C 140.187 1.11657 1.69294 0
M  V30 1475 C 140.52 -0.339926 1.91202 0
M  V30 1476 O 139.795 -1.24994 1.49019 0
M  V30 1477 C 140.078 1.88236 3.06984 0
M  V30 1478 C 139.931 3.41772 2.92424 0
M  V30 1479 C 141.25 1.67343 4.07043 0
M  V30 1480 H 138.369 0.407004 0.614424 0
M  V30 1481 H 141.011 1.55106 1.09737 0
M  V30 1482 H 139.161 1.51308 3.57824 0
M  V30 1483 H 140.833 3.88433 2.48832 0
M  V30 1484 H 139.076 3.68974 2.28124 0
M  V30 1485 H 139.747 3.90579 3.90067 0
M  V30 1486 H 142.223 1.99509 3.65151 0
M  V30 1487 H 141.099 2.23346 5.01406 0
M  V30 1488 H 141.36 0.617158 4.37771 0
M  V30 1489 N 140.419 -1.14872 1.07899 0
M  V30 1490 C 141.369 -2.17809 0.674027 0
M  V30 1491 C 142.353 -1.58008 -0.303699 0
M  V30 1492 O 143.545 -1.76616 -0.11654 0
M  V30 1493 C 140.674 -3.43208 0.0793318 0
M  V30 1494 C 139.76 -4.10051 1.08253 0
M  V30 1495 N 140.151 -4.52296 2.2641 0
M  V30 1496 C 138.449 -4.36469 0.917124 0
M  V30 1497 C 139.15 -5.04199 2.901 0
M  V30 1498 N 138.126 -4.98088 2.17736 0
M  V30 1499 H 141.928 -2.48207 1.57386 0
M  V30 1500 H 139.442 -1.315 0.952976 0
M  V30 1501 H 141.439 -4.16272 -0.228719 0
M  V30 1502 H 140.099 -3.14291 -0.815551 0
M  V30 1503 H 141.11 -4.45504 2.64096 0
M  V30 1504 H 137.787 -4.17432 0.0756078 0
M  V30 1505 H 139.177 -5.46802 3.90458 0
M  V30 1506 N 141.898 -0.863906 -1.31812 0
M  V30 1507 C 143.175 -0.39275 -1.91616 0
M  V30 1508 C 143.555 1.12461 -1.7865 0
M  V30 1509 O 142.903 1.95045 -1.19037 0
M  V30 1510 C 143.113 -0.867385 -3.38049 0
M  V30 1511 C 144.461 -0.889966 -4.15168 0
M  V30 1512 O 145.485 -0.812635 -3.46806 0
M  V30 1513 O 144.344 -1.00079 -5.37258 0
M  V30 1514 H 141.438 -0.116358 -0.818773 0
M  V30 1515 H 143.984 -0.951418 -1.40521 0
M  V30 1516 H 142.756 -1.91081 -3.41473 0
M  V30 1517 H 142.379 -0.286687 -3.96565 0
M  V30 1518 N 143.376 1.44774 -0.622745 0
M  V30 1519 C 144.787 1.85546 -0.207226 0
M  V30 1520 C 145.138 1.52093 1.23944 0
M  V30 1521 O 144.263 0.95492 1.94191 0
M  V30 1522 C 144.858 3.36781 -0.369313 0
M  V30 1523 C 143.417 3.76399 -0.00836847 0
M  V30 1524 C 142.564 2.68664 -0.686651 0
M  V30 1525 H 145.515 1.3536 -0.828454 0
M  V30 1526 H 145.536 3.78453 0.394162 0
M  V30 1527 H 145.048 3.61098 -1.42231 0
M  V30 1528 H 143.149 3.57698 1.04322 0
M  V30 1529 H 143.262 4.7732 -0.412584 0
M  V30 1530 H 141.626 2.54404 -0.122777 0
M  V30 1531 H 142.409 2.95815 -1.74208 0
M  V30 1532 N 144.854 0.36279 1.53368 0
M  V30 1533 C 146.101 -0.227776 2.01215 0
M  V30 1534 C 146.429 -1.49003 1.25014 0
M  V30 1535 O 145.684 -1.92876 0.331236 0
M  V30 1536 C 145.983 -0.568417 3.52851 0
M  V30 1537 C 145.649 0.59918 4.46901 0
M  V30 1538 C 144.311 0.919559 4.72332 0
M  V30 1539 C 146.663 1.38156 5.02556 0
M  V30 1540 C 143.991 2.02434 5.5067 0
M  V30 1541 C 146.343 2.47674 5.821 0
M  V30 1542 C 145.007 2.8025 6.05819 0
M  V30 1543 H 144.277 -0.083349 0.736297 0
M  V30 1544 H 146.924 0.494677 1.85001 0
M  V30 1545 H 145.229 -1.37185 3.66998 0
M  V30 1546 H 146.926 -1.03756 3.87344 0
M  V30 1547 H 143.516 0.339437 4.27254 0
M  V30 1548 H 147.7 1.14729 4.82857 0
M  V30 1549 H 142.956 2.28075 5.67267 0
M  V30 1550 H 147.13 3.08716 6.24234 0
M  V30 1551 H 144.757 3.65979 6.66306 0
M  V30 1552 N 146.332 -1.57332 0.0918853 0
M  V30 1553 C 147.56 -1.98574 -0.581048 0
M  V30 1554 C 147.975 -0.970903 -1.61923 0
M  V30 1555 O 147.332 0.0399054 -1.82456 0
M  V30 1556 C 147.383 -3.39872 -1.23164 0
M  V30 1557 O 147.104 -4.37469 -0.234989 0
M  V30 1558 C 148.605 -3.96099 -1.99049 0
M  V30 1559 H 145.825 -0.65261 -0.156018 0
M  V30 1560 H 148.369 -2.0379 0.170225 0
M  V30 1561 H 146.524 -3.35679 -1.93386 0
M  V30 1562 H 146.938 -5.19751 -0.70418 0
M  V30 1563 H 148.412 -4.97127 -2.39934 0
M  V30 1564 H 148.889 -3.3374 -2.85507 0
M  V30 1565 H 149.495 -4.03755 -1.3365 0
M  V30 1566 N 147.81 0.181792 -1.56548 0
M  V30 1567 C 148.74 1.22765 -1.98623 0
M  V30 1568 C 149.721 1.46747 -0.860189 0
M  V30 1569 O 150.906 1.58259 -1.12551 0
M  V30 1570 C 148.036 2.56894 -2.33715 0
M  V30 1571 C 146.99 2.475 -3.49182 0
M  V30 1572 C 146.316 3.86023 -3.69986 0
M  V30 1573 C 147.616 1.98866 -4.82959 0
M  V30 1574 H 149.31 0.877942 -2.86239 0
M  V30 1575 H 146.856 0.42088 -1.37712 0
M  V30 1576 H 148.809 3.30253 -2.61746 0
M  V30 1577 H 147.533 2.93632 -1.42997 0
M  V30 1578 H 146.192 1.76596 -3.21262 0
M  V30 1579 H 145.84 4.20136 -2.76576 0
M  V30 1580 H 145.54 3.80609 -4.47672 0
M  V30 1581 H 147.064 4.60984 -4.00407 0
M  V30 1582 H 148.478 2.61992 -5.09934 0
M  V30 1583 H 146.875 2.04424 -5.64208 0
M  V30 1584 H 147.945 0.942465 -4.75653 0
M  V30 1585 N 149.288 1.51039 0.449983 0
M  V30 1586 C 150.198 1.74261 1.57067 0
M  V30 1587 C 151.214 0.626363 1.62335 0
M  V30 1588 O 152.39 0.907162 1.79812 0
M  V30 1589 C 149.455 1.85114 2.93144 0
M  V30 1590 C 148.516 3.0893 2.98095 0
M  V30 1591 C 147.749 3.19256 4.27681 0
M  V30 1592 O 147.972 2.35835 5.19363 0
M  V30 1593 O 146.906 4.12144 4.38658 0
M  V30 1594 H 150.732 2.69303 1.40391 0
M  V30 1595 H 148.317 1.35389 0.631688 0
M  V30 1596 H 150.199 1.94311 3.73926 0
M  V30 1597 H 148.874 0.932588 3.09975 0
M  V30 1598 H 147.781 3.0522 2.16314 0
M  V30 1599 H 149.114 4.00433 2.86206 0
M  V30 1600 N 150.766 -0.704594 1.40972 0
M  V30 1601 C 152.177 -1.28418 1.3552 0
M  V30 1602 C 152.528 -1.96171 0.0339434 0
M  V30 1603 O 151.653 -1.98231 -0.867944 0
M  V30 1604 C 152.248 -2.33528 2.45459 0
M  V30 1605 C 150.807 -2.87085 2.43433 0
M  V30 1606 C 149.954 -1.61007 2.2577 0
M  V30 1607 H 152.905 -0.499963 1.50619 0
M  V30 1608 H 152.926 -3.14619 2.13998 0
M  V30 1609 H 152.438 -1.84187 3.41609 0
M  V30 1610 H 150.539 -3.40626 1.51013 0
M  V30 1611 H 150.652 -3.3813 3.39419 0
M  V30 1612 H 149.016 -1.86482 1.73483 0
M  V30 1613 H 149.799 -1.13675 3.23933 0
M  V30 1614 N 152.244 -1.26651 -0.937939 0
M  V30 1615 C 153.474 -1.15006 -1.71631 0
M  V30 1616 C 153.882 0.297026 -1.86854 0
M  V30 1617 O 153.225 1.21493 -1.37786 0
M  V30 1618 C 153.287 -1.74984 -3.14039 0
M  V30 1619 C 152.951 -3.24103 -3.2219 0
M  V30 1620 C 153.948 -4.20877 -3.05219 0
M  V30 1621 C 151.633 -3.64625 -3.45476 0
M  V30 1622 C 153.627 -5.56151 -3.11408 0
M  V30 1623 C 151.314 -5.00032 -3.513 0
M  V30 1624 C 152.312 -5.95604 -3.34282 0
M  V30 1625 O 152 -7.28545 -3.3982 0
M  V30 1626 H 151.732 -0.401183 -0.544085 0
M  V30 1627 H 154.286 -1.67832 -1.18413 0
M  V30 1628 H 152.516 -1.16624 -3.68695 0
M  V30 1629 H 154.205 -1.58199 -3.73802 0
M  V30 1630 H 154.971 -3.90908 -2.87081 0
M  V30 1631 H 150.85 -2.90718 -3.57777 0
M  V30 1632 H 154.394 -6.30727 -2.98043 0
M  V30 1633 H 150.291 -5.29659 -3.68959 0
M  V30 1634 H 151.059 -7.3686 -3.56343 0
M  V30 1635 N 153.722 1.14298 -1.08507 0
M  V30 1636 C 154.947 1.8976 -0.837001 0
M  V30 1637 C 155.372 1.78097 0.605228 0
M  V30 1638 O 154.73 1.12188 1.4242 0
M  V30 1639 C 154.778 3.37685 -1.26495 0
M  V30 1640 O 153.882 4.10281 -0.417514 0
M  V30 1641 H 153.223 0.590365 -0.303917 0
M  V30 1642 H 155.753 1.44672 -1.44676 0
M  V30 1643 H 155.763 3.88501 -1.24625 0
M  V30 1644 H 154.438 3.45492 -2.31534 0
M  V30 1645 H 153.015 3.69536 -0.499722 0
M  V30 1646 N 155.201 0.870884 1.31352 0
M  V30 1647 C 156.617 0.562932 1.49343 0
M  V30 1648 C 156.817 -0.902725 1.80148 0
M  V30 1649 O 155.873 -1.68484 1.88067 0
M  V30 1650 C 157.186 1.46393 2.62659 0
M  V30 1651 C 158.734 1.46607 2.76542 0
M  V30 1652 C 159.209 2.35266 3.92955 0
M  V30 1653 N 160.7 2.33151 4.00243 0
M  V30 1654 C 161.435 2.98471 4.89594 0
M  V30 1655 N 160.931 3.72964 5.8384 0
M  V30 1656 N 162.724 2.87775 4.82848 0
M  V30 1657 H 154.875 1.81923 1.09626 0
M  V30 1658 H 157.138 0.777934 0.541777 0
M  V30 1659 H 156.844 2.50689 2.46674 0
M  V30 1660 H 156.718 1.16314 3.58819 0
M  V30 1661 H 159.105 0.43069 2.9194 0
M  V30 1662 H 159.186 1.8071 1.81046 0
M  V30 1663 H 158.83 3.38881 3.78315 0
M  V30 1664 H 158.76 1.98487 4.87761 0
M  V30 1665 H 161.251 1.79006 3.32814 0
M  V30 1666 H 161.564 4.19932 6.4875 0
M  V30 1667 H 159.909 3.77073 5.83816 0
M  V30 1668 H 163.1 2.29116 4.08195 0
M  V30 1669 H 163.273 3.38961 5.52277 0
M  V30 1670 N 156.679 -1.44442 0.630414 0
M  V30 1671 C 157.956 -1.9549 0.0655657 0
M  V30 1672 C 158.336 -1.5724 -1.40851 0
M  V30 1673 O 157.684 -0.846116 -2.12257 0
M  V30 1674 C 157.894 -3.47812 0.287691 0
M  V30 1675 C 159.242 -4.24216 0.180513 0
M  V30 1676 O 160.266 -3.55526 0.219019 0
M  V30 1677 O 159.125 -5.46434 0.0848493 0
M  V30 1678 H 156.219 -0.826688 -0.0227177 0
M  V30 1679 H 158.765 -1.54496 0.702068 0
M  V30 1680 H 157.537 -3.687 1.31056 0
M  V30 1681 H 157.16 -3.95751 -0.382984 0
M  V30 1682 N 158.157 -0.370918 -1.53173 0
M  V30 1683 C 159.568 0.107139 -1.86392 0
M  V30 1684 C 159.919 1.47714 -1.29132 0
M  V30 1685 O 159.044 2.07464 -0.615439 0
M  V30 1686 C 159.639 0.201187 -3.38202 0
M  V30 1687 C 158.198 0.623507 -3.712 0
M  V30 1688 C 157.345 -0.225978 -2.76378 0
M  V30 1689 H 160.296 -0.58951 -1.47345 0
M  V30 1690 H 160.317 1.02377 -3.66468 0
M  V30 1691 H 159.829 -0.796058 -3.79848 0
M  V30 1692 H 157.93 1.62879 -3.35114 0
M  V30 1693 H 158.043 0.394414 -4.77474 0
M  V30 1694 H 156.407 0.305962 -2.52856 0
M  V30 1695 H 157.19 -1.22086 -3.20858 0
M  V30 1696 N 159.635 1.57281 -0.100228 0
M  V30 1697 C 161.051 1.57527 0.256416 0
M  V30 1698 C 161.251 1.11173 1.68056 0
M  V30 1699 O 160.307 0.79053 2.39806 0
M  V30 1700 C 161.62 3.00673 0.0401747 0
M  V30 1701 C 163.168 3.12815 0.107528 0
M  V30 1702 C 163.643 4.57929 -0.0807834 0
M  V30 1703 N 165.134 4.63193 -0.0261207 0
M  V30 1704 C 165.869 5.73212 -0.146999 0
M  V30 1705 N 165.365 6.92047 -0.322999 0
M  V30 1706 N 167.158 5.62031 -0.0879044 0
M  V30 1707 H 159.309 1.85718 -1.03065 0
M  V30 1708 H 161.572 0.857446 -0.404339 0
M  V30 1709 H 161.278 3.38804 -0.943649 0
M  V30 1710 H 161.152 3.69042 0.780262 0
M  V30 1711 H 163.539 2.74554 1.08186 0
M  V30 1712 H 163.62 2.47028 -0.664134 0
M  V30 1713 H 163.264 4.96886 -1.05201 0
M  V30 1714 H 163.194 5.21783 0.710635 0
M  V30 1715 H 165.685 3.77748 0.107161 0
M  V30 1716 H 165.998 7.7173 -0.406608 0
M  V30 1717 H 164.343 6.94074 -0.358733 0
M  V30 1718 H 167.534 4.68075 0.048498 0
M  V30 1719 H 167.707 6.47734 -0.185557 0
M  V30 1720 N 161.113 -0.173488 1.56642 0
M  V30 1721 C 162.061 -1.23417 1.97157 0
M  V30 1722 C 163.055 -1.45946 0.860013 0
M  V30 1723 O 164.261 -1.46551 1.04512 0
M  V30 1724 H 160.636 -0.414818 0.62724 0
M  V30 1725 H 162.607 -0.865582 2.8557 0
M  V30 1726 C 161.356 -2.5665 2.34576 0
M  V30 1727 H 160.679 -2.40137 3.19647 0
M  V30 1728 H 162.119 -3.2956 2.6677 0
M  V30 1729 C 160.578 -3.15245 1.18836 0
M  V30 1730 O 161.108 -3.98883 0.474869 0
M  V30 1731 N 159.314 -2.74303 0.959497 0
M  V30 1732 H 158.861 -2.0639 1.54146 0
M  V30 1733 H 158.819 -3.13844 0.186932 0
M  V30 1734 N 162.591 -1.51276 -0.441967 0
M  V30 1735 C 163.84 -1.6295 -1.18871 0
M  V30 1736 C 164.153 -0.349312 -1.92456 0
M  V30 1737 O 165.359 -0.345355 -2.69295 0
M  V30 1738 C 163.815 -2.87759 -2.16155 0
M  V30 1739 C 163.423 -4.22764 -1.48239 0
M  V30 1740 C 165.167 -3.08788 -2.91291 0
M  V30 1741 C 163.074 -5.38728 -2.4398 0
M  V30 1742 H 162.004 -0.606913 -0.447406 0
M  V30 1743 H 164.655 -1.77739 -0.456205 0
M  V30 1744 H 163.037 -2.66593 -2.92821 0
M  V30 1745 H 164.211 -4.54293 -0.771635 0
M  V30 1746 H 162.526 -4.07575 -0.852741 0
M  V30 1747 H 165.123 -3.92599 -3.63002 0
M  V30 1748 H 165.466 -2.21679 -3.5237 0
M  V30 1749 H 165.999 -3.30272 -2.21733 0
M  V30 1750 H 162.738 -6.28082 -1.87598 0
M  V30 1751 H 162.258 -5.1158 -3.13123 0
M  V30 1752 H 163.937 -5.70489 -3.05207 0
M  V30 1753 N 164.069 0.697108 -1.41344 0
M  V30 1754 C 165.032 1.79281 -1.42797 0
M  V30 1755 C 166.032 1.57607 -0.318837 0
M  V30 1756 O 167.222 1.64309 -0.578642 0
M  V30 1757 C 164.354 3.17632 -1.23785 0
M  V30 1758 H 165.547 1.79385 -2.40335 0
M  V30 1759 H 163.1 0.904582 -1.27464 0
M  V30 1760 H 163.835 3.23167 -0.270814 0
M  V30 1761 H 163.62 3.34765 -2.04144 0
M  V30 1762 H 165.11 3.97617 -1.27633 0
M  V30 1763 N 165.547 1.27147 0.931209 0
M  V30 1764 C 166.963 1.04475 1.20653 0
M  V30 1765 C 167.163 -0.223885 2.00252 0
M  V30 1766 O 166.219 -0.930332 2.34736 0
M  V30 1767 C 167.532 2.28209 1.95809 0
M  V30 1768 C 169.08 2.33211 2.08762 0
M  V30 1769 C 169.555 3.56665 2.87323 0
M  V30 1770 N 171.046 3.57201 2.94892 0
M  V30 1771 C 171.781 4.49395 3.56134 0
M  V30 1772 N 171.277 5.51889 4.18796 0
M  V30 1773 N 173.07 4.37026 3.53504 0
M  V30 1774 H 165.221 2.08612 0.399333 0
M  V30 1775 H 167.484 0.917312 0.239253 0
M  V30 1776 H 167.19 3.20538 1.44736 0
M  V30 1777 H 167.064 2.33247 2.96438 0
M  V30 1778 H 169.451 1.41391 2.59023 0
M  V30 1779 H 169.532 2.32178 1.07364 0
M  V30 1780 H 169.176 4.4882 2.37746 0
M  V30 1781 H 169.106 3.54948 3.88998 0
M  V30 1782 H 171.597 2.83074 2.50354 0
M  V30 1783 H 171.91 6.18409 4.63454 0
M  V30 1784 H 170.255 5.55735 4.17353 0
M  V30 1785 H 173.446 3.56166 3.03749 0
M  V30 1786 H 173.619 5.09067 4.00942 0
M  V30 1787 N 167.025 -1.13721 1.09112 0
M  V30 1788 C 167.972 -2.19031 0.727591 0
M  V30 1789 C 168.942 -1.63555 -0.289656 0
M  V30 1790 O 170.127 -1.90023 -0.172026 0
M  V30 1791 C 167.267 -3.4477 0.15082 0
M  V30 1792 C 166.38 -4.14365 1.22172 0
M  V30 1793 C 165.515 -5.27709 0.608042 0
M  V30 1794 C 164.554 -5.89147 1.66047 0
M  V30 1795 N 163.691 -6.93929 1.06806 0
M  V30 1796 H 168.531 -2.49475 1.62991 0
M  V30 1797 H 166.068 -1.22499 0.81439 0
M  V30 1798 H 168.026 -4.16714 -0.201358 0
M  V30 1799 H 166.656 -3.14787 -0.714783 0
M  V30 1800 H 165.708 -3.40737 1.69122 0
M  V30 1801 H 167.02 -4.56114 2.01895 0
M  V30 1802 H 166.174 -6.06355 0.204523 0
M  V30 1803 H 164.913 -4.872 -0.220769 0
M  V30 1804 H 163.918 -5.09198 2.07357 0
M  V30 1805 H 165.143 -6.31729 2.49189 0
M  V30 1806 H 163.089 -6.55483 0.260476 0
M  V30 1807 H 163.006 -7.34202 1.8023 0
M  V30 1808 H 164.274 -7.76434 0.690644 0
M  V30 1809 N 168.503 -0.877838 -1.30888 0
M  V30 1810 C 169.466 -0.344265 -2.266 0
M  V30 1811 C 170.466 0.50922 -1.52524 0
M  V30 1812 O 171.656 0.317398 -1.71284 0
M  V30 1813 C 168.788 0.510198 -3.37061 0
M  V30 1814 H 169.981 -1.1893 -2.7531 0
M  V30 1815 H 167.534 -0.654088 -1.41956 0
M  V30 1816 H 168.269 1.37612 -2.93655 0
M  V30 1817 H 168.054 -0.101047 -3.9197 0
M  V30 1818 H 169.544 0.875537 -4.08319 0
M  V30 1819 N 169.982 1.44106 -0.638065 0
M  V30 1820 C 170.892 2.34513 0.0637334 0
M  V30 1821 C 171.908 1.53018 0.828346 0
M  V30 1822 O 173.084 1.85723 0.779036 0
M  V30 1823 C 170.149 3.31095 1.02844 0
M  V30 1824 C 169.21 4.28497 0.26244 0
M  V30 1825 C 168.443 5.20465 1.1812 0
M  V30 1826 O 168.666 5.16514 2.42011 0
M  V30 1827 O 167.6 5.98251 0.661774 0
M  V30 1828 H 171.426 2.95989 -0.68003 0
M  V30 1829 H 169.011 1.43994 -0.398252 0
M  V30 1830 H 170.893 3.90526 1.58327 0
M  V30 1831 H 169.568 2.72144 1.7527 0
M  V30 1832 H 168.475 3.72592 -0.335602 0
M  V30 1833 H 169.808 4.90388 -0.421936 0
M  V30 1834 N 171.46 0.379036 1.52974 0
M  V30 1835 C 172.408 -0.476033 2.27677 0
M  V30 1836 C 173.402 -1.0719 1.31174 0
M  V30 1837 O 174.608 -1.01355 1.48752 0
M  V30 1838 H 170.983 -0.172255 0.732006 0
M  V30 1839 H 172.954 0.175615 2.97883 0
M  V30 1840 C 171.703 -1.5967 3.0887 0
M  V30 1841 H 171.026 -1.1475 3.82978 0
M  V30 1842 H 172.466 -2.16943 3.64296 0
M  V30 1843 C 170.925 -2.54682 2.20542 0
M  V30 1844 O 171.455 -3.57836 1.82527 0
M  V30 1845 N 169.661 -2.24183 1.84907 0
M  V30 1846 H 169.208 -1.40333 2.1602 0
M  V30 1847 H 169.166 -2.88006 1.26096 0
M  V30 1848 N 172.938 -1.57226 0.108567 0
M  V30 1849 C 174.168 -1.9889 -0.559142 0
M  V30 1850 C 174.576 -0.986889 -1.61422 0
M  V30 1851 O 173.919 0.0298705 -1.83676 0
M  V30 1852 C 173.981 -3.36952 -1.25315 0
M  V30 1853 C 173.645 -4.55679 -0.347248 0
M  V30 1854 C 174.642 -5.18281 0.409996 0
M  V30 1855 C 172.327 -5.0162 -0.261367 0
M  V30 1856 C 174.321 -6.25203 1.24096 0
M  V30 1857 C 172.008 -6.08405 0.573238 0
M  V30 1858 C 173.006 -6.70063 1.32304 0
M  V30 1859 O 172.694 -7.74788 2.14381 0
M  V30 1860 H 172.426 -0.658343 -0.153492 0
M  V30 1861 H 174.98 -2.04532 0.188584 0
M  V30 1862 H 173.21 -3.28032 -2.04773 0
M  V30 1863 H 174.899 -3.62974 -1.81673 0
M  V30 1864 H 175.665 -4.8371 0.353457 0
M  V30 1865 H 171.544 -4.53381 -0.834656 0
M  V30 1866 H 175.088 -6.73259 1.82669 0
M  V30 1867 H 170.985 -6.42406 0.631208 0
M  V30 1868 H 171.753 -7.91837 2.07209 0
M  V30 1869 N 174.416 0.165178 -1.56732 0
M  V30 1870 C 175.346 1.20651 -1.99914 0
M  V30 1871 C 176.327 1.45827 -0.875705 0
M  V30 1872 O 177.512 1.57057 -1.14223 0
M  V30 1873 C 174.642 2.54401 -2.36427 0
M  V30 1874 C 173.596 2.43782 -3.51787 0
M  V30 1875 C 172.922 3.82078 -3.7406 0
M  V30 1876 C 174.222 1.93732 -4.85041 0
M  V30 1877 H 175.916 0.847534 -2.87154 0
M  V30 1878 H 173.462 0.40625 -1.38151 0
M  V30 1879 H 175.415 3.27458 -2.65234 0
M  V30 1880 H 174.139 2.92098 -1.46103 0
M  V30 1881 H 172.798 1.73178 -3.23117 0
M  V30 1882 H 172.446 4.17179 -2.81017 0
M  V30 1883 H 172.146 3.7584 -4.51684 0
M  V30 1884 H 173.67 4.56712 -4.05274 0
M  V30 1885 H 175.084 2.56569 -5.12684 0
M  V30 1886 H 173.481 1.98428 -5.66345 0
M  V30 1887 H 174.551 0.891962 -4.76626 0
M  V30 1888 N 175.894 1.51508 0.433938 0
M  V30 1889 C 177.143 1.63578 1.18005 0
M  V30 1890 C 177.456 0.359514 1.92268 0
M  V30 1891 O 178.662 0.359632 2.69108 0
M  V30 1892 C 177.118 2.88901 2.14626 0
M  V30 1893 C 176.726 4.23544 1.45995 0
M  V30 1894 C 178.47 3.10328 2.89649 0
M  V30 1895 C 176.377 5.40014 2.4112 0
M  V30 1896 H 175.307 0.609277 0.444182 0
M  V30 1897 H 177.958 1.77978 0.446773 0
M  V30 1898 H 176.34 2.68142 2.91403 0
M  V30 1899 H 177.514 4.54696 0.747532 0
M  V30 1900 H 175.829 4.08021 0.831115 0
M  V30 1901 H 178.426 3.94518 3.60915 0
M  V30 1902 H 178.769 2.23544 3.51189 0
M  V30 1903 H 179.302 3.31443 2.19978 0
M  V30 1904 H 176.041 6.29068 1.84264 0
M  V30 1905 H 175.561 5.13233 3.10406 0
M  V30 1906 H 177.24 5.72099 3.02177 0
M  V30 1907 N 177.372 -0.689602 1.41712 0
M  V30 1908 C 178.597 -1.48329 1.44959 0
M  V30 1909 C 179.022 -1.8801 0.0581283 0
M  V30 1910 O 178.38 -1.55026 -0.940035 0
M  V30 1911 C 178.428 -2.71835 2.36935 0
M  V30 1912 O 177.532 -3.69549 1.8305 0
M  V30 1913 H 176.873 -0.446199 0.491734 0
M  V30 1914 H 179.403 -0.847127 1.86239 0
M  V30 1915 H 179.413 -3.20076 2.53013 0
M  V30 1916 H 178.088 -2.42291 3.38035 0
M  V30 1917 H 176.665 -3.2851 1.76452 0
M  V30 1918 N 178.85 -1.27639 -0.924453 0
M  V30 1919 C 180.078 -1.16989 -1.70649 0
M  V30 1920 C 180.493 0.272869 -1.86818 0
M  V30 1921 O 179.85 1.18549 -1.38753 0
M  V30 1922 C 179.901 -1.85229 -3.10439 0
M  V30 1923 O 179.622 -3.23868 -2.95028 0
M  V30 1924 C 181.123 -1.80746 -4.04779 0
M  V30 1925 H 178.343 -0.406595 -0.53378 0
M  V30 1926 H 180.887 -1.68569 -1.15778 0
M  V30 1927 H 179.042 -1.37545 -3.6216 0
M  V30 1928 H 179.456 -3.57889 -3.83426 0
M  V30 1929 H 180.93 -2.33101 -5.00368 0
M  V30 1930 H 181.407 -0.777499 -4.32263 0
M  V30 1931 H 182.013 -2.28059 -3.58984 0
M  V30 1932 N 180.328 1.1314 -1.09713 0
M  V30 1933 C 181.576 1.84119 -0.833338 0
M  V30 1934 C 181.897 1.84097 0.642904 0
M  V30 1935 O 181.167 1.29881 1.46655 0
M  V30 1936 H 179.747 0.681766 -0.305293 0
M  V30 1937 H 182.409 1.37038 -1.38588 0
M  V30 1938 H 181.505 2.88543 -1.18951 0
M  V30 1939 N 181.806 0.884767 1.30421 0
M  V30 1940 C 183.055 0.499164 1.95426 0
M  V30 1941 C 183.368 -0.95645 1.70621 0
M  V30 1942 O 184.574 -1.44889 2.29607 0
M  V30 1943 C 183.03 0.84177 3.49917 0
M  V30 1944 C 182.638 2.31514 3.83543 0
M  V30 1945 C 184.382 0.525355 4.21237 0
M  V30 1946 C 182.289 2.59939 5.31212 0
M  V30 1947 H 181.219 0.182944 0.73147 0
M  V30 1948 H 183.87 1.07971 1.48373 0
M  V30 1949 H 182.252 0.190311 3.95542 0
M  V30 1950 H 183.426 3.0109 3.48829 0
M  V30 1951 H 181.741 2.59907 3.25326 0
M  V30 1952 H 184.338 0.714762 5.29901 0
M  V30 1953 H 184.681 -0.535222 4.12845 0
M  V30 1954 H 185.214 1.134 3.81294 0
M  V30 1955 H 181.953 3.64736 5.44654 0
M  V30 1956 H 181.473 1.94972 5.67227 0
M  V30 1957 H 183.152 2.45429 5.98643 0
M  V30 1958 N 183.284 -1.43765 0.645699 0
M  V30 1959 C 184.247 -2.29163 -0.0409488 0
M  V30 1960 C 185.247 -1.41813 -0.757996 0
M  V30 1961 O 186.437 -1.63527 -0.600382 0
M  V30 1962 C 183.569 -3.23716 -1.06869 0
M  V30 1963 H 184.762 -2.91366 0.710345 0
M  V30 1964 H 182.315 -1.5092 0.406547 0
M  V30 1965 H 183.05 -2.66393 -1.84947 0
M  V30 1966 H 182.835 -3.88105 -0.558277 0
M  V30 1967 H 184.325 -3.87831 -1.54845 0
M  V30 1968 N 184.763 -0.387143 -1.52771 0
M  V30 1969 C 186.04 0.253197 -1.93954 0
M  V30 1970 C 186.42 1.64545 -1.32243 0
M  V30 1971 O 185.768 2.23191 -0.489699 0
M  V30 1972 C 185.978 0.281722 -3.47861 0
M  V30 1973 C 187.326 0.511715 -4.21505 0
M  V30 1974 O 188.35 0.362023 -3.54356 0
M  V30 1975 O 187.209 0.804847 -5.40541 0
M  V30 1976 H 184.303 0.156845 -0.811991 0
M  V30 1977 H 186.849 -0.441494 -1.63856 0
M  V30 1978 H 185.621 -0.693571 -3.85104 0
M  V30 1979 H 185.244 1.02142 -3.84256 0
M  V30 1980 N 186.241 1.57166 -0.116904 0
M  V30 1981 C 187.469 1.99473 0.549383 0
M  V30 1982 C 187.884 0.996541 1.60357 0
M  V30 1983 O 187.241 -0.0108731 1.82497 0
M  V30 1984 C 187.292 3.41788 1.17741 0
M  V30 1985 O 187.013 4.37788 0.165362 0
M  V30 1986 C 188.514 3.99216 1.92722 0
M  V30 1987 H 185.734 0.655009 0.145616 0
M  V30 1988 H 188.278 2.03494 -0.202625 0
M  V30 1989 H 186.433 3.38713 1.88021 0
M  V30 1990 H 186.847 5.20806 0.621403 0
M  V30 1991 H 188.321 5.00882 2.31995 0
M  V30 1992 H 188.798 3.3824 2.80161 0
M  V30 1993 H 189.404 4.0583 1.27209 0
M  V30 1994 N 187.719 -0.156864 1.56817 0
M  V30 1995 C 188.682 -1.17781 1.96622 0
M  V30 1996 C 189.682 -1.36401 0.851555 0
M  V30 1997 O 190.872 -1.33561 1.11836 0
M  V30 1998 C 188.004 -2.54008 2.27361 0
M  V30 1999 H 189.197 -0.836564 2.87996 0
M  V30 2000 H 186.75 -0.39985 1.51099 0
M  V30 2001 H 187.485 -2.9312 1.38748 0
M  V30 2002 H 187.27 -2.41856 3.08623 0
M  V30 2003 H 188.76 -3.27558 2.59029 0
M  V30 2004 N 189.197 -1.51736 -0.425897 0
M  V30 2005 C 190.427 -1.68549 -1.19476 0
M  V30 2006 C 190.835 -0.387288 -1.85194 0
M  V30 2007 O 190.178 0.645142 -1.71999 0
M  V30 2008 C 190.24 -2.75275 -2.31223 0
M  V30 2009 C 189.904 -4.17534 -1.8578 0
M  V30 2010 C 190.901 -5.01936 -1.35485 0
M  V30 2011 C 188.586 -4.6369 -1.93123 0
M  V30 2012 C 190.58 -6.30559 -0.931347 0
M  V30 2013 C 188.267 -5.92307 -1.50384 0
M  V30 2014 C 189.265 -6.75569 -1.00473 0
M  V30 2015 O 188.953 -8.0178 -0.583452 0
M  V30 2016 H 188.685 -0.568525 -0.365725 0
M  V30 2017 H 191.239 -1.98982 -0.509444 0
M  V30 2018 H 189.469 -2.40182 -3.03067 0
M  V30 2019 H 191.158 -2.80853 -2.93047 0
M  V30 2020 H 191.924 -4.67475 -1.29197 0
M  V30 2021 H 187.803 -3.98997 -2.30916 0
M  V30 2022 H 191.347 -6.95498 -0.541084 0
M  V30 2023 H 187.244 -6.2628 -1.56346 0
M  V30 2024 H 188.012 -8.1543 -0.708275 0
M  V30 2025 N 190.675 0.682077 -1.42076 0
M  V30 2026 C 191.922 1.44215 -1.42156 0
M  V30 2027 C 192.25 1.94468 -0.0354186 0
M  V30 2028 O 191.505 1.70816 0.955002 0
M  V30 2029 C 191.804 2.66036 -2.38662 0
M  V30 2030 C 191.47 2.34366 -3.85206 0
M  V30 2031 C 190.132 2.25439 -4.25124 0
M  V30 2032 C 192.484 2.08513 -4.77673 0
M  V30 2033 C 189.812 1.88775 -5.55501 0
M  V30 2034 C 192.164 1.73354 -6.08384 0
M  V30 2035 C 190.828 1.62933 -6.47309 0
M  V30 2036 H 190.098 0.527718 -0.520187 0
M  V30 2037 H 192.745 0.778387 -1.74967 0
M  V30 2038 H 191.05 3.3741 -1.99152 0
M  V30 2039 H 192.747 3.24205 -2.35991 0
M  V30 2040 H 189.337 2.42213 -3.53597 0
M  V30 2041 H 193.521 2.14346 -4.47626 0
M  V30 2042 H 188.777 1.7927 -5.84527 0
M  V30 2043 H 192.951 1.52373 -6.79526 0
M  V30 2044 H 190.578 1.34292 -7.48244 0
M  V30 2045 N 192.153 1.28127 0.917671 0
M  V30 2046 C 193.401 1.14825 1.66312 0
M  V30 2047 C 193.722 -0.304379 1.9261 0
M  V30 2048 O 192.992 -1.21149 1.53947 0
M  V30 2049 H 191.572 0.421953 0.616413 0
M  V30 2050 H 194.234 1.608 1.10134 0
M  V30 2051 H 193.33 1.68489 2.62712 0
M  V30 2052 N 193.631 -1.12557 1.10312 0
M  V30 2053 C 194.594 -2.16434 0.75424 0
M  V30 2054 C 195.594 -1.59278 -0.220685 0
M  V30 2055 O 196.784 -1.742 0.00230591 0
M  V30 2056 C 193.916 -3.40699 0.116987 0
M  V30 2057 H 195.109 -2.48811 1.67431 0
M  V30 2058 H 192.662 -1.27542 0.903475 0
M  V30 2059 H 193.397 -3.13921 -0.813877 0
M  V30 2060 H 193.182 -3.83459 0.818613 0
M  V30 2061 H 194.672 -4.17451 -0.111387 0
M  V30 2062 N 195.109 -0.891671 -1.2995 0
M  V30 2063 C 196.019 -0.367691 -2.31701 0
M  V30 2064 C 197.035 0.533486 -1.6562 0
M  V30 2065 O 198.211 0.424997 -1.96865 0
M  V30 2066 C 195.276 0.403406 -3.44345 0
M  V30 2067 C 194.337 -0.528328 -4.26037 0
M  V30 2068 C 193.57 0.206063 -5.33302 0
M  V30 2069 O 193.793 1.43119 -5.52153 0
M  V30 2070 O 192.727 -0.447281 -6.00236 0
M  V30 2071 H 196.553 -1.21163 -2.78484 0
M  V30 2072 H 194.138 -0.655725 -1.34241 0
M  V30 2073 H 196.02 0.839753 -4.12948 0
M  V30 2074 H 194.695 1.22354 -2.99685 0
M  V30 2075 H 193.602 -1.01362 -3.60106 0
M  V30 2076 H 194.935 -1.31465 -4.74318 0
M  V30 2077 N 196.587 1.43421 -0.653314 0
M  V30 2078 C 197.55 2.29182 0.0287951 0
M  V30 2079 C 198.55 1.42213 0.750465 0
M  V30 2080 O 199.74 1.63843 0.591701 0
M  V30 2081 C 196.872 3.24278 1.05151 0
M  V30 2082 H 198.065 2.90985 -0.725786 0
M  V30 2083 H 195.618 1.50702 -0.414545 0
M  V30 2084 H 196.353 2.6737 1.83532 0
M  V30 2085 H 196.138 3.88396 0.537687 0
M  V30 2086 H 197.628 3.88647 1.52786 0
M  V30 2087 N 198.065 0.39524 1.52563 0
M  V30 2088 C 198.975 -0.444232 2.30356 0
M  V30 2089 C 199.991 -1.06615 1.37511 0
M  V30 2090 O 201.167 -1.07067 1.70583 0
M  V30 2091 C 198.232 -1.55315 3.09964 0
M  V30 2092 C 197.293 -0.955734 4.18526 0
M  V30 2093 C 196.526 -2.01181 4.9433 0
M  V30 2094 O 196.749 -3.22781 4.70285 0
M  V30 2095 O 195.683 -1.62579 5.79527 0
M  V30 2096 H 199.509 0.189667 3.03107 0
M  V30 2097 H 197.094 0.1588 1.48554 0
M  V30 2098 H 198.976 -2.19724 3.59582 0
M  V30 2099 H 197.651 -2.17191 2.4002 0
M  V30 2100 H 196.558 -0.274743 3.7309 0
M  V30 2101 H 197.891 -0.381109 4.90722 0
M  V30 2102 N 199.544 -1.57102 0.125237 0
M  V30 2103 C 200.791 -1.95407 -0.531248 0
M  V30 2104 C 201.119 -1.0089 -1.66287 0
M  V30 2105 O 200.374 -0.0339431 -1.95671 0
M  V30 2106 C 200.673 -3.40096 -1.09862 0
M  V30 2107 C 200.339 -4.50815 -0.0876989 0
M  V30 2108 C 199.001 -4.80824 0.19026 0
M  V30 2109 C 201.353 -5.17724 0.600902 0
M  V30 2110 C 198.681 -5.75058 1.163 0
M  V30 2111 C 201.033 -6.13005 1.56231 0
M  V30 2112 C 199.697 -6.41403 1.8482 0
M  V30 2113 H 198.967 -0.715046 -0.194397 0
M  V30 2114 H 201.614 -1.90373 0.207463 0
M  V30 2115 H 199.919 -3.41855 -1.91422 0
M  V30 2116 H 201.616 -3.6705 -1.61478 0
M  V30 2117 H 198.206 -4.27444 -0.314528 0
M  V30 2118 H 202.39 -4.94691 0.399333 0
M  V30 2119 H 197.646 -5.95362 1.39117 0
M  V30 2120 H 201.82 -6.63934 2.10153 0
M  V30 2121 H 199.447 -7.14229 2.60349 0
M  V30 2122 N 201.022 0.148545 -1.56898 0
M  V30 2123 C 202.252 0.875118 -1.8715 0
M  V30 2124 C 202.66 1.75322 -0.711262 0
M  V30 2125 O 202.003 1.80745 0.328151 0
M  V30 2126 C 202.065 1.7844 -3.12089 0
M  V30 2127 C 201.729 1.08361 -4.43967 0
M  V30 2128 C 202.726 0.438247 -5.1805 0
M  V30 2129 C 200.411 1.07358 -4.90693 0
M  V30 2130 C 202.405 -0.20779 -6.37061 0
M  V30 2131 C 200.092 0.42373 -6.09629 0
M  V30 2132 C 201.09 -0.215829 -6.82659 0
M  V30 2133 O 200.778 -0.855378 -7.99336 0
M  V30 2134 H 200.51 0.258504 -0.624621 0
M  V30 2135 H 203.064 0.14652 -2.04877 0
M  V30 2136 H 201.294 2.55389 -2.90367 0
M  V30 2137 H 202.983 2.38279 -3.286 0
M  V30 2138 H 203.749 0.437817 -4.8302 0
M  V30 2139 H 199.628 1.5608 -4.33774 0
M  V30 2140 H 203.172 -0.70758 -6.94002 0
M  V30 2141 H 199.069 0.421822 -6.4412 0
M  V30 2142 H 199.837 -0.756892 -8.14993 0
M  V30 2143 N 202.5 1.5196 0.417844 0
M  V30 2144 C 203.749 1.6482 1.16264 0
M  V30 2145 C 204.062 0.379886 1.91876 0
M  V30 2146 O 205.268 0.388154 2.68711 0
M  V30 2147 C 203.724 2.91161 2.1155 0
M  V30 2148 C 203.332 4.25068 1.41495 0
M  V30 2149 C 205.076 3.13383 2.86341 0
M  V30 2150 C 202.983 5.42541 2.35379 0
M  V30 2151 H 201.913 0.613954 0.437694 0
M  V30 2152 H 204.564 1.78442 0.427871 0
M  V30 2153 H 202.946 2.71218 2.88543 0
M  V30 2154 H 204.12 4.55463 0.699263 0
M  V30 2155 H 202.435 4.0888 0.787792 0
M  V30 2156 H 205.032 3.98324 3.5671 0
M  V30 2157 H 205.375 2.27256 3.48798 0
M  V30 2158 H 205.908 3.33757 2.1645 0
M  V30 2159 H 202.647 6.30987 1.77582 0
M  V30 2160 H 202.167 5.16497 3.04945 0
M  V30 2161 H 203.846 5.75272 2.96093 0
M  V30 2162 N 203.978 -0.674533 1.42435 0
M  V30 2163 C 205.225 -1.43459 1.42919 0
M  V30 2164 C 205.553 -1.94446 0.0457312 0
M  V30 2165 O 204.808 -1.7132 -0.94593 0
M  V30 2166 C 205.107 -2.64767 2.40069 0
M  V30 2167 C 204.773 -2.3232 3.86443 0
M  V30 2168 C 203.435 -2.23182 4.26314 0
M  V30 2169 C 205.787 -2.05977 4.78773 0
M  V30 2170 C 203.115 -1.85827 5.56494 0
M  V30 2171 C 205.467 -1.70125 6.09295 0
M  V30 2172 C 204.131 -1.59498 6.48164 0
M  V30 2173 H 203.401 -0.524952 0.522978 0
M  V30 2174 H 206.048 -0.769097 1.75377 0
M  V30 2175 H 204.353 -3.36349 2.00939 0
M  V30 2176 H 206.05 -3.22949 2.37707 0
M  V30 2177 H 202.64 -2.40334 3.54877 0
M  V30 2178 H 206.824 -2.11969 4.48757 0
M  V30 2179 H 202.08 -1.76168 5.8547 0
M  V30 2180 H 206.254 -1.48767 6.80324 0
M  V30 2181 H 203.881 -1.30322 7.48946 0
M  V30 2182 N 205.456 -1.28612 -0.910864 0
M  V30 2183 C 206.733 -1.06632 -1.63979 0
M  V30 2184 C 207.113 0.393351 -2.07403 0
M  V30 2185 O 206.461 1.37999 -1.82122 0
M  V30 2186 C 206.671 -2.0436 -2.8291 0
M  V30 2187 C 208.019 -2.34666 -3.5386 0
M  V30 2188 O 209.043 -2.02467 -2.93062 0
M  V30 2189 O 207.902 -2.89631 -4.63439 0
M  V30 2190 H 204.996 -0.407737 -0.7195 0
M  V30 2191 H 207.542 -1.39942 -0.959914 0
M  V30 2192 H 206.314 -3.02727 -2.47936 0
M  V30 2193 H 205.937 -1.71714 -3.58609 0
M  V30 2194 N 206.934 1.1197 -1.10907 0
M  V30 2195 C 208.159 1.87942 -0.877064 0
M  V30 2196 C 208.584 1.79341 0.567314 0
M  V30 2197 O 207.942 1.15184 1.40009 0
M  V30 2198 C 207.99 3.34926 -1.33629 0
M  V30 2199 O 207.094 4.09303 -0.504447 0
M  V30 2200 H 206.435 0.583785 -0.316371 0
M  V30 2201 H 208.965 1.4157 -1.47712 0
M  V30 2202 H 208.975 3.8577 -1.32837 0
M  V30 2203 H 207.65 3.40504 -2.3881 0
M  V30 2204 H 206.227 3.68393 -0.577993 0
M  V30 2205 N 208.412 0.89855 1.29475 0
M  V30 2206 C 209.658 0.524658 1.95896 0
M  V30 2207 C 209.991 -0.926468 1.70676 0
M  V30 2208 O 209.266 -1.65665 1.01908 0
M  V30 2209 C 209.549 0.81633 3.50725 0
M  V30 2210 C 209.402 2.31907 3.85408 0
M  V30 2211 C 210.721 0.302038 4.39062 0
M  V30 2212 H 207.84 0.19209 0.711527 0
M  V30 2213 H 210.482 1.12502 1.53112 0
M  V30 2214 H 208.632 0.305369 3.87298 0
M  V30 2215 H 210.304 2.89949 3.58786 0
M  V30 2216 H 208.547 2.78027 3.32992 0
M  V30 2217 H 209.218 2.47373 4.93468 0
M  V30 2218 H 211.694 0.739551 4.09475 0
M  V30 2219 H 210.57 0.535331 5.46283 0
M  V30 2220 H 210.831 -0.797216 4.34853 0
M  V30 2221 N 209.89 -1.43072 0.660911 0
M  V30 2222 C 211.115 -2.06584 0.183805 0
M  V30 2223 C 211.54 -1.49257 -1.14472 0
M  V30 2224 O 210.898 -0.605528 -1.70889 0
M  V30 2225 C 210.946 -3.60418 0.114434 0
M  V30 2226 O 210.05 -4.01981 -0.921137 0
M  V30 2227 H 209.391 -0.656669 0.0983994 0
M  V30 2228 H 211.921 -1.83447 0.906006 0
M  V30 2229 H 211.931 -4.07946 -0.0663394 0
M  V30 2230 H 210.606 -4.01519 1.08422 0
M  V30 2231 H 209.183 -3.66029 -0.71253 0
M  V30 2232 N 211.368 -0.403325 -1.52352 0
M  V30 2233 C 212.615 0.174347 -2.01748 0
M  V30 2234 C 212.943 1.45636 -1.2892 0
M  V30 2235 O 212.198 1.9193 -0.382258 0
M  V30 2236 C 212.497 0.474665 -3.54234 0
M  V30 2237 C 212.163 -0.717458 -4.45155 0
M  V30 2238 C 210.825 -1.04447 -4.69728 0
M  V30 2239 C 213.177 -1.51432 -4.98716 0
M  V30 2240 C 210.505 -2.16963 -5.45109 0
M  V30 2241 C 212.857 -2.6302 -5.75329 0
M  V30 2242 C 211.521 -2.96213 -5.98175 0
M  V30 2243 H 210.791 0.0637981 -0.738248 0
M  V30 2244 H 213.438 -0.543553 -1.83624 0
M  V30 2245 H 211.743 1.27406 -3.70506 0
M  V30 2246 H 213.44 0.934496 -3.89959 0
M  V30 2247 H 210.03 -0.452596 -4.26204 0
M  V30 2248 H 214.214 -1.27491 -4.79645 0
M  V30 2249 H 209.47 -2.43034 -5.61021 0
M  V30 2250 H 213.644 -3.25158 -6.15829 0
M  V30 2251 H 211.271 -3.83516 -6.56368 0
M  V30 2252 N 212.846 1.57033 -0.133567 0
M  V30 2253 C 214.123 1.87256 0.56522 0
M  V30 2254 C 214.503 1.03726 1.83859 0
M  V30 2255 O 213.851 0.120247 2.28183 0
M  V30 2256 C 214.061 3.3865 0.843636 0
M  V30 2257 C 215.409 4.07574 1.19032 0
M  V30 2258 O 216.433 3.43752 0.933429 0
M  V30 2259 O 215.292 5.20259 1.67312 0
M  V30 2260 H 212.386 0.775678 0.286796 0
M  V30 2261 H 214.932 1.68855 -0.169168 0
M  V30 2262 H 213.704 3.91257 -0.0581149 0
M  V30 2263 H 213.327 3.62532 1.63268 0
M  V30 2264 N 214.325 -0.140222 1.56975 0
M  V30 2265 C 215.55 -0.870414 1.88251 0
M  V30 2266 C 215.975 -1.73637 0.723312 0
M  V30 2267 O 215.333 -1.78329 -0.32689 0
M  V30 2268 C 215.381 -1.69737 3.18154 0
M  V30 2269 O 214.485 -2.80229 3.02565 0
M  V30 2270 H 213.826 -0.242025 0.61832 0
M  V30 2271 H 216.356 -0.128999 2.04193 0
M  V30 2272 H 216.366 -2.09099 3.50345 0
M  V30 2273 H 215.041 -1.06152 4.02125 0
M  V30 2274 H 213.618 -2.44224 2.81796 0
M  V30 2275 N 215.803 -1.52179 -0.40978 0
M  V30 2276 C 217.219 -1.40968 -0.74835 0
M  V30 2277 C 217.419 -0.513657 -1.94843 0
M  V30 2278 O 216.475 0.0208026 -2.52491 0
M  V30 2279 C 217.788 -2.83483 -1.0029 0
M  V30 2280 C 219.336 -2.92821 -1.10565 0
M  V30 2281 C 219.811 -4.36303 -1.39296 0
M  V30 2282 N 221.302 -4.39535 -1.46162 0
M  V30 2283 C 222.037 -5.47614 -1.70018 0
M  V30 2284 N 221.533 -6.65812 -1.91483 0
M  V30 2285 N 223.326 -5.35129 -1.72027 0
M  V30 2286 H 215.477 -2.0897 0.380186 0
M  V30 2287 H 217.74 -0.94185 0.107805 0
M  V30 2288 H 217.446 -3.51168 -0.193461 0
M  V30 2289 H 217.32 -3.24487 -1.92323 0
M  V30 2290 H 219.707 -2.25318 -1.90568 0
M  V30 2291 H 219.788 -2.55276 -0.16369 0
M  V30 2292 H 219.432 -5.04366 -0.598109 0
M  V30 2293 H 219.362 -4.71385 -2.34743 0
M  V30 2294 H 221.853 -3.54332 -1.31367 0
M  V30 2295 H 222.166 -7.43964 -2.09134 0
M  V30 2296 H 220.511 -6.68879 -1.88749 0
M  V30 2297 H 223.702 -4.41764 -1.54796 0
M  V30 2298 H 223.875 -6.19433 -1.9028 0
M  V30 2299 N 217.281 0.66697 -1.42791 0
M  V30 2300 C 218.244 1.76211 -1.46568 0
M  V30 2301 C 219.244 1.56896 -0.352196 0
M  V30 2302 O 220.434 1.63044 -0.613364 0
M  V30 2303 C 217.566 3.14935 -1.30494 0
M  V30 2304 H 218.759 1.74247 -2.44086 0
M  V30 2305 H 216.312 0.877342 -1.29354 0
M  V30 2306 H 217.047 3.2252 -0.339301 0
M  V30 2307 H 216.832 3.30359 -2.11199 0
M  V30 2308 H 218.322 3.94821 -1.36038 0
M  V30 2309 N 218.759 1.29093 0.90403 0
M  V30 2310 C 219.707 1.13727 2.02901 0
M  V30 2311 C 220.701 0.0539853 1.69314 0
M  V30 2312 O 221.907 0.213469 1.7873 0
M  V30 2313 H 218.282 0.35117 0.664969 0
M  V30 2314 H 220.253 2.08982 2.13001 0
M  V30 2315 C 219.002 0.826066 3.37745 0
M  V30 2316 H 218.325 1.65164 3.64089 0
M  V30 2317 H 219.765 0.758559 4.17159 0
M  V30 2318 C 218.224 -0.470541 3.33598 0
M  V30 2319 O 218.754 -1.49792 3.72727 0
M  V30 2320 N 216.96 -0.474812 2.86695 0
M  V30 2321 H 216.507 0.361692 2.55048 0
M  V30 2322 H 216.465 -1.34236 2.84303 0
M  V30 2323 N 220.237 -1.11381 1.11499 0
M  V30 2324 C 221.485 -1.8277 0.862524 0
M  V30 2325 C 221.806 -1.85097 -0.613534 0
M  V30 2326 O 221.076 -1.32198 -1.4457 0
M  V30 2327 H 219.656 -0.676823 0.316101 0
M  V30 2328 H 222.318 -1.34816 1.4075 0
M  V30 2329 H 221.414 -2.86614 1.23527 0
M  V30 2330 N 221.715 -0.905404 -1.28997 0
M  V30 2331 C 222.94 -0.549175 -1.99997 0
M  V30 2332 C 223.365 0.860276 -1.67275 0
M  V30 2333 O 222.723 1.57355 -0.900502 0
M  V30 2334 C 222.771 -0.755185 -3.52604 0
M  V30 2335 O 221.875 0.189692 -4.11964 0
M  V30 2336 H 221.216 -0.213899 -0.628604 0
M  V30 2337 H 223.746 -1.21856 -1.64354 0
M  V30 2338 H 223.756 -0.662045 -4.02593 0
M  V30 2339 H 222.431 -1.78271 -3.75755 0
M  V30 2340 H 221.008 0.0485257 -3.72868 0
M  V30 2341 N 223.193 1.4272 -0.668489 0
M  V30 2342 C 224.44 2.01624 -0.18814 0
M  V30 2343 C 224.768 1.5282 1.20317 0
M  V30 2344 O 224.023 0.718323 1.8204 0
M  V30 2345 C 224.322 3.57021 -0.164499 0
M  V30 2346 C 223.988 4.25232 -1.49962 0
M  V30 2347 C 222.65 4.4358 -1.8652 0
M  V30 2348 C 225.002 4.63727 -2.37921 0
M  V30 2349 C 222.33 4.97694 -3.10674 0
M  V30 2350 C 224.682 5.19218 -3.6138 0
M  V30 2351 C 223.346 5.3578 -3.98115 0
M  V30 2352 H 222.616 0.737795 -0.0688454 0
M  V30 2353 H 225.263 1.70991 -0.862225 0
M  V30 2354 H 223.568 3.87285 0.593079 0
M  V30 2355 H 225.265 4.00372 0.224271 0
M  V30 2356 H 221.855 4.11306 -1.20522 0
M  V30 2357 H 226.039 4.4923 -2.10964 0
M  V30 2358 H 221.295 5.08702 -3.39164 0
M  V30 2359 H 225.469 5.4799 -4.29743 0
M  V30 2360 H 223.096 5.77475 -4.94395 0
M  V30 2361 N 224.671 0.411399 1.52136 0
M  V30 2362 C 225.901 -0.16284 2.05957 0
M  V30 2363 C 226.309 -1.3922 1.28119 0
M  V30 2364 O 225.652 -1.80768 0.326881 0
M  V30 2365 C 225.714 -0.575946 3.54856 0
M  V30 2366 C 225.378 0.542998 4.53763 0
M  V30 2367 C 226.375 1.40726 5.00492 0
M  V30 2368 C 224.06 0.716337 4.97166 0
M  V30 2369 C 226.054 2.4298 5.8927 0
M  V30 2370 C 223.741 1.74218 5.8574 0
M  V30 2371 C 224.739 2.59731 6.31687 0
M  V30 2372 O 224.427 3.60558 7.18507 0
M  V30 2373 H 224.159 -0.0229125 0.675612 0
M  V30 2374 H 226.713 0.581634 1.96993 0
M  V30 2375 H 224.943 -1.37274 3.61515 0
M  V30 2376 H 226.632 -1.07836 3.91313 0
M  V30 2377 H 227.398 1.28476 4.67674 0
M  V30 2378 H 223.277 0.0603857 4.6096 0
M  V30 2379 H 226.821 3.0976 6.25055 0
M  V30 2380 H 222.718 1.86498 6.17971 0
M  V30 2381 H 223.486 3.56829 7.36624 0
M  V30 2382 N 226.149 -1.5696 0.141893 0
M  V30 2383 C 227.059 -2.20066 -0.812905 0
M  V30 2384 C 228.075 -1.18344 -1.27557 0
M  V30 2385 O 229.251 -1.50902 -1.33381 0
M  V30 2386 C 226.316 -2.80583 -2.03652 0
M  V30 2387 C 225.377 -3.97414 -1.62359 0
M  V30 2388 C 224.61 -4.55036 -2.78887 0
M  V30 2389 O 224.833 -4.11538 -3.94959 0
M  V30 2390 O 223.767 -5.45376 -2.54653 0
M  V30 2391 H 227.593 -3.02157 -0.305746 0
M  V30 2392 H 225.178 -1.49159 -0.0848799 0
M  V30 2393 H 227.06 -3.19067 -2.75272 0
M  V30 2394 H 225.735 -2.01508 -2.5333 0
M  V30 2395 H 224.642 -3.63656 -0.877775 0
M  V30 2396 H 225.975 -4.77994 -1.17401 0
M  V30 2397 N 227.627 0.131896 -1.57047 0
M  V30 2398 C 228.873 0.843179 -1.84441 0
M  V30 2399 C 229.206 1.80129 -0.725749 0
M  V30 2400 O 228.481 1.92624 0.269469 0
M  V30 2401 C 228.764 1.60442 -3.22382 0
M  V30 2402 C 228.617 0.666782 -4.4483 0
M  V30 2403 C 229.936 2.56354 -3.5773 0
M  V30 2404 H 227.055 0.305081 -0.670891 0
M  V30 2405 H 229.697 0.107839 -1.89694 0
M  V30 2406 H 227.847 2.23128 -3.18035 0
M  V30 2407 H 229.519 0.0497646 -4.61273 0
M  V30 2408 H 227.762 -0.022609 -4.33794 0
M  V30 2409 H 228.433 1.23579 -5.37989 0
M  V30 2410 H 230.909 2.0378 -3.62785 0
M  V30 2411 H 229.785 3.06657 -4.5525 0
M  V30 2412 H 230.046 3.38419 -2.84473 0
M  V30 2413 N 229.106 1.52395 0.401703 0
M  V30 2414 C 230.383 1.57387 1.16141 0
M  V30 2415 C 230.763 0.359359 2.08019 0
M  V30 2416 O 230.111 -0.65326 2.18963 0
M  V30 2417 C 230.321 2.90631 1.93221 0
M  V30 2418 C 231.669 3.43904 2.49028 0
M  V30 2419 O 232.693 2.92421 2.03393 0
M  V30 2420 O 231.552 4.33823 3.32356 0
M  V30 2421 H 228.646 0.634262 0.530698 0
M  V30 2422 H 231.192 1.64725 0.407883 0
M  V30 2423 H 229.964 3.70473 1.25958 0
M  V30 2424 H 229.587 2.8662 2.75563 0
M  V30 2425 N 230.584 -0.659388 1.43143 0
M  V30 2426 C 231.547 -1.75432 1.47501 0
M  V30 2427 C 232.547 -1.56707 0.360512 0
M  V30 2428 O 233.737 -1.62717 0.622002 0
M  V30 2429 C 230.869 -3.14239 1.32162 0
M  V30 2430 H 232.062 -1.7295 2.45006 0
M  V30 2431 H 229.615 -0.870469 1.29817 0
M  V30 2432 H 230.35 -3.22336 0.356401 0
M  V30 2433 H 230.135 -3.29235 2.12948 0
M  V30 2434 H 231.625 -3.94094 1.3813 0
M  V30 2435 N 232.062 -1.29571 -0.897171 0
M  V30 2436 C 233.311 -1.1706 -1.64256 0
M  V30 2437 C 233.624 0.276476 -1.93636 0
M  V30 2438 O 234.83 0.52294 -2.66416 0
M  V30 2439 C 233.286 -2.0475 -2.95982 0
M  V30 2440 C 232.894 -3.54295 -2.74187 0
M  V30 2441 C 234.638 -2.0097 -3.73914 0
M  V30 2442 C 232.545 -4.34081 -4.01656 0
M  V30 2443 H 231.475 -0.43452 -0.616205 0
M  V30 2444 H 234.126 -1.54229 -0.994268 0
M  V30 2445 H 232.508 -1.60452 -3.62038 0
M  V30 2446 H 233.682 -4.06662 -2.1671 0
M  V30 2447 H 231.997 -3.59773 -2.09648 0
M  V30 2448 H 234.594 -2.57838 -4.68427 0
M  V30 2449 H 234.937 -0.990273 -4.0435 0
M  V30 2450 H 235.47 -2.43325 -3.14703 0
M  V30 2451 H 232.209 -5.36671 -3.76384 0
M  V30 2452 H 231.729 -3.86483 -4.58684 0
M  V30 2453 H 233.408 -4.44877 -4.69781 0
M  V30 2454 N 233.54 1.10788 -1.12088 0
M  V30 2455 C 234.765 1.87002 -0.896949 0
M  V30 2456 C 235.19 1.79933 0.548261 0
M  V30 2457 O 234.548 1.16662 1.38779 0
M  V30 2458 C 234.596 3.3349 -1.37174 0
M  V30 2459 O 233.7 4.08745 -0.547831 0
M  V30 2460 H 233.041 0.580397 -0.322545 0
M  V30 2461 H 235.571 1.39996 -1.49206 0
M  V30 2462 H 235.581 3.84339 -1.36922 0
M  V30 2463 H 234.256 3.37951 -2.42408 0
M  V30 2464 H 232.833 3.6776 -0.617034 0
M  V30 2465 N 235.018 0.912232 1.28515 0
M  V30 2466 C 236.266 0.543523 1.94654 0
M  V30 2467 C 236.587 -0.9155 1.72173 0
M  V30 2468 O 235.857 -1.64708 1.06058 0
M  V30 2469 H 234.437 0.198017 0.720277 0
M  V30 2470 H 237.099 1.16126 1.56527 0
M  V30 2471 H 236.195 0.736684 3.03281 0
M  V30 2472 N 236.496 -1.42363 0.676048 0
M  V30 2473 C 237.742 -2.02336 0.207809 0
M  V30 2474 C 238.097 -1.52506 -1.17302 0
M  V30 2475 O 237.39 -0.718048 -1.77636 0
M  V30 2476 C 237.584 -3.56929 0.183431 0
M  V30 2477 C 237.413 -4.21762 1.56036 0
M  V30 2478 C 236.183 -4.56881 2.15842 0
M  V30 2479 C 238.381 -4.49267 2.50327 0
M  V30 2480 N 236.363 -5.069 3.46303 0
M  V30 2481 C 237.734 -5.00851 3.65443 0
M  V30 2482 C 239.789 -4.31257 2.48841 0
M  V30 2483 C 238.492 -5.36317 4.79329 0
M  V30 2484 C 240.518 -4.678 3.61824 0
M  V30 2485 C 239.88 -5.19537 4.75668 0
M  V30 2486 H 235.979 -0.772583 0.120993 0
M  V30 2487 H 238.563 -1.73203 0.889306 0
M  V30 2488 H 236.734 -3.85576 -0.467483 0
M  V30 2489 H 238.466 -4.03603 -0.297808 0
M  V30 2490 H 235.221 -4.4268 1.68319 0
M  V30 2491 H 235.645 -5.36338 4.13123 0
M  V30 2492 H 240.287 -3.90511 1.62051 0
M  V30 2493 H 238.005 -5.75995 5.66794 0
M  V30 2494 H 241.591 -4.55541 3.61903 0
M  V30 2495 H 240.471 -5.47287 5.61646 0
M  V30 2496 N 237.974 -0.419461 -1.51915 0
M  V30 2497 C 239.22 0.145505 -2.02879 0
M  V30 2498 C 239.575 1.41926 -1.29903 0
M  V30 2499 O 238.868 1.87383 -0.399782 0
M  V30 2500 C 239.062 0.437067 -3.54717 0
M  V30 2501 C 238.891 -0.806877 -4.42402 0
M  V30 2502 C 237.661 -1.33514 -4.87342 0
M  V30 2503 C 239.859 -1.68796 -4.85811 0
M  V30 2504 N 237.841 -2.53349 -5.59185 0
M  V30 2505 C 239.212 -2.73247 -5.56539 0
M  V30 2506 C 241.267 -1.70449 -4.67816 0
M  V30 2507 C 239.97 -3.79276 -6.11181 0
M  V30 2508 C 241.996 -2.75403 -5.23361 0
M  V30 2509 C 241.358 -3.78575 -5.9402 0
M  V30 2510 H 237.457 0.0145424 -0.781865 0
M  V30 2511 H 240.041 -0.576126 -1.85981 0
M  V30 2512 H 238.212 1.12774 -3.71667 0
M  V30 2513 H 239.944 0.99182 -3.92358 0
M  V30 2514 H 236.699 -0.891657 -4.65131 0
M  V30 2515 H 237.123 -3.14066 -5.99743 0
M  V30 2516 H 241.765 -0.920209 -4.12664 0
M  V30 2517 H 239.483 -4.58554 -6.65397 0
M  V30 2518 H 243.069 -2.77603 -5.113 0
M  V30 2519 H 241.949 -4.58453 -6.36231 0
M  V30 2520 N 239.452 1.56882 -0.150215 0
M  V30 2521 C 240.4 2.18214 0.805313 0
M  V30 2522 C 241.394 1.14006 1.25296 0
M  V30 2523 O 242.6 1.3225 1.22107 0
M  V30 2524 H 238.975 0.698762 0.277913 0
M  V30 2525 H 240.946 2.97231 0.263862 0
M  V30 2526 C 239.695 2.82065 2.03309 0
M  V30 2527 H 239.018 3.61968 1.69763 0
M  V30 2528 H 240.458 3.28477 2.68103 0
M  V30 2529 C 238.917 1.80739 2.84315 0
M  V30 2530 O 239.447 1.27983 3.80767 0
M  V30 2531 N 237.653 1.4997 2.48913 0
M  V30 2532 H 237.2 1.93062 1.70542 0
M  V30 2533 H 237.158 0.824217 3.03404 0
M  V30 2534 N 240.93 -0.123565 1.57115 0
M  V30 2535 C 242.158 -0.846461 1.88793 0
M  V30 2536 C 242.573 -1.73652 0.740976 0
M  V30 2537 O 241.93 -1.80207 -0.288393 0
M  V30 2538 C 241.981 -1.6837 3.19897 0
M  V30 2539 O 241.702 -0.829477 4.30176 0
M  V30 2540 C 243.203 -2.51214 3.65248 0
M  V30 2541 H 240.423 -0.243573 0.625231 0
M  V30 2542 H 242.967 -0.109324 2.04208 0
M  V30 2543 H 241.122 -2.37364 3.06165 0
M  V30 2544 H 241.536 -1.40651 5.0529 0
M  V30 2545 H 243.01 -3.05497 4.59756 0
M  V30 2546 H 243.487 -3.28359 2.9168 0
M  V30 2547 H 244.093 -1.8747 3.81752 0
M  V30 2548 N 242.408 -1.52605 -0.393616 0
M  V30 2549 C 243.656 -1.67093 -1.13685 0
M  V30 2550 C 243.977 -0.411011 -1.90619 0
M  V30 2551 O 243.247 0.574491 -1.87287 0
M  V30 2552 H 241.827 -0.615923 -0.422668 0
M  V30 2553 H 244.489 -1.89704 -0.447039 0
M  V30 2554 H 243.585 -2.51922 -1.84232 0
M  V30 2555 N 243.887 0.651787 -1.4349 0
M  V30 2556 C 244.85 1.74647 -1.48429 0
M  V30 2557 C 245.85 1.56513 -0.368817 0
M  V30 2558 O 247.04 1.62385 -0.630623 0
M  V30 2559 C 244.172 3.13533 -1.33827 0
M  V30 2560 H 245.365 1.71649 -2.4592 0
M  V30 2561 H 242.918 0.863573 -1.30277 0
M  V30 2562 H 243.653 3.22142 -0.37349 0
M  V30 2563 H 243.438 3.28101 -2.14691 0
M  V30 2564 H 244.928 3.93356 -1.40218 0
M  V30 2565 N 245.365 1.30045 0.890287 0
M  V30 2566 C 246.328 1.15963 1.977 0
M  V30 2567 C 247.328 0.0923777 1.60534 0
M  V30 2568 O 248.518 0.340071 1.70848 0
M  V30 2569 C 245.65 0.775451 3.31963 0
M  V30 2570 H 246.843 2.12502 2.11619 0
M  V30 2571 H 244.396 1.13366 1.07601 0
M  V30 2572 H 245.131 -0.189671 3.23745 0
M  V30 2573 H 244.916 1.54668 3.60306 0
M  V30 2574 H 246.406 0.700251 4.11687 0
M  V30 2575 N 246.843 -1.10192 1.12674 0
M  V30 2576 C 248.071 -1.85983 0.906527 0
M  V30 2577 C 248.486 -1.80783 -0.544333 0
M  V30 2578 O 247.843 -1.19834 -1.37645 0
M  V30 2579 C 247.894 -3.34281 1.37618 0
M  V30 2580 O 247.615 -3.39401 2.77017 0
M  V30 2581 C 249.116 -4.26938 1.19325 0
M  V30 2582 H 246.336 -0.587716 0.323775 0
M  V30 2583 H 248.88 -1.39284 1.49734 0
M  V30 2584 H 247.035 -3.78436 0.828539 0
M  V30 2585 H 247.449 -4.31838 2.97684 0
M  V30 2586 H 248.923 -5.29181 1.57071 0
M  V30 2587 H 249.4 -4.38995 0.134097 0
M  V30 2588 H 250.006 -3.8859 1.72852 0
M  V30 2589 N 248.321 -0.919034 -1.28029 0
M  V30 2590 C 249.231 -0.416756 -2.30869 0
M  V30 2591 C 250.247 0.498235 -1.66714 0
M  V30 2592 O 251.423 0.383144 -1.97722 0
M  V30 2593 C 248.488 0.330274 -3.45123 0
M  V30 2594 C 247.549 -0.618578 -4.2482 0
M  V30 2595 C 246.782 0.0928959 -5.33619 0
M  V30 2596 O 247.005 1.31375 -5.55065 0
M  V30 2597 O 245.939 -0.574499 -5.99152 0
M  V30 2598 H 249.765 -1.27043 -2.75851 0
M  V30 2599 H 247.35 -0.684052 -1.3282 0
M  V30 2600 H 249.232 0.751972 -4.14636 0
M  V30 2601 H 247.907 1.1597 -3.02213 0
M  V30 2602 H 246.814 -1.08978 -3.57875 0
M  V30 2603 H 248.147 -1.41497 -4.71423 0
M  V30 2604 N 249.799 1.42003 -0.683588 0
M  V30 2605 C 250.762 2.29191 -0.0198243 0
M  V30 2606 C 251.762 1.43773 0.72013 0
M  V30 2607 O 252.952 1.65061 0.556815 0
M  V30 2608 C 250.084 3.26435 0.982487 0
M  V30 2609 H 251.277 2.8938 -0.787345 0
M  V30 2610 H 248.83 1.49789 -0.446418 0
M  V30 2611 H 249.565 2.71203 1.77819 0
M  V30 2612 H 249.35 3.89449 0.455182 0
M  V30 2613 H 250.84 3.918 1.44508 0
M  V30 2614 N 251.277 0.427512 1.51691 0
M  V30 2615 C 252.554 -0.201684 1.94557 0
M  V30 2616 C 252.934 -1.60981 1.36559 0
M  V30 2617 O 252.282 -2.21814 0.548702 0
M  V30 2618 C 252.492 -0.189394 3.48486 0
M  V30 2619 C 253.84 -0.39978 4.22714 0
M  V30 2620 O 254.864 -0.267945 3.55191 0
M  V30 2621 O 253.723 -0.661249 5.42485 0
M  V30 2622 H 250.817 -0.135261 0.815864 0
M  V30 2623 H 253.363 0.484782 1.62628 0
M  V30 2624 H 252.135 0.795431 3.8313 0
M  V30 2625 H 251.758 -0.919187 3.86829 0
M  V30 2626 N 252.755 -1.56801 0.158532 0
M  V30 2627 C 254.003 -1.96102 -0.488712 0
M  V30 2628 C 254.324 -1.04498 -1.64636 0
M  V30 2629 O 253.594 -0.108783 -1.95598 0
M  V30 2630 H 252.174 -0.724102 -0.183535 0
M  V30 2631 H 254.836 -1.93457 0.236728 0
M  V30 2632 H 253.932 -3.00097 -0.857219 0
M  V30 2633 N 254.233 0.115231 -1.57178 0
M  V30 2634 C 255.458 0.840354 -1.89612 0
M  V30 2635 C 255.883 1.72464 -0.750845 0
M  V30 2636 O 255.241 1.78826 0.298478 0
M  V30 2637 C 255.289 1.64654 -3.20814 0
M  V30 2638 O 254.393 2.7538 -3.06985 0
M  V30 2639 H 253.734 0.232158 -0.622092 0
M  V30 2640 H 256.264 0.0964977 -2.04372 0
M  V30 2641 H 256.274 2.03499 -3.53627 0
M  V30 2642 H 254.949 0.997416 -4.03763 0
M  V30 2643 H 253.526 2.3971 -2.85646 0
M  V30 2644 N 255.711 1.52812 0.385517 0
M  V30 2645 C 257.122 1.5993 0.963293 0
M  V30 2646 C 257.473 0.454302 1.90868 0
M  V30 2647 O 256.598 -0.422132 2.12243 0
M  V30 2648 C 257.193 2.89871 1.75387 0
M  V30 2649 C 255.752 2.99389 2.28129 0
M  V30 2650 C 254.899 2.55071 1.08783 0
M  V30 2651 H 257.85 1.5784 0.164948 0
M  V30 2652 H 257.871 2.76553 2.61341 0
M  V30 2653 H 257.383 3.73186 1.06554 0
M  V30 2654 H 255.484 2.20619 3.00263 0
M  V30 2655 H 255.597 4.04096 2.57377 0
M  V30 2656 H 253.961 2.09473 1.4489 0
M  V30 2657 H 254.744 3.40785 0.414807 0
M  V30 2658 N 257.189 -0.644168 1.43834 0
M  V30 2659 C 258.137 -1.77793 1.49974 0
M  V30 2660 C 259.131 -1.65253 0.372536 0
M  V30 2661 O 260.337 -1.7149 0.546924 0
M  V30 2662 H 256.712 -0.58675 0.47035 0
M  V30 2663 H 258.683 -1.69736 2.45423 0
M  V30 2664 C 257.432 -3.16087 1.4486 0
M  V30 2665 H 256.755 -3.26378 2.30905 0
M  V30 2666 H 258.195 -3.95349 1.53217 0
M  V30 2667 C 256.654 -3.36484 0.167463 0
M  V30 2668 O 257.184 -3.94298 -0.767609 0
M  V30 2669 N 255.39 -2.90504 0.0747556 0
M  V30 2670 H 254.937 -2.4364 0.836507 0
M  V30 2671 H 254.895 -3.04527 -0.781714 0
M  V30 2672 N 258.668 -1.30515 -0.883378 0
M  V30 2673 C 260.084 -1.08881 -1.16692 0
M  V30 2674 C 260.284 0.149409 -2.00945 0
M  V30 2675 O 259.34 0.84257 -2.38027 0
M  V30 2676 C 260.653 -2.35319 -1.87204 0
M  V30 2677 C 262.201 -2.40799 -1.99962 0
M  V30 2678 C 262.676 -3.67083 -2.73887 0
M  V30 2679 N 264.167 -3.679 -2.81432 0
M  V30 2680 C 264.902 -4.62303 -3.3921 0
M  V30 2681 N 264.398 -5.67052 -3.98025 0
M  V30 2682 N 266.191 -4.49845 -3.3704 0
M  V30 2683 H 258.342 -2.09951 -0.321633 0
M  V30 2684 H 260.605 -0.92556 -0.205043 0
M  V30 2685 H 260.311 -3.25689 -1.3274 0
M  V30 2686 H 260.185 -2.44089 -2.87577 0
M  V30 2687 H 262.572 -1.50907 -2.53597 0
M  V30 2688 H 262.653 -2.36003 -0.98673 0
M  V30 2689 H 262.297 -4.57334 -2.20925 0
M  V30 2690 H 262.227 -3.69141 -3.75556 0
M  V30 2691 H 264.718 -2.92171 -2.39676 0
M  V30 2692 H 265.031 -6.35184 -4.40183 0
M  V30 2693 H 263.376 -5.70842 -3.96439 0
M  V30 2694 H 266.567 -3.67194 -2.90321 0
M  V30 2695 H 266.74 -5.23597 -3.81772 0
M  V30 2696 N 260.146 1.09593 -1.13257 0
M  V30 2697 C 261.394 1.81375 -0.891492 0
M  V30 2698 C 261.715 1.86049 0.584009 0
M  V30 2699 O 260.985 1.34481 1.42449 0
M  V30 2700 H 259.565 0.671708 -0.326828 0
M  V30 2701 H 262.227 1.3256 -1.42877 0
M  V30 2702 H 261.323 2.84612 -1.28071 0
M  V30 2703 N 261.624 0.925811 1.2754 0
M  V30 2704 C 262.854 0.580666 1.98272 0
M  V30 2705 C 263.262 -0.845207 1.69272 0
M  V30 2706 O 262.605 -1.57306 0.948707 0
M  V30 2707 C 262.667 0.724418 3.52126 0
M  V30 2708 C 262.331 2.12206 4.04744 0
M  V30 2709 C 263.328 3.09604 4.17662 0
M  V30 2710 C 261.013 2.4385 4.39138 0
M  V30 2711 C 263.007 4.36755 4.64246 0
M  V30 2712 C 260.694 3.71237 4.85414 0
M  V30 2713 C 261.692 4.67503 4.97926 0
M  V30 2714 O 261.38 5.92624 5.43187 0
M  V30 2715 H 261.112 0.218987 0.639547 0
M  V30 2716 H 263.666 1.24452 1.63404 0
M  V30 2717 H 261.896 0.0034663 3.867 0
M  V30 2718 H 263.585 0.384607 4.04074 0
M  V30 2719 H 264.351 2.86478 3.91351 0
M  V30 2720 H 260.23 1.69665 4.28643 0
M  V30 2721 H 263.774 5.11898 4.73927 0
M  V30 2722 H 259.671 3.94182 5.11166 0
M  V30 2723 H 260.439 5.95585 5.61445 0
M  V30 2724 N 263.102 -1.41638 0.69111 0
M  V30 2725 C 264.049 -2.30789 0.0229705 0
M  V30 2726 C 265.019 -1.46863 -0.775911 0
M  V30 2727 O 266.204 -1.75661 -0.74485 0
M  V30 2728 C 263.344 -3.32868 -0.910666 0
M  V30 2729 C 262.457 -4.31875 -0.103874 0
M  V30 2730 C 261.592 -5.21024 -1.03475 0
M  V30 2731 C 260.631 -6.11702 -0.220598 0
M  V30 2732 N 259.768 -6.93349 -1.10504 0
M  V30 2733 H 264.608 -2.87366 0.788978 0
M  V30 2734 H 262.145 -1.41535 0.400794 0
M  V30 2735 H 264.103 -3.90596 -1.46597 0
M  V30 2736 H 262.733 -2.77851 -1.64312 0
M  V30 2737 H 261.785 -3.76131 0.568285 0
M  V30 2738 H 263.097 -4.96003 0.527504 0
M  V30 2739 H 262.251 -5.83565 -1.65943 0
M  V30 2740 H 260.99 -4.57112 -1.69999 0
M  V30 2741 H 259.995 -5.48215 0.417187 0
M  V30 2742 H 261.22 -6.77668 0.440784 0
M  V30 2743 H 259.166 -6.3205 -1.75638 0
M  V30 2744 H 259.083 -7.54146 -0.529125 0
M  V30 2745 H 260.351 -7.60362 -1.71667 0
M  V30 2746 N 264.58 -0.43555 -1.51462 0
M  V30 2747 C 265.826 0.131709 -2.02372 0
M  V30 2748 C 266.159 1.42516 -1.3192 0
M  V30 2749 O 265.434 1.89606 -0.433573 0
M  V30 2750 C 265.717 0.352301 -3.58373 0
M  V30 2751 C 265.57 -0.959676 -4.39443 0
M  V30 2752 C 266.889 1.12286 -4.25535 0
M  V30 2753 H 264.008 0.0463936 -0.735538 0
M  V30 2754 H 266.65 -0.574197 -1.81116 0
M  V30 2755 H 264.8 0.9536 -3.76615 0
M  V30 2756 H 266.472 -1.59482 -4.32855 0
M  V30 2757 H 264.715 -1.56468 -4.04599 0
M  V30 2758 H 265.386 -0.759394 -5.46752 0
M  V30 2759 H 267.862 0.613545 -4.11552 0
M  V30 2760 H 266.738 1.24598 -5.34571 0
M  V30 2761 H 266.999 2.15048 -3.86273 0
M  V30 2762 N 266.058 1.56714 -0.166846 0
M  V30 2763 C 267.474 1.58473 0.189372 0
M  V30 2764 C 267.674 1.18201 1.63189 0
M  V30 2765 O 266.73 0.891528 2.36237 0
M  V30 2766 C 268.043 3.00573 -0.0873872 0
M  V30 2767 C 269.591 3.1299 -0.0252443 0
M  V30 2768 C 270.066 4.57174 -0.274934 0
M  V30 2769 N 271.557 4.62665 -0.222553 0
M  V30 2770 C 272.292 5.72072 -0.389985 0
M  V30 2771 N 271.788 6.90054 -0.616229 0
M  V30 2772 N 273.581 5.61153 -0.326202 0
M  V30 2773 H 265.732 1.8118 -1.10849 0
M  V30 2774 H 267.995 0.839525 -0.440342 0
M  V30 2775 H 267.701 3.34497 -1.0865 0
M  V30 2776 H 267.575 3.72019 0.623037 0
M  V30 2777 H 269.962 2.78895 0.96444 0
M  V30 2778 H 270.043 2.43989 -0.768309 0
M  V30 2779 H 269.687 4.91976 -1.26181 0
M  V30 2780 H 269.617 5.24328 0.48869 0
M  V30 2781 H 272.108 3.77863 -0.0531512 0
M  V30 2782 H 272.421 7.69311 -0.733559 0
M  V30 2783 H 270.766 6.91927 -0.652791 0
M  V30 2784 H 273.957 4.67859 -0.150072 0
M  V30 2785 H 274.13 6.46364 -0.460116 0
M  V30 2786 N 267.536 -0.106894 1.57237 0
M  V30 2787 C 268.486 -1.1366 1.9765 0
M  V30 2788 C 269.47 -1.36416 0.853203 0
M  V30 2789 O 270.662 -1.37305 1.11697 0
M  V30 2790 C 267.791 -2.46 2.39455 0
M  V30 2791 C 266.877 -2.26668 3.58445 0
M  V30 2792 N 267.268 -1.77176 4.73754 0
M  V30 2793 C 265.566 -2.57279 3.64312 0
M  V30 2794 C 266.267 -1.71836 5.5574 0
M  V30 2795 N 265.243 -2.16623 4.98573 0
M  V30 2796 H 269.045 -0.74669 2.84256 0
M  V30 2797 H 266.559 -0.314483 1.59326 0
M  V30 2798 H 268.556 -3.2049 2.6663 0
M  V30 2799 H 267.216 -2.85738 1.54219 0
M  V30 2800 H 268.227 -1.46545 4.96734 0
M  V30 2801 H 264.904 -3.00622 2.89711 0
M  V30 2802 H 266.294 -1.34723 6.58255 0
M  V30 2803 N 269.014 -1.53014 -0.377408 0
M  V30 2804 C 269.961 -1.78616 -1.46168 0
M  V30 2805 C 270.931 -0.629917 -1.53692 0
M  V30 2806 O 272.116 -0.870861 -1.69766 0
M  V30 2807 C 269.256 -1.97123 -2.8326 0
M  V30 2808 C 268.369 -3.24831 -2.84796 0
M  V30 2809 C 267.504 -3.33591 -4.13389 0
M  V30 2810 C 266.543 -4.55377 -4.09021 0
M  V30 2811 N 265.68 -4.61355 -5.29241 0
M  V30 2812 H 270.52 -2.71142 -1.23637 0
M  V30 2813 H 268.057 -1.34326 -0.599577 0
M  V30 2814 H 270.015 -2.05839 -3.62886 0
M  V30 2815 H 268.645 -1.07946 -3.04216 0
M  V30 2816 H 267.697 -3.25128 -1.97474 0
M  V30 2817 H 269.009 -4.14523 -2.77439 0
M  V30 2818 H 268.163 -3.41554 -5.01424 0
M  V30 2819 H 266.902 -2.41894 -4.23484 0
M  V30 2820 H 265.907 -4.47527 -3.19373 0
M  V30 2821 H 267.132 -5.48402 -4.00539 0
M  V30 2822 H 265.078 -3.72554 -5.39944 0
M  V30 2823 H 264.995 -5.44935 -5.24006 0
M  V30 2824 H 266.263 -4.73586 -6.19141 0
M  V30 2825 N 270.492 0.636531 -1.44174 0
M  V30 2826 C 271.74 1.39343 -1.46383 0
M  V30 2827 C 272.061 1.94766 -0.0955715 0
M  V30 2828 O 271.331 1.75452 0.871395 0
M  V30 2829 H 269.911 0.517199 -0.538994 0
M  V30 2830 H 272.573 0.74957 -1.7991 0
M  V30 2831 H 271.669 2.22746 -2.18611 0
M  V30 2832 N 271.97 1.30982 0.876444 0
M  V30 2833 C 273.218 1.20058 1.62575 0
M  V30 2834 C 273.539 -0.242947 1.93481 0
M  V30 2835 O 272.809 -1.1619 1.57724 0
M  V30 2836 H 271.389 0.44135 0.602677 0
M  V30 2837 H 274.051 1.64222 1.04962 0
M  V30 2838 H 273.147 1.76762 2.57219 0
M  V30 2839 N 273.449 -1.08991 1.13837 0
M  V30 2840 C 274.679 -1.84743 0.924859 0
M  V30 2841 C 275.087 -1.81629 -0.529874 0
M  V30 2842 O 274.43 -1.21397 -1.37872 0
M  V30 2843 C 274.492 -3.33568 1.34061 0
M  V30 2844 C 274.156 -3.60425 2.80968 0
M  V30 2845 C 275.153 -3.55771 3.79108 0
M  V30 2846 C 272.838 -3.88627 3.18236 0
M  V30 2847 C 274.832 -3.78939 5.12527 0
M  V30 2848 C 272.519 -4.11449 4.51833 0
M  V30 2849 C 273.517 -4.06598 5.48787 0
M  V30 2850 O 273.205 -4.28826 6.79973 0
M  V30 2851 H 272.937 -0.590258 0.329502 0
M  V30 2852 H 275.491 -1.38598 1.51591 0
M  V30 2853 H 273.721 -3.80442 0.692853 0
M  V30 2854 H 275.41 -3.90743 1.09886 0
M  V30 2855 H 276.176 -3.34005 3.51661 0
M  V30 2856 H 272.055 -3.91526 2.43369 0
M  V30 2857 H 275.599 -3.75068 5.88192 0
M  V30 2858 H 271.496 -4.32698 4.79002 0
M  V30 2859 H 272.264 -4.46264 6.86142 0
M  V30 2860 N 274.927 -0.932562 -1.27047 0
M  V30 2861 C 276.174 -0.575559 -1.94148 0
M  V30 2862 C 276.502 0.883984 -1.73251 0
M  V30 2863 O 275.757 1.64655 -1.0577 0
M  V30 2864 C 276.056 -0.853713 -3.47054 0
M  V30 2865 C 275.722 -2.29577 -3.88079 0
M  V30 2866 C 274.384 -2.68999 -3.9899 0
M  V30 2867 C 276.736 -3.23331 -4.08787 0
M  V30 2868 C 274.064 -4.01289 -4.28 0
M  V30 2869 C 276.416 -4.55207 -4.39282 0
M  V30 2870 C 275.08 -4.94457 -4.48407 0
M  V30 2871 H 274.35 -0.210612 -0.710439 0
M  V30 2872 H 276.997 -1.17744 -1.51025 0
M  V30 2873 H 275.302 -0.169204 -3.91434 0
M  V30 2874 H 276.999 -0.55639 -3.97121 0
M  V30 2875 H 273.589 -1.97994 -3.80127 0
M  V30 2876 H 277.773 -2.94074 -3.99793 0
M  V30 2877 H 273.029 -4.31374 -4.33275 0
M  V30 2878 H 277.203 -5.27852 -4.54252 0
M  V30 2879 H 274.83 -5.96994 -4.7064 0
M  V30 2880 N 276.405 1.4127 -0.698611 0
M  V30 2881 C 277.816 1.84187 -0.305289 0
M  V30 2882 C 278.167 1.58449 1.15708 0
M  V30 2883 O 277.292 1.05651 1.88856 0
M  V30 2884 C 277.887 3.3435 -0.547314 0
M  V30 2885 C 276.446 3.75826 -0.207878 0
M  V30 2886 C 275.593 2.64647 -0.828099 0
M  V30 2887 H 278.544 1.30778 -0.89904 0
M  V30 2888 H 278.565 3.8001 0.192998 0
M  V30 2889 H 278.077 3.53051 -1.61172 0
M  V30 2890 H 276.178 3.62725 0.852143 0
M  V30 2891 H 276.291 4.74462 -0.665021 0
M  V30 2892 H 274.655 2.53395 -0.257458 0
M  V30 2893 H 275.438 2.86165 -1.89643 0
M  V30 2894 N 277.883 0.443576 1.51229 0
M  V30 2895 C 279.129 -0.120975 2.02439 0
M  V30 2896 C 279.462 -1.41815 1.32674 0
M  V30 2897 O 278.737 -1.89373 0.443622 0
M  V30 2898 C 279.02 -0.333291 3.58554 0
M  V30 2899 C 278.873 0.982968 4.38928 0
M  V30 2900 C 280.192 -1.10028 4.26124 0
M  V30 2901 H 277.311 -0.0424923 0.735774 0
M  V30 2902 H 279.953 0.583794 1.80809 0
M  V30 2903 H 278.103 -0.933614 3.77115 0
M  V30 2904 H 279.775 1.61775 4.32003 0
M  V30 2905 H 278.018 1.58611 4.03763 0
M  V30 2906 H 278.689 0.788379 5.46341 0
M  V30 2907 H 281.165 -0.591711 4.11871 0
M  V30 2908 H 280.041 -1.21761 5.35225 0
M  V30 2909 H 280.302 -2.12996 3.87408 0
M  V30 2910 N 279.361 -1.56624 0.175154 0
M  V30 2911 C 280.324 -2.16934 -0.739738 0
M  V30 2912 C 281.324 -1.11842 -1.15533 0
M  V30 2913 O 282.514 -1.37335 -1.07167 0
M  V30 2914 C 279.646 -2.75531 -2.00738 0
M  V30 2915 H 280.839 -2.99131 -0.214639 0
M  V30 2916 H 278.392 -1.56123 -0.0744197 0
M  V30 2917 H 279.127 -1.97078 -2.57548 0
M  V30 2918 H 278.912 -3.52444 -1.71831 0
M  V30 2919 H 280.402 -3.21904 -2.66021 0
M  V30 2920 N 280.839 0.0985539 -1.57292 0
M  V30 2921 C 282.25 0.653457 -1.74891 0
M  V30 2922 C 282.601 1.7929 -0.796838 0
M  V30 2923 O 281.726 2.16385 0.0254886 0
M  V30 2924 C 282.321 1.19216 -3.17133 0
M  V30 2925 C 280.88 1.69316 -3.36168 0
M  V30 2926 C 280.027 0.601294 -2.70702 0
M  V30 2927 H 282.978 -0.127497 -1.58187 0
M  V30 2928 H 282.999 2.06154 -3.19814 0
M  V30 2929 H 282.511 0.362635 -3.86402 0
M  V30 2930 H 280.612 2.5468 -2.71972 0
M  V30 2931 H 280.725 1.78853 -4.44464 0
M  V30 2932 H 279.089 1.0399 -2.32504 0
M  V30 2933 H 279.872 -0.217592 -3.4261 0
M  V30 2934 N 282.317 1.53212 0.369288 0
M  V30 2935 C 283.265 1.80054 1.47253 0
M  V30 2936 C 284.259 0.669456 1.55611 0
M  V30 2937 O 285.465 0.852328 1.58541 0
M  V30 2938 H 281.84 0.570034 0.490475 0
M  V30 2939 H 283.811 2.72403 1.21817 0
M  V30 2940 C 282.56 2.00403 2.84137 0
M  V30 2941 H 281.883 2.86876 2.78464 0
M  V30 2942 H 283.323 2.23164 3.60519 0
M  V30 2943 C 281.782 0.782081 3.27697 0
M  V30 2944 O 282.312 -0.0310205 4.01688 0
M  V30 2945 N 280.518 0.606573 2.84199 0
M  V30 2946 H 280.065 1.26939 2.24152 0
M  V30 2947 H 280.023 -0.20962 3.137 0
M  V30 2948 N 283.795 -0.628877 1.44509 0
M  V30 2949 C 285.072 -1.38733 1.37886 0
M  V30 2950 C 285.452 -2.11065 0.0387008 0
M  V30 2951 O 284.8 -2.06476 -0.97878 0
M  V30 2952 C 285.01 -2.35188 2.57852 0
M  V30 2953 C 286.358 -2.9845 3.02014 0
M  V30 2954 O 287.382 -2.45513 2.58073 0
M  V30 2955 O 286.241 -3.94487 3.78209 0
M  V30 2956 H 283.335 -0.621015 0.54614 0
M  V30 2957 H 285.881 -0.653744 1.56602 0
M  V30 2958 H 284.653 -1.80855 3.46998 0
M  V30 2959 H 284.276 -3.1596 2.4136 0
M  V30 2960 N 285.273 -1.31445 -0.869486 0
M  V30 2961 C 286.205 -1.14955 -1.98287 0
M  V30 2962 C 287.218 -0.0885037 -1.62559 0
M  V30 2963 O 288.407 -0.336044 -1.75308 0
M  V30 2964 C 285.507 -0.734255 -3.3085 0
M  V30 2965 C 284.68 -1.88042 -3.94917 0
M  V30 2966 C 283.739 -1.4511 -5.05796 0
M  V30 2967 O 282.765 -2.16082 -5.2659 0
M  V30 2968 N 283.967 -0.338763 -5.79511 0
M  V30 2969 H 286.732 -2.10856 -2.12979 0
M  V30 2970 H 284.293 -1.23786 -1.04349 0
M  V30 2971 H 286.285 -0.42975 -4.02412 0
M  V30 2972 H 284.855 0.133158 -3.12316 0
M  V30 2973 H 284.075 -2.35222 -3.1633 0
M  V30 2974 H 285.363 -2.6481 -4.34457 0
M  V30 2975 H 284.761 0.252274 -5.65137 0
M  V30 2976 H 283.318 -0.0937925 -6.51733 0
M  V30 2977 N 286.751 1.08385 -1.14413 0
M  V30 2978 C 287.981 1.8425 -0.934644 0
M  V30 2979 C 288.389 1.81907 0.520234 0
M  V30 2980 O 287.732 1.22126 1.37226 0
M  V30 2981 C 287.794 3.32853 -1.35828 0
M  V30 2982 C 287.458 3.5893 -2.82875 0
M  V30 2983 C 288.455 3.53756 -3.80989 0
M  V30 2984 C 286.14 3.86934 -3.20293 0
M  V30 2985 C 288.134 3.76216 -5.14529 0
M  V30 2986 C 285.821 4.09047 -4.54008 0
M  V30 2987 C 286.819 4.03682 -5.50936 0
M  V30 2988 O 286.507 4.25214 -6.82238 0
M  V30 2989 H 286.239 0.588502 -0.332628 0
M  V30 2990 H 288.793 1.37792 -1.52324 0
M  V30 2991 H 287.023 3.8007 -0.713019 0
M  V30 2992 H 288.712 3.90154 -1.11957 0
M  V30 2993 H 289.478 3.32135 -3.53428 0
M  V30 2994 H 285.357 3.9023 -2.45442 0
M  V30 2995 H 288.901 3.71943 -5.90173 0
M  V30 2996 H 284.798 4.30151 -4.8129 0
M  V30 2997 H 285.566 4.42619 -6.88499 0
M  V30 2998 N 288.23 0.939286 1.26551 0
M  V30 2999 C 289.476 0.586715 1.94128 0
M  V30 3000 C 289.809 -0.8717 1.73537 0
M  V30 3001 O 289.084 -1.62339 1.07127 0
M  V30 3002 C 289.367 0.927497 3.4795 0
M  V30 3003 C 289.22 2.44052 3.77834 0
M  V30 3004 C 290.539 0.441569 4.37879 0
M  V30 3005 H 287.658 0.21463 0.705055 0
M  V30 3006 H 290.3 1.17316 1.49455 0
M  V30 3007 H 288.45 0.428431 3.8613 0
M  V30 3008 H 290.122 3.01216 3.4938 0
M  V30 3009 H 288.365 2.8848 3.23978 0
M  V30 3010 H 289.036 2.62947 4.85348 0
M  V30 3011 H 291.512 0.869448 4.06915 0
M  V30 3012 H 290.388 0.708856 5.44304 0
M  V30 3013 H 290.649 -0.658467 4.37169 0
M  V30 3014 N 289.708 -1.40897 0.706093 0
M  V30 3015 C 290.985 -1.94868 0.169099 0
M  V30 3016 C 291.365 -1.64485 -1.32318 0
M  V30 3017 O 290.713 -0.95744 -2.07474 0
M  V30 3018 C 290.923 -3.45798 0.471654 0
M  V30 3019 C 292.271 -4.22663 0.405127 0
M  V30 3020 O 293.295 -3.53865 0.407168 0
M  V30 3021 O 292.154 -5.45216 0.374383 0
M  V30 3022 H 289.248 -0.82673 0.0211352 0
M  V30 3023 H 291.794 -1.50558 0.782976 0
M  V30 3024 H 290.566 -3.61235 1.50416 0
M  V30 3025 H 290.189 -3.97225 -0.172666 0
M  V30 3026 N 291.186 -0.45159 -1.50991 0
M  V30 3027 C 292.116 0.342898 -2.30969 0
M  V30 3028 C 293.097 1.00815 -1.37005 0
M  V30 3029 O 294.282 1.00907 -1.65926 0
M  V30 3030 C 291.412 1.43637 -3.16205 0
M  V30 3031 C 290.366 0.893818 -4.18563 0
M  V30 3032 C 289.692 2.08411 -4.92411 0
M  V30 3033 C 290.992 -0.0815568 -5.22236 0
M  V30 3034 H 292.686 -0.324556 -2.97636 0
M  V30 3035 H 290.232 -0.157531 -1.43136 0
M  V30 3036 H 292.185 1.9995 -3.70942 0
M  V30 3037 H 290.909 2.13232 -2.47386 0
M  V30 3038 H 289.568 0.352798 -3.64898 0
M  V30 3039 H 289.216 2.76658 -4.20082 0
M  V30 3040 H 288.916 1.72741 -5.61636 0
M  V30 3041 H 290.44 2.65251 -5.49976 0
M  V30 3042 H 291.854 0.391742 -5.7196 0
M  V30 3043 H 290.251 -0.351551 -5.99069 0
M  V30 3044 H 291.321 -1.01374 -4.74185 0
M  V30 3045 N 292.664 1.56529 -0.183458 0
M  V30 3046 C 294.08 1.58664 0.172554 0
M  V30 3047 C 294.28 1.19925 1.61926 0
M  V30 3048 O 293.336 0.916534 2.35278 0
M  V30 3049 C 294.649 3.00463 -0.119262 0
M  V30 3050 C 296.197 3.12945 -0.0584396 0
M  V30 3051 C 296.672 4.56857 -0.323408 0
M  V30 3052 N 298.163 4.62403 -0.271612 0
M  V30 3053 C 298.898 5.71626 -0.450639 0
M  V30 3054 N 298.394 6.89362 -0.689384 0
M  V30 3055 N 300.187 5.60775 -0.385701 0
M  V30 3056 H 292.338 1.79994 -1.12765 0
M  V30 3057 H 294.601 0.834808 -0.449222 0
M  V30 3058 H 294.307 3.33326 -1.12192 0
M  V30 3059 H 294.181 3.72659 0.583544 0
M  V30 3060 H 296.568 2.79902 0.934805 0
M  V30 3061 H 296.649 2.4316 -0.794144 0
M  V30 3062 H 296.293 4.9061 -1.31392 0
M  V30 3063 H 296.223 5.24816 0.43305 0
M  V30 3064 H 298.714 3.77785 -0.0932256 0
M  V30 3065 H 299.027 7.68489 -0.815113 0
M  V30 3066 H 297.372 6.91196 -0.726142 0
M  V30 3067 H 300.563 4.67674 -0.199687 0
M  V30 3068 H 300.736 6.4584 -0.528646 0
M  V30 3069 N 294.142 -0.090211 1.57342 0
M  V30 3070 C 295.419 -0.824761 1.77361 0
M  V30 3071 C 295.799 -1.96698 0.76637 0
M  V30 3072 O 295.147 -2.27586 -0.204179 0
M  V30 3073 C 295.357 -1.31481 3.23286 0
M  V30 3074 C 296.705 -1.75563 3.86604 0
M  V30 3075 O 297.729 -1.41093 3.27065 0
M  V30 3076 O 296.588 -2.39317 4.91314 0
M  V30 3077 H 293.682 -0.393776 0.727234 0
M  V30 3078 H 296.228 -0.0717138 1.69548 0
M  V30 3079 H 295 -0.496671 3.88135 0
M  V30 3080 H 294.623 -2.12973 3.35751 0
M  V30 3081 N 295.62 -1.53406 -0.361157 0
M  V30 3082 C 296.567 -1.80156 -1.44265 0
M  V30 3083 C 297.537 -0.646183 -1.53015 0
M  V30 3084 O 298.722 -0.888818 -1.68833 0
M  V30 3085 C 295.862 -2.00116 -2.81154 0
M  V30 3086 C 294.975 -3.27833 -2.81335 0
M  V30 3087 C 294.11 -3.37957 -4.09828 0
M  V30 3088 C 293.149 -4.59689 -4.04168 0
M  V30 3089 N 292.286 -4.66942 -5.24318 0
M  V30 3090 H 297.126 -2.72438 -1.20754 0
M  V30 3091 H 294.663 -1.34954 -0.585296 0
M  V30 3092 H 296.621 -2.09677 -3.60682 0
M  V30 3093 H 295.251 -1.11167 -3.03054 0
M  V30 3094 H 294.303 -3.27204 -1.94014 0
M  V30 3095 H 295.615 -4.17442 -2.73027 0
M  V30 3096 H 294.769 -3.46853 -4.97773 0
M  V30 3097 H 293.508 -2.46372 -4.20894 0
M  V30 3098 H 292.513 -4.50889 -3.14609 0
M  V30 3099 H 293.738 -5.5262 -3.947 0
M  V30 3100 H 291.684 -3.7826 -5.35962 0
M  V30 3101 H 291.601 -5.50462 -5.18197 0
M  V30 3102 H 292.869 -4.80127 -6.14084 0
M  V30 3103 N 297.098 0.621204 -1.44841 0
M  V30 3104 C 298.031 1.7459 -1.46947 0
M  V30 3105 C 299.009 1.59273 -0.327238 0
M  V30 3106 O 300.193 1.81021 -0.525706 0
M  V30 3107 C 297.32 3.12274 -1.31159 0
M  V30 3108 C 296.366 3.46216 -2.49072 0
M  V30 3109 S 297.199 3.4258 -4.11581 0
M  V30 3110 C 298.355 4.82867 -3.98233 0
M  V30 3111 H 298.588 1.72538 -2.42111 0
M  V30 3112 H 296.121 0.796683 -1.32259 0
M  V30 3113 H 298.079 3.91722 -1.22737 0
M  V30 3114 H 296.74 3.11855 -0.374885 0
M  V30 3115 H 295.933 4.4643 -2.33915 0
M  V30 3116 H 295.535 2.74253 -2.54286 0
M  V30 3117 H 297.827 5.7234 -3.62537 0
M  V30 3118 H 298.77 5.0308 -4.98313 0
M  V30 3119 H 299.178 4.57908 -3.30121 0
M  V30 3120 N 298.576 1.31904 0.862503 0
M  V30 3121 C 299.506 1.22782 1.98612 0
M  V30 3122 C 300.487 0.113362 1.69722 0
M  V30 3123 O 301.672 0.299218 1.91881 0
M  V30 3124 C 298.802 0.942058 3.34279 0
M  V30 3125 C 297.756 2.0169 3.77499 0
M  V30 3126 C 297.082 1.58369 5.10709 0
M  V30 3127 C 298.382 3.43096 3.93805 0
M  V30 3128 H 300.076 2.16788 2.06502 0
M  V30 3129 H 297.622 1.04366 0.992154 0
M  V30 3130 H 299.575 0.864818 4.1243 0
M  V30 3131 H 298.299 -0.0336603 3.26583 0
M  V30 3132 H 296.958 2.08416 3.01593 0
M  V30 3133 H 296.606 0.595628 4.99461 0
M  V30 3134 H 296.306 2.30279 5.40597 0
M  V30 3135 H 297.83 1.52067 5.91361 0
M  V30 3136 H 299.244 3.39003 4.62331 0
M  V30 3137 H 297.641 4.13288 4.35101 0
M  V30 3138 H 298.711 3.83334 2.96957 0
M  V30 3139 N 300.054 -1.07777 1.14986 0
M  V30 3140 C 301.282 -1.84018 0.945773 0
M  V30 3141 C 301.697 -1.81897 -0.505863 0
M  V30 3142 O 301.054 -1.22726 -1.35072 0
M  V30 3143 C 301.105 -3.31287 1.44677 0
M  V30 3144 O 300.826 -3.33449 2.84154 0
M  V30 3145 C 302.327 -4.24311 1.28355 0
M  V30 3146 H 299.547 -0.580716 0.336169 0
M  V30 3147 H 302.091 -1.36077 1.52654 0
M  V30 3148 H 300.246 -3.76594 0.908625 0
M  V30 3149 H 300.66 -4.25427 3.06777 0
M  V30 3150 H 302.134 -5.2573 1.68261 0
M  V30 3151 H 302.611 -4.38612 0.227184 0
M  V30 3152 H 303.217 -3.84836 1.81056 0
M  V30 3153 N 301.532 -0.945985 -1.26051 0
M  V30 3154 C 302.48 -0.450259 -2.282 0
M  V30 3155 C 303.474 0.47497 -1.62605 0
M  V30 3156 O 304.68 0.352653 -1.76512 0
M  V30 3157 H 301.055 -0.127081 -0.741184 0
M  V30 3158 H 303.026 -1.32422 -2.67408 0
M  V30 3159 C 301.775 0.26467 -3.46691 0
M  V30 3160 H 301.098 -0.438123 -3.97392 0
M  V30 3161 H 302.538 0.575678 -4.20074 0
M  V30 3162 C 300.997 1.48416 -3.02447 0
M  V30 3163 O 301.527 2.58227 -3.07704 0
M  V30 3164 N 299.733 1.34243 -2.57735 0
M  V30 3165 H 299.28 0.448994 -2.53657 0
M  V30 3166 H 299.238 2.15957 -2.28495 0
M  V30 3167 N 303.011 1.40521 -0.713556 0
M  V30 3168 C 303.941 2.33381 -0.0743864 0
M  V30 3169 C 304.922 1.52784 0.747735 0
M  V30 3170 O 306.107 1.81258 0.697071 0
M  V30 3171 C 303.237 3.36748 0.849598 0
M  V30 3172 C 302.191 4.27793 0.133247 0
M  V30 3173 C 301.517 5.21679 1.17281 0
M  V30 3174 C 302.817 5.12415 -1.01134 0
M  V30 3175 H 304.511 2.87081 -0.850007 0
M  V30 3176 H 302.057 1.38034 -0.410201 0
M  V30 3177 H 304.01 4.00648 1.30612 0
M  V30 3178 H 302.734 2.81439 1.65709 0
M  V30 3179 H 301.393 3.65342 -0.303426 0
M  V30 3180 H 301.041 4.62677 1.9733 0
M  V30 3181 H 300.741 5.83435 0.698397 0
M  V30 3182 H 302.265 5.88456 1.62947 0
M  V30 3183 H 303.679 5.69781 -0.634274 0
M  V30 3184 H 302.076 5.83203 -1.41399 0
M  V30 3185 H 303.146 4.48514 -1.84292 0
M  V30 3186 N 304.489 0.459591 1.5075 0
M  V30 3187 C 305.738 -0.100971 2.01447 0
M  V30 3188 C 306.051 -1.41816 1.34713 0
M  V30 3189 O 307.257 -2.06299 1.76502 0
M  V30 3190 C 305.713 -0.23047 3.59161 0
M  V30 3191 C 305.321 1.0776 4.34847 0
M  V30 3192 C 307.065 -0.743608 4.17936 0
M  V30 3193 C 304.972 0.91253 5.84317 0
M  V30 3194 H 303.902 -0.0415102 0.752856 0
M  V30 3195 H 306.553 0.592742 1.73663 0
M  V30 3196 H 304.935 -0.987703 3.83485 0
M  V30 3197 H 306.109 1.8449 4.22256 0
M  V30 3198 H 304.424 1.52097 3.87628 0
M  V30 3199 H 307.021 -0.883959 5.27343 0
M  V30 3200 H 307.364 -1.73196 3.78562 0
M  V30 3201 H 307.897 -0.04408 3.97776 0
M  V30 3202 H 304.636 1.87391 6.28144 0
M  V30 3203 H 304.156 0.185422 5.99513 0
M  V30 3204 H 305.835 0.574547 6.44444 0
M  V30 3205 N 305.967 -1.56429 0.191757 0
M  V30 3206 C 306.915 -2.20273 -0.747174 0
M  V30 3207 C 307.909 -1.17288 -1.22229 0
M  V30 3208 O 309.115 -1.35441 -1.18557 0
M  V30 3209 H 305.49 -0.705885 -0.259289 0
M  V30 3210 H 307.461 -2.97826 -0.184963 0
M  V30 3211 C 306.21 -2.87356 -1.95759 0
M  V30 3212 H 305.533 -3.66341 -1.60106 0
M  V30 3213 H 306.973 -3.3547 -2.59299 0
M  V30 3214 C 305.432 -1.88213 -2.79423 0
M  V30 3215 O 305.962 -1.38033 -3.7724 0
M  V30 3216 N 304.168 -1.56516 -2.44849 0
M  V30 3217 H 303.715 -1.97516 -1.65364 0
M  V30 3218 H 303.673 -0.904369 -3.01112 0
M  V30 3219 N 307.445 0.0818655 -1.57387 0
M  V30 3220 C 308.67 0.799946 -1.91352 0
M  V30 3221 C 309.095 1.70833 -0.787258 0
M  V30 3222 O 308.453 1.79419 0.26048 0
M  V30 3223 C 308.501 1.57812 -3.24234 0
M  V30 3224 O 307.605 2.68806 -3.12757 0
M  V30 3225 H 306.946 0.21891 -0.626877 0
M  V30 3226 H 309.476 0.0531256 -2.04531 0
M  V30 3227 H 309.486 1.95952 -3.57864 0
M  V30 3228 H 308.161 0.911548 -4.05788 0
M  V30 3229 H 306.738 2.33597 -2.90666 0
M  V30 3230 N 308.923 1.53595 0.353017 0
M  V30 3231 C 310.171 1.70049 1.09215 0
M  V30 3232 C 310.492 0.461406 1.89463 0
M  V30 3233 O 309.762 -0.524633 1.88744 0
M  V30 3234 H 308.342 0.626912 0.40619 0
M  V30 3235 H 311.004 1.90822 0.396585 0
M  V30 3236 H 310.1 2.56718 1.77488 0
M  V30 3237 N 310.401 -0.613514 1.45168 0
M  V30 3238 C 311.648 -1.37268 1.48875 0
M  V30 3239 C 311.976 -1.94077 0.128161 0
M  V30 3240 O 311.231 -1.75178 -0.872416 0
M  V30 3241 C 311.53 -2.54347 2.51083 0
M  V30 3242 C 311.196 -2.1572 3.95949 0
M  V30 3243 C 309.858 -2.04899 4.35396 0
M  V30 3244 C 312.21 -1.85485 4.87078 0
M  V30 3245 C 309.538 -1.62057 5.63875 0
M  V30 3246 C 311.89 -1.4413 6.15962 0
M  V30 3247 C 310.554 -1.31863 6.54346 0
M  V30 3248 H 309.824 -0.502299 0.544773 0
M  V30 3249 H 312.471 -0.694021 1.78481 0
M  V30 3250 H 310.776 -3.27524 2.15024 0
M  V30 3251 H 312.473 -3.12577 2.51191 0
M  V30 3252 H 309.063 -2.25066 3.64751 0
M  V30 3253 H 313.247 -1.92745 4.57343 0
M  V30 3254 H 308.503 -1.51177 5.92415 0
M  V30 3255 H 312.677 -1.19778 6.86022 0
M  V30 3256 H 310.304 -0.984392 7.538 0
M  V30 3257 N 311.879 -1.3236 -0.855495 0
M  V30 3258 C 313.128 -1.22226 -1.60448 0
M  V30 3259 C 313.441 0.214733 -1.94418 0
M  V30 3260 O 314.647 0.437917 -2.67945 0
M  V30 3261 C 313.103 -2.14063 -2.89318 0
M  V30 3262 C 312.711 -3.62839 -2.62777 0
M  V30 3263 C 314.455 -2.12764 -3.67331 0
M  V30 3264 C 312.362 -4.4664 -3.87643 0
M  V30 3265 H 311.292 -0.453904 -0.602069 0
M  V30 3266 H 313.943 -1.57314 -0.944698 0
M  V30 3267 H 312.325 -1.71889 -3.5675 0
M  V30 3268 H 313.499 -4.1335 -2.03662 0
M  V30 3269 H 311.814 -3.66261 -1.98096 0
M  V30 3270 H 314.411 -2.72611 -4.59987 0
M  V30 3271 H 314.754 -1.11841 -4.00995 0
M  V30 3272 H 315.287 -2.53214 -3.06802 0
M  V30 3273 H 312.026 -5.48373 -3.5912 0
M  V30 3274 H 311.546 -4.0088 -4.46156 0
M  V30 3275 H 313.225 -4.59597 -4.55389 0
M  V30 3276 N 313.357 1.07166 -1.15556 0
M  V30 3277 C 314.287 2.16403 -0.877046 0
M  V30 3278 C 315.268 1.69217 0.173111 0
M  V30 3279 O 316.453 1.94181 0.027084 0
M  V30 3280 C 313.583 3.45349 -0.367632 0
M  V30 3281 C 312.537 4.05995 -1.35468 0
M  V30 3282 C 311.863 5.30045 -0.704038 0
M  V30 3283 C 313.163 4.45804 -2.72132 0
M  V30 3284 H 314.857 2.39959 -1.79053 0
M  V30 3285 H 312.403 1.15325 -0.862331 0
M  V30 3286 H 314.356 4.21095 -0.160317 0
M  V30 3287 H 313.08 3.21385 0.581326 0
M  V30 3288 H 311.739 3.32296 -1.54839 0
M  V30 3289 H 311.387 5.02373 0.251128 0
M  V30 3290 H 311.087 5.71579 -1.36277 0
M  V30 3291 H 312.611 6.08495 -0.50654 0
M  V30 3292 H 314.025 5.12671 -2.56595 0
M  V30 3293 H 312.422 4.98296 -3.34397 0
M  V30 3294 H 313.492 3.57083 -3.28054 0
M  V30 3295 N 314.835 0.952656 1.25548 0
M  V30 3296 C 315.745 0.47782 2.29682 0
M  V30 3297 C 316.761 -0.453859 1.67977 0
M  V30 3298 O 317.937 -0.330587 1.98668 0
M  V30 3299 C 315.002 -0.238655 3.45878 0
M  V30 3300 C 314.063 0.730994 4.23031 0
M  V30 3301 C 313.296 0.0486165 5.33678 0
M  V30 3302 O 313.519 -1.16612 5.58353 0
M  V30 3303 O 312.453 0.733152 5.97418 0
M  V30 3304 H 316.279 1.34312 2.72386 0
M  V30 3305 H 313.864 0.719026 1.30959 0
M  V30 3306 H 315.746 -0.641774 4.16484 0
M  V30 3307 H 314.421 -1.07916 3.05181 0
M  V30 3308 H 313.328 1.18428 3.5486 0
M  V30 3309 H 314.661 1.53946 4.67506 0
M  V30 3310 N 316.313 -1.40141 0.720998 0
M  V30 3311 C 317.26 -2.30688 0.071919 0
M  V30 3312 C 318.23 -1.48476 -0.744584 0
M  V30 3313 O 319.415 -1.77201 -0.707423 0
M  V30 3314 C 316.555 -3.34724 -0.839855 0
M  V30 3315 C 315.668 -4.31998 -0.0122438 0
M  V30 3316 C 314.803 -5.23102 -0.923995 0
M  V30 3317 C 313.842 -6.12033 -0.0907969 0
M  V30 3318 N 312.979 -6.95537 -0.957718 0
M  V30 3319 H 317.819 -2.85628 0.849755 0
M  V30 3320 H 315.356 -1.40653 0.430726 0
M  V30 3321 H 317.314 -3.93618 -1.38279 0
M  V30 3322 H 315.944 -2.81274 -1.58381 0
M  V30 3323 H 314.996 -3.74841 0.64794 0
M  V30 3324 H 316.308 -4.94772 0.632595 0
M  V30 3325 H 315.462 -5.86953 -1.53527 0
M  V30 3326 H 314.201 -4.60615 -1.60264 0
M  V30 3327 H 313.206 -5.47207 0.533377 0
M  V30 3328 H 314.431 -6.76581 0.584428 0
M  V30 3329 H 312.377 -6.35633 -1.62192 0
M  V30 3330 H 312.294 -7.55099 -0.36904 0
M  V30 3331 H 313.562 -7.63832 -1.555 0
M  V30 3332 N 317.792 -0.46758 -1.50504 0
M  V30 3333 C 319.04 0.0884469 -2.01906 0
M  V30 3334 C 319.361 1.40532 -1.35188 0
M  V30 3335 O 318.631 1.89515 -0.496079 0
M  V30 3336 H 317.211 0.0356765 -0.746148 0
M  V30 3337 H 319.873 -0.6172 -1.84869 0
M  V30 3338 H 318.969 0.2425 -3.11156 0
M  V30 3339 N 319.27 1.56325 -0.20005 0
M  V30 3340 C 320.22 2.15939 0.731743 0
M  V30 3341 C 321.204 1.10154 1.17281 0
M  V30 3342 O 322.396 1.36203 1.13038 0
M  V30 3343 C 319.525 2.82614 1.94895 0
M  V30 3344 C 318.611 3.95596 1.52855 0
M  V30 3345 N 319.002 4.99118 0.819418 0
M  V30 3346 C 317.3 4.07288 1.81748 0
M  V30 3347 C 318.001 5.78513 0.608053 0
M  V30 3348 N 316.977 5.31117 1.15828 0
M  V30 3349 H 320.779 2.9334 0.181285 0
M  V30 3350 H 318.293 1.624 -0.000452172 0
M  V30 3351 H 320.29 3.23718 2.62702 0
M  V30 3352 H 318.95 2.06702 2.50408 0
M  V30 3353 H 319.961 5.15723 0.47436 0
M  V30 3354 H 316.638 3.42509 2.38734 0
M  V30 3355 H 318.028 6.71885 0.0451619 0
M  V30 3356 N 320.748 -0.0735177 1.57428 0
M  V30 3357 C 321.698 -1.09442 2.00016 0
M  V30 3358 C 322.682 -1.34575 0.881947 0
M  V30 3359 O 323.874 -1.34905 1.14585 0
M  V30 3360 C 321.003 -2.40865 2.4462 0
M  V30 3361 C 320.089 -2.19014 3.63172 0
M  V30 3362 N 320.48 -1.67087 4.77405 0
M  V30 3363 C 318.778 -2.49494 3.69688 0
M  V30 3364 C 319.479 -1.6001 5.5926 0
M  V30 3365 N 318.455 -2.05999 5.03056 0
M  V30 3366 H 322.257 -0.686227 2.85776 0
M  V30 3367 H 319.771 -0.280617 1.59957 0
M  V30 3368 H 321.768 -3.14763 2.73368 0
M  V30 3369 H 320.428 -2.82403 1.60246 0
M  V30 3370 H 321.439 -1.35975 4.99731 0
M  V30 3371 H 318.116 -2.94409 2.96023 0
M  V30 3372 H 319.506 -1.2073 6.60964 0
M  V30 3373 N 322.226 -1.5378 -0.344866 0
M  V30 3374 C 323.136 -1.84667 -1.4469 0
M  V30 3375 C 324.152 -0.736704 -1.57635 0
M  V30 3376 O 325.328 -1.02888 -1.73136 0
M  V30 3377 C 322.393 -2.04869 -2.79696 0
M  V30 3378 C 321.454 -3.28731 -2.76106 0
M  V30 3379 C 320.687 -3.4796 -4.04673 0
M  V30 3380 O 320.91 -2.71052 -5.01883 0
M  V30 3381 O 319.844 -4.41383 -4.09224 0
M  V30 3382 H 323.67 -2.78334 -1.21506 0
M  V30 3383 H 321.255 -1.39418 -0.536921 0
M  V30 3384 H 323.137 -2.19609 -3.59652 0
M  V30 3385 H 321.812 -1.14391 -3.02814 0
M  V30 3386 H 320.719 -3.19396 -1.94774 0
M  V30 3387 H 322.052 -4.19198 -2.57941 0
M  V30 3388 N 323.704 0.605807 -1.45491 0
M  V30 3389 C 324.95 1.36679 -1.49823 0
M  V30 3390 C 325.283 1.93693 -0.140175 0
M  V30 3391 O 324.558 1.75158 0.845581 0
M  V30 3392 C 324.841 2.51337 -2.57879 0
M  V30 3393 C 324.694 1.99508 -4.03134 0
M  V30 3394 C 326.013 3.53463 -2.62205 0
M  V30 3395 H 323.132 0.495617 -0.545466 0
M  V30 3396 H 325.774 0.682732 -1.7731 0
M  V30 3397 H 323.924 3.09691 -2.34571 0
M  V30 3398 H 325.596 1.45789 -4.37656 0
M  V30 3399 H 323.839 1.30496 -4.13707 0
M  V30 3400 H 324.51 2.82169 -4.74431 0
M  V30 3401 H 326.986 3.04953 -2.83095 0
M  V30 3402 H 325.862 4.31178 -3.39672 0
M  V30 3403 H 326.123 4.09197 -1.67363 0
M  V30 3404 N 325.182 1.32811 0.848464 0
M  V30 3405 C 326.43 1.23479 1.59991 0
M  V30 3406 C 326.751 -0.201853 1.93952 0
M  V30 3407 O 326.021 -1.12818 1.60153 0
M  V30 3408 H 324.601 0.454034 0.593179 0
M  V30 3409 H 327.263 1.66412 1.01455 0
M  V30 3410 H 326.359 1.82178 2.53412 0
M  V30 3411 N 326.66 -1.06551 1.16123 0
M  V30 3412 C 327.885 -1.83544 0.965735 0
M  V30 3413 C 328.31 -1.81843 -0.481102 0
M  V30 3414 O 327.668 -1.21732 -1.34354 0
M  V30 3415 C 327.716 -3.28169 1.49457 0
M  V30 3416 O 326.82 -4.0643 0.699157 0
M  V30 3417 H 326.161 -0.568026 0.343864 0
M  V30 3418 H 328.691 -1.34362 1.54299 0
M  V30 3419 H 328.701 -3.78992 1.51092 0
M  V30 3420 H 327.376 -3.28722 2.54784 0
M  V30 3421 H 325.953 -3.65216 0.7531 0
M  V30 3422 N 328.138 -0.959301 -1.25041 0
M  V30 3423 C 329.386 -0.615393 -1.92503 0
M  V30 3424 C 329.707 0.850969 -1.75452 0
M  V30 3425 O 328.977 1.60658 -1.12098 0
M  V30 3426 H 327.557 -0.224613 -0.712431 0
M  V30 3427 H 330.219 -1.21855 -1.5211 0
M  V30 3428 H 329.315 -0.848738 -3.00338 0
M  V30 3429 N 329.616 1.39756 -0.72842 0
M  V30 3430 C 330.864 2.00248 -0.272946 0
M  V30 3431 C 331.185 1.58077 1.14178 0
M  V30 3432 O 330.455 0.826014 1.77634 0
M  V30 3433 H 329.035 0.740554 -0.0979247 0
M  V30 3434 H 331.697 1.70903 -0.936912 0
M  V30 3435 H 330.793 3.10495 -0.316142 0
M  V30 3436 N 331.094 0.475555 1.50254 0
M  V30 3437 C 332.026 -0.352649 2.26471 0
M  V30 3438 C 333.039 -0.953165 1.3198 0
M  V30 3439 O 334.228 -0.840815 1.57457 0
M  V30 3440 C 331.328 -1.50902 3.0345 0
M  V30 3441 C 330.501 -1.02047 4.25329 0
M  V30 3442 C 329.56 -2.05142 4.84565 0
M  V30 3443 O 328.586 -1.63023 5.45355 0
M  V30 3444 N 329.788 -3.37987 4.71959 0
M  V30 3445 H 332.553 0.300767 2.98187 0
M  V30 3446 H 330.114 0.306598 1.5897 0
M  V30 3447 H 332.106 -2.19572 3.39956 0
M  V30 3448 H 330.676 -2.06705 2.34504 0
M  V30 3449 H 329.896 -0.159507 3.93877 0
M  V30 3450 H 331.184 -0.672061 5.04342 0
M  V30 3451 H 330.582 -3.74913 4.23623 0
M  V30 3452 H 329.139 -4.02443 5.12721 0
M  V30 3453 N 332.573 -1.56217 0.208337 0
M  V30 3454 C 333.536 -2.18455 -0.693557 0
M  V30 3455 C 334.536 -1.14268 -1.13135 0
M  V30 3456 O 335.726 -1.39577 -1.0423 0
M  V30 3457 C 332.858 -2.79727 -1.94848 0
M  V30 3458 H 334.051 -2.99519 -0.15114 0
M  V30 3459 H 331.604 -1.56245 -0.041287 0
M  V30 3460 H 332.339 -2.02497 -2.53309 0
M  V30 3461 H 332.124 -3.56009 -1.64316 0
M  V30 3462 H 333.614 -3.27475 -2.59133 0
M  V30 3463 N 334.051 0.0651679 -1.57465 0
M  V30 3464 C 334.961 1.09448 -2.07505 0
M  V30 3465 C 335.977 1.41974 -1.00595 0
M  V30 3466 O 337.153 1.52018 -1.32107 0
M  V30 3467 C 334.218 2.38689 -2.51453 0
M  V30 3468 C 333.279 2.13073 -3.72691 0
M  V30 3469 C 332.512 3.36152 -4.14533 0
M  V30 3470 O 332.735 4.45517 -3.56189 0
M  V30 3471 O 331.669 3.23974 -5.07272 0
M  V30 3472 H 335.495 0.69935 -2.95538 0
M  V30 3473 H 333.08 0.279752 -1.46757 0
M  V30 3474 H 334.962 3.14736 -2.80212 0
M  V30 3475 H 333.637 2.77568 -1.66546 0
M  V30 3476 H 332.544 1.34709 -3.49005 0
M  V30 3477 H 333.877 1.79071 -4.5847 0
M  V30 3478 N 335.529 1.53961 0.336706 0
M  V30 3479 C 336.778 1.70751 1.07363 0
M  V30 3480 C 337.091 0.481061 1.89592 0
M  V30 3481 O 338.297 0.530046 2.66276 0
M  V30 3482 C 336.753 3.01965 1.95818 0
M  V30 3483 C 336.361 4.31971 1.18764 0
M  V30 3484 C 338.105 3.28121 2.69327 0
M  V30 3485 C 336.012 5.54255 2.06289 0
M  V30 3486 H 334.942 0.636292 0.404535 0
M  V30 3487 H 337.593 1.80459 0.332681 0
M  V30 3488 H 335.975 2.86132 2.7376 0
M  V30 3489 H 337.149 4.5853 0.456849 0
M  V30 3490 H 335.464 4.12481 0.569946 0
M  V30 3491 H 338.061 4.16673 3.35094 0
M  V30 3492 H 338.404 2.45426 3.36261 0
M  V30 3493 H 338.937 3.44762 1.98454 0
M  V30 3494 H 335.676 6.39513 1.43885 0
M  V30 3495 H 335.196 5.31935 2.77138 0
M  V30 3496 H 336.875 5.90159 2.65182 0
M  V30 3497 N 337.007 -0.598083 1.45811 0
M  V30 3498 C 337.955 -1.72932 1.55555 0
M  V30 3499 C 338.949 -1.63984 0.424921 0
M  V30 3500 O 340.155 -1.69663 0.601205 0
M  V30 3501 H 336.53 -0.571489 0.488779 0
M  V30 3502 H 338.501 -1.61842 2.50699 0
M  V30 3503 C 337.25 -3.11318 1.54843 0
M  V30 3504 H 336.573 -3.18867 2.41172 0
M  V30 3505 H 338.013 -3.90274 1.65717 0
M  V30 3506 C 336.472 -3.3578 0.274427 0
M  V30 3507 O 337.002 -3.9654 -0.641778 0
M  V30 3508 N 335.208 -2.90119 0.167139 0
M  V30 3509 H 334.755 -2.40855 0.913596 0
M  V30 3510 H 334.713 -3.0686 -0.684435 0
M  V30 3511 N 338.485 -1.33259 -0.841409 0
M  V30 3512 C 339.715 -1.2742 -1.62628 0
M  V30 3513 C 340.123 0.157604 -1.88542 0
M  V30 3514 O 339.466 1.10938 -1.46419 0
M  V30 3515 C 339.528 -1.97797 -3.00194 0
M  V30 3516 C 339.192 -3.47109 -2.97261 0
M  V30 3517 C 340.189 -4.42358 -2.73159 0
M  V30 3518 C 337.874 -3.89247 -3.17478 0
M  V30 3519 C 339.868 -5.77718 -2.69296 0
M  V30 3520 C 337.555 -5.24713 -3.13241 0
M  V30 3521 C 338.553 -6.1876 -2.89181 0
M  V30 3522 O 338.241 -7.51745 -2.84843 0
M  V30 3523 H 337.973 -0.440436 -0.512827 0
M  V30 3524 H 340.527 -1.76153 -1.05638 0
M  V30 3525 H 338.757 -1.43652 -3.59028 0
M  V30 3526 H 340.446 -1.8549 -3.61038 0
M  V30 3527 H 341.212 -4.11127 -2.57294 0
M  V30 3528 H 337.091 -3.16456 -3.35226 0
M  V30 3529 H 340.635 -6.51097 -2.50436 0
M  V30 3530 H 336.532 -5.55569 -3.28654 0
M  V30 3531 H 337.3 -7.61262 -3.00702 0
M  V30 3532 N 339.963 1.05934 -1.16686 0
M  V30 3533 C 340.895 2.13468 -0.834503 0
M  V30 3534 C 341.908 1.62013 0.15984 0
M  V30 3535 O 343.097 1.7838 -0.0654228 0
M  V30 3536 C 340.197 3.3817 -0.222361 0
M  V30 3537 C 339.37 4.18928 -1.25771 0
M  V30 3538 C 338.429 5.21985 -0.664703 0
M  V30 3539 O 337.455 5.53334 -1.33453 0
M  V30 3540 N 338.657 5.77919 0.546834 0
M  V30 3541 H 341.422 2.42578 -1.75999 0
M  V30 3542 H 338.983 1.21967 -1.06469 0
M  V30 3543 H 340.975 4.04266 0.187472 0
M  V30 3544 H 339.545 3.06655 0.606758 0
M  V30 3545 H 338.765 3.48433 -1.84358 0
M  V30 3546 H 340.053 4.69687 -1.95631 0
M  V30 3547 H 339.451 5.54721 1.10912 0
M  V30 3548 H 338.008 6.45573 0.898829 0
M  V30 3549 N 341.441 0.965919 1.2453 0
M  V30 3550 C 342.688 0.626831 1.92554 0
M  V30 3551 C 343.016 -0.837739 1.75534 0
M  V30 3552 O 342.271 -1.61793 1.10098 0
M  V30 3553 C 342.57 0.945428 3.44669 0
M  V30 3554 C 342.236 2.39785 3.81856 0
M  V30 3555 C 340.898 2.79483 3.91718 0
M  V30 3556 C 343.25 3.34055 4.00071 0
M  V30 3557 C 340.578 4.12496 4.1721 0
M  V30 3558 C 342.93 4.66694 4.27059 0
M  V30 3559 C 341.594 5.06172 4.3514 0
M  V30 3560 H 340.864 0.229374 0.704605 0
M  V30 3561 H 343.511 1.21707 1.4785 0
M  V30 3562 H 341.816 0.272926 3.90848 0
M  V30 3563 H 343.513 0.661484 3.95507 0
M  V30 3564 H 340.103 2.08003 3.74743 0
M  V30 3565 H 344.287 3.04571 3.91855 0
M  V30 3566 H 339.543 4.42709 4.21685 0
M  V30 3567 H 343.717 5.3971 4.40097 0
M  V30 3568 H 341.344 6.09262 4.54646 0
M  V30 3569 N 342.919 -1.39368 0.735821 0
M  V30 3570 C 343.867 -2.32443 0.0855131 0
M  V30 3571 C 344.861 -1.53104 -0.724954 0
M  V30 3572 O 346.067 -1.68762 -0.626047 0
M  V30 3573 H 342.442 -0.751948 0.00885257 0
M  V30 3574 H 344.413 -2.84916 0.886883 0
M  V30 3575 C 343.162 -3.38206 -0.806983 0
M  V30 3576 H 342.485 -3.99335 -0.19274 0
M  V30 3577 H 343.925 -4.05779 -1.2296 0
M  V30 3578 C 342.384 -2.75321 -1.94165 0
M  V30 3579 O 342.914 -2.63231 -3.03435 0
M  V30 3580 N 341.12 -2.33396 -1.73132 0
M  V30 3581 H 340.667 -2.4343 -0.842596 0
M  V30 3582 H 340.625 -1.91661 -2.49225 0
M  V30 3583 N 344.397 -0.483516 -1.5 0
M  V30 3584 C 345.622 0.0667119 -2.07293 0
M  V30 3585 C 346.047 1.3164 -1.3436 0
M  V30 3586 O 345.405 1.76945 -0.394987 0
M  V30 3587 C 345.453 0.321126 -3.59167 0
M  V30 3588 O 344.557 1.39927 -3.87936 0
M  V30 3589 H 343.898 -0.0184758 -0.663743 0
M  V30 3590 H 346.428 -0.678125 -1.93035 0
M  V30 3591 H 346.438 0.557906 -4.04168 0
M  V30 3592 H 345.113 -0.592007 -4.11665 0
M  V30 3593 H 343.69 1.14882 -3.54763 0
M  V30 3594 N 345.875 1.56104 -0.216619 0
M  V30 3595 C 346.805 2.23063 0.690296 0
M  V30 3596 C 347.786 1.20072 1.20485 0
M  V30 3597 O 348.971 1.48643 1.24976 0
M  V30 3598 C 346.101 2.90672 1.90072 0
M  V30 3599 C 345.055 4.00092 1.5202 0
M  V30 3600 C 344.381 4.54972 2.80899 0
M  V30 3601 C 345.681 5.17398 0.71391 0
M  V30 3602 H 347.375 2.99109 0.132038 0
M  V30 3603 H 344.921 1.43866 0.0620664 0
M  V30 3604 H 346.874 3.36204 2.54057 0
M  V30 3605 H 345.598 2.12066 2.48386 0
M  V30 3606 H 344.257 3.55283 0.903839 0
M  V30 3607 H 343.905 3.73102 3.37348 0
M  V30 3608 H 343.605 5.28817 2.56176 0
M  V30 3609 H 345.129 5.0322 3.45836 0
M  V30 3610 H 346.543 5.59342 1.25735 0
M  V30 3611 H 344.94 5.97444 0.563951 0
M  V30 3612 H 346.01 4.84088 -0.280527 0
M  V30 3613 N 347.353 -0.0568162 1.57498 0
M  V30 3614 C 348.283 -1.06593 2.0775 0
M  V30 3615 C 349.264 -1.39448 0.974082 0
M  V30 3616 O 350.449 -1.48815 1.24771 0
M  V30 3617 C 347.579 -2.37509 2.5339 0
M  V30 3618 C 346.533 -2.1897 3.67745 0
M  V30 3619 C 345.859 -3.55402 3.99492 0
M  V30 3620 C 347.159 -1.59859 4.97235 0
M  V30 3621 H 348.853 -0.647706 2.9231 0
M  V30 3622 H 346.399 -0.310116 1.40621 0
M  V30 3623 H 348.352 -3.08409 2.87162 0
M  V30 3624 H 347.076 -2.8134 1.65878 0
M  V30 3625 H 345.735 -1.50508 3.3428 0
M  V30 3626 H 345.383 -3.9683 3.09088 0
M  V30 3627 H 345.083 -3.43831 4.76502 0
M  V30 3628 H 346.607 -4.27708 4.35773 0
M  V30 3629 H 348.021 -2.20642 5.29141 0
M  V30 3630 H 346.418 -1.58942 5.78669 0
M  V30 3631 H 347.488 -0.561506 4.81638 0
M  V30 3632 N 348.832 -1.54138 -0.328536 0
M  V30 3633 C 349.782 -1.79557 -1.4051 0
M  V30 3634 C 350.766 -0.651373 -1.47126 0
M  V30 3635 O 351.958 -0.911226 -1.51742 0
M  V30 3636 C 349.087 -2.02196 -2.77438 0
M  V30 3637 C 348.173 -3.22724 -2.75155 0
M  V30 3638 N 348.564 -4.43881 -2.42494 0
M  V30 3639 C 346.862 -3.24196 -3.06289 0
M  V30 3640 C 347.563 -5.25797 -2.48822 0
M  V30 3641 N 346.539 -4.62862 -2.8506 0
M  V30 3642 H 350.341 -2.70814 -1.1418 0
M  V30 3643 H 347.855 -1.53265 -0.536991 0
M  V30 3644 H 349.852 -2.18546 -3.55026 0
M  V30 3645 H 348.512 -1.12191 -3.04702 0
M  V30 3646 H 349.523 -4.70969 -2.15428 0
M  V30 3647 H 346.2 -2.44208 -3.38627 0
M  V30 3648 H 347.59 -6.32535 -2.26603 0
M  V30 3649 N 350.31 0.590341 -1.46126 0
M  V30 3650 C 351.273 1.68194 -1.55703 0
M  V30 3651 C 352.273 1.54808 -0.434868 0
M  V30 3652 O 353.463 1.59564 -0.698928 0
M  V30 3653 C 350.595 3.07575 -1.47005 0
M  V30 3654 H 351.788 1.61064 -2.52979 0
M  V30 3655 H 349.341 0.807541 -1.33823 0
M  V30 3656 H 350.076 3.20268 -0.509785 0
M  V30 3657 H 349.861 3.187 -2.28414 0
M  V30 3658 H 351.351 3.87055 -1.56776 0
M  V30 3659 N 351.788 1.33704 0.83433 0
M  V30 3660 C 352.751 1.24244 1.92603 0
M  V30 3661 C 353.751 0.160383 1.59998 0
M  V30 3662 O 354.941 0.412228 1.69252 0
M  V30 3663 C 352.073 0.91555 3.28376 0
M  V30 3664 H 353.266 2.21287 2.02416 0
M  V30 3665 H 350.819 1.17827 1.02696 0
M  V30 3666 H 351.554 -0.0521886 3.24258 0
M  V30 3667 H 351.339 1.69811 3.53422 0
M  V30 3668 H 352.829 0.874231 4.08347 0
M  V30 3669 N 353.266 -1.05314 1.17247 0
M  V30 3670 C 354.543 -1.75184 0.87005 0
M  V30 3671 C 354.923 -2.01481 -0.629965 0
M  V30 3672 O 354.271 -1.64988 -1.58086 0
M  V30 3673 C 354.481 -3.04594 1.70363 0
M  V30 3674 C 355.829 -3.78567 1.92281 0
M  V30 3675 O 356.853 -3.14461 1.67311 0
M  V30 3676 O 355.712 -4.93755 2.3424 0
M  V30 3677 H 352.806 -0.761729 0.322021 0
M  V30 3678 H 355.352 -1.11493 1.27935 0
M  V30 3679 H 354.124 -2.81201 2.72106 0
M  V30 3680 H 353.747 -3.76022 1.29202 0
M  V30 3681 N 354.744 -0.972509 -1.24016 0
M  V30 3682 C 356.021 -0.553733 -1.87598 0
M  V30 3683 C 356.401 0.969158 -1.87538 0
M  V30 3684 O 355.749 1.84255 -1.35139 0
M  V30 3685 C 355.959 -1.15076 -3.29482 0
M  V30 3686 C 357.307 -1.23862 -4.06132 0
M  V30 3687 O 358.331 -1.10363 -3.38672 0
M  V30 3688 O 357.19 -1.45252 -5.26844 0
M  V30 3689 H 354.284 -0.185331 -0.805966 0
M  V30 3690 H 356.83 -1.06709 -1.31952 0
M  V30 3691 H 355.602 -2.19333 -3.2405 0
M  V30 3692 H 355.225 -0.621746 -3.92709 0
M  V30 3693 N 356.222 1.38976 -0.743202 0
M  V30 3694 C 357.155 2.28128 -0.0572165 0
M  V30 3695 C 358.133 1.44827 0.739182 0
M  V30 3696 O 359.317 1.74207 0.720009 0
M  V30 3697 C 356.444 3.25796 0.926001 0
M  V30 3698 C 355.49 4.25947 0.217099 0
M  V30 3699 S 356.323 5.24604 -1.07477 0
M  V30 3700 C 357.479 6.25829 -0.0943545 0
M  V30 3701 H 357.712 2.85961 -0.813246 0
M  V30 3702 H 355.245 1.44822 -0.535341 0
M  V30 3703 H 357.203 3.82583 1.48797 0
M  V30 3704 H 355.864 2.66966 1.65493 0
M  V30 3705 H 355.057 4.94746 0.961372 0
M  V30 3706 H 354.659 3.73002 -0.273059 0
M  V30 3707 H 356.951 6.73411 0.743239 0
M  V30 3708 H 357.894 7.0412 -0.749713 0
M  V30 3709 H 358.302 5.63797 0.281706 0
M  V30 3710 N 357.7 0.491464 1.49741 0
M  V30 3711 C 358.632 -0.328609 2.26832 0
M  V30 3712 C 359.645 -0.939113 1.32983 0
M  V30 3713 O 360.834 -0.824067 1.58339 0
M  V30 3714 C 357.934 -1.47675 3.05033 0
M  V30 3715 C 357.107 -0.975305 4.26388 0
M  V30 3716 C 356.166 -1.99991 4.86714 0
M  V30 3717 O 355.192 -1.57229 5.47054 0
M  V30 3718 N 356.394 -3.32962 4.75517 0
M  V30 3719 H 359.159 0.332377 2.97851 0
M  V30 3720 H 356.72 0.323441 1.58636 0
M  V30 3721 H 358.712 -2.15954 3.42266 0
M  V30 3722 H 357.282 -2.04206 2.36683 0
M  V30 3723 H 356.502 -0.117723 3.94024 0
M  V30 3724 H 357.79 -0.618531 5.05026 0
M  V30 3725 H 357.188 -3.70399 4.27576 0
M  V30 3726 H 355.745 -3.96982 5.16961 0
M  V30 3727 N 359.178 -1.55987 0.224894 0
M  V30 3728 C 360.108 -2.23426 -0.678457 0
M  V30 3729 C 361.089 -1.20709 -1.19847 0
M  V30 3730 O 362.274 -1.49304 -1.24186 0
M  V30 3731 C 359.404 -2.91676 -1.88527 0
M  V30 3732 C 358.358 -4.00893 -1.49896 0
M  V30 3733 C 357.684 -4.56455 -2.78483 0
M  V30 3734 C 358.984 -5.17769 -0.686461 0
M  V30 3735 H 360.678 -2.99175 -0.116173 0
M  V30 3736 H 358.224 -1.43897 -0.054436 0
M  V30 3737 H 360.177 -3.37547 -2.5227 0
M  V30 3738 H 358.901 -2.1338 -2.47258 0
M  V30 3739 H 357.56 -3.55758 -0.884985 0
M  V30 3740 H 357.208 -3.74886 -3.35365 0
M  V30 3741 H 356.908 -5.30169 -2.53368 0
M  V30 3742 H 358.432 -5.05047 -3.43162 0
M  V30 3743 H 359.846 -5.60001 -1.22767 0
M  V30 3744 H 358.243 -5.97735 -0.532259 0
M  V30 3745 H 359.313 -4.83932 0.306196 0
M  V30 3746 N 360.656 0.0484629 -1.57525 0
M  V30 3747 C 361.886 0.754326 -1.92337 0
M  V30 3748 C 362.294 1.70443 -0.82132 0
M  V30 3749 O 361.637 1.82466 0.21254 0
M  V30 3750 C 361.699 1.58231 -3.22805 0
M  V30 3751 C 361.363 0.799074 -4.4996 0
M  V30 3752 C 362.36 0.1079 -5.19788 0
M  V30 3753 C 360.045 0.759345 -4.96527 0
M  V30 3754 C 362.039 -0.612516 -6.3445 0
M  V30 3755 C 359.726 0.0351713 -6.1109 0
M  V30 3756 C 360.724 -0.649537 -6.79904 0
M  V30 3757 O 360.412 -1.36199 -7.92278 0
M  V30 3758 H 360.144 0.218257 -0.639797 0
M  V30 3759 H 362.698 0.0159295 -2.05394 0
M  V30 3760 H 360.928 2.36406 -3.06021 0
M  V30 3761 H 362.617 2.16898 -3.43089 0
M  V30 3762 H 363.383 0.129748 -4.84826 0
M  V30 3763 H 359.262 1.28177 -4.42822 0
M  V30 3764 H 362.806 -1.14751 -6.88097 0
M  V30 3765 H 358.703 0.0113314 -6.45499 0
M  V30 3766 H 359.471 -1.27366 -8.0853 0
M  V30 3767 N 362.134 1.5431 0.320358 0
M  V30 3768 C 363.081 1.83918 1.39438 0
M  V30 3769 C 364.051 0.686525 1.51248 0
M  V30 3770 O 365.236 0.933269 1.66417 0
M  V30 3771 C 362.376 2.075 2.75749 0
M  V30 3772 C 361.489 3.35177 2.72544 0
M  V30 3773 C 360.624 3.48704 4.00723 0
M  V30 3774 C 359.663 4.70244 3.91838 0
M  V30 3775 N 358.8 4.80679 5.11754 0
M  V30 3776 H 363.64 2.75544 1.13489 0
M  V30 3777 H 361.177 1.36459 0.549309 0
M  V30 3778 H 363.135 2.19166 3.54996 0
M  V30 3779 H 361.765 1.19163 3 0
M  V30 3780 H 360.817 3.32233 1.85271 0
M  V30 3781 H 362.129 4.24534 2.61863 0
M  V30 3782 H 361.283 3.59928 4.88402 0
M  V30 3783 H 360.022 2.57445 4.14214 0
M  V30 3784 H 359.027 4.59072 3.02544 0
M  V30 3785 H 360.252 5.6289 3.7991 0
M  V30 3786 H 358.198 3.92337 5.25745 0
M  V30 3787 H 358.115 5.64007 5.0342 0
M  V30 3788 H 359.383 4.96239 6.01138 0
M  V30 3789 N 363.613 -0.582584 1.46437 0
M  V30 3790 C 364.843 -1.36484 1.55099 0
M  V30 3791 C 365.251 -1.88233 0.191056 0
M  V30 3792 O 364.594 -1.6429 -0.821858 0
M  V30 3793 C 364.656 -2.588 2.49525 0
M  V30 3794 C 364.32 -2.28517 3.95764 0
M  V30 3795 C 365.317 -1.87346 4.84972 0
M  V30 3796 C 363.002 -2.40658 4.40896 0
M  V30 3797 C 364.996 -1.5871 6.17325 0
M  V30 3798 C 362.683 -2.11635 5.73284 0
M  V30 3799 C 363.681 -1.70725 6.61318 0
M  V30 3800 O 363.369 -1.42057 7.91249 0
M  V30 3801 H 363.101 -0.423297 0.527063 0
M  V30 3802 H 365.655 -0.715188 1.92547 0
M  V30 3803 H 363.885 -3.26571 2.07095 0
M  V30 3804 H 365.574 -3.20868 2.48593 0
M  V30 3805 H 366.34 -1.77481 4.5136 0
M  V30 3806 H 362.219 -2.71463 3.72598 0
M  V30 3807 H 365.763 -1.26704 6.85997 0
M  V30 3808 H 361.66 -2.21124 6.06444 0
M  V30 3809 H 362.428 -1.55901 8.03515 0
M  V30 3810 N 365.091 -1.34144 -0.827227 0
M  V30 3811 C 366.34 -1.25602 -1.5782 0
M  V30 3812 C 366.653 0.173445 -1.94829 0
M  V30 3813 O 367.859 0.380984 -2.68814 0
M  V30 3814 C 366.315 -2.20151 -2.84713 0
M  V30 3815 C 365.923 -3.68331 -2.55021 0
M  V30 3816 C 367.667 -2.20508 -3.62735 0
M  V30 3817 C 365.574 -4.54762 -3.78082 0
M  V30 3818 H 364.504 -0.466573 -0.592306 0
M  V30 3819 H 367.155 -1.59283 -0.911116 0
M  V30 3820 H 365.537 -1.79417 -3.53023 0
M  V30 3821 H 366.711 -4.17577 -1.94849 0
M  V30 3822 H 365.026 -3.7038 -1.90283 0
M  V30 3823 H 367.623 -2.82306 -4.54101 0
M  V30 3824 H 367.966 -1.20322 -3.98533 0
M  V30 3825 H 368.499 -2.59664 -3.01362 0
M  V30 3826 H 365.238 -5.55867 -3.47407 0
M  V30 3827 H 364.758 -4.10254 -4.37552 0
M  V30 3828 H 366.437 -4.69153 -4.45538 0
M  V30 3829 N 366.569 1.04691 -1.17803 0
M  V30 3830 C 367.818 1.77176 -0.963931 0
M  V30 3831 C 368.131 1.88888 0.508015 0
M  V30 3832 O 369.337 2.58164 0.840465 0
M  V30 3833 C 367.793 3.18518 -1.67555 0
M  V30 3834 C 367.401 3.14919 -3.18637 0
M  V30 3835 C 369.145 3.95424 -1.54402 0
M  V30 3836 C 367.052 4.51081 -3.82466 0
M  V30 3837 H 365.982 0.664116 -0.357023 0
M  V30 3838 H 368.633 1.17303 -1.4111 0
M  V30 3839 H 367.015 3.78748 -1.15613 0
M  V30 3840 H 368.189 2.64178 -3.77554 0
M  V30 3841 H 366.504 2.51512 -3.31859 0
M  V30 3842 H 369.101 4.96106 -1.99456 0
M  V30 3843 H 369.444 4.13343 -0.495329 0
M  V30 3844 H 369.977 3.41754 -2.0359 0
M  V30 3845 H 366.716 4.38368 -4.87354 0
M  V30 3846 H 366.236 5.01951 -3.28337 0
M  V30 3847 H 367.915 5.2001 -3.84965 0
M  V30 3848 N 368.047 0.979072 1.23499 0
M  V30 3849 C 368.994 0.517904 2.24914 0
M  V30 3850 C 369.964 -0.442525 1.60097 0
M  V30 3851 O 371.149 -0.350365 1.87556 0
M  V30 3852 C 368.289 -0.174813 3.44657 0
M  V30 3853 C 367.402 0.825721 4.24035 0
M  V30 3854 C 366.537 0.107946 5.3109 0
M  V30 3855 C 365.576 1.09778 6.02175 0
M  V30 3856 N 364.713 0.40925 7.00906 0
M  V30 3857 H 369.553 1.38751 2.63727 0
M  V30 3858 H 367.09 0.695303 1.2963 0
M  V30 3859 H 369.048 -0.593233 4.12961 0
M  V30 3860 H 367.678 -1.0083 3.06648 0
M  V30 3861 H 366.73 1.36253 3.55161 0
M  V30 3862 H 368.042 1.58005 4.73113 0
M  V30 3863 H 367.196 -0.367904 6.05583 0
M  V30 3864 H 365.935 -0.678994 4.8295 0
M  V30 3865 H 364.94 1.5844 5.26476 0
M  V30 3866 H 366.165 1.88536 6.52404 0
M  V30 3867 H 364.111 -0.358506 6.5502 0
M  V30 3868 H 364.028 1.10226 7.47921 0
M  V30 3869 H 365.296 -0.0442557 7.79487 0
M  V30 3870 N 369.525 -1.3858 0.750561 0
M  V30 3871 C 370.473 -2.32339 0.110162 0
M  V30 3872 C 371.467 -1.53864 -0.708674 0
M  V30 3873 O 372.673 -1.69417 -0.608112 0
M  V30 3874 H 369.048 -0.751812 0.0168275 0
M  V30 3875 H 371.019 -2.83959 0.917053 0
M  V30 3876 C 369.768 -3.39043 -0.771067 0
M  V30 3877 H 369.091 -3.99517 -0.150374 0
M  V30 3878 H 370.531 -4.07061 -1.1865 0
M  V30 3879 C 368.99 -2.77365 -1.91234 0
M  V30 3880 O 369.52 -2.66434 -3.00626 0
M  V30 3881 N 367.726 -2.35219 -1.70646 0
M  V30 3882 H 367.273 -2.4431 -0.81673 0
M  V30 3883 H 367.231 -1.94294 -2.47178 0
M  V30 3884 N 371.003 -0.499398 -1.49478 0
M  V30 3885 C 372.231 0.0425456 -2.06856 0
M  V30 3886 C 372.646 1.30964 -1.35992 0
M  V30 3887 O 372.003 1.77172 -0.437762 0
M  V30 3888 C 372.054 0.301735 -3.60239 0
M  V30 3889 O 371.775 -0.915127 -4.28436 0
M  V30 3890 C 373.276 0.887499 -4.34325 0
M  V30 3891 H 370.496 -0.0197482 -0.670709 0
M  V30 3892 H 373.04 -0.696297 -1.92281 0
M  V30 3893 H 371.195 0.990556 -3.74522 0
M  V30 3894 H 371.609 -0.676993 -5.20113 0
M  V30 3895 H 373.083 1.01845 -5.42523 0
M  V30 3896 H 373.56 1.88488 -3.96698 0
M  V30 3897 H 374.166 0.236196 -4.24644 0
M  V30 3898 N 372.481 1.55866 -0.233164 0
M  V30 3899 C 373.444 2.1953 0.658715 0
M  V30 3900 C 374.444 1.16053 1.11303 0
M  V30 3901 O 375.634 1.41218 1.01996 0
M  V30 3902 C 372.766 2.82791 1.90373 0
M  V30 3903 H 373.959 2.99721 0.10347 0
M  V30 3904 H 371.512 1.56291 0.0164245 0
M  V30 3905 H 372.247 2.06501 2.50056 0
M  V30 3906 H 372.032 3.58578 1.58632 0
M  V30 3907 H 373.522 3.31556 2.53891 0
M  V30 3908 N 373.959 -0.0401083 1.57549 0
M  V30 3909 C 375.205 -0.728793 1.89895 0
M  V30 3910 C 375.56 -1.73551 0.830535 0
M  V30 3911 O 374.853 -1.90914 -0.162007 0
M  V30 3912 C 375.047 -1.44902 3.26708 0
M  V30 3913 C 374.876 -0.513568 4.46758 0
M  V30 3914 C 373.646 -0.138698 5.0511 0
M  V30 3915 C 375.844 0.203341 5.13898 0
M  V30 3916 N 373.826 0.799159 6.08676 0
M  V30 3917 C 375.197 0.997246 6.11927 0
M  V30 3918 C 377.252 0.271459 4.97159 0
M  V30 3919 C 375.955 1.85299 6.95023 0
M  V30 3920 C 377.981 1.11429 5.80808 0
M  V30 3921 C 377.343 1.89615 6.78399 0
M  V30 3922 H 373.442 -0.241125 0.743897 0
M  V30 3923 H 376.026 0.0108016 1.94697 0
M  V30 3924 H 374.197 -2.15914 3.22856 0
M  V30 3925 H 375.929 -2.08921 3.46603 0
M  V30 3926 H 372.684 -0.498496 4.70969 0
M  V30 3927 H 373.108 1.26227 6.65128 0
M  V30 3928 H 377.75 -0.318709 4.21597 0
M  V30 3929 H 375.468 2.454 7.69938 0
M  V30 3930 H 379.054 1.17038 5.69906 0
M  V30 3931 H 377.934 2.53779 7.42001 0
M  V30 3932 N 375.437 -1.54477 -0.31217 0
M  V30 3933 C 376.369 -1.81011 -1.40598 0
M  V30 3934 C 377.382 -0.692546 -1.47335 0
M  V30 3935 O 378.571 -0.969847 -1.49854 0
M  V30 3936 C 375.671 -1.92307 -2.79054 0
M  V30 3937 C 374.844 -3.22594 -2.95384 0
M  V30 3938 C 373.903 -3.24448 -4.1427 0
M  V30 3939 O 372.929 -3.98035 -4.06887 0
M  V30 3940 N 374.131 -2.49042 -5.24365 0
M  V30 3941 H 376.896 -2.75408 -1.18196 0
M  V30 3942 H 374.457 -1.53914 -0.502202 0
M  V30 3943 H 376.449 -1.90962 -3.56813 0
M  V30 3944 H 375.019 -1.04955 -2.94454 0
M  V30 3945 H 374.239 -3.36806 -2.04831 0
M  V30 3946 H 375.527 -4.08593 -3.03198 0
M  V30 3947 H 374.925 -1.88867 -5.33241 0
M  V30 3948 H 373.482 -2.53463 -6.005 0
M  V30 3949 N 376.915 0.57481 -1.46744 0
M  V30 3950 C 377.863 1.70435 -1.58286 0
M  V30 3951 C 378.857 1.63287 -0.450956 0
M  V30 3952 O 380.063 1.68685 -0.628121 0
M  V30 3953 H 376.438 0.56364 -0.497809 0
M  V30 3954 H 378.409 1.57833 -2.53242 0
M  V30 3955 C 377.158 3.08815 -1.59776 0
M  V30 3956 H 376.481 3.1499 -2.46214 0
M  V30 3957 H 377.921 3.87588 -1.71905 0
M  V30 3958 C 376.38 3.35301 -0.327812 0
M  V30 3959 O 376.91 3.97511 0.57861 0
M  V30 3960 N 375.116 2.89816 -0.213274 0
M  V30 3961 H 374.663 2.39371 -0.951798 0
M  V30 3962 H 374.621 3.0791 0.63553 0
M  V30 3963 N 378.394 1.34581 0.820102 0
M  V30 3964 C 379.642 1.26845 1.57336 0
M  V30 3965 C 379.963 -0.160667 1.94337 0
M  V30 3966 O 379.233 -1.09396 1.6251 0
M  V30 3967 H 377.813 0.466514 0.583415 0
M  V30 3968 H 380.475 1.68526 0.979027 0
M  V30 3969 H 379.571 1.87513 2.4949 0
M  V30 3970 N 379.872 -1.04064 1.18357 0
M  V30 3971 C 380.819 -2.12077 0.910603 0
M  V30 3972 C 381.789 -1.65421 -0.15 0
M  V30 3973 O 382.974 -1.90797 -0.0103614 0
M  V30 3974 C 380.114 -3.42252 0.442472 0
M  V30 3975 C 379.227 -4.0252 1.5685 0
M  V30 3976 C 378.362 -5.20657 1.05309 0
M  V30 3977 C 377.401 -5.72955 2.1538 0
M  V30 3978 N 376.538 -6.8238 1.65233 0
M  V30 3979 H 381.378 -2.34764 1.83548 0
M  V30 3980 H 378.915 -1.15157 0.915279 0
M  V30 3981 H 380.873 -4.16921 0.152534 0
M  V30 3982 H 379.503 -3.19712 -0.445428 0
M  V30 3983 H 378.555 -3.25178 1.97391 0
M  V30 3984 H 379.867 -4.37362 2.39824 0
M  V30 3985 H 379.021 -6.0244 0.717677 0
M  V30 3986 H 377.76 -4.87318 0.19293 0
M  V30 3987 H 376.765 -4.89793 2.49766 0
M  V30 3988 H 377.99 -6.08337 3.01832 0
M  V30 3989 H 375.936 -6.50917 0.815064 0
M  V30 3990 H 375.853 -7.16286 2.41805 0
M  V30 3991 H 377.121 -7.67788 1.34619 0
M  V30 3992 N 381.35 -0.985608 -1.22978 0
M  V30 3993 C 382.578 -0.675582 -1.95559 0
M  V30 3994 C 382.993 0.758413 -1.72897 0
M  V30 3995 O 382.35 1.51094 -1.02357 0
M  V30 3996 C 382.401 -0.96293 -3.48439 0
M  V30 3997 O 382.122 -2.34057 -3.70336 0
M  V30 3998 C 383.623 -0.669585 -4.38214 0
M  V30 3999 H 380.843 -0.250523 -0.622478 0
M  V30 4000 H 383.387 -1.3184 -1.56328 0
M  V30 4001 H 381.542 -0.366033 -3.85667 0
M  V30 4002 H 381.956 -2.43424 -4.64591 0
M  V30 4003 H 383.43 -0.920967 -5.44263 0
M  V30 4004 H 383.907 0.396383 -4.37408 0
M  V30 4005 H 384.513 -1.2472 -4.06602 0
M  V30 4006 N 382.828 1.3818 -0.7579 0
M  V30 4007 C 384.074 2.00316 -0.316453 0
M  V30 4008 C 384.407 1.60026 1.10025 0
M  V30 4009 O 383.682 0.839835 1.75434 0
M  V30 4010 C 383.965 3.57349 -0.444245 0
M  V30 4011 C 383.818 4.07591 -1.90236 0
M  V30 4012 C 385.137 4.3981 0.1598 0
M  V30 4013 H 382.256 0.727741 -0.116459 0
M  V30 4014 H 384.898 1.6406 -0.958352 0
M  V30 4015 H 383.048 3.88365 0.102233 0
M  V30 4016 H 384.72 3.87199 -2.50748 0
M  V30 4017 H 382.963 3.60297 -2.41595 0
M  V30 4018 H 383.634 5.16677 -1.94291 0
M  V30 4019 H 386.11 4.14971 -0.306314 0
M  V30 4020 H 384.986 5.48885 0.0401675 0
M  V30 4021 H 385.247 4.24102 1.24859 0
M  V30 4022 N 384.306 0.507319 1.49211 0
M  V30 4023 C 385.534 -0.0315749 2.06876 0
M  V30 4024 C 385.949 -1.30241 1.36685 0
M  V30 4025 O 385.306 -1.76937 0.447152 0
M  V30 4026 C 385.357 -0.282627 3.60393 0
M  V30 4027 O 385.078 0.937835 4.27944 0
M  V30 4028 C 386.579 -0.864453 4.3479 0
M  V30 4029 H 383.799 0.0233048 0.670595 0
M  V30 4030 H 386.343 0.706484 1.91909 0
M  V30 4031 H 384.498 -0.97068 3.75042 0
M  V30 4032 H 384.912 0.704567 5.19746 0
M  V30 4033 H 386.386 -0.989664 5.43056 0
M  V30 4034 H 386.863 -1.86382 3.97692 0
M  V30 4035 H 387.469 -0.213672 4.24763 0
M  V30 4036 N 385.784 -1.5574 0.241426 0
M  V30 4037 C 387.031 -1.9881 -0.384836 0
M  V30 4038 C 387.359 -1.12947 -1.58346 0
M  V30 4039 O 386.614 -0.178993 -1.9488 0
M  V30 4040 C 386.913 -3.47308 -0.843317 0
M  V30 4041 C 386.579 -4.50223 0.246946 0
M  V30 4042 C 385.241 -4.78088 0.546399 0
M  V30 4043 C 387.593 -5.11841 0.983282 0
M  V30 4044 C 384.921 -5.64846 1.58636 0
M  V30 4045 C 387.273 -5.99727 2.01272 0
M  V30 4046 C 385.937 -6.25927 2.31888 0
M  V30 4047 H 385.207 -0.727496 -0.140821 0
M  V30 4048 H 387.854 -1.8831 0.348106 0
M  V30 4049 H 386.159 -3.55112 -1.65537 0
M  V30 4050 H 387.856 -3.78017 -1.33806 0
M  V30 4051 H 384.446 -4.286 0.00340639 0
M  V30 4052 H 388.63 -4.90366 0.765182 0
M  V30 4053 H 383.886 -5.83403 1.82896 0
M  V30 4054 H 388.06 -6.46517 2.58823 0
M  V30 4055 H 385.687 -6.92949 3.12611 0
M  V30 4056 N 387.262 0.0317525 -1.57568 0
M  V30 4057 C 388.195 1.06621 -2.0176 0
M  V30 4058 C 389.173 1.35323 -0.901462 0
M  V30 4059 O 390.357 1.48025 -1.16708 0
M  V30 4060 C 387.484 2.40155 -2.38837 0
M  V30 4061 C 386.53 2.27327 -3.60867 0
M  V30 4062 S 387.363 1.62925 -5.10113 0
M  V30 4063 C 388.519 2.97955 -5.5043 0
M  V30 4064 H 388.752 0.689781 -2.89187 0
M  V30 4065 H 386.285 0.24164 -1.52497 0
M  V30 4066 H 388.243 3.1695 -2.6087 0
M  V30 4067 H 386.904 2.74946 -1.51867 0
M  V30 4068 H 386.097 3.25898 -3.84456 0
M  V30 4069 H 385.699 1.58675 -3.38671 0
M  V30 4070 H 387.991 3.94285 -5.5095 0
M  V30 4071 H 388.934 2.79102 -6.50775 0
M  V30 4072 H 389.342 3.00404 -4.77931 0
M  V30 4073 N 388.74 1.54641 0.303973 0
M  V30 4074 C 390.151 1.64811 0.877163 0
M  V30 4075 C 390.502 0.554838 1.88191 0
M  V30 4076 O 389.627 -0.309033 2.14182 0
M  V30 4077 C 390.222 2.9876 1.59775 0
M  V30 4078 C 388.781 3.11061 2.11938 0
M  V30 4079 C 387.928 2.60479 0.951097 0
M  V30 4080 H 390.879 1.58493 0.0810486 0
M  V30 4081 H 390.9 2.90017 2.46314 0
M  V30 4082 H 390.412 3.7831 0.866226 0
M  V30 4083 H 388.513 2.36225 2.88146 0
M  V30 4084 H 388.626 4.17171 2.35595 0
M  V30 4085 H 386.99 2.16859 1.33583 0
M  V30 4086 H 387.773 3.42504 0.233581 0
M  V30 4087 N 390.218 -0.567019 1.47046 0
M  V30 4088 C 391.165 -1.67489 1.58796 0
M  V30 4089 C 392.135 -1.60399 0.43144 0
M  V30 4090 O 393.32 -1.79378 0.650233 0
M  V30 4091 C 390.46 -3.05821 1.59899 0
M  V30 4092 C 389.573 -3.2342 2.86397 0
M  V30 4093 C 388.708 -4.52093 2.789 0
M  V30 4094 C 387.747 -4.6309 4.00267 0
M  V30 4095 N 386.884 -5.83106 3.91064 0
M  V30 4096 H 391.724 -1.56785 2.53422 0
M  V30 4097 H 389.261 -0.763896 1.2571 0
M  V30 4098 H 391.219 -3.8591 1.58522 0
M  V30 4099 H 389.849 -3.15384 0.687929 0
M  V30 4100 H 388.901 -2.3683 2.97684 0
M  V30 4101 H 390.213 -3.27412 3.76301 0
M  V30 4102 H 389.367 -5.4043 2.75718 0
M  V30 4103 H 388.106 -4.50565 1.86662 0
M  V30 4104 H 387.111 -3.73168 4.03765 0
M  V30 4105 H 388.336 -4.66386 4.93621 0
M  V30 4106 H 386.282 -5.82546 3.01623 0
M  V30 4107 H 386.199 -5.88434 4.74638 0
M  V30 4108 H 387.467 -6.73831 3.91882 0
M  V30 4109 N 391.696 -1.35014 -0.812953 0
M  V30 4110 C 393.107 -1.25035 -1.38648 0
M  V30 4111 C 393.458 0.119967 -1.95833 0
M  V30 4112 O 392.583 1.02069 -1.90816 0
M  V30 4113 C 393.178 -2.26394 -2.52054 0
M  V30 4114 C 391.737 -2.20175 -3.05287 0
M  V30 4115 C 390.884 -2.12451 -1.78213 0
M  V30 4116 H 393.835 -1.46235 -0.616516 0
M  V30 4117 H 393.856 -1.88672 -3.30429 0
M  V30 4118 H 393.368 -3.26116 -2.10404 0
M  V30 4119 H 391.469 -1.23841 -3.51417 0
M  V30 4120 H 391.582 -3.11863 -3.63701 0
M  V30 4121 H 389.946 -1.58328 -1.9951 0
M  V30 4122 H 390.729 -3.14024 -1.38723 0
M  V30 4123 N 393.175 1.03435 -1.18907 0
M  V30 4124 C 394.105 2.13503 -0.945448 0
M  V30 4125 C 395.086 1.69682 0.119189 0
M  V30 4126 O 396.271 1.94169 -0.034707 0
M  V30 4127 C 393.401 3.44004 -0.477316 0
M  V30 4128 C 392.355 4.0148 -1.48316 0
M  V30 4129 C 391.681 5.27537 -0.872311 0
M  V30 4130 C 392.981 4.36921 -2.86177 0
M  V30 4131 H 394.675 2.34141 -1.86597 0
M  V30 4132 H 392.221 1.12523 -0.898584 0
M  V30 4133 H 394.174 4.20372 -0.294204 0
M  V30 4134 H 392.898 3.23072 0.478786 0
M  V30 4135 H 391.557 3.27201 -1.65332 0
M  V30 4136 H 391.205 5.02917 0.0911752 0
M  V30 4137 H 390.905 5.66954 -1.54393 0
M  V30 4138 H 392.429 6.06576 -0.699871 0
M  V30 4139 H 393.843 5.04248 -2.72776 0
M  V30 4140 H 392.24 4.87405 -3.50081 0
M  V30 4141 H 393.31 3.46466 -3.39248 0
M  V30 4142 N 394.653 0.992116 1.22453 0
M  V30 4143 C 395.9 0.667534 1.91181 0
M  V30 4144 C 396.228 -0.800317 1.77271 0
M  V30 4145 O 395.483 -1.59421 1.13505 0
M  V30 4146 C 395.782 1.01832 3.42586 0
M  V30 4147 C 395.448 2.47831 3.76684 0
M  V30 4148 C 394.11 2.87729 3.85701 0
M  V30 4149 C 396.462 3.42466 3.92895 0
M  V30 4150 C 393.79 4.21252 4.08367 0
M  V30 4151 C 396.142 4.75648 4.17064 0
M  V30 4152 C 394.806 5.15288 4.24305 0
M  V30 4153 H 394.076 0.244268 0.699581 0
M  V30 4154 H 396.723 1.24816 1.45235 0
M  V30 4155 H 395.028 0.355769 3.90181 0
M  V30 4156 H 396.725 0.745228 3.94014 0
M  V30 4157 H 393.315 2.15905 3.70247 0
M  V30 4158 H 397.499 3.12814 3.85307 0
M  V30 4159 H 392.755 4.51554 4.122 0
M  V30 4160 H 396.929 5.48924 4.2855 0
M  V30 4161 H 394.556 6.18769 4.41621 0
M  V30 4162 N 396.131 -1.37776 0.765217 0
M  V30 4163 C 397.379 -1.99454 0.325943 0
M  V30 4164 C 397.7 -1.61049 -1.09947 0
M  V30 4165 O 396.97 -0.872821 -1.75381 0
M  V30 4166 H 395.55 -0.737697 0.117525 0
M  V30 4167 H 398.212 -1.68359 0.981895 0
M  V30 4168 H 397.308 -3.09547 0.398353 0
M  V30 4169 N 397.609 -0.515225 -1.4894 0
M  V30 4170 C 398.886 0.0879088 -1.95402 0
M  V30 4171 C 399.266 1.52745 -1.45712 0
M  V30 4172 O 398.614 2.18238 -0.677093 0
M  V30 4173 C 398.824 -0.0141055 -3.48997 0
M  V30 4174 C 400.172 0.152646 -4.24326 0
M  V30 4175 O 401.196 0.0604025 -3.56149 0
M  V30 4176 O 400.055 0.34384 -5.45417 0
M  V30 4177 H 397.149 0.0874636 -0.822362 0
M  V30 4178 H 399.695 -0.578775 -1.59525 0
M  V30 4179 H 398.467 -1.01745 -3.77841 0
M  V30 4180 H 398.09 0.692091 -3.9153 0
M  V30 4181 N 399.087 1.5561 -0.249682 0
M  V30 4182 C 400.035 2.22894 0.664906 0
M  V30 4183 C 401.029 1.21743 1.17792 0
M  V30 4184 O 402.235 1.39748 1.13449 0
M  V30 4185 H 398.61 0.715022 0.232912 0
M  V30 4186 H 400.581 2.98307 0.0742998 0
M  V30 4187 C 399.33 2.94424 1.84959 0
M  V30 4188 H 398.653 3.72031 1.46399 0
M  V30 4189 H 400.093 3.44862 2.4667 0
M  V30 4190 C 398.552 1.98454 2.72245 0
M  V30 4191 O 399.082 1.51939 3.71857 0
M  V30 4192 N 397.288 1.65496 2.38871 0
M  V30 4193 H 396.835 2.03517 1.57919 0
M  V30 4194 H 396.793 1.0155 2.97548 0
M  V30 4195 N 400.565 -0.0233959 1.57583 0
M  V30 4196 C 401.813 -0.711654 1.89156 0
M  V30 4197 C 402.134 -1.75591 0.848096 0
M  V30 4198 O 401.404 -1.95547 -0.117566 0
M  V30 4199 H 399.984 -0.265835 0.698098 0
M  V30 4200 H 402.646 0.0119948 1.94896 0
M  V30 4201 H 401.742 -1.19766 2.88206 0
M  V30 4202 N 402.043 -1.548 -0.295768 0
M  V30 4203 C 403.268 -1.78653 -1.05346 0
M  V30 4204 C 403.693 -0.546894 -1.79974 0
M  V30 4205 O 403.051 0.502763 -1.7419 0
M  V30 4206 C 403.099 -2.99679 -2.00561 0
M  V30 4207 O 402.203 -2.7317 -3.08953 0
M  V30 4208 H 401.544 -0.59116 -0.302367 0
M  V30 4209 H 404.074 -2.01895 -0.331598 0
M  V30 4210 H 404.084 -3.27793 -2.42932 0
M  V30 4211 H 402.759 -3.89562 -1.4565 0
M  V30 4212 H 401.336 -2.56089 -2.71059 0
M  V30 4213 N 403.521 0.559213 -1.47345 0
M  V30 4214 C 404.769 1.31388 -1.53563 0
M  V30 4215 C 405.09 1.93985 -0.198678 0
M  V30 4216 O 404.36 1.79825 0.777167 0
M  V30 4217 H 402.94 0.487901 -0.565652 0
M  V30 4218 H 405.602 0.65315 -1.8363 0
M  V30 4219 H 404.698 2.10844 -2.30111 0
M  V30 4220 N 404.999 1.35443 0.805782 0
M  V30 4221 C 405.932 1.22783 1.92353 0
M  V30 4222 C 406.91 0.115543 1.62189 0
M  V30 4223 O 408.094 0.283778 1.86352 0
M  V30 4224 C 405.221 0.890746 3.26777 0
M  V30 4225 C 404.267 2.01519 3.75889 0
M  V30 4226 S 405.1 3.63101 3.93596 0
M  V30 4227 C 406.256 3.31472 5.30921 0
M  V30 4228 H 406.489 2.17394 2.02798 0
M  V30 4229 H 404.022 1.20669 0.963245 0
M  V30 4230 H 405.98 0.703068 4.04434 0
M  V30 4231 H 404.641 -0.0373152 3.14078 0
M  V30 4232 H 403.834 1.7335 4.7325 0
M  V30 4233 H 403.436 2.16124 3.05231 0
M  V30 4234 H 405.728 2.8435 6.1494 0
M  V30 4235 H 406.671 4.28036 5.64084 0
M  V30 4236 H 407.079 2.67221 4.97246 0
M  V30 4237 N 406.477 -1.02803 1.19454 0
M  V30 4238 C 407.427 -2.0945 0.900827 0
M  V30 4239 C 408.411 -1.60335 -0.134715 0
M  V30 4240 O 409.603 -1.76857 0.0710924 0
M  V30 4241 C 406.732 -3.4044 0.442229 0
M  V30 4242 C 405.818 -3.96286 1.51056 0
M  V30 4243 N 406.209 -4.25785 2.73021 0
M  V30 4244 C 404.507 -4.24307 1.37404 0
M  V30 4245 C 405.208 -4.70654 3.41848 0
M  V30 4246 N 404.184 -4.72238 2.69243 0
M  V30 4247 H 407.986 -2.3015 1.82779 0
M  V30 4248 H 405.5 -1.20672 1.08683 0
M  V30 4249 H 407.497 -4.16354 0.21326 0
M  V30 4250 H 406.157 -3.21159 -0.478238 0
M  V30 4251 H 407.168 -4.15041 3.09776 0
M  V30 4252 H 403.845 -4.14285 0.517103 0
M  V30 4253 H 405.235 -5.02392 4.46152 0
M  V30 4254 N 407.956 -0.998596 -1.21925 0
M  V30 4255 C 409.196 -0.685948 -1.92546 0
M  V30 4256 C 409.56 0.768441 -1.75952 0
M  V30 4257 O 410.761 1.19277 -2.40887 0
M  V30 4258 C 409.032 -1.08767 -3.40448 0
M  V30 4259 S 410.591 -0.894251 -4.29591 0
M  V30 4260 H 407.409 -0.250622 -0.665364 0
M  V30 4261 H 410.011 -1.28207 -1.47591 0
M  V30 4262 H 408.715 -2.14242 -3.50041 0
M  V30 4263 H 408.246 -0.48357 -3.90417 0
M  V30 4264 H 410.261 0.212149 -4.95746 0
M  V30 4265 N 409.434 1.37368 -0.772513 0
M  V30 4266 C 410.384 2.27613 -0.132823 0
M  V30 4267 C 411.368 1.46138 0.673247 0
M  V30 4268 O 412.56 1.68686 0.536095 0
M  V30 4269 C 409.689 3.35122 0.744864 0
M  V30 4270 C 408.775 4.24044 -0.0690771 0
M  V30 4271 N 409.166 4.93355 -1.1151 0
M  V30 4272 C 407.464 4.45731 0.154782 0
M  V30 4273 C 408.165 5.59 -1.60917 0
M  V30 4274 N 407.141 5.35737 -0.921222 0
M  V30 4275 H 410.943 2.78675 -0.933681 0
M  V30 4276 H 408.457 1.50494 -0.610342 0
M  V30 4277 H 410.454 3.98683 1.21892 0
M  V30 4278 H 409.114 2.85616 1.54446 0
M  V30 4279 H 410.125 4.95785 -1.49726 0
M  V30 4280 H 406.802 4.07096 0.926224 0
M  V30 4281 H 408.192 6.24395 -2.48153 0
M  V30 4282 N 410.912 0.523116 1.48665 0
M  V30 4283 C 411.844 -0.280421 2.27478 0
M  V30 4284 C 412.857 -0.910694 1.34945 0
M  V30 4285 O 414.046 -0.790295 1.60052 0
M  V30 4286 C 411.146 -1.41171 3.08097 0
M  V30 4287 C 410.319 -0.884642 4.28361 0
M  V30 4288 C 409.378 -1.89622 4.90846 0
M  V30 4289 O 408.404 -1.4559 5.50265 0
M  V30 4290 N 409.606 -3.22801 4.82472 0
M  V30 4291 H 412.371 0.395481 2.97079 0
M  V30 4292 H 409.932 0.357018 1.57915 0
M  V30 4293 H 411.924 -2.08645 3.4677 0
M  V30 4294 H 410.494 -1.99139 2.40961 0
M  V30 4295 H 409.714 -0.0341177 3.94185 0
M  V30 4296 H 411.002 -0.511268 5.06225 0
M  V30 4297 H 410.4 -3.61246 4.35336 0
M  V30 4298 H 408.957 -3.85927 5.25265 0
M  V30 4299 N 412.39 -1.55475 0.257931 0
M  V30 4300 C 413.615 -2.04064 -0.370488 0
M  V30 4301 C 414.04 -1.13565 -1.49948 0
M  V30 4302 O 413.398 -0.130781 -1.80828 0
M  V30 4303 C 413.446 -3.50554 -0.845237 0
M  V30 4304 O 412.55 -3.63173 -1.95394 0
M  V30 4305 H 411.891 -0.659257 -0.0792243 0
M  V30 4306 H 414.421 -2.00903 0.387212 0
M  V30 4307 H 414.431 -3.91588 -1.14555 0
M  V30 4308 H 413.106 -4.15896 -0.0191259 0
M  V30 4309 H 411.683 -3.34039 -1.65748 0
M  V30 4310 N 413.868 0.0150385 -1.57593 0
M  V30 4311 C 414.798 1.01047 -2.10503 0
M  V30 4312 C 415.779 1.36816 -1.01071 0
M  V30 4313 O 416.964 1.45455 -1.28672 0
M  V30 4314 C 414.094 2.30708 -2.59598 0
M  V30 4315 C 413.048 2.09142 -3.73421 0
M  V30 4316 C 412.374 3.44685 -4.08774 0
M  V30 4317 C 413.674 1.46619 -5.01298 0
M  V30 4318 H 415.368 0.569978 -2.93925 0
M  V30 4319 H 412.914 0.272724 -1.41394 0
M  V30 4320 H 414.867 3.00687 -2.95238 0
M  V30 4321 H 413.591 2.76843 -1.73279 0
M  V30 4322 H 412.25 1.41592 -3.38153 0
M  V30 4323 H 411.898 3.88495 -3.195 0
M  V30 4324 H 411.598 3.31077 -4.8545 0
M  V30 4325 H 413.122 4.16004 -4.4696 0
M  V30 4326 H 414.536 2.06535 -5.34805 0
M  V30 4327 H 412.933 1.43544 -5.82679 0
M  V30 4328 H 414.003 0.433611 -4.82957 0
M  V30 4329 N 415.346 1.54954 0.287554 0
M  V30 4330 C 416.592 1.76059 1.01856 0
M  V30 4331 C 416.947 0.547056 1.84459 0
M  V30 4332 O 416.24 -0.460442 1.85985 0
M  V30 4333 C 416.434 2.99833 1.94512 0
M  V30 4334 C 416.263 4.33108 1.21026 0
M  V30 4335 C 415.033 4.96632 0.931896 0
M  V30 4336 C 417.231 5.10694 0.607949 0
M  V30 4337 N 415.213 6.13668 0.168716 0
M  V30 4338 C 416.584 6.19996 -0.0217865 0
M  V30 4339 C 418.639 4.95236 0.514338 0
M  V30 4340 C 417.342 7.15524 -0.736092 0
M  V30 4341 C 419.368 5.91106 -0.186343 0
M  V30 4342 C 418.73 6.99786 -0.804875 0
M  V30 4343 H 414.829 0.696679 0.355193 0
M  V30 4344 H 417.413 1.92441 0.295741 0
M  V30 4345 H 415.584 2.84853 2.64033 0
M  V30 4346 H 417.316 3.09405 2.60865 0
M  V30 4347 H 414.071 4.57255 1.23348 0
M  V30 4348 H 414.495 6.76705 -0.199781 0
M  V30 4349 H 419.137 4.11328 0.978234 0
M  V30 4350 H 416.855 7.98964 -1.21172 0
M  V30 4351 H 420.441 5.81224 -0.258897 0
M  V30 4352 H 419.321 7.72694 -1.33843 0
M  V30 4353 N 416.824 -0.551391 1.4764 0
M  V30 4354 C 417.771 -1.65796 1.60563 0
M  V30 4355 C 418.741 -1.59932 0.448428 0
M  V30 4356 O 419.926 -1.78679 0.669222 0
M  V30 4357 C 417.066 -3.04108 1.63133 0
M  V30 4358 C 416.179 -3.20365 2.89811 0
M  V30 4359 C 415.314 -4.49109 2.8368 0
M  V30 4360 C 414.353 -4.58819 4.05156 0
M  V30 4361 N 413.49 -5.78926 3.97227 0
M  V30 4362 H 418.33 -1.54088 2.5507 0
M  V30 4363 H 415.867 -0.75052 1.26513 0
M  V30 4364 H 417.825 -3.84207 1.62606 0
M  V30 4365 H 416.455 -3.14637 0.721341 0
M  V30 4366 H 415.507 -2.33659 3.00179 0
M  V30 4367 H 416.819 -3.23402 3.79753 0
M  V30 4368 H 415.973 -5.37475 2.81434 0
M  V30 4369 H 414.712 -4.4856 1.91431 0
M  V30 4370 H 413.717 -3.68864 4.077 0
M  V30 4371 H 414.942 -4.61124 4.98539 0
M  V30 4372 H 412.888 -5.79314 3.07785 0
M  V30 4373 H 412.805 -5.83367 4.80853 0
M  V30 4374 H 414.073 -6.69637 3.99007 0
M  V30 4375 N 418.302 -1.35869 -0.798587 0
M  V30 4376 C 419.579 -1.20145 -1.54352 0
M  V30 4377 C 419.959 0.216161 -2.0999 0
M  V30 4378 O 419.307 1.22068 -1.93162 0
M  V30 4379 C 419.517 -2.27602 -2.64572 0
M  V30 4380 C 420.865 -2.63811 -3.32699 0
M  V30 4381 O 421.889 -2.26576 -2.74849 0
M  V30 4382 O 420.748 -3.27866 -4.37226 0
M  V30 4383 H 417.842 -0.467248 -0.682355 0
M  V30 4384 H 420.388 -1.47574 -0.837859 0
M  V30 4385 H 419.16 -3.2265 -2.21388 0
M  V30 4386 H 418.783 -2.01488 -3.42766 0
M  V30 4387 N 419.78 1.02168 -1.19998 0
M  V30 4388 C 421.028 1.75338 -1.00504 0
M  V30 4389 C 421.349 1.89387 0.464506 0
M  V30 4390 O 420.619 1.43268 1.33608 0
M  V30 4391 H 419.199 0.649564 -0.368885 0
M  V30 4392 H 421.861 1.23205 -1.51018 0
M  V30 4393 H 420.957 2.75892 -1.45912 0
M  V30 4394 N 421.258 1.00505 1.21394 0
M  V30 4395 C 422.221 0.570459 2.21987 0
M  V30 4396 C 423.221 -0.353211 1.56873 0
M  V30 4397 O 424.411 -0.14349 1.73608 0
M  V30 4398 C 421.543 -0.168555 3.40483 0
M  V30 4399 H 422.736 1.46021 2.6195 0
M  V30 4400 H 420.289 0.793565 1.34656 0
M  V30 4401 H 421.024 -1.07374 3.06009 0
M  V30 4402 H 420.809 0.494823 3.88965 0
M  V30 4403 H 422.299 -0.460362 4.15055 0
M  V30 4404 N 422.737 -1.36956 0.779787 0
M  V30 4405 C 424.148 -1.82094 0.412156 0
M  V30 4406 C 424.499 -1.64926 -1.06273 0
M  V30 4407 O 423.624 -1.16483 -1.82375 0
M  V30 4408 C 424.219 -3.3059 0.741319 0
M  V30 4409 C 422.778 -3.73974 0.426641 0
M  V30 4410 C 421.925 -2.59368 0.980987 0
M  V30 4411 H 424.876 -1.25314 0.973758 0
M  V30 4412 H 424.897 -3.80489 0.028887 0
M  V30 4413 H 424.409 -3.43054 1.81482 0
M  V30 4414 H 422.51 -3.67076 -0.639215 0
M  V30 4415 H 422.623 -4.69778 0.940515 0
M  V30 4416 H 420.987 -2.51463 0.404757 0
M  V30 4417 H 421.77 -2.74621 2.06005 0
M  V30 4418 N 424.215 -0.530993 -1.48385 0
M  V30 4419 C 425.145 0.219985 -2.32461 0
M  V30 4420 C 426.126 0.934111 -1.42156 0
M  V30 4421 O 427.311 0.919694 -1.71042 0
M  V30 4422 C 424.441 1.26674 -3.23375 0
M  V30 4423 C 423.395 0.67069 -4.22712 0
M  V30 4424 C 422.721 1.82017 -5.02766 0
M  V30 4425 C 424.021 -0.358268 -5.2107 0
M  V30 4426 H 425.715 -0.48187 -2.95497 0
M  V30 4427 H 423.261 -0.233182 -1.42099 0
M  V30 4428 H 425.214 1.80006 -3.81019 0
M  V30 4429 H 423.938 1.99818 -2.58341 0
M  V30 4430 H 422.597 0.158878 -3.66256 0
M  V30 4431 H 422.245 2.54002 -4.34157 0
M  V30 4432 H 421.945 1.42727 -5.70003 0
M  V30 4433 H 423.469 2.35725 -5.63264 0
M  V30 4434 H 424.883 0.0880081 -5.73232 0
M  V30 4435 H 423.28 -0.66861 -5.96364 0
M  V30 4436 H 424.35 -1.26367 -4.68145 0
M  V30 4437 N 425.693 1.55336 -0.266172 0
M  V30 4438 C 426.626 2.18256 0.666296 0
M  V30 4439 C 427.604 1.14064 1.1588 0
M  V30 4440 O 428.788 1.42546 1.23341 0
M  V30 4441 C 425.915 2.79867 1.90768 0
M  V30 4442 C 424.961 3.97283 1.55141 0
M  V30 4443 S 425.794 5.31694 0.637313 0
M  V30 4444 C 426.95 5.96769 1.88727 0
M  V30 4445 H 427.183 2.97008 0.131647 0
M  V30 4446 H 424.716 1.54317 -0.0504869 0
M  V30 4447 H 426.674 3.15996 2.62025 0
M  V30 4448 H 425.335 2.01025 2.41346 0
M  V30 4449 H 424.528 4.3905 2.4749 0
M  V30 4450 H 424.13 3.6253 0.919113 0
M  V30 4451 H 426.422 6.15458 2.83227 0
M  V30 4452 H 427.365 6.91752 1.51276 0
M  V30 4453 H 427.773 5.26034 2.04814 0
M  V30 4454 N 427.171 -0.0066808 1.57599 0
M  V30 4455 C 428.401 -0.703066 1.94269 0
M  V30 4456 C 428.809 -1.68206 0.866222 0
M  V30 4457 O 428.152 -1.82966 -0.164087 0
M  V30 4458 C 428.214 -1.49616 3.26887 0
M  V30 4459 C 427.878 -0.679494 4.5192 0
M  V30 4460 C 428.875 0.0299508 5.19891 0
M  V30 4461 C 426.56 -0.627433 4.98366 0
M  V30 4462 C 428.554 0.780514 6.32603 0
M  V30 4463 C 426.241 0.126861 6.10968 0
M  V30 4464 C 427.239 0.829574 6.77943 0
M  V30 4465 O 426.927 1.57157 7.88389 0
M  V30 4466 H 426.659 -0.201217 0.645359 0
M  V30 4467 H 429.213 0.0385326 2.05364 0
M  V30 4468 H 427.443 -2.28209 3.12182 0
M  V30 4469 H 429.132 -2.07726 3.48719 0
M  V30 4470 H 429.898 -0.00115963 4.85 0
M  V30 4471 H 425.777 -1.16392 4.46065 0
M  V30 4472 H 429.321 1.32954 6.84813 0
M  V30 4473 H 425.218 0.159815 6.45302 0
M  V30 4474 H 425.986 1.48758 8.04868 0
M  V30 4475 N 428.649 -1.55105 -0.279332 0
M  V30 4476 C 429.926 -1.66119 -1.03267 0
M  V30 4477 C 430.306 -0.523525 -2.04505 0
M  V30 4478 O 429.654 0.477194 -2.23462 0
M  V30 4479 C 429.864 -3.05067 -1.69515 0
M  V30 4480 C 431.212 -3.62606 -2.20912 0
M  V30 4481 O 432.236 -3.07659 -1.79512 0
M  V30 4482 O 431.095 -4.58861 -2.96831 0
M  V30 4483 H 428.189 -0.674429 -0.478618 0
M  V30 4484 H 430.735 -1.67446 -0.275694 0
M  V30 4485 H 429.507 -3.79311 -0.9612 0
M  V30 4486 H 429.13 -3.07611 -2.51915 0
M  V30 4487 N 430.127 0.543554 -1.4793 0
M  V30 4488 C 431.037 1.67657 -1.64098 0
M  V30 4489 C 432.053 1.65934 -0.523622 0
M  V30 4490 O 433.229 1.85133 -0.792943 0
M  V30 4491 C 430.294 3.04146 -1.66421 0
M  V30 4492 C 429.355 3.16831 -2.89684 0
M  V30 4493 C 428.588 4.46809 -2.91886 0
M  V30 4494 O 428.811 5.33095 -2.02895 0
M  V30 4495 O 427.745 4.63573 -3.83906 0
M  V30 4496 H 431.571 1.56957 -2.59997 0
M  V30 4497 H 429.156 0.715116 -1.31173 0
M  V30 4498 H 431.038 3.85346 -1.70548 0
M  V30 4499 H 429.713 3.152 -0.736923 0
M  V30 4500 H 428.62 2.34977 -2.91095 0
M  V30 4501 H 429.953 3.10687 -3.81752 0
M  V30 4502 N 431.605 1.3629 0.791371 0
M  V30 4503 C 432.833 1.33562 1.58016 0
M  V30 4504 C 433.248 -0.0835616 1.88615 0
M  V30 4505 O 432.605 -1.0399 1.49974 0
M  V30 4506 C 432.656 2.15517 2.90232 0
M  V30 4507 O 432.377 3.51902 2.60953 0
M  V30 4508 C 433.878 2.20546 3.84544 0
M  V30 4509 H 431.098 0.458226 0.490173 0
M  V30 4510 H 433.642 1.79361 0.982345 0
M  V30 4511 H 431.797 1.73278 3.46487 0
M  V30 4512 H 432.211 3.94644 3.4548 0
M  V30 4513 H 433.685 2.82252 4.74382 0
M  V30 4514 H 434.162 1.20838 4.2225 0
M  V30 4515 H 434.768 2.63013 3.34222 0
M  V30 4516 N 433.083 -1.0153 1.20538 0
M  V30 4517 C 434.331 -1.74803 1.01432 0
M  V30 4518 C 434.652 -1.8963 -0.454456 0
M  V30 4519 O 433.922 -1.43975 -1.32846 0
M  V30 4520 H 432.502 -0.647598 0.372324 0
M  V30 4521 H 435.164 -1.22402 1.5167 0
M  V30 4522 H 434.26 -2.75114 1.47373 0
M  V30 4523 N 434.561 -1.01147 -1.20859 0
M  V30 4524 C 435.791 -0.715872 -1.93801 0
M  V30 4525 C 436.199 0.726592 -1.74692 0
M  V30 4526 O 435.542 1.50397 -1.05482 0
M  V30 4527 C 435.604 -0.965269 -3.46299 0
M  V30 4528 C 435.268 -2.39584 -3.89164 0
M  V30 4529 C 436.265 -3.3764 -3.95342 0
M  V30 4530 C 433.95 -2.73522 -4.21297 0
M  V30 4531 C 435.944 -4.67698 -4.33056 0
M  V30 4532 C 433.631 -4.03794 -4.58687 0
M  V30 4533 C 434.629 -5.00693 -4.64538 0
M  V30 4534 O 434.317 -6.28635 -5.01072 0
M  V30 4535 H 434.049 -0.262524 -0.622942 0
M  V30 4536 H 436.603 -1.35413 -1.54443 0
M  V30 4537 H 434.833 -0.269847 -3.85757 0
M  V30 4538 H 436.522 -0.662051 -4.00464 0
M  V30 4539 H 437.288 -3.12757 -3.70686 0
M  V30 4540 H 433.167 -1.9879 -4.15937 0
M  V30 4541 H 436.711 -5.4333 -4.37537 0
M  V30 4542 H 432.608 -4.28459 -4.82797 0
M  V30 4543 H 433.376 -6.32847 -5.19083 0
M  V30 4544 N 436.039 1.36541 -0.78704 0
M  V30 4545 C 437.002 2.28413 -0.189778 0
M  V30 4546 C 438.002 1.48719 0.611499 0
M  V30 4547 O 439.192 1.68737 0.432842 0
M  V30 4548 C 436.324 3.32824 0.737638 0
M  V30 4549 H 437.517 2.82743 -0.999831 0
M  V30 4550 H 435.07 1.46065 -0.556298 0
M  V30 4551 H 435.805 2.83646 1.57212 0
M  V30 4552 H 435.59 3.91752 0.165044 0
M  V30 4553 H 437.08 4.0144 1.15047 0
M  V30 4554 N 437.518 0.538854 1.48102 0
M  V30 4555 C 438.766 0.00798599 2.02098 0
M  V30 4556 C 439.087 -1.33922 1.41739 0
M  V30 4557 O 438.357 -1.86932 0.585934 0
M  V30 4558 H 436.937 -3.62179e-05 0.747 0
M  V30 4559 H 439.599 0.7047 1.81714 0
M  V30 4560 H 438.695 -0.0937672 3.11959 0
M  V30 4561 N 438.996 -1.55193 0.274407 0
M  V30 4562 C 439.926 -2.25471 -0.607032 0
M  V30 4563 C 440.907 -1.24461 -1.15946 0
M  V30 4564 O 442.092 -1.53179 -1.19373 0
M  V30 4565 C 439.222 -2.97526 -1.79153 0
M  V30 4566 C 438.176 -4.05459 -1.37067 0
M  V30 4567 C 437.502 -4.65084 -2.6382 0
M  V30 4568 C 438.802 -5.19691 -0.521389 0
M  V30 4569 H 440.496 -2.99393 -0.0209343 0
M  V30 4570 H 438.042 -1.43997 -0.00862866 0
M  V30 4571 H 439.995 -3.45402 -2.41404 0
M  V30 4572 H 438.719 -2.21138 -2.40344 0
M  V30 4573 H 437.378 -3.58393 -0.771355 0
M  V30 4574 H 437.026 -3.85365 -3.23268 0
M  V30 4575 H 436.726 -5.37961 -2.36372 0
M  V30 4576 H 438.25 -5.15708 -3.26921 0
M  V30 4577 H 439.664 -5.63623 -1.04889 0
M  V30 4578 H 438.061 -5.99126 -0.341825 0
M  V30 4579 H 439.131 -4.82713 0.46 0
M  V30 4580 N 440.474 -0.00167713 -1.576 0
M  V30 4581 C 441.699 0.69739 -1.95323 0
M  V30 4582 C 442.124 1.6642 -0.876706 0
M  V30 4583 O 441.482 1.80548 0.165007 0
M  V30 4584 C 441.53 1.40403 -3.32144 0
M  V30 4585 O 440.634 2.5185 -3.26566 0
M  V30 4586 H 439.975 0.185373 -0.637599 0
M  V30 4587 H 442.505 -0.0553665 -2.04525 0
M  V30 4588 H 442.515 1.76707 -3.67748 0
M  V30 4589 H 441.19 0.695167 -4.10049 0
M  V30 4590 H 439.767 2.17861 -3.0264 0
M  V30 4591 N 441.952 1.55251 0.271103 0
M  V30 4592 C 443.229 1.66664 1.02384 0
M  V30 4593 C 443.609 0.534363 2.04225 0
M  V30 4594 O 442.957 -0.465337 2.23712 0
M  V30 4595 C 443.167 3.05961 1.67895 0
M  V30 4596 C 444.515 3.63772 2.18986 0
M  V30 4597 O 445.539 3.08606 1.77878 0
M  V30 4598 O 444.398 4.60429 2.94393 0
M  V30 4599 H 441.492 0.676957 0.475035 0
M  V30 4600 H 444.038 1.67589 0.26681 0
M  V30 4601 H 442.81 3.79815 0.941071 0
M  V30 4602 H 442.433 3.08943 2.5028 0
M  V30 4603 N 443.43 -0.535701 1.48216 0
M  V30 4604 C 444.658 -1.31671 1.59594 0
M  V30 4605 C 445.073 -1.87083 0.254056 0
M  V30 4606 O 444.43 -1.66112 -0.755854 0
M  V30 4607 C 444.481 -2.47158 2.63809 0
M  V30 4608 O 444.202 -1.94032 3.92789 0
M  V30 4609 C 445.703 -3.39062 2.85573 0
M  V30 4610 H 442.923 -0.400623 0.538277 0
M  V30 4611 H 445.467 -0.646827 1.94001 0
M  V30 4612 H 443.622 -3.10043 2.32276 0
M  V30 4613 H 444.036 -2.69585 4.49916 0
M  V30 4614 H 445.51 -4.16459 3.62306 0
M  V30 4615 H 445.987 -3.93941 1.94184 0
M  V30 4616 H 446.593 -2.81975 3.18387 0
M  V30 4617 N 444.908 -1.36708 -0.784132 0
M  V30 4618 C 445.871 -1.31307 -1.87859 0
M  V30 4619 C 446.871 -0.219654 -1.59293 0
M  V30 4620 O 448.061 -0.47476 -1.67606 0
M  V30 4621 C 445.193 -1.03679 -3.24751 0
M  V30 4622 H 446.386 -2.28647 -1.94064 0
M  V30 4623 H 443.939 -1.21558 -0.98252 0
M  V30 4624 H 444.674 -0.0681936 -3.24228 0
M  V30 4625 H 444.459 -1.82811 -3.46876 0
M  V30 4626 H 445.949 -1.02518 -4.04821 0
M  V30 4627 N 446.386 1.0089 -1.21074 0
M  V30 4628 C 447.802 1.2695 -0.967257 0
M  V30 4629 C 448.002 1.9846 0.348673 0
M  V30 4630 O 447.058 2.28459 1.0753 0
M  V30 4631 C 448.371 2.09697 -2.15517 0
M  V30 4632 C 449.919 2.22937 -2.197 0
M  V30 4633 C 450.394 3.09064 -3.37999 0
M  V30 4634 N 451.885 3.16653 -3.38061 0
M  V30 4635 C 452.62 3.8354 -4.26245 0
M  V30 4636 N 452.116 4.52488 -5.2462 0
M  V30 4637 N 453.909 3.80141 -4.14064 0
M  V30 4638 H 446.06 0.529005 -2.05707 0
M  V30 4639 H 448.323 0.296148 -0.900556 0
M  V30 4640 H 448.029 1.64497 -3.10859 0
M  V30 4641 H 447.903 3.10444 -2.14253 0
M  V30 4642 H 450.29 2.67357 -1.24916 0
M  V30 4643 H 450.371 1.21673 -2.2501 0
M  V30 4644 H 450.015 2.65347 -4.33074 0
M  V30 4645 H 449.945 4.10433 -3.29928 0
M  V30 4646 H 452.436 2.67566 -2.66865 0
M  V30 4647 H 452.749 5.01219 -5.88217 0
M  V30 4648 H 451.094 4.51288 -5.28549 0
M  V30 4649 H 454.285 3.25427 -3.36474 0
M  V30 4650 H 454.458 4.31992 -4.82998 0
M  V30 4651 N 447.864 1.01787 1.20321 0
M  V30 4652 C 448.814 0.559976 2.21016 0
M  V30 4653 C 449.798 -0.385366 1.56217 0
M  V30 4654 O 450.99 -0.208126 1.75772 0
M  V30 4655 C 448.119 -0.0990553 3.43157 0
M  V30 4656 C 447.205 0.86807 4.15121 0
M  V30 4657 N 447.596 2.0261 4.63447 0
M  V30 4658 C 445.894 0.689162 4.40643 0
M  V30 4659 C 446.595 2.63518 5.18588 0
M  V30 4660 N 445.571 1.91569 5.08726 0
M  V30 4661 H 449.373 1.44281 2.56048 0
M  V30 4662 H 446.887 0.883381 1.36272 0
M  V30 4663 H 448.884 -0.444643 4.14522 0
M  V30 4664 H 447.544 -0.977709 3.0963 0
M  V30 4665 H 448.555 2.40598 4.58621 0
M  V30 4666 H 445.232 -0.14133 4.17261 0
M  V30 4667 H 446.622 3.61527 5.66346 0
M  V30 4668 N 449.342 -1.36122 0.79427 0
M  V30 4669 C 450.572 -2.03067 0.380437 0
M  V30 4670 C 450.98 -1.60018 -1.00949 0
M  V30 4671 O 450.323 -0.787425 -1.65968 0
M  V30 4672 C 450.385 -3.57587 0.37034 0
M  V30 4673 C 450.049 -4.23855 1.70867 0
M  V30 4674 C 451.046 -4.46404 2.66496 0
M  V30 4675 C 448.731 -4.61229 1.9893 0
M  V30 4676 C 450.725 -5.05412 3.88378 0
M  V30 4677 C 448.412 -5.19953 3.21079 0
M  V30 4678 C 449.41 -5.41985 4.15621 0
M  V30 4679 O 449.098 -5.99475 5.35616 0
M  V30 4680 H 448.83 -0.658168 0.154243 0
M  V30 4681 H 451.384 -1.7498 1.0757 0
M  V30 4682 H 449.614 -3.84814 -0.381444 0
M  V30 4683 H 451.303 -4.05895 -0.0194894 0
M  V30 4684 H 452.069 -4.17921 2.46103 0
M  V30 4685 H 447.948 -4.43402 1.26158 0
M  V30 4686 H 451.492 -5.22524 4.62185 0
M  V30 4687 H 447.389 -5.47862 3.41347 0
M  V30 4688 H 448.157 -6.17937 5.36745 0
M  V30 4689 N 450.82 -0.546701 -1.47814 0
M  V30 4690 C 452.069 -0.0166497 -2.01693 0
M  V30 4691 C 452.382 1.33721 -1.42752 0
M  V30 4692 O 453.588 1.95658 -1.8823 0
M  V30 4693 C 452.044 0.0206769 -3.59894 0
M  V30 4694 C 451.652 -1.3293 -4.27824 0
M  V30 4695 C 453.396 0.498674 -4.21561 0
M  V30 4696 C 451.303 -1.25165 -5.78003 0
M  V30 4697 H 450.233 -0.0024541 -0.753996 0
M  V30 4698 H 452.884 -0.692984 -1.69912 0
M  V30 4699 H 451.266 0.76244 -3.88591 0
M  V30 4700 H 452.44 -2.08795 -4.10781 0
M  V30 4701 H 450.755 -1.74438 -3.78101 0
M  V30 4702 H 453.352 0.575 -5.31599 0
M  V30 4703 H 453.695 1.5083 -3.88016 0
M  V30 4704 H 454.228 -0.18791 -3.97356 0
M  V30 4705 H 450.967 -2.23695 -6.1615 0
M  V30 4706 H 450.487 -0.53464 -5.97412 0
M  V30 4707 H 452.166 -0.949299 -6.39998 0
M  V30 4708 N 452.299 1.55045 -0.282633 0
M  V30 4709 C 453.547 1.99365 0.331334 0
M  V30 4710 C 453.868 1.1725 1.55812 0
M  V30 4711 O 453.138 0.263871 1.94115 0
M  V30 4712 H 451.718 0.736397 0.125414 0
M  V30 4713 H 454.38 1.90964 -0.389711 0
M  V30 4714 H 453.476 3.0596 0.616036 0
M  V30 4715 N 453.777 0.010035 1.57597 0
M  V30 4716 C 455.025 -0.671371 1.90623 0
M  V30 4717 C 455.346 -1.73753 0.885151 0
M  V30 4718 O 454.616 -1.95752 -0.0760611 0
M  V30 4719 H 453.196 -0.250968 0.703579 0
M  V30 4720 H 455.858 0.0533325 1.94827 0
M  V30 4721 H 454.954 -1.13626 2.90681 0
M  V30 4722 N 455.255 -1.55392 -0.262866 0
M  V30 4723 C 456.185 -1.91978 -1.32917 0
M  V30 4724 C 457.166 -0.7828 -1.51017 0
M  V30 4725 O 458.351 -1.04178 -1.63892 0
M  V30 4726 C 455.481 -2.20055 -2.68687 0
M  V30 4727 C 454.435 -3.35854 -2.65304 0
M  V30 4728 C 453.761 -3.49435 -4.04721 0
M  V30 4729 C 455.061 -4.71977 -2.23685 0
M  V30 4730 H 456.755 -2.81292 -1.02544 0
M  V30 4731 H 454.301 -1.3534 -0.491846 0
M  V30 4732 H 456.254 -2.44237 -3.43404 0
M  V30 4733 H 454.978 -1.27551 -3.00663 0
M  V30 4734 H 453.637 -3.11655 -1.93045 0
M  V30 4735 H 453.285 -2.54379 -4.33936 0
M  V30 4736 H 452.985 -4.27297 -4.0335 0
M  V30 4737 H 454.509 -3.7592 -4.81161 0
M  V30 4738 H 455.923 -4.95637 -2.88127 0
M  V30 4739 H 454.32 -5.52828 -2.33456 0
M  V30 4740 H 455.39 -4.70115 -1.18827 0
M  V30 4741 N 456.733 0.527833 -1.48498 0
M  V30 4742 C 457.663 1.64136 -1.66077 0
M  V30 4743 C 458.644 1.62286 -0.509625 0
M  V30 4744 O 459.829 1.79449 -0.742413 0
M  V30 4745 C 456.959 3.02717 -1.70234 0
M  V30 4746 C 455.913 3.19426 -2.8487 0
M  V30 4747 C 455.239 4.5909 -2.74118 0
M  V30 4748 C 456.539 3.01993 -4.26142 0
M  V30 4749 H 458.233 1.4968 -2.593 0
M  V30 4750 H 455.779 0.718654 -1.24785 0
M  V30 4751 H 457.732 3.80491 -1.8112 0
M  V30 4752 H 456.456 3.18201 -0.735911 0
M  V30 4753 H 455.115 2.4407 -2.73542 0
M  V30 4754 H 454.763 4.71413 -1.7544 0
M  V30 4755 H 454.463 4.71214 -3.51042 0
M  V30 4756 H 455.987 5.3896 -2.86974 0
M  V30 4757 H 457.401 3.69558 -4.38292 0
M  V30 4758 H 455.798 3.2561 -5.04082 0
M  V30 4759 H 456.868 1.98396 -4.42456 0
M  V30 4760 N 458.211 1.37122 0.776871 0
M  V30 4761 C 459.161 1.28989 1.88005 0
M  V30 4762 C 460.145 0.178765 1.59904 0
M  V30 4763 O 461.337 0.412705 1.72121 0
M  V30 4764 C 458.466 1.09402 3.25402 0
M  V30 4765 C 457.552 2.25036 3.59471 0
M  V30 4766 N 457.943 3.50407 3.64759 0
M  V30 4767 C 456.241 2.17078 3.89607 0
M  V30 4768 C 456.942 4.26628 3.95428 0
M  V30 4769 N 455.918 3.55709 4.11062 0
M  V30 4770 H 459.72 2.2394 1.90337 0
M  V30 4771 H 457.234 1.30021 0.973052 0
M  V30 4772 H 459.231 1.01661 4.04315 0
M  V30 4773 H 457.891 0.153632 3.24336 0
M  V30 4774 H 458.902 3.8438 3.47091 0
M  V30 4775 H 455.579 1.31067 3.96393 0
M  V30 4776 H 456.969 5.35107 4.06338 0
M  V30 4777 N 459.689 -1.00246 1.21608 0
M  V30 4778 C 460.639 -2.07492 0.945051 0
M  V30 4779 C 461.623 -1.60585 -0.100675 0
M  V30 4780 O 462.815 -1.76667 0.10859 0
M  V30 4781 C 459.944 -3.39425 0.514342 0
M  V30 4782 C 459.03 -3.92993 1.59428 0
M  V30 4783 N 459.421 -4.19898 2.81991 0
M  V30 4784 C 457.719 -4.21297 1.46374 0
M  V30 4785 C 458.42 -4.63297 3.51754 0
M  V30 4786 N 457.396 -4.66421 2.79199 0
M  V30 4787 H 461.198 -2.26222 1.87619 0
M  V30 4788 H 458.712 -1.18339 1.11219 0
M  V30 4789 H 460.709 -4.15808 0.301527 0
M  V30 4790 H 459.369 -3.22101 -0.410008 0
M  V30 4791 H 460.38 -4.08377 3.1851 0
M  V30 4792 H 457.057 -4.13095 0.604863 0
M  V30 4793 H 458.447 -4.92816 4.56708 0
M  V30 4794 N 461.167 -1.02423 -1.1978 0
M  V30 4795 C 462.13 -0.605703 -2.21052 0
M  V30 4796 C 463.13 0.328209 -1.57415 0
M  V30 4797 O 464.32 0.115853 -1.73814 0
M  V30 4798 C 461.452 0.114366 -3.40708 0
M  V30 4799 H 462.645 -1.5017 -2.59594 0
M  V30 4800 H 460.198 -0.814888 -1.33376 0
M  V30 4801 H 460.933 1.02492 -3.07678 0
M  V30 4802 H 460.718 -0.556641 -3.88129 0
M  V30 4803 H 462.208 0.394272 -4.15735 0
M  V30 4804 N 462.645 1.35699 -0.801477 0
M  V30 4805 C 464.056 1.81415 -0.441073 0
M  V30 4806 C 464.407 1.66595 1.03636 0
M  V30 4807 O 463.532 1.19369 1.80499 0
M  V30 4808 C 464.127 3.29369 -0.793819 0
M  V30 4809 C 462.686 3.73248 -0.486083 0
M  V30 4810 C 461.833 2.57775 -1.02213 0
M  V30 4811 H 464.784 1.23749 -0.993572 0
M  V30 4812 H 464.805 3.80395 -0.0894158 0
M  V30 4813 H 464.317 3.40123 -1.86917 0
M  V30 4814 H 462.418 3.68046 0.580735 0
M  V30 4815 H 462.531 4.68222 -1.01513 0
M  V30 4816 H 460.895 2.50788 -0.444712 0
M  V30 4817 H 461.678 2.71309 -2.10348 0
M  V30 4818 N 464.123 0.554532 1.47522 0
M  V30 4819 C 465.348 0.0322661 2.07375 0
M  V30 4820 C 465.773 -1.25079 1.40488 0
M  V30 4821 O 465.131 -1.74859 0.47896 0
M  V30 4822 C 465.179 -0.149397 3.6029 0
M  V30 4823 O 464.283 -1.21259 3.9417 0
M  V30 4824 H 463.624 0.0501228 0.662106 0
M  V30 4825 H 466.154 0.769452 1.8958 0
M  V30 4826 H 466.164 -0.364437 4.06369 0
M  V30 4827 H 464.839 0.787743 4.08372 0
M  V30 4828 H 463.416 -0.97825 3.5984 0
M  V30 4829 N 465.601 -1.54893 0.290851 0
M  V30 4830 C 466.531 -2.26103 -0.583084 0
M  V30 4831 C 467.512 -1.25684 -1.14619 0
M  V30 4832 O 468.697 -1.54436 -1.17741 0
M  V30 4833 C 465.827 -2.99409 -1.75987 0
M  V30 4834 C 464.781 -4.0689 -1.32758 0
M  V30 4835 C 464.107 -4.67856 -2.58872 0
M  V30 4836 C 465.407 -5.20215 -0.46624 0
M  V30 4837 H 467.101 -2.99398 0.0108214 0
M  V30 4838 H 464.647 -1.43998 0.00664468 0
M  V30 4839 H 466.6 -3.47943 -2.37727 0
M  V30 4840 H 465.324 -2.23675 -2.37985 0
M  V30 4841 H 463.983 -3.59191 -0.733299 0
M  V30 4842 H 463.631 -3.88772 -3.19163 0
M  V30 4843 H 463.331 -5.40438 -2.30653 0
M  V30 4844 H 464.855 -5.19147 -3.21433 0
M  V30 4845 H 466.269 -5.64704 -0.989047 0
M  V30 4846 H 464.666 -5.99455 -0.27826 0
M  V30 4847 H 465.736 -4.82198 0.511173 0
M  V30 4848 N 467.08 -0.0183926 -1.57589 0
M  V30 4849 C 468.01 0.965596 -2.12599 0
M  V30 4850 C 468.991 1.34641 -1.0395 0
M  V30 4851 O 470.176 1.42693 -1.31729 0
M  V30 4852 C 467.306 2.25149 -2.64434 0
M  V30 4853 C 466.26 2.01175 -3.77773 0
M  V30 4854 C 465.586 3.35937 -4.15994 0
M  V30 4855 C 466.886 1.35953 -5.04296 0
M  V30 4856 H 468.58 0.507504 -2.95067 0
M  V30 4857 H 466.126 0.242671 -1.41941 0
M  V30 4858 H 468.079 2.94357 -3.01549 0
M  V30 4859 H 466.803 2.73105 -1.79112 0
M  V30 4860 H 465.462 1.34388 -3.4108 0
M  V30 4861 H 465.11 3.81631 -3.27669 0
M  V30 4862 H 464.81 3.20705 -4.92364 0
M  V30 4863 H 466.334 4.0643 -4.55683 0
M  V30 4864 H 467.748 1.95144 -5.39065 0
M  V30 4865 H 466.145 1.31152 -5.85593 0
M  V30 4866 H 467.215 0.331071 -4.83768 0
M  V30 4867 N 468.558 1.5553 0.254621 0
M  V30 4868 C 469.521 1.88872 1.29846 0
M  V30 4869 C 470.521 0.764591 1.41459 0
M  V30 4870 O 471.711 1.03265 1.40293 0
M  V30 4871 C 468.843 2.11032 2.67728 0
M  V30 4872 H 470.036 2.82201 1.01502 0
M  V30 4873 H 467.589 1.48303 0.493556 0
M  V30 4874 H 468.324 1.20146 3.01223 0
M  V30 4875 H 468.109 2.92895 2.60682 0
M  V30 4876 H 469.599 2.38038 3.43115 0
M  V30 4877 N 470.036 -0.519951 1.48776 0
M  V30 4878 C 471.283 -1.27522 1.57303 0
M  V30 4879 C 471.611 -1.92869 0.251328 0
M  V30 4880 O 470.866 -1.80372 -0.759243 0
M  V30 4881 C 471.165 -2.37864 2.6675 0
M  V30 4882 C 470.831 -1.90103 4.08867 0
M  V30 4883 C 469.493 -1.76795 4.47546 0
M  V30 4884 C 471.845 -1.54133 4.97888 0
M  V30 4885 C 469.173 -1.25868 5.73039 0
M  V30 4886 C 471.525 -1.04665 6.23881 0
M  V30 4887 C 470.189 -0.899823 6.61407 0
M  V30 4888 H 469.459 -0.466636 0.575614 0
M  V30 4889 H 472.106 -0.579109 1.82534 0
M  V30 4890 H 470.411 -3.13186 2.35418 0
M  V30 4891 H 472.108 -2.95969 2.70561 0
M  V30 4892 H 468.698 -2.01414 3.78326 0
M  V30 4893 H 472.882 -1.6327 4.68675 0
M  V30 4894 H 468.138 -1.13196 6.0083 0
M  V30 4895 H 472.312 -0.759074 6.92251 0
M  V30 4896 H 469.939 -0.503011 7.58534 0
M  V30 4897 N 471.514 -1.37532 -0.769588 0
M  V30 4898 C 472.742 -1.36059 -1.55871 0
M  V30 4899 C 473.157 0.053544 -1.88724 0
M  V30 4900 O 472.514 1.01591 -1.5161 0
M  V30 4901 C 472.565 -2.20107 -2.86767 0
M  V30 4902 O 472.286 -3.56009 -2.55321 0
M  V30 4903 C 473.787 -2.26636 -3.80987 0
M  V30 4904 H 471.007 -0.465967 -0.482821 0
M  V30 4905 H 473.551 -1.80901 -0.953686 0
M  V30 4906 H 471.706 -1.78768 -3.43687 0
M  V30 4907 H 472.12 -4.0009 -3.39158 0
M  V30 4908 H 473.594 -2.89763 -4.69831 0
M  V30 4909 H 474.071 -1.2754 -4.20274 0
M  V30 4910 H 474.677 -2.68296 -3.29996 0
M  V30 4911 N 472.992 0.995999 -1.22138 0
M  V30 4912 C 473.94 2.10673 -0.985876 0
M  V30 4913 C 474.934 1.69255 0.0699553 0
M  V30 4914 O 476.14 1.79812 -0.0822176 0
M  V30 4915 H 472.515 0.688865 -0.30161 0
M  V30 4916 H 474.486 2.27711 -1.92848 0
M  V30 4917 C 473.235 3.42881 -0.576909 0
M  V30 4918 H 472.558 3.75191 -1.38101 0
M  V30 4919 H 473.998 4.21589 -0.451518 0
M  V30 4920 C 472.457 3.29265 0.713196 0
M  V30 4921 O 472.987 3.60777 1.76643 0
M  V30 4922 N 471.193 2.82456 0.683162 0
M  V30 4923 H 470.74 2.5701 -0.174242 0
M  V30 4924 H 470.698 2.73727 1.54663 0
M  V30 4925 N 474.47 1.03057 1.19235 0
M  V30 4926 C 475.881 0.757449 1.70645 0
M  V30 4927 C 476.232 -0.722735 1.82403 0
M  V30 4928 O 475.357 -1.56325 1.49638 0
M  V30 4929 C 475.952 1.36833 3.09939 0
M  V30 4930 C 474.511 1.14375 3.58602 0
M  V30 4931 C 473.658 1.46533 2.35422 0
M  V30 4932 H 476.609 1.19828 1.04052 0
M  V30 4933 H 476.63 0.766184 3.72706 0
M  V30 4934 H 476.142 2.44562 3.01349 0
M  V30 4935 H 474.243 0.0847542 3.72504 0
M  V30 4936 H 474.356 1.83366 4.42622 0
M  V30 4937 H 472.72 0.884712 2.38841 0
M  V30 4938 H 473.503 2.55349 2.2946 0
M  V30 4939 N 475.948 -1.35272 0.808662 0
M  V30 4940 C 477.176 -2.02946 0.402537 0
M  V30 4941 C 477.591 -1.60937 -0.987147 0
M  V30 4942 O 476.948 -0.807917 -1.63643 0
M  V30 4943 C 476.999 -3.58317 0.47868 0
M  V30 4944 O 476.72 -3.98799 1.81358 0
M  V30 4945 C 478.221 -4.43251 0.0656281 0
M  V30 4946 H 475.441 -0.650831 0.163279 0
M  V30 4947 H 477.985 -1.72849 1.09286 0
M  V30 4948 H 476.14 -3.87055 -0.163415 0
M  V30 4949 H 476.554 -4.93451 1.77781 0
M  V30 4950 H 478.028 -5.51738 0.170017 0
M  V30 4951 H 478.505 -4.27913 -0.989278 0
M  V30 4952 H 479.111 -4.19813 0.68096 0
M  V30 4953 N 477.426 -0.562348 -1.47226 0
M  V30 4954 C 478.672 -0.0402761 -2.0276 0
M  V30 4955 C 479.005 1.30823 -1.43523 0
M  V30 4956 O 478.28 1.85249 -0.592705 0
M  V30 4957 C 478.563 0.047311 -3.60069 0
M  V30 4958 C 478.416 -1.32865 -4.29729 0
M  V30 4959 C 479.735 0.758182 -4.3352 0
M  V30 4960 H 476.854 -0.0161105 -0.736824 0
M  V30 4961 H 479.496 -0.725628 -1.75598 0
M  V30 4962 H 477.646 0.630986 -3.83342 0
M  V30 4963 H 479.318 -1.95593 -4.17781 0
M  V30 4964 H 477.561 -1.90195 -3.89882 0
M  V30 4965 H 478.232 -1.22004 -5.38349 0
M  V30 4966 H 480.708 0.262546 -4.15271 0
M  V30 4967 H 479.584 0.78844 -5.43208 0
M  V30 4968 H 479.845 1.81537 -4.03109 0
M  V30 4969 N 478.904 1.54736 -0.299062 0
M  V30 4970 C 479.852 2.24897 0.593658 0
M  V30 4971 C 480.846 1.25429 1.13859 0
M  V30 4972 O 482.052 1.43286 1.08945 0
M  V30 4973 H 478.427 0.72207 0.210046 0
M  V30 4974 H 480.398 2.98393 -0.0206421 0
M  V30 4975 C 479.147 3.00159 1.75499 0
M  V30 4976 H 478.47 3.76501 1.34489 0
M  V30 4977 H 479.91 3.52535 2.35574 0
M  V30 4978 C 478.369 2.07015 2.65794 0
M  V30 4979 O 478.899 1.63692 3.66835 0
M  V30 4980 N 477.105 1.73012 2.33485 0
M  V30 4981 H 476.652 2.08439 1.51364 0
M  V30 4982 H 476.61 1.10965 2.94167 0
M  V30 4983 N 480.382 0.0267497 1.57577 0
M  V30 4984 C 481.607 -0.666227 1.96408 0
M  V30 4985 C 482.032 -1.65004 0.903071 0
M  V30 4986 O 481.39 -1.80787 -0.136263 0
M  V30 4987 C 481.438 -1.35101 3.34335 0
M  V30 4988 O 480.542 -2.46623 3.30531 0
M  V30 4989 H 479.883 -0.175206 0.640468 0
M  V30 4990 H 482.413 0.0878977 2.04411 0
M  V30 4991 H 482.423 -1.70834 3.70513 0
M  V30 4992 H 481.098 -0.629844 4.11103 0
M  V30 4993 H 479.675 -2.13019 3.06068 0
M  V30 4994 N 481.861 -1.55662 -0.24637 0
M  V30 4995 C 483.091 -1.81312 -0.990438 0
M  V30 4996 C 483.499 -0.600234 -1.79426 0
M  V30 4997 O 482.842 0.440537 -1.78339 0
M  V30 4998 C 482.904 -3.0032 -1.97607 0
M  V30 4999 C 482.568 -4.36322 -1.35912 0
M  V30 5000 C 483.565 -5.14295 -0.761348 0
M  V30 5001 C 481.25 -4.83019 -1.37833 0
M  V30 5002 C 483.244 -6.37114 -0.190998 0
M  V30 5003 C 480.931 -6.05786 -0.804128 0
M  V30 5004 C 481.929 -6.82672 -0.211489 0
M  V30 5005 O 481.617 -8.03121 0.353845 0
M  V30 5006 H 481.349 -0.607233 -0.297058 0
M  V30 5007 H 483.903 -2.0356 -0.274351 0
M  V30 5008 H 482.133 -2.73829 -2.73047 0
M  V30 5009 H 483.822 -3.13057 -2.58361 0
M  V30 5010 H 484.588 -4.79337 -0.739013 0
M  V30 5011 H 480.467 -4.23165 -1.829 0
M  V30 5012 H 484.011 -6.97069 0.272206 0
M  V30 5013 H 479.908 -6.40222 -0.823792 0
M  V30 5014 H 480.676 -8.18131 0.245761 0
M  V30 5015 N 483.339 0.512053 -1.4905 0
M  V30 5016 C 484.286 1.6148 -1.64902 0
M  V30 5017 C 485.256 1.58687 -0.490673 0
M  V30 5018 O 486.441 1.76842 -0.71636 0
M  V30 5019 C 483.581 2.99676 -1.71139 0
M  V30 5020 C 482.694 3.12568 -2.98203 0
M  V30 5021 C 481.829 4.4143 -2.95487 0
M  V30 5022 C 480.868 4.47916 -4.17179 0
M  V30 5023 N 480.005 5.68191 -4.12437 0
M  V30 5024 H 484.845 1.47271 -2.59066 0
M  V30 5025 H 482.382 0.716713 -1.28459 0
M  V30 5026 H 484.34 3.79761 -1.72736 0
M  V30 5027 H 482.97 3.12614 -0.804508 0
M  V30 5028 H 482.022 2.25618 -3.06269 0
M  V30 5029 H 483.334 3.1322 -3.88194 0
M  V30 5030 H 482.488 5.29825 -2.95585 0
M  V30 5031 H 481.227 4.43326 -2.03256 0
M  V30 5032 H 480.232 3.57925 -4.17337 0
M  V30 5033 H 481.457 4.47744 -5.1059 0
M  V30 5034 H 479.403 5.7095 -3.23036 0
M  V30 5035 H 479.32 5.70413 -4.96151 0
M  V30 5036 H 480.588 6.58823 -4.16621 0
M  V30 5037 N 484.817 1.37938 0.762283 0
M  V30 5038 C 486.233 1.18945 1.06415 0
M  V30 5039 C 486.433 0.0321163 2.01474 0
M  V30 5040 O 485.489 -0.624844 2.44647 0
M  V30 5041 C 486.802 2.51218 1.65258 0
M  V30 5042 C 488.35 2.57824 1.7747 0
M  V30 5043 C 488.825 3.90251 2.39725 0
M  V30 5044 N 490.316 3.91744 2.47166 0
M  V30 5045 C 491.051 4.90966 2.96209 0
M  V30 5046 N 490.547 6.00585 3.45354 0
M  V30 5047 N 492.34 4.78363 2.9517 0
M  V30 5048 H 484.491 2.11994 0.131301 0
M  V30 5049 H 486.754 0.940262 0.120879 0
M  V30 5050 H 486.46 3.36317 1.02878 0
M  V30 5051 H 486.334 2.68989 2.64433 0
M  V30 5052 H 488.721 1.73126 2.3898 0
M  V30 5053 H 488.802 2.43928 0.770241 0
M  V30 5054 H 488.446 4.75368 1.78852 0
M  V30 5055 H 488.376 4.01454 3.40796 0
M  V30 5056 H 490.867 3.12563 2.12397 0
M  V30 5057 H 491.18 6.72236 3.81207 0
M  V30 5058 H 489.525 6.04217 3.43434 0
M  V30 5059 H 492.716 3.91841 2.56082 0
M  V30 5060 H 492.889 5.55843 3.33081 0
M  V30 5061 N 486.295 -0.989507 1.22664 0
M  V30 5062 C 487.225 -2.09847 1.02404 0
M  V30 5063 C 488.206 -1.70007 -0.0561303 0
M  V30 5064 O 489.391 -1.93906 0.106748 0
M  V30 5065 C 486.521 -3.41996 0.604663 0
M  V30 5066 C 485.475 -3.95699 1.63115 0
M  V30 5067 C 484.801 -5.23936 1.0675 0
M  V30 5068 C 486.101 -4.25999 3.02196 0
M  V30 5069 H 487.795 -2.27054 1.95158 0
M  V30 5070 H 485.341 -1.09111 0.939727 0
M  V30 5071 H 487.294 -4.1899 0.45002 0
M  V30 5072 H 486.018 -3.24626 -0.35855 0
M  V30 5073 H 484.677 -3.2084 1.77362 0
M  V30 5074 H 484.325 -5.02909 0.0955422 0
M  V30 5075 H 484.025 -5.60833 1.75328 0
M  V30 5076 H 485.549 -6.0356 0.924516 0
M  V30 5077 H 486.963 -4.93777 2.91303 0
M  V30 5078 H 485.36 -4.74076 3.67929 0
M  V30 5079 H 486.43 -3.33636 3.51873 0
M  V30 5080 N 487.773 -1.03688 -1.18687 0
M  V30 5081 C 489.019 -0.739123 -1.88851 0
M  V30 5082 C 489.352 0.731042 -1.79915 0
M  V30 5083 O 488.627 1.53313 -1.19688 0
M  V30 5084 C 488.91 -1.20106 -3.3948 0
M  V30 5085 C 488.763 -2.73304 -3.57246 0
M  V30 5086 C 490.082 -0.788134 -4.32986 0
M  V30 5087 H 487.201 -0.269978 -0.68577 0
M  V30 5088 H 489.843 -1.28822 -1.3966 0
M  V30 5089 H 487.993 -0.733915 -3.81505 0
M  V30 5090 H 489.665 -3.28027 -3.24339 0
M  V30 5091 H 487.908 -3.13313 -3.00029 0
M  V30 5092 H 488.579 -3.00684 -4.62918 0
M  V30 5093 H 491.055 -1.19005 -3.98719 0
M  V30 5094 H 489.931 -1.13915 -5.36949 0
M  V30 5095 H 490.192 0.308988 -4.41019 0
M  V30 5096 N 489.251 1.34841 -0.815825 0
M  V30 5097 C 490.662 1.80937 -0.46029 0
M  V30 5098 C 491.013 1.67685 1.01863 0
M  V30 5099 O 490.138 1.21277 1.79223 0
M  V30 5100 C 490.733 3.28509 -0.828708 0
M  V30 5101 C 489.292 3.72712 -0.525644 0
M  V30 5102 C 488.439 2.56676 -1.04941 0
M  V30 5103 H 491.39 1.22688 -1.00664 0
M  V30 5104 H 491.411 3.80279 -0.129757 0
M  V30 5105 H 490.923 3.38122 -1.90513 0
M  V30 5106 H 489.024 3.68642 0.541666 0
M  V30 5107 H 489.137 4.67119 -1.06474 0
M  V30 5108 H 487.501 2.50302 -0.471286 0
M  V30 5109 H 488.284 2.69063 -2.13214 0
M  V30 5110 N 490.729 0.570148 1.46925 0
M  V30 5111 C 491.977 0.0508523 2.02036 0
M  V30 5112 C 492.298 -1.30885 1.44548 0
M  V30 5113 O 491.568 -1.85647 0.625453 0
M  V30 5114 H 490.148 0.0158088 0.746833 0
M  V30 5115 H 492.81 0.743086 1.80178 0
M  V30 5116 H 491.906 -0.027575 3.12088 0
M  V30 5117 N 492.207 -1.54576 0.307264 0
M  V30 5118 C 493.437 -2.04378 -0.302158 0
M  V30 5119 C 493.845 -1.18381 -1.47589 0
M  V30 5120 O 493.188 -0.20352 -1.82569 0
M  V30 5121 C 493.25 -3.50133 -0.815305 0
M  V30 5122 C 492.914 -4.56401 0.233977 0
M  V30 5123 C 493.911 -5.08884 1.06456 0
M  V30 5124 C 491.596 -5.0088 0.377478 0
M  V30 5125 C 493.59 -6.04394 2.02452 0
M  V30 5126 C 491.277 -5.96208 1.34088 0
M  V30 5127 C 492.275 -6.47849 2.16288 0
M  V30 5128 O 491.963 -7.41308 3.10994 0
M  V30 5129 H 491.695 -0.672502 -0.0686839 0
M  V30 5130 H 494.249 -2.00484 0.446682 0
M  V30 5131 H 492.479 -3.51371 -1.61478 0
M  V30 5132 H 494.168 -3.83098 -1.34129 0
M  V30 5133 H 494.934 -4.75311 0.964596 0
M  V30 5134 H 490.813 -4.60309 -0.252405 0
M  V30 5135 H 494.357 -6.44626 2.66652 0
M  V30 5136 H 490.254 -6.29198 1.44154 0
M  V30 5137 H 491.022 -7.5913 3.06045 0
M  V30 5138 N 493.685 -0.035106 -1.57561 0
M  V30 5139 C 494.595 0.960295 -2.14046 0
M  V30 5140 C 495.611 1.3529 -1.0942 0
M  V30 5141 O 496.787 1.43309 -1.41508 0
M  V30 5142 C 493.852 2.22214 -2.66124 0
M  V30 5143 C 492.913 1.8894 -3.85487 0
M  V30 5144 C 492.146 3.09109 -4.35072 0
M  V30 5145 O 492.369 4.21963 -3.83802 0
M  V30 5146 O 491.303 2.91058 -5.26848 0
M  V30 5147 H 495.129 0.509983 -2.99387 0
M  V30 5148 H 492.714 0.185853 -1.48239 0
M  V30 5149 H 494.596 2.96279 -2.99661 0
M  V30 5150 H 493.271 2.66414 -1.83862 0
M  V30 5151 H 492.178 1.12241 -3.56865 0
M  V30 5152 H 493.511 1.49551 -4.6893 0
M  V30 5153 N 495.163 1.55791 0.238111 0
M  V30 5154 C 496.126 1.90239 1.27835 0
M  V30 5155 C 497.126 0.779552 1.4064 0
M  V30 5156 O 498.316 1.04747 1.3919 0
M  V30 5157 C 495.448 2.13859 2.65475 0
M  V30 5158 H 496.641 2.83262 0.985034 0
M  V30 5159 H 494.194 1.48818 0.477799 0
M  V30 5160 H 494.929 1.23334 2.99932 0
M  V30 5161 H 494.714 2.95643 2.57561 0
M  V30 5162 H 496.204 2.41664 3.40571 0
M  V30 5163 N 496.642 -0.504142 1.49319 0
M  V30 5164 C 498.053 -1.08572 1.51885 0
M  V30 5165 C 498.404 -1.93842 0.303255 0
M  V30 5166 O 497.529 -2.0828 -0.58724 0
M  V30 5167 C 498.124 -1.97574 2.75227 0
M  V30 5168 C 496.683 -2.509 2.80581 0
M  V30 5169 C 495.83 -1.28447 2.45757 0
M  V30 5170 H 498.781 -0.288194 1.56061 0
M  V30 5171 H 498.802 -2.82219 2.55211 0
M  V30 5172 H 498.314 -1.35486 3.63683 0
M  V30 5173 H 496.415 -3.16636 1.96398 0
M  V30 5174 H 496.528 -2.88268 3.82673 0
M  V30 5175 H 494.892 -1.60868 1.97468 0
M  V30 5176 H 495.675 -0.68072 3.36483 0
M  V30 5177 N 498.12 -1.38341 -0.754957 0
M  V30 5178 C 499.369 -1.33791 -1.5094 0
M  V30 5179 C 499.682 0.0699267 -1.95475 0
M  V30 5180 O 500.888 0.237956 -2.70455 0
M  V30 5181 C 499.344 -2.34934 -2.72643 0
M  V30 5182 C 498.952 -3.81332 -2.35138 0
M  V30 5183 C 500.696 -2.39425 -3.50536 0
M  V30 5184 C 498.603 -4.74164 -3.53444 0
M  V30 5185 H 497.533 -0.497314 -0.566741 0
M  V30 5186 H 500.184 -1.63888 -0.825403 0
M  V30 5187 H 498.566 -1.97878 -3.43017 0
M  V30 5188 H 499.74 -4.27319 -1.7244 0
M  V30 5189 H 498.055 -3.79946 -1.70382 0
M  V30 5190 H 500.652 -3.0598 -4.38498 0
M  V30 5191 H 500.995 -1.41278 -3.91594 0
M  V30 5192 H 501.528 -2.75274 -2.87174 0
M  V30 5193 H 498.267 -5.73501 -3.17453 0
M  V30 5194 H 497.787 -4.3287 -4.15191 0
M  V30 5195 H 499.466 -4.92111 -4.20043 0
M  V30 5196 N 499.598 0.982988 -1.23187 0
M  V30 5197 C 500.546 2.09616 -1.00817 0
M  V30 5198 C 501.54 1.6932 0.0519995 0
M  V30 5199 O 502.746 1.79715 -0.101284 0
M  V30 5200 H 499.121 0.685628 -0.308899 0
M  V30 5201 H 501.092 2.25652 -1.95253 0
M  V30 5202 C 499.841 3.42249 -0.613243 0
M  V30 5203 H 499.164 3.73705 -1.42073 0
M  V30 5204 H 500.604 4.21086 -0.496208 0
M  V30 5205 C 499.063 3.30002 0.678233 0
M  V30 5206 O 499.593 3.6263 1.72807 0
M  V30 5207 N 497.799 2.83164 0.653165 0
M  V30 5208 H 497.346 2.56811 -0.201492 0
M  V30 5209 H 497.304 2.75352 1.51752 0
M  V30 5210 N 501.076 1.04316 1.18135 0
M  V30 5211 C 502.006 0.657299 2.24058 0
M  V30 5212 C 502.987 -0.340678 1.66654 0
M  V30 5213 O 504.172 -0.220223 1.92947 0
M  V30 5214 C 501.302 0.0220715 3.47293 0
M  V30 5215 C 500.256 0.943857 4.17463 0
M  V30 5216 C 499.582 0.172973 5.3442 0
M  V30 5217 C 500.882 2.26409 4.70677 0
M  V30 5218 H 502.576 1.5428 2.56589 0
M  V30 5219 H 500.122 0.743263 1.23335 0
M  V30 5220 H 502.075 -0.259607 4.206 0
M  V30 5221 H 500.799 -0.898323 3.14003 0
M  V30 5222 H 499.458 1.20996 3.46057 0
M  V30 5223 H 499.106 -0.749907 4.97379 0
M  V30 5224 H 498.806 0.787098 5.82304 0
M  V30 5225 H 500.33 -0.101628 6.10515 0
M  V30 5226 H 501.744 2.04294 5.35665 0
M  V30 5227 H 500.141 2.8314 5.29105 0
M  V30 5228 H 501.211 2.90883 3.87962 0
M  V30 5229 N 502.554 -1.34406 0.822964 0
M  V30 5230 C 503.8 -1.98578 0.411666 0
M  V30 5231 C 504.133 -1.65093 -1.02264 0
M  V30 5232 O 503.408 -0.92258 -1.71227 0
M  V30 5233 C 503.691 -3.54823 0.614235 0
M  V30 5234 C 503.544 -3.9805 2.09466 0
M  V30 5235 C 504.863 -4.40071 0.050221 0
M  V30 5236 H 501.982 -0.721355 0.151047 0
M  V30 5237 H 504.624 -1.59301 1.03554 0
M  V30 5238 H 502.774 -3.88411 0.0831774 0
M  V30 5239 H 504.446 -3.74795 2.68936 0
M  V30 5240 H 502.689 -3.4836 2.5851 0
M  V30 5241 H 503.36 -5.06819 2.18721 0
M  V30 5242 H 505.836 -4.13037 0.503953 0
M  V30 5243 H 504.712 -5.48452 0.221759 0
M  V30 5244 H 504.973 -4.29576 -1.04482 0
M  V30 5245 N 504.032 -0.577932 -1.46621 0
M  V30 5246 C 505.262 -0.0670668 -2.06491 0
M  V30 5247 C 505.67 1.24119 -1.42798 0
M  V30 5248 O 505.013 1.76016 -0.525759 0
M  V30 5249 C 505.075 0.177995 -3.59059 0
M  V30 5250 C 504.739 -1.04394 -4.44917 0
M  V30 5251 C 505.736 -1.95479 -4.81751 0
M  V30 5252 C 503.421 -1.26444 -4.86125 0
M  V30 5253 C 505.415 -3.06965 -5.58615 0
M  V30 5254 C 503.102 -2.38237 -5.62749 0
M  V30 5255 C 504.1 -3.28327 -5.98908 0
M  V30 5256 O 503.788 -4.38179 -6.73984 0
M  V30 5257 H 503.52 -0.0523159 -0.673973 0
M  V30 5258 H 506.074 -0.796966 -1.89308 0
M  V30 5259 H 504.304 0.962451 -3.74531 0
M  V30 5260 H 505.993 0.636782 -4.00874 0
M  V30 5261 H 506.759 -1.79657 -4.50498 0
M  V30 5262 H 502.638 -0.572316 -4.57434 0
M  V30 5263 H 506.182 -3.77309 -5.86757 0
M  V30 5264 H 502.079 -2.54023 -5.93416 0
M  V30 5265 H 502.847 -4.36486 -6.92403 0
M  V30 5266 N 505.51 1.54411 -0.315457 0
M  V30 5267 C 506.735 2.05299 0.294496 0
M  V30 5268 C 507.16 1.19052 1.4563 0
M  V30 5269 O 506.518 0.197804 1.80218 0
M  V30 5270 C 506.566 3.5345 0.714549 0
M  V30 5271 O 505.67 3.70175 1.81781 0
M  V30 5272 H 505.011 0.661743 0.0547019 0
M  V30 5273 H 507.541 1.99327 -0.461508 0
M  V30 5274 H 507.551 3.9557 0.999426 0
M  V30 5275 H 506.226 4.1568 -0.135244 0
M  V30 5276 H 504.803 3.3996 1.53236 0
M  V30 5277 N 506.988 0.0434614 1.5754 0
M  V30 5278 C 507.92 -0.962586 2.08007 0
M  V30 5279 C 508.933 -1.27972 1.00634 0
M  V30 5280 O 510.122 -1.24186 1.28219 0
M  V30 5281 C 507.222 -2.28621 2.50171 0
M  V30 5282 C 506.395 -2.15214 3.80791 0
M  V30 5283 C 505.454 -3.30633 4.09351 0
M  V30 5284 O 504.48 -3.0688 4.79388 0
M  V30 5285 N 505.682 -4.54873 3.60654 0
M  V30 5286 H 508.447 -0.531891 2.94942 0
M  V30 5287 H 506.008 -0.142965 1.61268 0
M  V30 5288 H 508 -3.04689 2.66359 0
M  V30 5289 H 506.57 -2.63283 1.68525 0
M  V30 5290 H 505.79 -1.23785 3.74261 0
M  V30 5291 H 507.078 -2.03475 4.66343 0
M  V30 5292 H 506.476 -4.77063 3.04019 0
M  V30 5293 H 505.033 -5.2806 3.82094 0
M  V30 5294 N 508.466 -1.55915 -0.229846 0
M  V30 5295 C 509.882 -1.48721 -0.579166 0
M  V30 5296 C 510.082 -0.736976 -1.87539 0
M  V30 5297 O 509.138 -0.273258 -2.51017 0
M  V30 5298 C 510.451 -2.9323 -0.666082 0
M  V30 5299 C 511.999 -3.03701 -0.757267 0
M  V30 5300 C 512.474 -4.49552 -0.8756 0
M  V30 5301 N 513.965 -4.53561 -0.940035 0
M  V30 5302 C 514.7 -5.63683 -1.05116 0
M  V30 5303 N 514.196 -6.83576 -1.12675 0
M  V30 5304 N 515.989 -5.51516 -1.08565 0
M  V30 5305 H 508.14 -2.03123 0.620857 0
M  V30 5306 H 510.403 -0.922898 0.21671 0
M  V30 5307 H 510.109 -3.51032 0.21664 0
M  V30 5308 H 509.983 -3.44668 -1.53243 0
M  V30 5309 H 512.37 -2.45969 -1.63043 0
M  V30 5310 H 512.451 -2.55446 0.134583 0
M  V30 5311 H 512.095 -5.079 -0.00692351 0
M  V30 5312 H 512.025 -4.95506 -1.78274 0
M  V30 5313 H 514.516 -3.67215 -0.892269 0
M  V30 5314 H 514.829 -7.63251 -1.21109 0
M  V30 5315 H 513.174 -6.86303 -1.09603 0
M  V30 5316 H 516.365 -4.5678 -1.02319 0
M  V30 5317 H 516.538 -6.37372 -1.1688 0
M  V30 5318 N 509.944 0.496216 -1.49584 0
M  V30 5319 C 510.892 1.61805 -1.67098 0
M  V30 5320 C 511.886 1.60667 -0.536877 0
M  V30 5321 O 513.092 1.65118 -0.716654 0
M  V30 5322 H 509.467 0.53646 -0.526986 0
M  V30 5323 H 511.438 1.44187 -2.61252 0
M  V30 5324 C 510.187 2.99912 -1.75921 0
M  V30 5325 H 509.51 3.01496 -2.62565 0
M  V30 5326 H 510.95 3.77931 -1.92209 0
M  V30 5327 C 509.409 3.33092 -0.505088 0
M  V30 5328 O 509.939 4.00019 0.367085 0
M  V30 5329 N 508.145 2.88278 -0.366599 0
M  V30 5330 H 507.692 2.33989 -1.07735 0
M  V30 5331 H 507.65 3.10846 0.47142 0
M  V30 5332 N 511.423 1.38739 0.74761 0
M  V30 5333 C 512.839 1.20067 1.05148 0
M  V30 5334 C 513.039 0.0534835 2.01429 0
M  V30 5335 O 512.095 -0.59886 2.45296 0
M  V30 5336 C 513.408 2.52957 1.62584 0
M  V30 5337 C 514.956 2.59692 1.74726 0
M  V30 5338 C 515.431 3.92772 2.35573 0
M  V30 5339 N 516.922 3.94343 2.42997 0
M  V30 5340 C 517.657 4.9408 2.90985 0
M  V30 5341 N 517.153 6.04214 3.38965 0
M  V30 5342 N 518.946 4.81466 2.9008 0
M  V30 5343 H 511.097 2.12121 0.108808 0
M  V30 5344 H 513.36 0.941491 0.110899 0
M  V30 5345 H 513.066 3.37389 0.993051 0
M  V30 5346 H 512.94 2.71779 2.61565 0
M  V30 5347 H 515.327 1.75651 2.3713 0
M  V30 5348 H 515.408 2.44731 0.744326 0
M  V30 5349 H 515.052 4.77238 1.738 0
M  V30 5350 H 514.982 4.05046 3.36519 0
M  V30 5351 H 517.473 3.14799 2.0907 0
M  V30 5352 H 517.786 6.76241 3.74056 0
M  V30 5353 H 516.131 6.07825 3.37007 0
M  V30 5354 H 519.322 3.94535 2.51912 0
M  V30 5355 H 519.495 5.59344 3.27166 0
M  V30 5356 N 512.901 -0.976442 1.23707 0
M  V30 5357 C 514.126 -1.75875 1.09922 0
M  V30 5358 C 514.551 -1.84911 -0.34489 0
M  V30 5359 O 513.909 -1.31363 -1.24954 0
M  V30 5360 C 513.957 -3.16179 1.73388 0
M  V30 5361 O 513.061 -4.00124 0.99871 0
M  V30 5362 H 512.402 -0.540954 0.385052 0
M  V30 5363 H 514.932 -1.22546 1.6384 0
M  V30 5364 H 514.942 -3.66741 1.78788 0
M  V30 5365 H 513.617 -3.08917 2.78466 0
M  V30 5366 H 512.194 -3.58624 1.02193 0
M  V30 5367 N 514.379 -1.04941 -1.1758 0
M  V30 5368 C 515.342 -0.652456 -2.19717 0
M  V30 5369 C 516.342 0.294745 -1.58076 0
M  V30 5370 O 517.532 0.0789579 -1.74021 0
M  V30 5371 C 514.664 0.0420712 -3.40874 0
M  V30 5372 H 515.857 -1.55642 -2.5635 0
M  V30 5373 H 513.41 -0.842995 -1.31618 0
M  V30 5374 H 514.145 0.95943 -3.09783 0
M  V30 5375 H 513.93 -0.638844 -3.86861 0
M  V30 5376 H 515.42 0.306 -4.16477 0
M  V30 5377 N 515.857 1.33968 -0.830081 0
M  V30 5378 C 517.097 1.99879 -0.427521 0
M  V30 5379 C 517.461 1.64355 0.992546 0
M  V30 5380 O 518.662 2.23164 1.49837 0
M  V30 5381 C 516.933 3.51771 -0.631815 0
M  V30 5382 S 518.492 4.37608 -0.323168 0
M  V30 5383 H 515.31 0.692485 -0.161202 0
M  V30 5384 H 517.912 1.63129 -1.07745 0
M  V30 5385 H 516.616 3.75113 -1.66488 0
M  V30 5386 H 516.147 3.93386 0.0325936 0
M  V30 5387 H 518.162 4.88683 0.860432 0
M  V30 5388 N 517.335 0.585699 1.46312 0
M  V30 5389 C 518.581 0.0725284 2.0267 0
M  V30 5390 C 518.914 -1.28523 1.45586 0
M  V30 5391 O 518.189 -1.84283 0.622101 0
M  V30 5392 C 518.472 0.0099788 3.60099 0
M  V30 5393 C 518.325 1.39685 4.27561 0
M  V30 5394 C 519.644 -0.689117 4.34671 0
M  V30 5395 H 516.763 0.0278307 0.736474 0
M  V30 5396 H 519.405 0.753472 1.74421 0
M  V30 5397 H 517.555 -0.56992 3.84297 0
M  V30 5398 H 519.227 2.02215 4.14617 0
M  V30 5399 H 517.47 1.96374 3.86807 0
M  V30 5400 H 518.141 1.30553 5.36339 0
M  V30 5401 H 520.617 -0.196446 4.15636 0
M  V30 5402 H 519.493 -0.701921 5.44393 0
M  V30 5403 H 519.754 -1.75101 4.05946 0
M  V30 5404 N 518.813 -1.54241 0.323641 0
M  V30 5405 C 520.229 -1.59574 -0.0290018 0
M  V30 5406 C 520.429 -1.34017 -1.50472 0
M  V30 5407 O 519.485 -1.12464 -2.26071 0
M  V30 5408 C 520.798 -2.98169 0.389295 0
M  V30 5409 C 522.346 -3.11148 0.339958 0
M  V30 5410 C 522.821 -4.5209 0.733418 0
M  V30 5411 N 524.312 -4.5808 0.686827 0
M  V30 5412 C 525.047 -5.65248 0.963464 0
M  V30 5413 N 524.543 -6.80355 1.30724 0
M  V30 5414 N 526.336 -5.55025 0.88902 0
M  V30 5415 H 518.487 -1.6911 1.28512 0
M  V30 5416 H 520.75 -0.790972 0.522558 0
M  V30 5417 H 520.456 -3.21871 1.41746 0
M  V30 5418 H 520.33 -3.76399 -0.245657 0
M  V30 5419 H 522.717 -2.87182 -0.679002 0
M  V30 5420 H 522.798 -2.35023 1.00985 0
M  V30 5421 H 522.442 -4.76788 1.75029 0
M  V30 5422 H 522.372 -5.26584 0.0412189 0
M  V30 5423 H 524.863 -3.75411 0.43298 0
M  V30 5424 H 525.176 -7.58029 1.5037 0
M  V30 5425 H 523.521 -6.81851 1.3455 0
M  V30 5426 H 526.712 -4.63977 0.619939 0
M  V30 5427 H 526.885 -6.38458 1.10797 0
M  V30 5428 N 520.291 -0.0518155 -1.57515 0
M  V30 5429 C 521.54 0.621286 -1.91893 0
M  V30 5430 C 521.853 1.71966 -0.932052 0
M  V30 5431 O 523.059 2.45096 -1.16791 0
M  V30 5432 C 521.515 1.15641 -3.40816 0
M  V30 5433 C 521.123 0.0901146 -4.47909 0
M  V30 5434 C 522.867 1.80472 -3.84227 0
M  V30 5435 C 520.774 0.638154 -5.87947 0
M  V30 5436 H 519.704 0.235835 -0.716169 0
M  V30 5437 H 522.355 -0.120809 -1.83102 0
M  V30 5438 H 520.737 1.95084 -3.44613 0
M  V30 5439 H 521.911 -0.683525 -4.55702 0
M  V30 5440 H 520.226 -0.460774 -4.13843 0
M  V30 5441 H 522.823 2.22471 -4.86221 0
M  V30 5442 H 523.166 2.65669 -3.20508 0
M  V30 5443 H 523.699 1.07683 -3.82948 0
M  V30 5444 H 520.438 -0.176202 -6.55263 0
M  V30 5445 H 519.958 1.37976 -5.83714 0
M  V30 5446 H 521.637 1.12085 -6.37217 0
M  V30 5447 N 521.769 1.56035 0.221574 0
M  V30 5448 C 523.18 1.69229 0.788567 0
M  V30 5449 C 523.531 0.653814 1.84986 0
M  V30 5450 O 522.656 -0.195065 2.15519 0
M  V30 5451 C 523.251 3.06809 1.43713 0
M  V30 5452 C 521.81 3.21858 1.95152 0
M  V30 5453 C 520.957 2.65155 0.811685 0
M  V30 5454 H 523.908 1.587 -0.00307894 0
M  V30 5455 H 523.929 3.02666 2.30594 0
M  V30 5456 H 523.441 3.82369 0.664475 0
M  V30 5457 H 521.542 2.51167 2.7522 0
M  V30 5458 H 521.655 4.29073 2.1315 0
M  V30 5459 H 520.019 2.23635 1.21899 0
M  V30 5460 H 520.802 3.43261 0.0516987 0
M  V30 5461 N 523.247 -0.488276 1.49845 0
M  V30 5462 C 524.496 -1.23826 1.59217 0
M  V30 5463 C 524.809 -1.93439 0.289966 0
M  V30 5464 O 526.015 -2.70229 0.262382 0
M  V30 5465 C 524.471 -2.24902 2.80976 0
M  V30 5466 C 524.079 -1.6117 4.18005 0
M  V30 5467 C 525.823 -3.00648 2.99685 0
M  V30 5468 C 523.73 -2.60431 5.3097 0
M  V30 5469 H 522.66 -0.465858 0.592868 0
M  V30 5470 H 525.311 -0.510645 1.76252 0
M  V30 5471 H 523.693 -3.0088 2.57463 0
M  V30 5472 H 524.867 -0.910968 4.51706 0
M  V30 5473 H 523.182 -0.97767 4.0476 0
M  V30 5474 H 525.779 -3.74903 3.81251 0
M  V30 5475 H 526.122 -3.5902 2.10738 0
M  V30 5476 H 526.655 -2.31784 3.23297 0
M  V30 5477 H 523.394 -2.06823 6.22017 0
M  V30 5478 H 522.914 -3.28707 5.01709 0
M  V30 5479 H 524.593 -3.22606 5.60834 0
M  V30 5480 N 524.725 -1.39134 -0.740242 0
M  V30 5481 C 525.953 -1.39334 -1.5295 0
M  V30 5482 C 526.368 0.0135008 -1.88795 0
M  V30 5483 O 525.725 0.983524 -1.5373 0
M  V30 5484 C 525.776 -2.2614 -2.82034 0
M  V30 5485 O 525.497 -3.61345 -2.47712 0
M  V30 5486 C 526.998 -2.34666 -3.76094 0
M  V30 5487 H 524.218 -0.476103 -0.472828 0
M  V30 5488 H 526.762 -1.82883 -0.9151 0
M  V30 5489 H 524.917 -1.86018 -3.39818 0
M  V30 5490 H 525.331 -4.07194 -3.30595 0
M  V30 5491 H 526.805 -2.99663 -4.63579 0
M  V30 5492 H 527.282 -1.36426 -4.17474 0
M  V30 5493 H 527.888 -2.75236 -3.2423 0
M  V30 5494 N 526.204 0.969867 -1.24223 0
M  V30 5495 C 527.452 1.70918 -1.0785 0
M  V30 5496 C 527.773 1.91186 0.383763 0
M  V30 5497 O 527.043 1.48806 1.27411 0
M  V30 5498 H 525.623 0.633334 -0.396103 0
M  V30 5499 H 528.285 1.16689 -1.56108 0
M  V30 5500 H 527.381 2.69455 -1.57482 0
M  V30 5501 N 527.682 1.05563 1.17022 0
M  V30 5502 C 528.907 0.788437 1.91829 0
M  V30 5503 C 529.332 -0.650356 1.76499 0
M  V30 5504 O 528.69 -1.45229 1.08527 0
M  V30 5505 C 528.738 1.1786 3.40795 0
M  V30 5506 O 527.842 0.312965 4.11211 0
M  V30 5507 H 527.183 0.288794 0.597908 0
M  V30 5508 H 529.713 1.40948 1.48307 0
M  V30 5509 H 529.723 1.14697 3.91546 0
M  V30 5510 H 528.398 2.22666 3.51273 0
M  V30 5511 H 526.975 0.405515 3.70689 0
M  V30 5512 N 529.16 -1.33526 0.837174 0
M  V30 5513 C 530.108 -2.31168 0.257698 0
M  V30 5514 C 531.102 -1.5806 -0.609388 0
M  V30 5515 O 532.308 -1.72941 -0.499139 0
M  V30 5516 H 528.683 -0.74922 0.0646058 0
M  V30 5517 H 530.654 -2.77552 1.09578 0
M  V30 5518 C 529.403 -3.4326 -0.553887 0
M  V30 5519 H 528.726 -3.99665 0.104008 0
M  V30 5520 H 530.166 -4.13782 -0.925219 0
M  V30 5521 C 528.625 -2.88965 -1.73207 0
M  V30 5522 O 529.155 -2.85013 -2.83073 0
M  V30 5523 N 527.361 -2.45596 -1.55342 0
M  V30 5524 H 526.908 -2.49009 -0.659705 0
M  V30 5525 H 526.866 -2.0962 -2.34322 0
M  V30 5526 N 530.638 -0.59345 -1.46 0
M  V30 5527 C 532.049 -0.169801 -1.85926 0
M  V30 5528 C 532.4 1.26984 -1.49565 0
M  V30 5529 O 531.525 1.96076 -0.915602 0
M  V30 5530 C 532.12 -0.301385 -3.37457 0
M  V30 5531 C 530.679 0.0674684 -3.7634 0
M  V30 5532 C 529.826 -0.632383 -2.69993 0
M  V30 5533 H 532.777 -0.801014 -1.37002 0
M  V30 5534 H 532.798 0.470331 -3.77582 0
M  V30 5535 H 532.31 -1.34927 -3.63891 0
M  V30 5536 H 530.411 1.11507 -3.55523 0
M  V30 5537 H 530.524 -0.316332 -4.78055 0
M  V30 5538 H 528.888 -0.0714961 -2.546 0
M  V30 5539 H 529.671 -1.68212 -2.99265 0
M  V30 5540 N 532.116 1.54067 -0.331816 0
M  V30 5541 C 533.063 2.24623 0.530372 0
M  V30 5542 C 534.033 1.24009 1.10503 0
M  V30 5543 O 535.218 1.52712 1.14384 0
M  V30 5544 C 532.358 3.01374 1.68129 0
M  V30 5545 C 531.471 4.16821 1.13507 0
M  V30 5546 C 530.606 4.81085 2.25234 0
M  V30 5547 C 529.645 5.88621 1.67903 0
M  V30 5548 N 528.782 6.46713 2.73326 0
M  V30 5549 H 533.622 2.97898 -0.0778607 0
M  V30 5550 H 531.159 1.47014 -0.0501965 0
M  V30 5551 H 533.117 3.44125 2.35868 0
M  V30 5552 H 531.747 2.30419 2.26069 0
M  V30 5553 H 530.799 3.78796 0.348979 0
M  V30 5554 H 532.111 4.94203 0.675633 0
M  V30 5555 H 531.265 5.26846 3.00862 0
M  V30 5556 H 530.004 4.03102 2.74518 0
M  V30 5557 H 529.009 5.42254 0.907773 0
M  V30 5558 H 530.234 6.68506 1.19487 0
M  V30 5559 H 528.18 5.71599 3.21886 0
M  V30 5560 H 528.097 7.19532 2.3197 0
M  V30 5561 H 529.365 6.97129 3.48758 0
M  V30 5562 N 533.594 0.0601682 1.57485 0
M  V30 5563 C 534.557 -0.896373 2.10945 0
M  V30 5564 C 535.557 -1.23402 1.03095 0
M  V30 5565 O 536.747 -1.16921 1.29132 0
M  V30 5566 C 533.879 -2.20346 2.60116 0
M  V30 5567 H 535.072 -0.432778 2.96761 0
M  V30 5568 H 532.625 -0.188372 1.55161 0
M  V30 5569 H 533.36 -2.71268 1.7772 0
M  V30 5570 H 533.145 -1.9714 3.38937 0
M  V30 5571 H 534.635 -2.88846 3.01592 0
M  V30 5572 N 535.072 -1.5615 -0.213296 0
M  V30 5573 C 536.019 -1.93086 -1.26437 0
M  V30 5574 C 536.989 -0.789086 -1.4616 0
M  V30 5575 O 538.174 -1.04569 -1.59593 0
M  V30 5576 C 535.314 -2.26003 -2.608 0
M  V30 5577 C 534.427 -3.53156 -2.48807 0
M  V30 5578 C 533.562 -3.7548 -3.7575 0
M  V30 5579 C 532.601 -4.96119 -3.58514 0
M  V30 5580 N 531.738 -5.14791 -4.77425 0
M  V30 5581 H 536.578 -2.82707 -0.942376 0
M  V30 5582 H 534.115 -1.39919 -0.454001 0
M  V30 5583 H 536.073 -2.431 -3.39055 0
M  V30 5584 H 534.703 -1.39546 -2.91079 0
M  V30 5585 H 533.755 -3.44207 -1.61944 0
M  V30 5586 H 535.067 -4.41565 -2.31996 0
M  V30 5587 H 534.221 -3.92718 -4.62447 0
M  V30 5588 H 532.96 -2.85368 -3.95495 0
M  V30 5589 H 531.965 -4.78823 -2.70201 0
M  V30 5590 H 533.19 -5.87724 -3.40231 0
M  V30 5591 H 531.136 -4.27623 -4.97468 0
M  V30 5592 H 531.053 -5.97347 -4.63371 0
M  V30 5593 H 532.321 -5.36471 -5.65525 0
M  V30 5594 N 536.55 0.480323 -1.50102 0
M  V30 5595 C 537.966 0.813295 -1.37323 0
M  V30 5596 C 538.166 1.97027 -0.422206 0
M  V30 5597 O 537.222 2.5212 0.138563 0
M  V30 5598 C 538.535 1.13404 -2.78496 0
M  V30 5599 C 540.083 1.24104 -2.87345 0
M  V30 5600 C 540.558 1.59497 -4.29331 0
M  V30 5601 N 542.049 1.66507 -4.32238 0
M  V30 5602 C 542.784 1.95378 -5.39087 0
M  V30 5603 N 542.28 2.22333 -6.56155 0
M  V30 5604 N 544.073 1.96803 -5.26522 0
M  V30 5605 H 536.224 -0.282291 -2.10516 0
M  V30 5606 H 538.487 -0.063752 -0.945854 0
M  V30 5607 H 538.193 0.357064 -3.49883 0
M  V30 5608 H 538.067 2.07251 -3.15162 0
M  V30 5609 H 540.454 2.00871 -2.16183 0
M  V30 5610 H 540.535 0.282593 -2.54234 0
M  V30 5611 H 540.179 0.832736 -5.01027 0
M  V30 5612 H 540.109 2.56477 -4.59921 0
M  V30 5613 H 542.6 1.47753 -3.47818 0
M  V30 5614 H 542.913 2.43611 -7.33399 0
M  V30 5615 H 541.258 2.19745 -6.59346 0
M  V30 5616 H 544.449 1.75235 -4.34062 0
M  V30 5617 H 544.622 2.18969 -6.09883 0
M  V30 5618 N 538.028 1.39524 0.732853 0
M  V30 5619 C 538.958 1.41153 1.86005 0
M  V30 5620 C 539.939 0.274614 1.67869 0
M  V30 5621 O 541.124 0.480745 1.88155 0
M  V30 5622 C 538.254 1.25638 3.23778 0
M  V30 5623 C 537.208 2.36752 3.56556 0
M  V30 5624 C 536.534 2.06326 4.93289 0
M  V30 5625 C 537.834 3.79069 3.5931 0
M  V30 5626 H 539.528 2.35484 1.84899 0
M  V30 5627 H 537.074 1.13348 0.888162 0
M  V30 5628 H 539.027 1.25398 4.0231 0
M  V30 5629 H 537.751 0.277772 3.25417 0
M  V30 5630 H 536.41 2.36213 2.80355 0
M  V30 5631 H 536.058 1.06897 4.9151 0
M  V30 5632 H 535.758 2.80757 5.16187 0
M  V30 5633 H 537.282 2.07739 5.74175 0
M  V30 5634 H 538.696 3.81526 4.27914 0
M  V30 5635 H 537.093 4.52878 3.93728 0
M  V30 5636 H 538.163 4.09893 2.59068 0
M  V30 5637 N 539.506 -0.963266 1.24736 0
M  V30 5638 C 540.416 -2.09246 1.06082 0
M  V30 5639 C 541.432 -1.74 0.000363101 0
M  V30 5640 O 542.608 -2.0041 0.199479 0
M  V30 5641 C 539.673 -3.40115 0.672498 0
M  V30 5642 C 538.734 -3.89282 1.80993 0
M  V30 5643 C 537.967 -5.13905 1.44004 0
M  V30 5644 O 538.19 -5.69434 0.331835 0
M  V30 5645 O 537.124 -5.57566 2.26723 0
M  V30 5646 H 540.95 -2.27881 2.00759 0
M  V30 5647 H 538.535 -1.07649 1.03595 0
M  V30 5648 H 540.417 -4.18797 0.467668 0
M  V30 5649 H 539.092 -3.22771 -0.245102 0
M  V30 5650 H 537.999 -3.11642 2.06955 0
M  V30 5651 H 539.332 -4.1111 2.70646 0
M  V30 5652 N 540.985 -1.06182 -1.16461 0
M  V30 5653 C 542.232 -0.777863 -1.86964 0
M  V30 5654 C 542.56 0.695602 -1.81636 0
M  V30 5655 O 541.815 1.52532 -1.22607 0
M  V30 5656 C 542.114 -1.21633 -3.36066 0
M  V30 5657 C 541.78 -2.69371 -3.61594 0
M  V30 5658 C 540.442 -3.09727 -3.6827 0
M  V30 5659 C 542.794 -3.64791 -3.7226 0
M  V30 5660 C 540.122 -4.44345 -3.83112 0
M  V30 5661 C 542.474 -4.99155 -3.88623 0
M  V30 5662 C 541.138 -5.39149 -3.93541 0
M  V30 5663 H 540.408 -0.28464 -0.68415 0
M  V30 5664 H 543.055 -1.33071 -1.37711 0
M  V30 5665 H 541.36 -0.582651 -3.87443 0
M  V30 5666 H 543.057 -0.973682 -3.88999 0
M  V30 5667 H 539.647 -2.37124 -3.57029 0
M  V30 5668 H 543.831 -3.34746 -3.66413 0
M  V30 5669 H 539.087 -4.74819 -3.85172 0
M  V30 5670 H 543.261 -5.72976 -3.95817 0
M  V30 5671 H 540.888 -6.43464 -4.04794 0
M  V30 5672 N 542.463 1.3308 -0.844243 0
M  V30 5673 C 543.879 1.50447 -0.532729 0
M  V30 5674 C 544.079 1.78292 0.938837 0
M  V30 5675 O 543.135 1.84635 1.72239 0
M  V30 5676 C 544.448 2.65555 -1.41072 0
M  V30 5677 C 545.996 2.7944 -1.41005 0
M  V30 5678 C 546.471 3.97616 -2.27301 0
M  V30 5679 N 547.962 4.0486 -2.2504 0
M  V30 5680 C 548.697 4.95508 -2.88547 0
M  V30 5681 N 548.193 5.91236 -3.61126 0
M  V30 5682 N 549.986 4.88548 -2.77989 0
M  V30 5683 H 542.137 1.13269 -1.79677 0
M  V30 5684 H 544.4 0.55734 -0.766861 0
M  V30 5685 H 544.106 2.51675 -2.45668 0
M  V30 5686 H 543.98 3.61089 -1.09061 0
M  V30 5687 H 546.367 2.92749 -0.371784 0
M  V30 5688 H 546.448 1.8465 -1.77026 0
M  V30 5689 H 546.092 3.85066 -3.3119 0
M  V30 5690 H 546.022 4.91661 -1.88619 0
M  V30 5691 H 548.513 3.36353 -1.72264 0
M  V30 5692 H 548.826 6.57079 -4.06776 0
M  V30 5693 H 547.171 5.91295 -3.65234 0
M  V30 5694 H 550.362 4.12729 -2.20846 0
M  V30 5695 H 550.535 5.58994 -3.27765 0
M  V30 5696 N 543.941 0.601185 1.45683 0
M  V30 5697 C 545.166 0.0982245 2.07167 0
M  V30 5698 C 545.591 -1.20546 1.44396 0
M  V30 5699 O 544.949 -1.73247 0.534347 0
M  V30 5700 C 544.997 -0.0346976 3.60583 0
M  V30 5701 O 544.101 -1.08657 3.97828 0
M  V30 5702 H 543.442 0.0711618 0.660176 0
M  V30 5703 H 545.972 0.829376 1.87036 0
M  V30 5704 H 545.982 -0.234969 4.07323 0
M  V30 5705 H 544.657 0.917265 4.05659 0
M  V30 5706 H 543.234 -0.863275 3.6277 0
M  V30 5707 N 545.419 -1.53889 0.339982 0
M  V30 5708 C 546.83 -1.86139 -0.144671 0
M  V30 5709 C 547.181 -1.2613 -1.50285 0
M  V30 5710 O 546.306 -0.573515 -2.08662 0
M  V30 5711 C 546.901 -3.37728 -0.269285 0
M  V30 5712 C 545.46 -3.69868 -0.698168 0
M  V30 5713 C 544.607 -2.76777 0.170249 0
M  V30 5714 H 547.558 -1.48503 0.559704 0
M  V30 5715 H 547.579 -3.64331 -1.0974 0
M  V30 5716 H 547.091 -3.81375 0.719366 0
M  V30 5717 H 545.192 -3.31764 -1.69597 0
M  V30 5718 H 545.305 -4.76582 -0.490533 0
M  V30 5719 H 543.669 -2.52188 -0.356844 0
M  V30 5720 H 544.452 -3.23253 1.15597 0
M  V30 5721 N 546.897 -0.0685191 -1.57451 0
M  V30 5722 C 548.174 0.642167 -1.84758 0
M  V30 5723 C 548.554 1.87991 -0.960344 0
M  V30 5724 O 547.902 2.28485 -0.0257894 0
M  V30 5725 C 548.112 0.982946 -3.34872 0
M  V30 5726 C 549.46 1.35784 -4.02303 0
M  V30 5727 O 550.484 1.07477 -3.39598 0
M  V30 5728 O 549.343 1.88681 -5.12895 0
M  V30 5729 H 546.437 0.318625 -0.763156 0
M  V30 5730 H 548.983 -0.0992015 -1.6941 0
M  V30 5731 H 547.755 0.10372 -3.91163 0
M  V30 5732 H 547.378 1.78119 -3.55471 0
M  V30 5733 N 548.375 1.56261 0.205012 0
M  V30 5734 C 549.6 1.84491 0.947512 0
M  V30 5735 C 550.025 0.650894 1.76479 0
M  V30 5736 O 549.383 -0.40035 1.76824 0
M  V30 5737 C 549.431 3.10863 1.82747 0
M  V30 5738 O 548.535 2.90719 2.925 0
M  V30 5739 H 547.876 0.607783 0.267386 0
M  V30 5740 H 550.406 2.03485 0.213323 0
M  V30 5741 H 550.416 3.41399 2.23407 0
M  V30 5742 H 549.091 3.97392 1.2269 0
M  V30 5743 H 547.668 2.71457 2.55667 0
M  V30 5744 N 549.853 -0.472356 1.50355 0
M  V30 5745 C 551.078 -1.25251 1.65309 0
M  V30 5746 C 551.503 -1.85081 0.335643 0
M  V30 5747 O 550.861 -1.67227 -0.700335 0
M  V30 5748 C 550.909 -2.3379 2.74544 0
M  V30 5749 O 550.013 -3.38401 2.35709 0
M  V30 5750 H 549.354 -0.368539 0.552336 0
M  V30 5751 H 551.884 -0.562271 1.96722 0
M  V30 5752 H 551.894 -2.79121 2.97583 0
M  V30 5753 H 550.569 -1.89614 3.70161 0
M  V30 5754 H 549.146 -2.9879 2.23112 0
M  V30 5755 N 551.331 -1.39911 -0.725443 0
M  V30 5756 C 552.579 -1.37382 -1.48224 0
M  V30 5757 C 552.9 0.0264107 -1.94982 0
M  V30 5758 O 552.17 0.979408 -1.6966 0
M  V30 5759 H 550.75 -0.505596 -0.549892 0
M  V30 5760 H 553.412 -1.7487 -0.860608 0
M  V30 5761 H 552.508 -2.04254 -2.3598 0
M  V30 5762 N 552.809 0.956637 -1.25245 0
M  V30 5763 C 553.757 2.0743 -1.0524 0
M  V30 5764 C 554.751 1.69392 0.0160725 0
M  V30 5765 O 555.957 1.7946 -0.139382 0
M  V30 5766 H 552.332 0.678921 -0.323373 0
M  V30 5767 H 554.303 2.2146 -1.99995 0
M  V30 5768 C 553.052 3.40872 -0.685702 0
M  V30 5769 H 552.375 3.70607 -1.49968 0
M  V30 5770 H 553.815 4.19939 -0.585415 0
M  V30 5771 C 552.274 3.31367 0.608082 0
M  V30 5772 O 552.804 3.66214 1.65076 0
M  V30 5773 N 551.01 2.84486 0.592955 0
M  V30 5774 H 550.557 2.56326 -0.25592 0
M  V30 5775 H 550.515 2.78509 1.45877 0
M  V30 5776 N 554.287 1.06798 1.15896 0
M  V30 5777 C 555.698 0.811355 1.68149 0
M  V30 5778 C 556.049 -0.664339 1.8461 0
M  V30 5779 O 555.174 -1.51485 1.54535 0
M  V30 5780 C 555.769 1.46624 3.05429 0
M  V30 5781 C 554.328 1.25726 3.54781 0
M  V30 5782 C 553.475 1.53949 2.3064 0
M  V30 5783 H 556.426 1.23078 1.00187 0
M  V30 5784 H 556.447 0.88437 3.7008 0
M  V30 5785 H 555.959 2.54025 2.93416 0
M  V30 5786 H 554.06 0.20322 3.72045 0
M  V30 5787 H 554.173 1.97354 4.36564 0
M  V30 5788 H 552.537 0.96025 2.35905 0
M  V30 5789 H 553.32 2.6252 2.2122 0
M  V30 5790 N 555.766 -1.3263 0.851289 0
M  V30 5791 C 556.996 -2.01271 0.466222 0
M  V30 5792 C 557.404 -1.64156 -0.940714 0
M  V30 5793 O 556.747 -0.857109 -1.62479 0
M  V30 5794 C 556.809 -3.55695 0.521672 0
M  V30 5795 C 556.473 -4.16227 1.88691 0
M  V30 5796 C 557.47 -4.34699 2.85189 0
M  V30 5797 C 555.155 -4.52377 2.18313 0
M  V30 5798 C 557.149 -4.88484 4.09465 0
M  V30 5799 C 554.836 -5.05868 3.42843 0
M  V30 5800 C 555.834 -5.23869 4.38235 0
M  V30 5801 O 555.522 -5.76218 5.6056 0
M  V30 5802 H 555.254 -0.651034 0.18202 0
M  V30 5803 H 557.808 -1.7026 1.14894 0
M  V30 5804 H 556.038 -3.86086 -0.217888 0
M  V30 5805 H 557.727 -4.05613 0.152682 0
M  V30 5806 H 558.493 -4.07107 2.63607 0
M  V30 5807 H 554.372 -4.37652 1.44851 0
M  V30 5808 H 557.916 -5.02451 4.83931 0
M  V30 5809 H 553.813 -5.32891 3.64277 0
M  V30 5810 H 554.581 -5.94616 5.62471 0
M  V30 5811 N 557.244 -0.608902 -1.45362 0
M  V30 5812 C 558.174 0.0964526 -2.33301 0
M  V30 5813 C 559.155 0.857444 -1.46908 0
M  V30 5814 O 560.34 0.827735 -1.75676 0
M  V30 5815 C 557.47 1.09354 -3.29635 0
M  V30 5816 C 556.424 0.445676 -4.25673 0
M  V30 5817 C 555.75 1.5511 -5.11708 0
M  V30 5818 C 557.05 -0.633972 -5.18438 0
M  V30 5819 H 558.744 -0.637829 -2.92527 0
M  V30 5820 H 556.29 -0.308178 -1.40664 0
M  V30 5821 H 558.243 1.59556 -3.90025 0
M  V30 5822 H 556.967 1.85843 -2.6857 0
M  V30 5823 H 555.626 -0.0354897 -3.66583 0
M  V30 5824 H 555.274 2.30631 -4.4701 0
M  V30 5825 H 554.974 1.12311 -5.76767 0
M  V30 5826 H 556.498 2.05537 -5.74967 0
M  V30 5827 H 557.912 -0.215974 -5.72893 0
M  V30 5828 H 556.309 -0.983789 -5.91981 0
M  V30 5829 H 557.379 -1.51005 -4.60788 0
M  V30 5830 N 558.722 1.53707 -0.348139 0
M  V30 5831 C 559.685 2.23812 0.494058 0
M  V30 5832 C 560.685 1.23989 1.02388 0
M  V30 5833 O 561.875 1.48395 0.912396 0
M  V30 5834 C 559.007 2.96133 1.68872 0
M  V30 5835 H 560.2 2.99663 -0.119141 0
M  V30 5836 H 557.753 1.55983 -0.0995539 0
M  V30 5837 H 558.488 2.24481 2.34049 0
M  V30 5838 H 558.273 3.69357 1.31596 0
M  V30 5839 H 559.763 3.49475 2.28597 0
M  V30 5840 N 560.2 0.0768682 1.57412 0
M  V30 5841 C 561.447 -0.591085 1.93681 0
M  V30 5842 C 561.775 -1.69311 0.957286 0
M  V30 5843 O 561.03 -1.95682 -0.0262428 0
M  V30 5844 C 561.329 -1.20268 3.36557 0
M  V30 5845 C 560.995 -0.226286 4.50332 0
M  V30 5846 C 559.657 0.0423142 4.81181 0
M  V30 5847 C 562.009 0.441415 5.19327 0
M  V30 5848 C 559.337 0.985616 5.78362 0
M  V30 5849 C 561.689 1.37307 6.17519 0
M  V30 5850 C 560.353 1.65009 6.46783 0
M  V30 5851 H 559.623 -0.216293 0.70873 0
M  V30 5852 H 562.27 0.148824 1.90921 0
M  V30 5853 H 560.575 -2.01844 3.35807 0
M  V30 5854 H 562.272 -1.72688 3.61911 0
M  V30 5855 H 558.862 -0.445821 4.26275 0
M  V30 5856 H 563.046 0.247023 4.95685 0
M  V30 5857 H 558.302 1.20743 5.99359 0
M  V30 5858 H 562.476 1.89637 6.70083 0
M  V30 5859 H 560.103 2.38263 7.21897 0
M  V30 5860 N 561.678 -1.56367 -0.196722 0
M  V30 5861 C 562.903 -1.84991 -0.937714 0
M  V30 5862 C 563.328 -0.660244 -1.76132 0
M  V30 5863 O 562.686 0.390967 -1.77034 0
M  V30 5864 C 562.734 -3.11828 -1.81096 0
M  V30 5865 O 561.838 -2.92266 -2.90955 0
M  V30 5866 H 561.179 -0.609193 -0.264159 0
M  V30 5867 H 563.709 -2.03595 -0.202529 0
M  V30 5868 H 563.719 -3.42579 -2.21594 0
M  V30 5869 H 562.394 -3.98037 -1.2058 0
M  V30 5870 H 560.971 -2.72809 -2.54224 0
M  V30 5871 N 563.156 0.464375 -1.50603 0
M  V30 5872 C 564.119 1.54393 -1.69397 0
M  V30 5873 C 565.119 1.50566 -0.564504 0
M  V30 5874 O 566.309 1.53066 -0.831645 0
M  V30 5875 C 563.441 2.9401 -1.72543 0
M  V30 5876 H 564.634 1.39044 -2.65719 0
M  V30 5877 H 562.187 0.69122 -1.40185 0
M  V30 5878 H 562.922 3.14795 -0.77938 0
M  V30 5879 H 562.707 2.98195 -2.54602 0
M  V30 5880 H 564.197 3.72375 -1.89015 0
M  V30 5881 N 564.634 1.40294 0.718013 0
M  V30 5882 C 565.567 1.34767 1.84155 0
M  V30 5883 C 566.545 0.218455 1.61126 0
M  V30 5884 O 567.729 0.401716 1.8417 0
M  V30 5885 C 564.856 1.09676 3.20451 0
M  V30 5886 C 563.902 2.25016 3.62312 0
M  V30 5887 S 564.735 3.87397 3.69707 0
M  V30 5888 C 565.891 3.64565 5.08766 0
M  V30 5889 H 566.124 2.29851 1.88562 0
M  V30 5890 H 563.657 1.2655 0.884555 0
M  V30 5891 H 565.615 0.95885 3.99144 0
M  V30 5892 H 564.276 0.162502 3.13679 0
M  V30 5893 H 563.469 2.03097 4.61268 0
M  V30 5894 H 563.071 2.35098 2.90869 0
M  V30 5895 H 565.363 3.22882 5.95612 0
M  V30 5896 H 566.306 4.63043 5.35721 0
M  V30 5897 H 566.714 2.98303 4.79245 0
M  V30 5898 N 566.112 -0.949982 1.2575 0
M  V30 5899 C 567.042 -2.06483 1.09028 0
M  V30 5900 C 568.023 -1.701 -0.00201532 0
M  V30 5901 O 569.208 -1.93469 0.168383 0
M  V30 5902 C 566.338 -3.39899 0.71316 0
M  V30 5903 C 565.292 -3.90309 1.75621 0
M  V30 5904 C 564.618 -5.20274 1.23365 0
M  V30 5905 C 565.918 -4.16169 3.15596 0
M  V30 5906 H 567.612 -2.20731 2.02283 0
M  V30 5907 H 565.158 -1.06066 0.973964 0
M  V30 5908 H 567.111 -4.17346 0.58309 0
M  V30 5909 H 565.835 -3.25602 -0.255091 0
M  V30 5910 H 564.494 -3.15035 1.8748 0
M  V30 5911 H 564.142 -5.02351 0.255491 0
M  V30 5912 H 563.842 -5.54971 1.93082 0
M  V30 5913 H 565.366 -6.00314 1.11607 0
M  V30 5914 H 566.78 -4.84259 3.06864 0
M  V30 5915 H 565.177 -4.62131 3.82825 0
M  V30 5916 H 566.247 -3.22273 3.6231 0
M  V30 5917 N 567.59 -1.07411 -1.15328 0
M  V30 5918 C 568.523 -0.63913 -2.19067 0
M  V30 5919 C 569.501 0.343929 -1.58921 0
M  V30 5920 O 570.685 0.250207 -1.86832 0
M  V30 5921 C 567.812 0.0613977 -3.38644 0
M  V30 5922 C 566.858 -0.880201 -4.17318 0
M  V30 5923 S 567.691 -2.38152 -4.79629 0
M  V30 5924 C 568.847 -1.69281 -6.02573 0
M  V30 5925 H 569.08 -1.51799 -2.55626 0
M  V30 5926 H 566.613 -0.888138 -1.26299 0
M  V30 5927 H 568.571 0.459323 -4.07922 0
M  V30 5928 H 567.232 0.916605 -3.00428 0
M  V30 5929 H 566.425 -0.336781 -5.02874 0
M  V30 5930 H 566.027 -1.21854 -3.53592 0
M  V30 5931 H 568.319 -1.00488 -6.70006 0
M  V30 5932 H 569.262 -2.52671 -6.61485 0
M  V30 5933 H 569.67 -1.17053 -5.52231 0
M  V30 5934 N 569.068 1.32177 -0.85831 0
M  V30 5935 C 570.031 2.27086 -0.310588 0
M  V30 5936 C 571.031 1.51751 0.531806 0
M  V30 5937 O 572.221 1.70794 0.34279 0
M  V30 5938 C 569.353 3.36266 0.560179 0
M  V30 5939 H 570.546 2.77045 -1.1483 0
M  V30 5940 H 568.099 1.42911 -0.632942 0
M  V30 5941 H 568.834 2.9158 1.41956 0
M  V30 5942 H 568.619 3.92077 -0.0428473 0
M  V30 5943 H 570.109 4.06974 0.936056 0
M  V30 5944 N 570.547 0.616602 1.45037 0
M  V30 5945 C 571.795 0.115103 2.01772 0
M  V30 5946 C 572.116 -1.2622 1.48639 0
M  V30 5947 O 571.386 -1.83563 0.684199 0
M  V30 5948 H 569.966 0.0395607 0.745952 0
M  V30 5949 H 572.628 0.800032 1.77723 0
M  V30 5950 H 571.724 0.0717274 3.12018 0
M  V30 5951 N 572.025 -1.5352 0.356285 0
M  V30 5952 C 572.955 -2.28372 -0.486661 0
M  V30 5953 C 573.936 -1.30432 -1.09185 0
M  V30 5954 O 575.121 -1.59291 -1.11085 0
M  V30 5955 C 572.251 -3.06604 -1.63129 0
M  V30 5956 C 571.205 -4.12154 -1.15381 0
M  V30 5957 C 570.531 -4.78415 -2.38796 0
M  V30 5958 C 571.831 -5.21724 -0.245179 0
M  V30 5959 H 573.525 -2.99083 0.137797 0
M  V30 5960 H 571.071 -1.43841 0.0677134 0
M  V30 5961 H 573.024 -3.57712 -2.22755 0
M  V30 5962 H 571.748 -2.33568 -2.28284 0
M  V30 5963 H 570.407 -3.61978 -0.580294 0
M  V30 5964 H 570.055 -4.01959 -3.02387 0
M  V30 5965 H 569.755 -5.49734 -2.07524 0
M  V30 5966 H 571.279 -5.32313 -2.99125 0
M  V30 5967 H 572.693 -5.68391 -0.748646 0
M  V30 5968 H 571.09 -6.00095 -0.0237608 0
M  V30 5969 H 572.16 -4.79596 0.715229 0
M  V30 5970 N 573.503 -0.0852151 -1.57369 0
M  V30 5971 C 574.78 0.622534 -1.85429 0
M  V30 5972 C 575.16 1.86962 -0.980229 0
M  V30 5973 O 574.508 2.28445 -0.0500219 0
M  V30 5974 C 574.718 0.947374 -3.35896 0
M  V30 5975 C 576.066 1.31509 -4.03721 0
M  V30 5976 O 577.09 1.03869 -3.40719 0
M  V30 5977 O 575.949 1.83231 -5.14868 0
M  V30 5978 H 573.043 0.310513 -0.766492 0
M  V30 5979 H 575.589 -0.117164 -1.69295 0
M  V30 5980 H 574.361 0.0622264 -3.91251 0
M  V30 5981 H 573.984 1.74338 -3.5734 0
M  V30 5982 N 574.981 1.5647 0.188427 0
M  V30 5983 C 576.229 1.80655 0.905986 0
M  V30 5984 C 576.55 0.659391 1.83513 0
M  V30 5985 O 575.82 -0.321868 1.93238 0
M  V30 5986 H 574.4 0.666391 0.337538 0
M  V30 5987 H 577.062 1.93949 0.192339 0
M  V30 5988 H 576.158 2.74066 1.49313 0
M  V30 5989 N 576.459 -0.456382 1.50847 0
M  V30 5990 C 577.708 -1.2042 1.61808 0
M  V30 5991 C 578.021 -1.9278 0.330932 0
M  V30 5992 O 579.227 -2.69612 0.319643 0
M  V30 5993 C 577.683 -2.18891 2.85683 0
M  V30 5994 C 577.291 -1.52267 4.2133 0
M  V30 5995 C 579.035 -2.94224 3.05994 0
M  V30 5996 C 576.942 -2.4911 5.36375 0
M  V30 5997 H 575.872 -0.453177 0.602616 0
M  V30 5998 H 578.523 -0.473144 1.77295 0
M  V30 5999 H 576.905 -2.95351 2.63787 0
M  V30 6000 H 578.079 -0.814949 4.53536 0
M  V30 6001 H 576.394 -0.891594 4.06743 0
M  V30 6002 H 578.991 -3.66732 3.89117 0
M  V30 6003 H 579.334 -3.54469 2.18306 0
M  V30 6004 H 579.867 -2.24874 3.28141 0
M  V30 6005 H 576.606 -1.93582 6.26264 0
M  V30 6006 H 576.126 -3.17991 5.08569 0
M  V30 6007 H 577.805 -3.10637 5.67551 0
M  V30 6008 N 577.937 -1.40673 -0.710563 0
M  V30 6009 C 578.884 -1.41336 -1.82463 0
M  V30 6010 C 579.854 -0.269648 -1.63897 0
M  V30 6011 O 581.039 -0.468463 -1.8496 0
M  V30 6012 C 578.179 -1.28665 -3.20218 0
M  V30 6013 C 577.292 -2.52784 -3.5032 0
M  V30 6014 C 576.427 -2.32517 -4.77608 0
M  V30 6015 C 575.466 -3.52187 -5.0063 0
M  V30 6016 N 574.603 -3.31084 -6.19135 0
M  V30 6017 H 579.443 -2.36558 -1.8123 0
M  V30 6018 H 576.98 -1.17483 -0.885226 0
M  V30 6019 H 578.938 -1.19324 -3.99772 0
M  V30 6020 H 577.568 -0.370602 -3.20666 0
M  V30 6021 H 576.62 -2.72634 -2.65283 0
M  V30 6022 H 577.932 -3.41845 -3.63241 0
M  V30 6023 H 577.086 -2.20558 -5.65189 0
M  V30 6024 H 575.825 -1.40889 -4.66906 0
M  V30 6025 H 574.83 -3.64617 -4.11502 0
M  V30 6026 H 576.055 -4.44749 -5.13201 0
M  V30 6027 H 574.001 -2.42143 -6.09674 0
M  V30 6028 H 573.918 -4.13713 -6.32754 0
M  V30 6029 H 575.186 -3.22868 -7.0949 0
M  V30 6030 N 579.415 0.9433 -1.26252 0
M  V30 6031 C 580.363 2.06302 -1.07434 0
M  V30 6032 C 581.357 1.694 -0.00189471 0
M  V30 6033 O 582.563 1.79302 -0.158408 0
M  V30 6034 H 578.938 0.675453 -0.330556 0
M  V30 6035 H 580.909 2.19326 -2.02333 0
M  V30 6036 C 579.658 3.40125 -0.721817 0
M  V30 6037 H 578.981 3.68996 -1.5389 0
M  V30 6038 H 580.421 4.19295 -0.629922 0
M  V30 6039 C 578.88 3.31993 0.572902 0
M  V30 6040 O 579.41 3.67945 1.61182 0
M  V30 6041 N 577.616 2.85099 0.562748 0
M  V30 6042 H 577.163 2.5604 -0.283092 0
M  V30 6043 H 577.121 2.80041 1.42915 0
M  V30 6044 N 580.893 1.08022 1.14757 0
M  V30 6045 C 581.84 0.706657 2.19716 0
M  V30 6046 C 582.81 -0.30525 1.63271 0
M  V30 6047 O 583.995 -0.19015 1.8985 0
M  V30 6048 C 581.135 0.117914 3.44898 0
M  V30 6049 C 580.248 1.18212 4.15512 0
M  V30 6050 C 579.383 0.557659 5.28265 0
M  V30 6051 C 578.422 1.60418 5.90705 0
M  V30 6052 N 577.559 1.0018 6.94916 0
M  V30 6053 H 582.399 1.60603 2.51019 0
M  V30 6054 H 579.936 0.802664 1.23271 0
M  V30 6055 H 581.894 -0.241112 4.16503 0
M  V30 6056 H 580.524 -0.744788 3.1409 0
M  V30 6057 H 579.576 1.65863 3.42335 0
M  V30 6058 H 580.888 1.97533 4.5802 0
M  V30 6059 H 580.042 0.146654 6.06523 0
M  V30 6060 H 578.781 -0.267249 4.86967 0
M  V30 6061 H 577.786 2.02489 5.11154 0
M  V30 6062 H 579.011 2.43149 6.34078 0
M  V30 6063 H 576.957 0.197917 6.55701 0
M  V30 6064 H 576.874 1.73216 7.35889 0
M  V30 6065 H 578.142 0.616523 7.77058 0
M  V30 6066 N 582.371 -1.3172 0.865308 0
M  V30 6067 C 583.62 -1.96145 0.470098 0
M  V30 6068 C 583.933 -1.69182 -0.981674 0
M  V30 6069 O 585.139 -2.27431 -1.48281 0
M  V30 6070 C 583.595 -3.51129 0.789732 0
M  V30 6071 C 583.203 -3.86938 2.25795 0
M  V30 6072 C 584.947 -4.2197 0.462765 0
M  V30 6073 C 582.854 -5.35012 2.52024 0
M  V30 6074 H 581.784 -0.734105 0.172065 0
M  V30 6075 H 584.435 -1.49959 1.05757 0
M  V30 6076 H 582.817 -3.95781 0.131571 0
M  V30 6077 H 583.991 -3.5326 2.95879 0
M  V30 6078 H 582.306 -3.29149 2.55049 0
M  V30 6079 H 584.903 -5.30904 0.636019 0
M  V30 6080 H 585.246 -4.12005 -0.59645 0
M  V30 6081 H 585.779 -3.82936 1.07727 0
M  V30 6082 H 582.518 -5.50008 3.56611 0
M  V30 6083 H 582.038 -5.70058 1.8653 0
M  V30 6084 H 583.717 -6.0222 2.36515 0
M  V30 6085 N 583.85 -0.624285 -1.44708 0
M  V30 6086 C 584.76 0.0861083 -2.34442 0
M  V30 6087 C 585.776 0.84291 -1.5222 0
M  V30 6088 O 586.952 0.796723 -1.84971 0
M  V30 6089 C 584.017 1.05999 -3.30099 0
M  V30 6090 C 583.077 0.303316 -4.28227 0
M  V30 6091 C 582.311 1.23081 -5.19314 0
M  V30 6092 O 582.534 2.46929 -5.14181 0
M  V30 6093 O 581.468 0.71883 -5.97592 0
M  V30 6094 H 585.293 -0.651756 -2.96624 0
M  V30 6095 H 582.879 -0.384493 -1.44368 0
M  V30 6096 H 584.76 1.62046 -3.88997 0
M  V30 6097 H 583.436 1.77859 -2.70459 0
M  V30 6098 H 582.343 -0.300033 -3.72895 0
M  V30 6099 H 583.676 -0.375123 -4.90768 0
M  V30 6100 N 585.328 1.53329 -0.364422 0
M  V30 6101 C 586.739 1.86345 0.115039 0
M  V30 6102 C 587.09 1.28505 1.4826 0
M  V30 6103 O 586.215 0.606639 2.07723 0
M  V30 6104 C 586.81 3.38114 0.215522 0
M  V30 6105 C 585.369 3.70932 0.639237 0
M  V30 6106 C 584.516 2.76471 -0.214261 0
M  V30 6107 H 587.467 1.47593 -0.583258 0
M  V30 6108 H 587.488 3.66031 1.0393 0
M  V30 6109 H 587 3.80182 -0.779948 0
M  V30 6110 H 585.101 3.3442 1.64298 0
M  V30 6111 H 585.214 4.77302 0.41465 0
M  V30 6112 H 583.578 2.52724 0.316678 0
M  V30 6113 H 584.361 3.21373 -1.20725 0
M  V30 6114 N 586.806 0.0935595 1.57322 0
M  V30 6115 C 587.738 -0.895923 2.10964 0
M  V30 6116 C 588.751 -1.24705 1.04654 0
M  V30 6117 O 589.94 -1.20044 1.32105 0
M  V30 6118 C 587.04 -2.20546 2.57318 0
M  V30 6119 C 586.213 -2.0299 3.87445 0
M  V30 6120 C 585.272 -3.17443 4.19662 0
M  V30 6121 O 584.298 -2.91474 4.88909 0
M  V30 6122 N 585.5 -4.43168 3.74943 0
M  V30 6123 H 588.265 -0.437788 2.96485 0
M  V30 6124 H 585.826 -0.0915863 1.61641 0
M  V30 6125 H 587.818 -2.9606 2.75917 0
M  V30 6126 H 586.388 -2.57789 1.76816 0
M  V30 6127 H 585.608 -1.11815 3.78009 0
M  V30 6128 H 586.896 -1.88535 4.7258 0
M  V30 6129 H 586.294 -4.67149 3.19043 0
M  V30 6130 H 584.851 -5.15637 3.987 0
M  V30 6131 N 588.284 -1.56567 -0.180126 0
M  V30 6132 C 589.247 -1.94852 -1.20686 0
M  V30 6133 C 590.247 -0.831212 -1.3765 0
M  V30 6134 O 591.437 -1.09841 -1.35206 0
M  V30 6135 C 588.569 -2.23565 -2.57355 0
M  V30 6136 H 589.762 -2.86722 -0.879225 0
M  V30 6137 H 587.315 -1.50489 -0.422237 0
M  V30 6138 H 588.05 -1.34381 -2.95148 0
M  V30 6139 H 587.835 -3.04999 -2.46411 0
M  V30 6140 H 589.325 -2.54137 -3.31367 0
M  V30 6141 N 589.762 0.448376 -1.51087 0
M  V30 6142 C 591.173 1.0286 -1.5581 0
M  V30 6143 C 591.524 1.92583 -0.374989 0
M  V30 6144 O 590.649 2.10316 0.509533 0
M  V30 6145 C 591.244 1.87223 -2.8237 0
M  V30 6146 C 589.803 2.40314 -2.897 0
M  V30 6147 C 588.95 1.19238 -2.50355 0
M  V30 6148 H 591.901 0.230075 -1.57023 0
M  V30 6149 H 591.922 2.72553 -2.6551 0
M  V30 6150 H 591.434 1.21894 -3.68461 0
M  V30 6151 H 589.535 3.09129 -2.08014 0
M  V30 6152 H 589.648 2.73866 -3.93108 0
M  V30 6153 H 588.012 1.53428 -2.03303 0
M  V30 6154 H 588.795 0.555367 -3.38778 0
M  V30 6155 N 591.24 1.41047 0.703093 0
M  V30 6156 C 592.486 1.40207 1.46526 0
M  V30 6157 C 592.819 0.00847763 1.94198 0
M  V30 6158 O 592.094 -0.962437 1.69019 0
M  V30 6159 C 592.377 2.40238 2.6825 0
M  V30 6160 C 592.23 3.88674 2.26391 0
M  V30 6161 C 593.549 2.37627 3.70434 0
M  V30 6162 H 590.668 0.510594 0.531472 0
M  V30 6163 H 593.31 1.72271 0.801422 0
M  V30 6164 H 591.46 2.13026 3.24888 0
M  V30 6165 H 593.132 4.2676 1.75138 0
M  V30 6166 H 591.375 4.03903 1.58255 0
M  V30 6167 H 592.046 4.542 3.13698 0
M  V30 6168 H 594.522 2.61759 3.23452 0
M  V30 6169 H 593.398 3.09645 4.53223 0
M  V30 6170 H 593.659 1.39223 4.19606 0
M  V30 6171 N 592.718 -0.936591 1.26751 0
M  V30 6172 C 593.995 -1.66094 1.03306 0
M  V30 6173 C 594.375 -2.06568 -0.435058 0
M  V30 6174 O 593.723 -1.79305 -1.41641 0
M  V30 6175 C 593.933 -2.86969 1.98619 0
M  V30 6176 C 595.281 -3.58516 2.27489 0
M  V30 6177 O 596.305 -2.97082 1.96522 0
M  V30 6178 O 595.164 -4.69181 2.80235 0
M  V30 6179 H 592.258 -0.727568 0.393158 0
M  V30 6180 H 594.804 -0.987914 1.3798 0
M  V30 6181 H 593.576 -2.53985 2.9767 0
M  V30 6182 H 593.199 -3.61996 1.64454 0
M  V30 6183 N 594.196 -1.08629 -1.14182 0
M  V30 6184 C 595.143 -0.718299 -2.19338 0
M  V30 6185 C 596.113 0.296587 -1.63431 0
M  V30 6186 O 597.298 0.180079 -1.89948 0
M  V30 6187 C 594.438 -0.136203 -3.44831 0
M  V30 6188 C 593.551 -1.20414 -4.14879 0
M  V30 6189 C 592.686 -0.585666 -5.27962 0
M  V30 6190 C 591.725 -1.63548 -5.89846 0
M  V30 6191 N 590.862 -1.03864 -6.94375 0
M  V30 6192 H 595.702 -1.61932 -2.50164 0
M  V30 6193 H 593.239 -0.80919 -1.22844 0
M  V30 6194 H 595.197 0.219021 -4.16625 0
M  V30 6195 H 593.827 0.728121 -3.14481 0
M  V30 6196 H 592.879 -1.67676 -3.41451 0
M  V30 6197 H 594.191 -1.99959 -4.56966 0
M  V30 6198 H 593.345 -0.178818 -6.06436 0
M  V30 6199 H 592.084 0.24142 -4.87102 0
M  V30 6200 H 591.089 -2.05197 -5.10073 0
M  V30 6201 H 592.314 -2.46509 -6.3278 0
M  V30 6202 H 590.26 -0.232687 -6.55587 0
M  V30 6203 H 590.177 -1.77116 -7.3496 0
M  V30 6204 H 591.445 -0.657724 -7.7672 0
M  V30 6205 N 595.674 1.31259 -0.872281 0
M  V30 6206 C 596.951 1.91362 -0.404943 0
M  V30 6207 C 597.331 1.79362 1.11321 0
M  V30 6208 O 596.679 1.20277 1.94283 0
M  V30 6209 C 596.889 3.3749 -0.888893 0
M  V30 6210 C 598.237 4.14593 -0.916384 0
M  V30 6211 O 599.261 3.46282 -0.834701 0
M  V30 6212 O 598.12 5.3661 -1.03498 0
M  V30 6213 H 595.214 0.818016 -0.121569 0
M  V30 6214 H 597.76 1.39912 -0.960346 0
M  V30 6215 H 596.532 3.40249 -1.93251 0
M  V30 6216 H 596.155 3.96375 -0.311932 0
M  V30 6217 N 597.152 0.631951 1.44375 0
M  V30 6218 C 598.082 -0.0593243 2.33425 0
M  V30 6219 C 599.063 -0.833964 1.48253 0
M  V30 6220 O 600.248 -0.799682 1.76971 0
M  V30 6221 C 597.378 -1.04096 3.31333 0
M  V30 6222 C 596.332 -0.377899 4.26328 0
M  V30 6223 C 595.658 -1.4695 5.14111 0
M  V30 6224 C 596.958 0.716371 5.17364 0
M  V30 6225 H 598.652 0.684287 2.91475 0
M  V30 6226 H 596.198 0.330518 1.40156 0
M  V30 6227 H 598.151 -1.53331 3.92514 0
M  V30 6228 H 596.875 -1.81547 2.71493 0
M  V30 6229 H 595.534 0.0938054 3.6648 0
M  V30 6230 H 595.182 -2.2349 4.50623 0
M  V30 6231 H 594.882 -1.03121 5.78481 0
M  V30 6232 H 596.406 -1.96363 5.78164 0
M  V30 6233 H 597.82 0.307089 5.72477 0
M  V30 6234 H 596.217 1.07784 5.90341 0
M  V30 6235 H 597.287 1.58316 4.58327 0
M  V30 6236 N 598.631 -1.53133 0.372548 0
M  V30 6237 C 599.861 -2.05476 -0.215202 0
M  V30 6238 C 600.269 -1.24534 -1.42436 0
M  V30 6239 O 599.612 -0.280771 -1.81542 0
M  V30 6240 C 599.674 -3.53276 -0.666068 0
M  V30 6241 C 599.338 -4.54998 0.427342 0
M  V30 6242 C 600.335 -5.03911 1.27944 0
M  V30 6243 C 598.02 -4.98828 0.589579 0
M  V30 6244 C 600.014 -5.95263 2.27905 0
M  V30 6245 C 597.701 -5.89984 1.59255 0
M  V30 6246 C 598.699 -6.38093 2.43571 0
M  V30 6247 O 598.387 -7.27451 3.42156 0
M  V30 6248 H 598.119 -0.67481 -0.040099 0
M  V30 6249 H 600.673 -1.98409 0.531312 0
M  V30 6250 H 598.903 -3.57904 -1.4643 0
M  V30 6251 H 600.592 -3.88442 -1.1776 0
M  V30 6252 H 601.358 -4.70792 1.16532 0
M  V30 6253 H 597.237 -4.60965 -0.0569456 0
M  V30 6254 H 600.781 -6.32736 2.93753 0
M  V30 6255 H 596.678 -6.22518 1.70711 0
M  V30 6256 H 597.446 -7.45467 3.37967 0
M  V30 6257 N 600.109 -0.101901 -1.5727 0
M  V30 6258 C 601.019 0.868647 -2.17926 0
M  V30 6259 C 602.035 1.30527 -1.1506 0
M  V30 6260 O 603.211 1.37178 -1.47459 0
M  V30 6261 C 600.276 2.10727 -2.75309 0
M  V30 6262 C 599.337 1.7242 -3.93154 0
M  V30 6263 C 598.57 2.90377 -4.47791 0
M  V30 6264 O 598.793 4.05305 -4.01353 0
M  V30 6265 O 597.727 2.6845 -5.38719 0
M  V30 6266 H 601.553 0.382544 -3.01281 0
M  V30 6267 H 599.138 0.122812 -1.48894 0
M  V30 6268 H 601.02 2.83303 -3.11958 0
M  V30 6269 H 599.695 2.58376 -1.94996 0
M  V30 6270 H 598.602 0.970039 -3.61305 0
M  V30 6271 H 599.935 1.29528 -4.74851 0
M  V30 6272 N 601.587 1.56661 0.17182 0
M  V30 6273 C 602.517 1.99401 1.21498 0
M  V30 6274 C 603.498 0.869516 1.46197 0
M  V30 6275 O 604.683 1.13556 1.57539 0
M  V30 6276 C 601.813 2.35346 2.55401 0
M  V30 6277 C 600.767 3.5075 2.45272 0
M  V30 6278 C 600.093 3.72437 3.8366 0
M  V30 6279 C 601.393 4.84216 1.95787 0
M  V30 6280 H 603.087 2.86792 0.859699 0
M  V30 6281 H 600.633 1.37977 0.412103 0
M  V30 6282 H 602.586 2.63843 3.2858 0
M  V30 6283 H 601.31 1.44864 2.92715 0
M  V30 6284 H 599.969 3.2238 1.74547 0
M  V30 6285 H 599.617 2.79246 4.18367 0
M  V30 6286 H 599.317 4.50087 3.77751 0
M  V30 6287 H 600.841 4.03334 4.58426 0
M  V30 6288 H 602.255 5.11592 2.5874 0
M  V30 6289 H 600.652 5.65498 2.00827 0
M  V30 6290 H 601.722 4.76243 0.912159 0
M  V30 6291 N 603.065 -0.440357 1.51323 0
M  V30 6292 C 604.476 -1.02032 1.56353 0
M  V30 6293 C 604.827 -1.92382 0.385197 0
M  V30 6294 O 603.952 -2.10583 -0.498373 0
M  V30 6295 C 604.547 -1.85723 2.83359 0
M  V30 6296 C 603.106 -2.38774 2.90971 0
M  V30 6297 C 602.253 -1.17908 2.50984 0
M  V30 6298 H 605.204 -0.221744 1.57143 0
M  V30 6299 H 605.225 -2.71141 2.66951 0
M  V30 6300 H 604.737 -1.19939 3.69102 0
M  V30 6301 H 602.838 -3.08021 2.09651 0
M  V30 6302 H 602.951 -2.71778 3.94555 0
M  V30 6303 H 601.315 -1.52347 2.04114 0
M  V30 6304 H 602.098 -0.537393 3.39068 0
M  V30 6305 N 604.543 -1.41418 -0.695603 0
M  V30 6306 C 605.954 -1.36335 -1.27552 0
M  V30 6307 C 606.305 -0.0464336 -1.96145 0
M  V30 6308 O 605.43 0.855304 -1.9878 0
M  V30 6309 C 606.025 -2.46941 -2.3196 0
M  V30 6310 C 604.584 -2.45256 -2.85529 0
M  V30 6311 C 603.731 -2.2679 -1.59566 0
M  V30 6312 H 606.682 -1.50934 -0.490362 0
M  V30 6313 H 606.703 -2.15997 -3.1325 0
M  V30 6314 H 606.215 -3.42775 -1.82008 0
M  V30 6315 H 604.316 -1.53179 -3.39657 0
M  V30 6316 H 604.429 -3.41565 -3.35961 0
M  V30 6317 H 602.793 -1.74667 -1.85374 0
M  V30 6318 H 603.576 -3.24651 -1.1161 0
M  V30 6319 N 606.021 0.929856 -1.27246 0
M  V30 6320 C 606.931 2.0636 -1.11592 0
M  V30 6321 C 607.947 1.73938 -0.046496 0
M  V30 6322 O 609.123 1.9981 -0.252544 0
M  V30 6323 C 606.188 3.38213 -0.762437 0
M  V30 6324 C 605.249 3.84346 -1.9125 0
M  V30 6325 C 604.482 5.09906 -1.57579 0
M  V30 6326 O 604.705 5.68354 -0.482694 0
M  V30 6327 O 603.639 5.51359 -2.41426 0
M  V30 6328 H 607.465 2.22478 -2.0673 0
M  V30 6329 H 605.05 1.04865 -1.06413 0
M  V30 6330 H 606.932 4.1741 -0.57854 0
M  V30 6331 H 605.607 3.23307 0.159439 0
M  V30 6332 H 604.514 3.06045 -2.15144 0
M  V30 6333 H 605.847 4.0379 -2.81451 0
M  V30 6334 N 607.499 1.09233 1.13605 0
M  V30 6335 C 608.409 0.741939 2.22559 0
M  V30 6336 C 609.425 -0.255236 1.72118 0
M  V30 6337 O 610.601 -0.0970747 2.01166 0
M  V30 6338 C 607.666 0.165595 3.46304 0
M  V30 6339 C 606.727 1.21846 4.11645 0
M  V30 6340 C 605.96 0.669526 5.29484 0
M  V30 6341 O 606.183 -0.508228 5.68131 0
M  V30 6342 O 605.117 1.42361 5.84822 0
M  V30 6343 H 608.943 1.65107 2.54899 0
M  V30 6344 H 606.528 0.866584 1.21699 0
M  V30 6345 H 608.41 -0.152592 4.21124 0
M  V30 6346 H 607.085 -0.716573 3.15669 0
M  V30 6347 H 605.992 1.58931 3.38662 0
M  V30 6348 H 607.325 2.07321 4.46407 0
M  V30 6349 N 608.977 -1.30795 0.87923 0
M  V30 6350 C 609.94 -2.26563 0.346676 0
M  V30 6351 C 610.94 -1.52578 -0.507597 0
M  V30 6352 O 612.13 -1.71318 -0.315575 0
M  V30 6353 C 609.262 -3.37115 -0.506611 0
M  V30 6354 H 610.455 -2.75183 1.19223 0
M  V30 6355 H 608.008 -1.41886 0.655598 0
M  V30 6356 H 608.743 -2.93802 -1.37299 0
M  V30 6357 H 608.528 -3.91959 0.105218 0
M  V30 6358 H 610.018 -4.08412 -0.871192 0
M  V30 6359 N 610.455 -0.639598 -1.44038 0
M  V30 6360 C 611.418 0.0506628 -2.29144 0
M  V30 6361 C 612.418 0.764001 -1.41491 0
M  V30 6362 O 613.608 0.607309 -1.63271 0
M  V30 6363 C 610.74 1.0824 -3.2326 0
M  V30 6364 H 611.933 -0.697987 -2.91664 0
M  V30 6365 H 609.486 -0.400146 -1.51091 0
M  V30 6366 H 610.221 1.86075 -2.65606 0
M  V30 6367 H 610.006 0.574725 -3.87865 0
M  V30 6368 H 611.496 1.56487 -3.87171 0
M  V30 6369 N 611.933 1.52934 -0.380664 0
M  V30 6370 C 613.158 2.06363 0.207157 0
M  V30 6371 C 613.583 1.25122 1.4045 0
M  V30 6372 O 612.941 0.274062 1.79217 0
M  V30 6373 C 612.989 3.56162 0.563996 0
M  V30 6374 O 612.093 3.77552 1.65917 0
M  V30 6375 H 611.434 0.663468 0.0265859 0
M  V30 6376 H 613.964 1.9719 -0.545635 0
M  V30 6377 H 613.974 3.99453 0.830752 0
M  V30 6378 H 612.649 4.14732 -0.311427 0
M  V30 6379 H 611.226 3.46154 1.3868 0
M  V30 6380 N 613.412 0.11024 1.57214 0
M  V30 6381 C 614.661 -0.549638 1.94067 0
M  V30 6382 C 614.974 -1.68388 0.995234 0
M  V30 6383 O 616.18 -2.40593 1.25807 0
M  V30 6384 C 614.636 -1.02912 3.44873 0
M  V30 6385 C 614.244 0.0761861 4.47935 0
M  V30 6386 C 615.988 -1.66087 3.9066 0
M  V30 6387 C 613.895 -0.419502 5.8991 0
M  V30 6388 H 612.825 -0.209092 0.724428 0
M  V30 6389 H 615.476 0.188683 1.82527 0
M  V30 6390 H 613.858 -1.82159 3.51616 0
M  V30 6391 H 615.032 0.852185 4.52851 0
M  V30 6392 H 613.347 0.614052 4.11847 0
M  V30 6393 H 615.944 -2.04272 4.94143 0
M  V30 6394 H 616.287 -2.53591 3.30148 0
M  V30 6395 H 616.82 -0.933959 3.86681 0
M  V30 6396 H 613.559 0.419277 6.54158 0
M  V30 6397 H 613.079 -1.16217 5.88433 0
M  V30 6398 H 614.758 -0.883577 6.40938 0
M  V30 6399 N 614.89 -1.56749 -0.16351 0
M  V30 6400 C 616.301 -1.72039 -0.725216 0
M  V30 6401 C 616.652 -0.72202 -1.82432 0
M  V30 6402 O 615.777 0.114942 -2.16095 0
M  V30 6403 C 616.372 -3.11932 -1.32227 0
M  V30 6404 C 614.931 -3.28879 -1.83072 0
M  V30 6405 C 614.078 -2.67984 -0.712716 0
M  V30 6406 H 617.029 -1.58579 0.0619772 0
M  V30 6407 H 617.05 -3.11015 -2.19202 0
M  V30 6408 H 616.562 -3.84572 -0.522103 0
M  V30 6409 H 614.663 -2.61209 -2.65708 0
M  V30 6410 H 614.776 -4.36688 -1.97079 0
M  V30 6411 H 613.14 -2.28005 -1.13515 0
M  V30 6412 H 613.923 -3.43216 0.0757361 0
M  V30 6413 N 616.368 0.432326 -1.51554 0
M  V30 6414 C 617.3 1.54357 -1.6943 0
M  V30 6415 C 618.313 1.52311 -0.574897 0
M  V30 6416 O 619.502 1.56997 -0.849369 0
M  V30 6417 C 616.602 2.93273 -1.69836 0
M  V30 6418 C 615.775 3.19768 -2.98442 0
M  V30 6419 C 614.834 4.38433 -2.90969 0
M  V30 6420 O 613.86 4.36842 -3.64908 0
M  V30 6421 N 615.062 5.42276 -2.07163 0
M  V30 6422 H 617.827 1.39426 -2.65293 0
M  V30 6423 H 615.388 0.621331 -1.49503 0
M  V30 6424 H 617.38 3.70687 -1.62399 0
M  V30 6425 H 615.95 3.01777 -0.815456 0
M  V30 6426 H 615.17 2.30607 -3.19709 0
M  V30 6427 H 616.458 3.343 -3.83563 0
M  V30 6428 H 615.856 5.46407 -1.46477 0
M  V30 6429 H 614.413 6.18524 -2.05601 0
M  V30 6430 N 617.846 1.41785 0.688094 0
M  V30 6431 C 619.074 1.44915 1.47673 0
M  V30 6432 C 619.489 0.0565786 1.88715 0
M  V30 6433 O 618.846 -0.92579 1.57275 0
M  V30 6434 C 618.897 2.36452 2.73446 0
M  V30 6435 O 618.618 3.7029 2.34131 0
M  V30 6436 C 620.119 2.48463 3.67125 0
M  V30 6437 H 617.339 0.493324 0.454832 0
M  V30 6438 H 619.883 1.86153 0.846594 0
M  V30 6439 H 618.038 1.98502 3.3268 0
M  V30 6440 H 618.452 4.19183 3.15255 0
M  V30 6441 H 619.926 3.16662 4.52138 0
M  V30 6442 H 620.403 1.51826 4.12123 0
M  V30 6443 H 621.009 2.8708 3.13792 0
M  V30 6444 N 619.324 -0.923095 1.27737 0
M  V30 6445 C 620.735 -1.48626 1.12993 0
M  V30 6446 C 621.086 -1.94142 -0.283439 0
M  V30 6447 O 620.211 -1.81605 -1.17681 0
M  V30 6448 C 620.806 -2.70117 2.04505 0
M  V30 6449 C 619.365 -3.22642 1.93853 0
M  V30 6450 C 618.512 -1.95368 1.96791 0
M  V30 6451 H 621.463 -0.736737 1.40563 0
M  V30 6452 H 621.484 -3.4506 1.60356 0
M  V30 6453 H 620.996 -2.36959 3.07363 0
M  V30 6454 H 619.097 -3.60549 0.939968 0
M  V30 6455 H 619.21 -3.88525 2.80331 0
M  V30 6456 H 617.574 -2.12061 1.41076 0
M  V30 6457 H 618.357 -1.64517 3.01312 0
M  V30 6458 N 620.802 -1.09834 -1.13024 0
M  V30 6459 C 622.03 -0.858902 -1.8823 0
M  V30 6460 C 622.445 0.590164 -1.79339 0
M  V30 6461 O 621.802 1.4065 -1.16292 0
M  V30 6462 C 621.853 -1.29066 -3.37675 0
M  V30 6463 O 621.574 -2.6829 -3.46341 0
M  V30 6464 C 623.075 -1.08421 -4.29837 0
M  V30 6465 H 620.295 -0.308713 -0.595766 0
M  V30 6466 H 622.839 -1.4614 -1.4305 0
M  V30 6467 H 620.994 -0.731961 -3.80422 0
M  V30 6468 H 621.408 -2.86598 -4.39274 0
M  V30 6469 H 622.882 -1.43553 -5.33007 0
M  V30 6470 H 623.359 -0.0223315 -4.39194 0
M  V30 6471 H 623.965 -1.62907 -3.92863 0
M  V30 6472 N 622.28 1.30327 -0.886154 0
M  V30 6473 C 623.212 2.27079 -0.311072 0
M  V30 6474 C 624.225 1.53758 0.53502 0
M  V30 6475 O 625.414 1.74947 0.354378 0
M  V30 6476 C 622.514 3.33965 0.576228 0
M  V30 6477 C 621.687 4.36735 -0.241064 0
M  V30 6478 C 620.746 5.23028 0.576916 0
M  V30 6479 O 619.772 5.692 -0.000802231 0
M  V30 6480 N 620.974 5.49016 1.88579 0
M  V30 6481 H 623.739 2.77065 -1.14259 0
M  V30 6482 H 621.3 1.43519 -0.749258 0
M  V30 6483 H 623.292 3.88618 1.12953 0
M  V30 6484 H 621.862 2.839 1.30842 0
M  V30 6485 H 621.082 3.81932 -0.975805 0
M  V30 6486 H 622.37 5.02451 -0.801272 0
M  V30 6487 H 621.768 5.13288 2.37806 0
M  V30 6488 H 620.325 6.06539 2.38651 0
M  V30 6489 N 623.758 0.647228 1.43697 0
M  V30 6490 C 624.688 -0.0345631 2.33474 0
M  V30 6491 C 625.669 -0.818193 1.4913 0
M  V30 6492 O 626.854 -0.780867 1.77809 0
M  V30 6493 C 623.984 -1.00576 3.32418 0
M  V30 6494 C 622.938 -0.33266 4.26705 0
M  V30 6495 C 622.264 -1.41489 5.1564 0
M  V30 6496 C 623.564 0.771204 5.16575 0
M  V30 6497 H 625.258 0.715163 2.90733 0
M  V30 6498 H 622.804 0.345364 1.39797 0
M  V30 6499 H 624.757 -1.49159 3.94119 0
M  V30 6500 H 623.481 -1.78657 2.73403 0
M  V30 6501 H 622.14 0.13267 3.6636 0
M  V30 6502 H 621.788 -2.18698 4.52968 0
M  V30 6503 H 621.488 -0.969799 5.79542 0
M  V30 6504 H 623.012 -1.9022 5.80214 0
M  V30 6505 H 624.426 0.36779 5.72119 0
M  V30 6506 H 622.823 1.1404 5.89165 0
M  V30 6507 H 623.893 1.63169 4.56622 0
M  V30 6508 N 625.236 -1.5273 0.388769 0
M  V30 6509 C 626.461 -2.0647 -0.19621 0
M  V30 6510 C 626.886 -1.25865 -1.39784 0
M  V30 6511 O 626.244 -0.283562 -1.79069 0
M  V30 6512 C 626.292 -3.56456 -0.5451 0
M  V30 6513 O 625.396 -3.78426 -1.63912 0
M  V30 6514 H 624.737 -0.663599 -0.023067 0
M  V30 6515 H 627.267 -1.96898 0.556084 0
M  V30 6516 H 627.277 -3.99888 -0.809557 0
M  V30 6517 H 625.952 -4.14561 0.333417 0
M  V30 6518 H 624.529 -3.46884 -1.36842 0
M  V30 6519 N 626.714 -0.118576 -1.57153 0
M  V30 6520 C 627.991 0.583062 -1.86708 0
M  V30 6521 C 628.371 1.84841 -1.01967 0
M  V30 6522 O 627.719 2.28288 -0.0984673 0
M  V30 6523 C 627.929 0.875912 -3.3783 0
M  V30 6524 C 629.277 1.22916 -4.0642 0
M  V30 6525 O 630.301 0.966188 -3.42846 0
M  V30 6526 O 629.16 1.72269 -5.18638 0
M  V30 6527 H 626.254 0.294185 -0.772906 0
M  V30 6528 H 628.8 -0.153048 -1.69008 0
M  V30 6529 H 627.572 -0.0207776 -3.91294 0
M  V30 6530 H 627.195 1.66719 -3.60958 0
M  V30 6531 N 628.193 1.56834 0.155195 0
M  V30 6532 C 629.439 1.83169 0.870467 0
M  V30 6533 C 629.772 0.698929 1.81187 0
M  V30 6534 O 629.047 -0.298035 1.92203 0
M  V30 6535 C 629.33 3.19965 1.65211 0
M  V30 6536 C 629.183 4.43792 0.732744 0
M  V30 6537 C 630.502 3.53885 2.61636 0
M  V30 6538 H 627.621 0.666288 0.315006 0
M  V30 6539 H 630.263 1.89513 0.135988 0
M  V30 6540 H 628.413 3.14687 2.27825 0
M  V30 6541 H 630.085 4.61148 0.118236 0
M  V30 6542 H 628.328 4.3378 0.0417906 0
M  V30 6543 H 628.999 5.36095 1.31552 0
M  V30 6544 H 631.475 3.5972 2.09143 0
M  V30 6545 H 630.351 4.50648 3.13381 0
M  V30 6546 H 630.612 2.79418 3.42605 0
M  V30 6547 N 629.671 -0.424282 1.51781 0
M  V30 6548 C 630.92 -1.16961 1.64326 0
M  V30 6549 C 631.233 -1.92035 0.371749 0
M  V30 6550 O 632.439 -2.68873 0.37676 0
M  V30 6551 C 630.895 -2.12782 2.90262 0
M  V30 6552 C 630.503 -1.43295 4.24465 0
M  V30 6553 C 632.247 -2.87667 3.12166 0
M  V30 6554 C 630.154 -2.37676 5.41538 0
M  V30 6555 H 629.084 -0.440293 0.612093 0
M  V30 6556 H 631.735 -0.435431 1.78259 0
M  V30 6557 H 630.117 -2.8969 2.69992 0
M  V30 6558 H 631.291 -0.718564 4.55163 0
M  V30 6559 H 629.606 -0.805118 4.08542 0
M  V30 6560 H 632.203 -3.58395 3.96808 0
M  V30 6561 H 632.546 -3.49758 2.25776 0
M  V30 6562 H 633.079 -2.17863 3.32837 0
M  V30 6563 H 629.818 -1.80255 6.30229 0
M  V30 6564 H 629.338 -3.07132 5.15199 0
M  V30 6565 H 631.017 -2.98529 5.74012 0
M  V30 6566 N 631.149 -1.42148 -0.680565 0
M  V30 6567 C 632.426 -1.32795 -1.43614 0
M  V30 6568 C 632.806 0.037415 -2.11067 0
M  V30 6569 O 632.154 1.05258 -2.02813 0
M  V30 6570 C 632.364 -2.49206 -2.44331 0
M  V30 6571 C 633.712 -2.91059 -3.09144 0
M  V30 6572 O 634.736 -2.49054 -2.54657 0
M  V30 6573 O 633.595 -3.63741 -4.07866 0
M  V30 6574 H 630.689 -0.523397 -0.640301 0
M  V30 6575 H 633.235 -1.54144 -0.709775 0
M  V30 6576 H 632.007 -3.40252 -1.93247 0
M  V30 6577 H 631.63 -2.29813 -3.24456 0
M  V30 6578 N 632.627 0.916307 -1.28225 0
M  V30 6579 C 634.043 1.19425 -1.05876 0
M  V30 6580 C 634.243 2.005 0.2005 0
M  V30 6581 O 633.299 2.35806 0.902873 0
M  V30 6582 C 634.612 1.93133 -2.30478 0
M  V30 6583 C 636.16 2.06026 -2.35632 0
M  V30 6584 C 636.635 2.83141 -3.59994 0
M  V30 6585 N 638.126 2.90704 -3.60618 0
M  V30 6586 C 638.861 3.50865 -4.53521 0
M  V30 6587 N 638.357 4.12327 -5.56739 0
M  V30 6588 N 640.15 3.48379 -4.41122 0
M  V30 6589 H 632.301 0.37496 -2.09064 0
M  V30 6590 H 634.564 0.228531 -0.920042 0
M  V30 6591 H 634.27 1.40985 -3.22205 0
M  V30 6592 H 634.144 2.93696 -2.36691 0
M  V30 6593 H 636.531 2.57355 -1.44404 0
M  V30 6594 H 636.612 1.04647 -2.33415 0
M  V30 6595 H 636.256 2.32492 -4.51564 0
M  V30 6596 H 636.186 3.84829 -3.59464 0
M  V30 6597 H 638.677 2.47034 -2.85977 0
M  V30 6598 H 638.99 4.56205 -6.23776 0
M  V30 6599 H 637.335 4.10839 -5.60568 0
M  V30 6600 H 640.526 2.99572 -3.59686 0
M  V30 6601 H 640.699 3.94974 -5.13712 0
M  V30 6602 N 634.105 1.10431 1.1244 0
M  V30 6603 C 635.035 0.775143 2.20258 0
M  V30 6604 C 636.016 -0.25186 1.68225 0
M  V30 6605 O 637.201 -0.117637 1.93843 0
M  V30 6606 C 634.331 0.206133 3.46688 0
M  V30 6607 C 633.285 1.16382 4.11873 0
M  V30 6608 C 632.611 0.456014 5.32752 0
M  V30 6609 C 633.911 2.5104 4.58013 0
M  V30 6610 H 635.605 1.67665 2.4805 0
M  V30 6611 H 633.151 0.807595 1.19222 0
M  V30 6612 H 635.104 -0.036291 4.21384 0
M  V30 6613 H 633.828 -0.730614 3.18323 0
M  V30 6614 H 632.487 1.39169 3.39157 0
M  V30 6615 H 632.135 -0.485203 5.00654 0
M  V30 6616 H 631.835 1.09466 5.77314 0
M  V30 6617 H 633.359 0.222135 6.10196 0
M  V30 6618 H 634.773 2.32401 5.24083 0
M  V30 6619 H 633.17 3.10789 5.13352 0
M  V30 6620 H 634.24 3.11039 3.71998 0
M  V30 6621 N 635.583 -1.29855 0.893053 0
M  V30 6622 C 636.493 -2.31661 0.370157 0
M  V30 6623 C 637.509 -1.65677 -0.531723 0
M  V30 6624 O 638.685 -1.9691 -0.422902 0
M  V30 6625 C 635.75 -3.44388 -0.399741 0
M  V30 6626 C 634.811 -4.2598 0.532861 0
M  V30 6627 C 634.044 -5.33324 -0.200388 0
M  V30 6628 O 634.267 -5.52305 -1.42531 0
M  V30 6629 O 633.201 -6.00188 0.453668 0
M  V30 6630 H 637.027 -2.78354 1.2146 0
M  V30 6631 H 634.612 -1.34171 0.657153 0
M  V30 6632 H 636.494 -4.13037 -0.835358 0
M  V30 6633 H 635.169 -2.99815 -1.22035 0
M  V30 6634 H 634.076 -3.59998 1.01746 0
M  V30 6635 H 635.409 -4.74178 1.3197 0
M  V30 6636 N 637.061 -0.65484 -1.43351 0
M  V30 6637 C 638.024 0.0263562 -2.29185 0
M  V30 6638 C 639.024 0.748951 -1.42293 0
M  V30 6639 O 640.214 0.589957 -1.63906 0
M  V30 6640 C 637.346 1.04806 -3.2439 0
M  V30 6641 H 638.539 -0.728883 -2.90908 0
M  V30 6642 H 636.092 -0.416149 -1.50658 0
M  V30 6643 H 636.827 1.83247 -2.67565 0
M  V30 6644 H 636.612 0.533554 -3.88453 0
M  V30 6645 H 638.102 1.52372 -3.88809 0
M  V30 6646 N 638.539 1.52521 -0.396863 0
M  V30 6647 C 639.816 1.94112 0.240842 0
M  V30 6648 C 640.196 1.33288 1.637 0
M  V30 6649 O 639.544 0.503901 2.22875 0
M  V30 6650 C 639.754 3.48033 0.259567 0
M  V30 6651 C 641.102 4.21822 0.484866 0
M  V30 6652 O 642.126 3.54579 0.339453 0
M  V30 6653 O 640.985 5.41042 0.770412 0
M  V30 6654 H 638.079 0.812973 0.151671 0
M  V30 6655 H 640.625 1.63572 -0.451918 0
M  V30 6656 H 639.397 3.84655 -0.718078 0
M  V30 6657 H 639.02 3.84899 0.996937 0
M  V30 6658 N 640.017 0.126909 1.57088 0
M  V30 6659 C 640.967 -0.831678 2.1229 0
M  V30 6660 C 641.951 -1.22292 1.04564 0
M  V30 6661 O 643.143 -1.19269 1.30782 0
M  V30 6662 C 640.272 -2.07866 2.73215 0
M  V30 6663 C 639.358 -1.71143 3.88035 0
M  V30 6664 N 639.749 -1.05136 4.94753 0
M  V30 6665 C 638.047 -2.00549 3.98367 0
M  V30 6666 C 638.748 -0.877257 5.75047 0
M  V30 6667 N 637.724 -1.40477 5.25135 0
M  V30 6668 H 641.526 -0.317926 2.92175 0
M  V30 6669 H 639.04 -0.0753052 1.62225 0
M  V30 6670 H 641.037 -2.77516 3.11111 0
M  V30 6671 H 639.697 -2.59778 1.94796 0
M  V30 6672 H 640.708 -0.71442 5.12949 0
M  V30 6673 H 637.385 -2.54452 3.30999 0
M  V30 6674 H 638.775 -0.358536 6.70943 0
M  V30 6675 N 641.495 -1.56914 -0.146875 0
M  V30 6676 C 642.405 -2.0154 -1.20079 0
M  V30 6677 C 643.421 -0.930838 -1.47008 0
M  V30 6678 O 644.597 -1.24032 -1.58676 0
M  V30 6679 C 641.662 -2.38715 -2.51428 0
M  V30 6680 C 640.723 -3.6112 -2.32145 0
M  V30 6681 C 639.956 -3.96512 -3.57231 0
M  V30 6682 O 640.179 -3.32566 -4.63418 0
M  V30 6683 O 639.113 -4.89758 -3.49887 0
M  V30 6684 H 642.939 -2.91506 -0.851924 0
M  V30 6685 H 640.524 -1.45106 -0.355607 0
M  V30 6686 H 642.406 -2.63485 -3.28867 0
M  V30 6687 H 641.081 -1.51903 -2.85845 0
M  V30 6688 H 639.988 -3.41536 -1.52656 0
M  V30 6689 H 641.321 -4.48549 -2.02644 0
M  V30 6690 N 642.974 0.416227 -1.52004 0
M  V30 6691 C 644.204 1.18401 -1.69307 0
M  V30 6692 C 644.612 1.84943 -0.399072 0
M  V30 6693 O 643.955 1.72406 0.634177 0
M  V30 6694 C 644.017 2.29465 -2.76742 0
M  V30 6695 C 643.681 1.83117 -4.18709 0
M  V30 6696 C 644.678 1.32286 -5.02789 0
M  V30 6697 C 642.363 1.90167 -4.64911 0
M  V30 6698 C 644.357 0.891178 -6.31139 0
M  V30 6699 C 642.044 1.4661 -5.93253 0
M  V30 6700 C 643.042 0.961696 -6.76196 0
M  V30 6701 O 642.73 0.532388 -8.02135 0
M  V30 6702 H 642.462 0.362098 -0.570843 0
M  V30 6703 H 645.016 0.496764 -1.99302 0
M  V30 6704 H 643.246 3.01531 -2.42107 0
M  V30 6705 H 644.935 2.91252 -2.82713 0
M  V30 6706 H 645.701 1.26218 -4.68288 0
M  V30 6707 H 641.58 2.28371 -4.00459 0
M  V30 6708 H 645.124 0.496788 -6.95829 0
M  V30 6709 H 641.021 1.52355 -6.27263 0
M  V30 6710 H 641.789 0.656339 -8.15864 0
M  V30 6711 N 644.452 1.42507 0.673017 0
M  V30 6712 C 645.382 1.48916 1.79851 0
M  V30 6713 C 646.363 0.345566 1.66553 0
M  V30 6714 O 647.548 0.560116 1.85947 0
M  V30 6715 C 644.678 1.39258 3.18158 0
M  V30 6716 C 643.632 2.51662 3.46194 0
M  V30 6717 C 642.958 2.27062 4.84094 0
M  V30 6718 C 644.258 3.93968 3.42909 0
M  V30 6719 H 645.952 2.43114 1.74745 0
M  V30 6720 H 643.498 1.17013 0.839288 0
M  V30 6721 H 645.451 1.42349 3.96629 0
M  V30 6722 H 644.175 0.415542 3.23946 0
M  V30 6723 H 642.834 2.47891 2.70084 0
M  V30 6724 H 642.482 1.27648 4.86534 0
M  V30 6725 H 642.182 3.02398 5.03815 0
M  V30 6726 H 643.706 2.31905 5.64847 0
M  V30 6727 H 645.12 3.99332 4.11347 0
M  V30 6728 H 643.517 4.6917 3.74165 0
M  V30 6729 H 644.587 4.20512 2.41449 0
M  V30 6730 N 645.93 -0.909495 1.28709 0
M  V30 6731 C 647.158 -1.69272 1.18973 0
M  V30 6732 C 647.573 -1.87123 -0.251048 0
M  V30 6733 O 646.93 -1.40127 -1.16922 0
M  V30 6734 C 646.981 -3.08257 1.88839 0
M  V30 6735 O 646.702 -2.91228 3.27289 0
M  V30 6736 C 648.203 -4.02642 1.85457 0
M  V30 6737 H 645.423 -0.528999 0.412797 0
M  V30 6738 H 647.967 -1.13803 1.69909 0
M  V30 6739 H 646.122 -3.6053 1.41762 0
M  V30 6740 H 646.536 -3.79223 3.6234 0
M  V30 6741 H 648.01 -4.97613 2.38925 0
M  V30 6742 H 648.487 -4.31327 0.827893 0
M  V30 6743 H 649.093 -3.56298 2.32233 0
M  V30 6744 N 647.408 -1.11026 -1.11852 0
M  V30 6745 C 648.318 -0.777252 -2.2135 0
M  V30 6746 C 649.334 0.227821 -1.72502 0
M  V30 6747 O 650.51 0.0650587 -2.01295 0
M  V30 6748 C 647.575 -0.220668 -3.45997 0
M  V30 6749 C 646.636 -1.2838 -4.09655 0
M  V30 6750 C 645.869 -0.753678 -5.28352 0
M  V30 6751 O 646.092 0.417779 -5.68868 0
M  V30 6752 O 645.026 -1.51647 -5.82483 0
M  V30 6753 H 648.852 -1.69141 -2.5224 0
M  V30 6754 H 646.437 -0.885836 -1.20305 0
M  V30 6755 H 648.319 0.0855756 -4.21313 0
M  V30 6756 H 646.994 0.666262 -3.16769 0
M  V30 6757 H 645.901 -1.64299 -3.3609 0
M  V30 6758 H 647.234 -2.14396 -4.43052 0
M  V30 6759 N 648.886 1.2938 -0.899927 0
M  V30 6760 C 650.134 1.95164 -0.524924 0
M  V30 6761 C 650.455 1.71292 0.931888 0
M  V30 6762 O 649.725 1.04481 1.65712 0
M  V30 6763 H 648.305 0.722133 -0.191135 0
M  V30 6764 H 650.967 1.57628 -1.14627 0
M  V30 6765 H 650.063 3.0397 -0.707711 0
M  V30 6766 N 650.364 0.662433 1.43002 0
M  V30 6767 C 651.612 0.179237 2.01304 0
M  V30 6768 C 651.933 -1.21428 1.52579 0
M  V30 6769 O 651.203 -1.81294 0.742252 0
M  V30 6770 H 649.783 0.0632725 0.744316 0
M  V30 6771 H 652.445 0.856169 1.75088 0
M  V30 6772 H 651.541 0.170957 3.11631 0
M  V30 6773 N 651.842 -1.52309 0.404946 0
M  V30 6774 C 653.088 -2.02065 -0.172455 0
M  V30 6775 C 653.421 -1.29022 -1.45145 0
M  V30 6776 O 652.696 -0.395284 -1.90441 0
M  V30 6777 C 652.979 -3.5759 -0.424433 0
M  V30 6778 C 652.832 -4.41287 0.870945 0
M  V30 6779 C 654.151 -4.23186 -1.20837 0
M  V30 6780 H 651.27 -0.734454 -0.0612035 0
M  V30 6781 H 653.912 -1.82236 0.53759 0
M  V30 6782 H 652.062 -3.74617 -1.02929 0
M  V30 6783 H 653.734 -4.3598 1.50729 0
M  V30 6784 H 651.977 -4.07669 1.48284 0
M  V30 6785 H 652.648 -5.48171 0.649083 0
M  V30 6786 H 655.124 -4.10232 -0.696338 0
M  V30 6787 H 654 -5.31953 -1.35343 0
M  V30 6788 H 654.261 -3.81862 -2.22786 0
M  V30 6789 N 653.32 -0.135238 -1.57019 0
M  V30 6790 C 654.567 0.518794 -1.95742 0
M  V30 6791 C 654.895 1.65642 -1.01947 0
M  V30 6792 O 654.15 1.95645 -0.0464016 0
M  V30 6793 C 654.449 1.07694 -3.40788 0
M  V30 6794 C 654.115 0.058992 -4.50861 0
M  V30 6795 C 652.777 -0.220872 -4.80693 0
M  V30 6796 C 655.129 -0.633856 -5.17331 0
M  V30 6797 C 652.457 -1.19959 -5.74305 0
M  V30 6798 C 654.809 -1.60131 -6.11997 0
M  V30 6799 C 653.473 -1.889 -6.40213 0
M  V30 6800 H 652.743 0.18984 -0.716269 0
M  V30 6801 H 655.39 -0.219581 -1.90237 0
M  V30 6802 H 653.695 1.89241 -3.43067 0
M  V30 6803 H 655.392 1.59137 -3.68071 0
M  V30 6804 H 651.982 0.287304 -4.27636 0
M  V30 6805 H 656.166 -0.430823 -4.94427 0
M  V30 6806 H 651.422 -1.42905 -5.94465 0
M  V30 6807 H 655.596 -2.14376 -6.62583 0
M  V30 6808 H 653.223 -2.64891 -7.12556 0
M  V30 6809 N 654.798 1.5699 0.138552 0
M  V30 6810 C 656.026 1.87976 0.864437 0
M  V30 6811 C 656.441 0.724372 1.74351 0
M  V30 6812 O 655.798 -0.305575 1.79924 0
M  V30 6813 C 655.849 3.18276 1.71414 0
M  V30 6814 O 655.57 4.29365 0.870487 0
M  V30 6815 C 657.071 3.62834 2.54688 0
M  V30 6816 H 654.291 0.622878 0.249528 0
M  V30 6817 H 656.835 2.04094 0.128805 0
M  V30 6818 H 654.99 3.03886 2.40274 0
M  V30 6819 H 655.404 5.03924 1.45466 0
M  V30 6820 H 656.878 4.5682 3.0987 0
M  V30 6821 H 657.355 2.88533 3.31127 0
M  V30 6822 H 657.961 3.79946 1.91105 0
M  V30 6823 N 656.276 -0.40816 1.52223 0
M  V30 6824 C 657.224 -1.51788 1.76248 0
M  V30 6825 C 658.218 -1.57264 0.629638 0
M  V30 6826 O 659.424 -1.60659 0.811704 0
M  V30 6827 H 655.799 -0.504823 0.557367 0
M  V30 6828 H 657.77 -1.2871 2.69214 0
M  V30 6829 C 656.519 -2.89145 1.93107 0
M  V30 6830 H 655.842 -2.85674 2.79697 0
M  V30 6831 H 657.282 -3.66082 2.13916 0
M  V30 6832 C 655.741 -3.29581 0.698431 0
M  V30 6833 O 656.271 -4.01479 -0.133238 0
M  V30 6834 N 654.477 -2.85651 0.53405 0
M  V30 6835 H 654.024 -2.2731 1.21194 0
M  V30 6836 H 653.982 -3.13065 -0.289387 0
M  V30 6837 N 657.755 -1.42862 -0.66545 0
M  V30 6838 C 659.032 -1.3431 -1.42197 0
M  V30 6839 C 659.412 0.0150265 -2.11095 0
M  V30 6840 O 658.76 1.03101 -2.03918 0
M  V30 6841 C 658.97 -2.51783 -2.41674 0
M  V30 6842 C 660.318 -2.94321 -3.0604 0
M  V30 6843 O 661.342 -2.51741 -2.52001 0
M  V30 6844 O 660.201 -3.68047 -4.03985 0
M  V30 6845 H 657.295 -0.530159 -0.634713 0
M  V30 6846 H 659.841 -1.54888 -0.693386 0
M  V30 6847 H 658.613 -3.42282 -1.89627 0
M  V30 6848 H 658.236 -2.33241 -3.22001 0
M  V30 6849 N 659.233 0.902656 -1.29189 0
M  V30 6850 C 660.163 2.02294 -1.16616 0
M  V30 6851 C 661.144 1.6999 -0.0611175 0
M  V30 6852 O 662.329 1.9271 -0.240072 0
M  V30 6853 C 659.459 3.37018 -0.83882 0
M  V30 6854 C 658.413 3.83522 -1.89986 0
M  V30 6855 C 657.739 5.15337 -1.42589 0
M  V30 6856 C 659.039 4.04169 -3.30824 0
M  V30 6857 H 660.733 2.13071 -2.10336 0
M  V30 6858 H 658.279 1.02378 -1.01266 0
M  V30 6859 H 660.232 4.14895 -0.737584 0
M  V30 6860 H 658.956 3.26325 0.134071 0
M  V30 6861 H 657.615 3.07859 -1.99043 0
M  V30 6862 H 657.263 5.01056 -0.441759 0
M  V30 6863 H 656.963 5.47423 -2.13547 0
M  V30 6864 H 658.487 5.95758 -1.3381 0
M  V30 6865 H 659.901 4.72537 -3.24626 0
M  V30 6866 H 658.298 4.47604 -3.99713 0
M  V30 6867 H 659.368 3.08604 -3.74021 0
M  V30 6868 N 660.711 1.11618 1.11262 0
M  V30 6869 C 661.96 0.860934 1.82403 0
M  V30 6870 C 662.273 -0.615303 1.8567 0
M  V30 6871 O 663.479 -0.986861 2.52929 0
M  V30 6872 C 661.935 1.49048 3.27586 0
M  V30 6873 C 661.543 3.00089 3.32642 0
M  V30 6874 C 663.287 1.31515 4.03614 0
M  V30 6875 C 661.194 3.56019 4.72234 0
M  V30 6876 H 660.124 0.318423 0.683464 0
M  V30 6877 H 662.775 1.34165 1.25188 0
M  V30 6878 H 661.157 0.937434 3.84744 0
M  V30 6879 H 662.331 3.61813 2.85356 0
M  V30 6880 H 660.646 3.16919 2.70096 0
M  V30 6881 H 663.243 1.70732 5.0671 0
M  V30 6882 H 663.586 0.257917 4.155 0
M  V30 6883 H 664.119 1.83694 3.52848 0
M  V30 6884 H 660.858 4.61463 4.65545 0
M  V30 6885 H 660.378 2.99066 5.19923 0
M  V30 6886 H 662.057 3.54568 5.41193 0
M  V30 6887 N 662.189 -1.289 0.906776 0
M  V30 6888 C 663.099 -2.31256 0.394707 0
M  V30 6889 C 664.115 -1.66231 -0.514121 0
M  V30 6890 O 665.291 -1.97347 -0.401994 0
M  V30 6891 C 662.356 -3.44792 -0.363191 0
M  V30 6892 C 661.417 -4.25391 0.578012 0
M  V30 6893 C 660.65 -5.33506 -0.143811 0
M  V30 6894 O 660.873 -5.53786 -1.36665 0
M  V30 6895 O 659.807 -5.99673 0.5173 0
M  V30 6896 H 663.633 -2.77051 1.24405 0
M  V30 6897 H 661.218 -1.33466 0.671346 0
M  V30 6898 H 663.1 -4.139 -0.791503 0
M  V30 6899 H 661.775 -3.01093 -1.18848 0
M  V30 6900 H 660.682 -3.58899 1.05558 0
M  V30 6901 H 662.015 -4.72752 1.36992 0
M  V30 6902 N 663.667 -0.670007 -1.42649 0
M  V30 6903 C 664.895 -0.19854 -2.05945 0
M  V30 6904 C 665.31 1.14243 -1.50313 0
M  V30 6905 O 664.667 1.70872 -0.641027 0
M  V30 6906 C 664.718 -0.11966 -3.61302 0
M  V30 6907 O 664.439 -1.40764 -4.1487 0
M  V30 6908 C 665.94 0.375878 -4.41704 0
M  V30 6909 H 663.16 -0.0976894 -0.663851 0
M  V30 6910 H 665.704 -0.915392 -1.82868 0
M  V30 6911 H 663.859 0.547851 -3.83507 0
M  V30 6912 H 664.273 -1.27784 -5.08696 0
M  V30 6913 H 665.747 0.379988 -5.50691 0
M  V30 6914 H 666.224 1.41028 -4.15942 0
M  V30 6915 H 666.83 -0.259727 -4.24506 0
M  V30 6916 N 665.145 1.52092 -0.413018 0
M  V30 6917 C 666.391 2.02815 0.154104 0
M  V30 6918 C 666.746 1.293 1.42475 0
M  V30 6919 O 666.039 0.391835 1.87551 0
M  V30 6920 C 666.233 3.54529 0.4521 0
M  V30 6921 C 666.062 4.4274 -0.788116 0
M  V30 6922 C 664.832 4.87903 -1.31447 0
M  V30 6923 C 667.03 4.86522 -1.66735 0
M  V30 6924 N 665.012 5.60254 -2.50976 0
M  V30 6925 C 666.383 5.57692 -2.70886 0
M  V30 6926 C 668.438 4.68534 -1.68465 0
M  V30 6927 C 667.141 6.12783 -3.76682 0
M  V30 6928 C 669.167 5.24524 -2.73182 0
M  V30 6929 C 668.529 5.9562 -3.76054 0
M  V30 6930 H 664.628 0.781796 0.0178567 0
M  V30 6931 H 667.212 1.86223 -0.568237 0
M  V30 6932 H 665.383 3.71186 1.14348 0
M  V30 6933 H 667.115 3.91934 1.00844 0
M  V30 6934 H 663.87 4.65504 -0.871931 0
M  V30 6935 H 664.294 6.01069 -3.11521 0
M  V30 6936 H 668.936 4.13051 -0.902708 0
M  V30 6937 H 666.654 6.67335 -4.55729 0
M  V30 6938 H 670.24 5.12473 -2.75433 0
M  V30 6939 H 669.12 6.38169 -4.55752 0
M  V30 6940 N 666.623 0.143563 1.56945 0
M  V30 6941 C 667.872 -0.50835 1.95189 0
M  V30 6942 C 668.185 -1.66239 1.03073 0
M  V30 6943 O 669.391 -2.3787 1.30882 0
M  V30 6944 C 667.847 -0.955735 3.46978 0
M  V30 6945 C 667.455 0.171183 4.47673 0
M  V30 6946 C 669.199 -1.57763 3.94095 0
M  V30 6947 C 667.106 -0.294279 5.90667 0
M  V30 6948 H 666.036 -0.193679 0.728701 0
M  V30 6949 H 668.687 0.227357 1.82086 0
M  V30 6950 H 667.069 -1.7466 3.55401 0
M  V30 6951 H 668.243 0.948049 4.50942 0
M  V30 6952 H 666.558 0.701273 4.10452 0
M  V30 6953 H 669.155 -1.93745 4.98364 0
M  V30 6954 H 669.498 -2.46531 3.35452 0
M  V30 6955 H 670.031 -0.851728 3.88575 0
M  V30 6956 H 666.77 0.557939 6.53121 0
M  V30 6957 H 666.29 -1.0371 5.90766 0
M  V30 6958 H 667.969 -0.747426 6.42668 0
M  V30 6959 N 668.101 -1.57061 -0.130224 0
M  V30 6960 C 669.326 -1.88802 -0.858409 0
M  V30 6961 C 669.751 -0.734353 -1.73173 0
M  V30 6962 O 669.109 0.315529 -1.78533 0
M  V30 6963 C 669.157 -3.19228 -1.67708 0
M  V30 6964 O 668.261 -3.04343 -2.78297 0
M  V30 6965 H 667.602 -0.619849 -0.238083 0
M  V30 6966 H 670.132 -2.04271 -0.115995 0
M  V30 6967 H 670.142 -3.51669 -2.06864 0
M  V30 6968 H 668.817 -4.02793 -1.0359 0
M  V30 6969 H 667.394 -2.83346 -2.42425 0
M  V30 6970 N 669.579 0.400081 -1.52437 0
M  V30 6971 C 670.826 1.14619 -1.6694 0
M  V30 6972 C 671.154 1.90262 -0.403797 0
M  V30 6973 O 670.409 1.85835 0.61351 0
M  V30 6974 C 670.708 2.15914 -2.84808 0
M  V30 6975 C 670.374 1.57011 -4.2268 0
M  V30 6976 C 669.036 1.40672 -4.60179 0
M  V30 6977 C 671.388 1.14081 -5.08562 0
M  V30 6978 C 668.716 0.799335 -5.81229 0
M  V30 6979 C 671.068 0.547573 -6.30226 0
M  V30 6980 C 669.732 0.371389 -6.66466 0
M  V30 6981 H 669.002 0.419419 -0.610875 0
M  V30 6982 H 671.649 0.432227 -1.86558 0
M  V30 6983 H 669.954 2.93488 -2.59561 0
M  V30 6984 H 671.651 2.73533 -2.93225 0
M  V30 6985 H 668.241 1.70713 -3.93135 0
M  V30 6986 H 672.425 1.2551 -4.80168 0
M  V30 6987 H 667.681 0.65093 -6.07925 0
M  V30 6988 H 671.855 0.206575 -6.96094 0
M  V30 6989 H 669.482 -0.10135 -7.60132 0
M  V30 6990 N 671.057 1.43213 0.657864 0
M  V30 6991 C 672.004 1.48011 1.77092 0
M  V30 6992 C 672.974 0.330291 1.62783 0
M  V30 6993 O 674.159 0.536787 1.83094 0
M  V30 6994 C 671.299 1.40461 3.15222 0
M  V30 6995 C 670.412 2.65612 3.40697 0
M  V30 6996 C 669.547 2.50083 4.68649 0
M  V30 6997 C 668.586 3.70525 4.87214 0
M  V30 6998 N 667.723 3.53835 6.0642 0
M  V30 6999 H 672.563 2.43121 1.72326 0
M  V30 7000 H 670.1 1.20687 0.841013 0
M  V30 7001 H 672.058 1.34079 3.95068 0
M  V30 7002 H 670.688 0.489359 3.19069 0
M  V30 7003 H 669.74 2.82292 2.54982 0
M  V30 7004 H 671.052 3.5509 3.50303 0
M  V30 7005 H 670.206 2.41383 5.56614 0
M  V30 7006 H 668.945 1.58121 4.61356 0
M  V30 7007 H 667.95 3.79639 3.97686 0
M  V30 7008 H 669.175 4.63489 4.96341 0
M  V30 7009 H 667.121 2.64604 6.00267 0
M  V30 7010 H 667.038 4.36912 6.16963 0
M  V30 7011 H 668.306 3.48978 6.97019 0
M  V30 7012 N 672.536 -0.895792 1.29666 0
M  V30 7013 C 673.952 -1.17726 1.07763 0
M  V30 7014 C 674.152 -2.00794 -0.168576 0
M  V30 7015 O 673.208 -2.37213 -0.865244 0
M  V30 7016 C 674.521 -1.89441 2.33522 0
M  V30 7017 C 676.069 -2.02251 2.3888 0
M  V30 7018 C 676.544 -2.77378 3.64452 0
M  V30 7019 N 678.035 -2.8493 3.65198 0
M  V30 7020 C 678.77 -3.43606 4.59045 0
M  V30 7021 N 678.266 -4.03417 5.63228 0
M  V30 7022 N 680.059 -3.41317 4.46608 0
M  V30 7023 H 672.21 -0.341652 2.09634 0
M  V30 7024 H 674.473 -0.213865 0.923561 0
M  V30 7025 H 674.179 -1.35842 3.24407 0
M  V30 7026 H 674.053 -2.89893 2.41334 0
M  V30 7027 H 676.44 -2.55025 1.4848 0
M  V30 7028 H 676.521 -1.0092 2.3505 0
M  V30 7029 H 676.165 -2.25279 4.55205 0
M  V30 7030 H 676.095 -3.79062 3.65541 0
M  V30 7031 H 678.586 -2.42453 2.89871 0
M  V30 7032 H 678.899 -4.46224 6.30955 0
M  V30 7033 H 677.244 -4.01868 5.67033 0
M  V30 7034 H 680.435 -2.93812 3.64407 0
M  V30 7035 H 680.608 -3.86751 5.1993 0
M  V30 7036 N 674.014 -1.12206 -1.10668 0
M  V30 7037 C 674.924 -0.800686 -2.20513 0
M  V30 7038 C 675.94 0.209512 -1.72734 0
M  V30 7039 O 677.116 0.043705 -2.01353 0
M  V30 7040 C 674.181 -0.257353 -3.45744 0
M  V30 7041 C 673.242 -1.32718 -4.0827 0
M  V30 7042 C 672.475 -0.809674 -5.27522 0
M  V30 7043 O 672.698 0.35742 -5.69279 0
M  V30 7044 O 671.632 -1.57816 -5.80842 0
M  V30 7045 H 675.458 -1.71807 -2.50432 0
M  V30 7046 H 673.043 -0.898546 -1.19359 0
M  V30 7047 H 674.925 0.0408849 -4.2138 0
M  V30 7048 H 673.6 0.632627 -3.17458 0
M  V30 7049 H 672.507 -1.67855 -3.34329 0
M  V30 7050 H 673.84 -2.19083 -4.40753 0
M  V30 7051 N 675.492 1.28418 -0.913599 0
M  V30 7052 C 676.44 2.29272 -0.392037 0
M  V30 7053 C 677.434 1.61344 0.516198 0
M  V30 7054 O 678.64 1.75557 0.39746 0
M  V30 7055 H 675.015 0.744178 -0.108178 0
M  V30 7056 H 676.986 2.70691 -1.25574 0
M  V30 7057 C 675.735 3.45905 0.352815 0
M  V30 7058 H 675.058 3.98378 -0.336848 0
M  V30 7059 H 676.498 4.18473 0.682398 0
M  V30 7060 C 674.957 2.98572 1.56065 0
M  V30 7061 O 675.487 3.01033 2.65974 0
M  V30 7062 N 673.693 2.54235 1.40759 0
M  V30 7063 H 673.24 2.52432 0.513403 0
M  V30 7064 H 673.198 2.22925 2.21702 0
M  V30 7065 N 676.97 0.677563 1.42291 0
M  V30 7066 C 677.88 0.000962654 2.346 0
M  V30 7067 C 678.896 -0.785833 1.55244 0
M  V30 7068 O 680.072 -0.727523 1.87801 0
M  V30 7069 C 677.137 -0.936746 3.33805 0
M  V30 7070 C 676.198 -0.144173 4.29058 0
M  V30 7071 C 675.431 -1.03722 5.23524 0
M  V30 7072 O 675.654 -2.27675 5.22992 0
M  V30 7073 O 674.588 -0.496542 5.99848 0
M  V30 7074 H 678.414 0.761397 2.94001 0
M  V30 7075 H 675.999 0.43781 1.42841 0
M  V30 7076 H 677.881 -1.47497 3.94744 0
M  V30 7077 H 676.556 -1.67698 2.76874 0
M  V30 7078 H 675.463 0.438224 3.71524 0
M  V30 7079 H 676.796 0.55701 4.89038 0
M  V30 7080 N 678.448 -1.51871 0.421078 0
M  V30 7081 C 679.697 -2.01125 -0.152206 0
M  V30 7082 C 680.01 -1.3106 -1.45199 0
M  V30 7083 O 681.216 -1.71195 -2.10724 0
M  V30 7084 C 679.672 -3.58458 -0.3218 0
M  V30 7085 C 679.28 -4.37448 0.96659 0
M  V30 7086 C 681.024 -4.15908 -0.84973 0
M  V30 7087 C 678.931 -5.86451 0.763529 0
M  V30 7088 H 677.861 -0.751556 -0.0606565 0
M  V30 7089 H 680.512 -1.75115 0.548354 0
M  V30 7090 H 678.894 -3.80847 -1.08498 0
M  V30 7091 H 680.068 -4.26814 1.73684 0
M  V30 7092 H 678.383 -3.91373 1.42183 0
M  V30 7093 H 680.98 -5.24922 -1.01788 0
M  V30 7094 H 681.323 -3.74031 -1.82774 0
M  V30 7095 H 681.856 -3.97535 -0.145297 0
M  V30 7096 H 678.595 -6.3271 1.71344 0
M  V30 7097 H 678.115 -5.99791 0.0327889 0
M  V30 7098 H 679.794 -6.45697 0.410354 0
M  V30 7099 N 679.926 -0.151884 -1.56866 0
M  V30 7100 C 680.836 0.798876 -2.20579 0
M  V30 7101 C 681.852 1.268 -1.19154 0
M  V30 7102 O 683.028 1.32418 -1.51748 0
M  V30 7103 C 680.093 2.01861 -2.81874 0
M  V30 7104 C 679.154 1.59825 -3.9844 0
M  V30 7105 C 678.387 2.75984 -4.56802 0
M  V30 7106 O 678.61 3.92331 -4.14044 0
M  V30 7107 O 677.544 2.51175 -5.46987 0
M  V30 7108 H 681.37 0.2865 -3.02346 0
M  V30 7109 H 678.955 0.0753806 -1.4921 0
M  V30 7110 H 680.837 2.73235 -3.20813 0
M  V30 7111 H 679.512 2.52042 -2.03117 0
M  V30 7112 H 678.419 0.854601 -3.64208 0
M  V30 7113 H 679.752 1.14355 -4.78731 0
M  V30 7114 N 681.404 1.57128 0.121893 0
M  V30 7115 C 682.815 1.73902 0.679348 0
M  V30 7116 C 683.166 0.770135 1.80453 0
M  V30 7117 O 682.291 -0.0576083 2.16323 0
M  V30 7118 C 682.886 3.15328 1.2391 0
M  V30 7119 C 681.445 3.33618 1.74288 0
M  V30 7120 C 680.592 2.6978 0.641414 0
M  V30 7121 H 683.543 1.58359 -0.104 0
M  V30 7122 H 683.564 3.16718 2.10879 0
M  V30 7123 H 683.076 3.85821 0.419957 0
M  V30 7124 H 681.177 2.68162 2.58689 0
M  V30 7125 H 681.29 4.4176 1.85432 0
M  V30 7126 H 679.654 2.30935 1.0743 0
M  V30 7127 H 680.437 3.42895 -0.166707 0
M  V30 7128 N 682.882 -0.391992 1.52647 0
M  V30 7129 C 684.128 -1.139 1.67793 0
M  V30 7130 C 684.461 -1.89711 0.41514 0
M  V30 7131 O 683.736 -1.85431 -0.586979 0
M  V30 7132 C 684.019 -2.11966 2.91105 0
M  V30 7133 C 683.872 -1.39939 4.27478 0
M  V30 7134 C 685.191 -3.1243 3.09961 0
M  V30 7135 H 682.31 -0.412707 0.610608 0
M  V30 7136 H 684.952 -0.422725 1.85238 0
M  V30 7137 H 683.102 -2.73048 2.76364 0
M  V30 7138 H 684.774 -0.818439 4.53982 0
M  V30 7139 H 683.017 -0.701246 4.28095 0
M  V30 7140 H 683.688 -2.1158 5.09841 0
M  V30 7141 H 686.164 -2.61435 3.23714 0
M  V30 7142 H 685.04 -3.78294 3.97725 0
M  V30 7143 H 685.301 -3.81127 2.24042 0
M  V30 7144 N 684.36 -1.4356 -0.65026 0
M  V30 7145 C 685.308 -1.49219 -1.78427 0
M  V30 7146 C 686.302 -0.365528 -1.65409 0
M  V30 7147 O 687.508 -0.539649 -1.7172 0
M  V30 7148 H 683.883 -0.467858 -0.588738 0
M  V30 7149 H 685.854 -2.44701 -1.70774 0
M  V30 7150 C 684.603 -1.43519 -3.16698 0
M  V30 7151 H 683.926 -2.2952 -3.27354 0
M  V30 7152 H 685.366 -1.5154 -3.95995 0
M  V30 7153 C 683.825 -0.153197 -3.36552 0
M  V30 7154 O 684.355 0.784317 -3.93969 0
M  V30 7155 N 682.561 -0.0624402 -2.90533 0
M  V30 7156 H 682.108 -0.826172 -2.43992 0
M  V30 7157 H 682.066 0.794616 -3.04193 0
M  V30 7158 N 685.838 0.888903 -1.30139 0
M  V30 7159 C 687.087 1.63507 -1.18103 0
M  V30 7160 C 687.4 1.93808 0.264141 0
M  V30 7161 O 688.606 2.66744 0.505966 0
M  V30 7162 C 687.062 2.94673 -2.0663 0
M  V30 7163 C 686.67 2.71926 -3.56034 0
M  V30 7164 C 688.414 3.72626 -2.03346 0
M  V30 7165 C 686.321 3.98884 -4.3663 0
M  V30 7166 H 685.251 0.613426 -0.438435 0
M  V30 7167 H 687.902 0.984427 -1.54859 0
M  V30 7168 H 686.284 3.61009 -1.62754 0
M  V30 7169 H 687.458 2.14116 -4.08033 0
M  V30 7170 H 685.773 2.07353 -3.61101 0
M  V30 7171 H 688.37 4.66775 -2.60816 0
M  V30 7172 H 688.713 4.03712 -1.016 0
M  V30 7173 H 689.246 3.13147 -2.45324 0
M  V30 7174 H 685.985 3.72959 -5.39056 0
M  V30 7175 H 685.505 4.56214 -3.89396 0
M  V30 7176 H 687.184 4.66938 -4.47859 0
M  V30 7177 N 687.317 1.12792 1.10072 0
M  V30 7178 C 688.733 0.864745 1.34143 0
M  V30 7179 C 688.933 -0.503201 1.95116 0
M  V30 7180 O 687.989 -1.25111 2.19325 0
M  V30 7181 C 689.302 1.98413 2.25949 0
M  V30 7182 C 690.85 2.01545 2.39476 0
M  V30 7183 C 691.325 3.12727 3.34613 0
M  V30 7184 N 692.816 3.12194 3.42183 0
M  V30 7185 C 693.551 3.94862 4.15779 0
M  V30 7186 N 693.047 4.87528 4.92228 0
M  V30 7187 N 694.84 3.82985 4.11435 0
M  V30 7188 H 686.991 2.00926 0.68866 0
M  V30 7189 H 689.254 0.874564 0.365844 0
M  V30 7190 H 688.96 2.97005 1.88364 0
M  V30 7191 H 688.834 1.89254 3.26287 0
M  V30 7192 H 691.221 1.0357 2.76328 0
M  V30 7193 H 691.302 2.14777 1.3894 0
M  V30 7194 H 690.946 4.10936 2.98486 0
M  V30 7195 H 690.876 2.96732 4.35037 0
M  V30 7196 H 693.367 2.45065 2.87666 0
M  V30 7197 H 693.68 5.47109 5.45794 0
M  V30 7198 H 692.025 4.91539 4.9134 0
M  V30 7199 H 695.216 3.09923 3.50807 0
M  V30 7200 H 695.389 4.47641 4.68531 0
M  V30 7201 N 688.795 -1.27931 0.920396 0
M  V30 7202 C 690.206 -1.76707 0.602616 0
M  V30 7203 C 690.557 -1.75249 -0.882159 0
M  V30 7204 O 689.682 -1.35135 -1.69019 0
M  V30 7205 C 690.277 -3.20884 1.08714 0
M  V30 7206 C 688.836 -3.67356 0.820157 0
M  V30 7207 C 687.983 -2.47525 1.25006 0
M  V30 7208 H 690.934 -1.14301 1.10095 0
M  V30 7209 H 690.955 -3.78045 0.431535 0
M  V30 7210 H 690.467 -3.21913 2.1678 0
M  V30 7211 H 688.568 -3.7178 -0.247012 0
M  V30 7212 H 688.681 -4.57181 1.43257 0
M  V30 7213 H 687.045 -2.45765 0.668698 0
M  V30 7214 H 687.828 -2.51269 2.3392 0
M  V30 7215 N 690.273 -0.685099 -1.4193 0
M  V30 7216 C 691.223 0.00977295 -2.27998 0
M  V30 7217 C 692.207 0.763315 -1.41641 0
M  V30 7218 O 693.399 0.640532 -1.65004 0
M  V30 7219 C 690.528 0.952972 -3.29808 0
M  V30 7220 C 689.614 0.196231 -4.23646 0
M  V30 7221 N 690.005 -0.804401 -4.99363 0
M  V30 7222 C 688.303 0.433213 -4.43891 0
M  V30 7223 C 689.004 -1.25646 -5.67968 0
M  V30 7224 N 687.98 -0.5844 -5.4045 0
M  V30 7225 H 691.782 -0.757586 -2.83968 0
M  V30 7226 H 689.296 -0.515037 -1.54017 0
M  V30 7227 H 691.293 1.46585 -3.9028 0
M  V30 7228 H 689.953 1.72004 -2.75399 0
M  V30 7229 H 690.964 -1.18429 -5.04177 0
M  V30 7230 H 687.641 1.17899 -4.00507 0
M  V30 7231 H 689.031 -2.08622 -6.38691 0
M  V30 7232 N 691.751 1.51645 -0.429126 0
M  V30 7233 C 693.162 1.86665 0.0359003 0
M  V30 7234 C 693.513 1.34677 1.42676 0
M  V30 7235 O 692.638 0.694195 2.04963 0
M  V30 7236 C 693.233 3.38724 0.0719221 0
M  V30 7237 C 691.792 3.7331 0.481336 0
M  V30 7238 C 690.939 2.75313 -0.331329 0
M  V30 7239 H 693.89 1.44987 -0.645333 0
M  V30 7240 H 693.911 3.7011 0.883118 0
M  V30 7241 H 693.423 3.76532 -0.940495 0
M  V30 7242 H 691.524 3.41088 1.49966 0
M  V30 7243 H 691.637 4.78631 0.211837 0
M  V30 7244 H 690.001 2.53839 0.209204 0
M  V30 7245 H 690.784 3.15963 -1.34247 0
M  V30 7246 N 693.229 0.160201 1.56784 0
M  V30 7247 C 694.459 -0.493449 2.00621 0
M  V30 7248 C 694.867 -1.5809 1.03943 0
M  V30 7249 O 694.21 -1.83675 0.0305343 0
M  V30 7250 C 694.272 -1.14169 3.4089 0
M  V30 7251 C 693.936 -0.197243 4.56574 0
M  V30 7252 C 694.933 0.580174 5.16653 0
M  V30 7253 C 692.618 -0.0963038 5.02208 0
M  V30 7254 C 694.612 1.44584 6.20785 0
M  V30 7255 C 692.299 0.772959 6.06192 0
M  V30 7256 C 693.297 1.54263 6.65351 0
M  V30 7257 O 692.985 2.39738 7.67321 0
M  V30 7258 H 692.717 -0.131764 0.663034 0
M  V30 7259 H 695.271 0.255728 2.03802 0
M  V30 7260 H 693.501 -1.93877 3.34587 0
M  V30 7261 H 695.19 -1.69641 3.6875 0
M  V30 7262 H 695.956 0.5123 4.82287 0
M  V30 7263 H 691.835 -0.685143 4.5588 0
M  V30 7264 H 695.379 2.04706 6.66889 0
M  V30 7265 H 691.276 0.842077 6.39984 0
M  V30 7266 H 692.044 2.33131 7.84597 0
M  V30 7267 N 694.707 -1.5719 -0.113559 0
M  V30 7268 C 695.617 -2.04041 -1.15777 0
M  V30 7269 C 696.633 -0.961812 -1.45001 0
M  V30 7270 O 697.809 -1.2737 -1.56009 0
M  V30 7271 C 694.874 -2.43994 -2.46308 0
M  V30 7272 C 693.935 -3.65962 -2.24433 0
M  V30 7273 C 693.168 -4.04 -3.4874 0
M  V30 7274 O 693.391 -3.42321 -4.56259 0
M  V30 7275 O 692.325 -4.97069 -3.3942 0
M  V30 7276 H 696.151 -2.93248 -0.789899 0
M  V30 7277 H 693.736 -1.45828 -0.324748 0
M  V30 7278 H 695.618 -2.70401 -3.23204 0
M  V30 7279 H 694.293 -1.57932 -2.82558 0
M  V30 7280 H 693.2 -3.44697 -1.45377 0
M  V30 7281 H 694.533 -4.52746 -1.93084 0
M  V30 7282 N 696.185 0.383891 -1.52853 0
M  V30 7283 C 697.432 1.12842 -1.68146 0
M  V30 7284 C 697.76 1.89823 -0.423954 0
M  V30 7285 O 697.015 1.86475 0.593765 0
M  V30 7286 C 697.314 2.12881 -2.87082 0
M  V30 7287 C 696.98 1.52519 -4.24322 0
M  V30 7288 C 695.642 1.35783 -4.61645 0
M  V30 7289 C 697.994 1.0868 -5.09743 0
M  V30 7290 C 695.322 0.737643 -5.82044 0
M  V30 7291 C 697.674 0.480699 -6.30771 0
M  V30 7292 C 696.338 0.300681 -6.66822 0
M  V30 7293 H 695.608 0.412917 -0.615289 0
M  V30 7294 H 698.255 0.412416 -1.87006 0
M  V30 7295 H 696.56 2.90719 -2.62659 0
M  V30 7296 H 698.257 2.70408 -2.96109 0
M  V30 7297 H 694.847 1.66534 -3.94923 0
M  V30 7298 H 699.031 1.2041 -4.81472 0
M  V30 7299 H 694.287 0.586415 -6.08581 0
M  V30 7300 H 698.461 0.132733 -6.96273 0
M  V30 7301 H 696.088 -0.181966 -7.59982 0
M  V30 7302 N 697.663 1.43903 0.642637 0
M  V30 7303 C 698.626 1.49538 1.73698 0
M  V30 7304 C 699.626 0.378776 1.56275 0
M  V30 7305 O 700.816 0.64095 1.6198 0
M  V30 7306 C 697.948 1.35821 3.12675 0
M  V30 7307 H 699.141 2.47008 1.70079 0
M  V30 7308 H 696.694 1.30824 0.85526 0
M  V30 7309 H 697.429 0.393994 3.21898 0
M  V30 7310 H 697.214 2.16776 3.26727 0
M  V30 7311 H 698.704 1.4272 3.92455 0
M  V30 7312 N 699.141 -0.881989 1.30609 0
M  V30 7313 C 700.071 -2.00413 1.1982 0
M  V30 7314 C 701.052 -1.69871 0.0881538 0
M  V30 7315 O 702.237 -1.92304 0.2707 0
M  V30 7316 C 699.367 -3.35641 0.89233 0
M  V30 7317 C 698.321 -3.80451 1.96064 0
M  V30 7318 C 697.647 -5.13003 1.5077 0
M  V30 7319 C 698.947 -3.98855 3.37213 0
M  V30 7320 H 700.641 -2.09698 2.13699 0
M  V30 7321 H 698.187 -1.00754 1.02882 0
M  V30 7322 H 700.14 -4.13669 0.803497 0
M  V30 7323 H 698.864 -3.26497 -0.0821381 0
M  V30 7324 H 697.523 -3.04654 2.03916 0
M  V30 7325 H 697.171 -5.0029 0.521417 0
M  V30 7326 H 696.871 -5.43956 2.22229 0
M  V30 7327 H 698.395 -5.93554 1.43271 0
M  V30 7328 H 699.809 -4.67312 3.32103 0
M  V30 7329 H 698.206 -4.41188 4.06784 0
M  V30 7330 H 699.276 -3.02614 3.78883 0
M  V30 7331 N 700.619 -1.13374 -1.09472 0
M  V30 7332 C 701.849 -0.917019 -1.85133 0
M  V30 7333 C 702.257 0.537568 -1.81402 0
M  V30 7334 O 701.6 1.38385 -1.20811 0
M  V30 7335 C 701.662 -1.32646 -3.34134 0
M  V30 7336 C 701.326 -2.79437 -3.61613 0
M  V30 7337 C 702.323 -3.77596 -3.57375 0
M  V30 7338 C 700.008 -3.16586 -3.89973 0
M  V30 7339 C 702.002 -5.10916 -3.81108 0
M  V30 7340 C 699.689 -4.50085 -4.13361 0
M  V30 7341 C 700.687 -5.47059 -4.0892 0
M  V30 7342 O 700.375 -6.78149 -4.31705 0
M  V30 7343 H 700.107 -0.326997 -0.591649 0
M  V30 7344 H 702.661 -1.51002 -1.39239 0
M  V30 7345 H 700.891 -0.676719 -3.80733 0
M  V30 7346 H 702.58 -1.08229 -3.91205 0
M  V30 7347 H 703.346 -3.50242 -3.35493 0
M  V30 7348 H 699.225 -2.41707 -3.92554 0
M  V30 7349 H 702.769 -5.86597 -3.77558 0
M  V30 7350 H 698.666 -4.77163 -4.34724 0
M  V30 7351 H 699.434 -6.84244 -4.49168 0
M  V30 7352 N 702.098 1.27442 -0.927168 0
M  V30 7353 C 703.328 1.9821 -0.582775 0
M  V30 7354 C 703.736 1.69361 0.843406 0
M  V30 7355 O 703.079 0.950381 1.57205 0
M  V30 7356 C 703.141 3.52048 -0.728165 0
M  V30 7357 C 702.805 4.04518 -2.12637 0
M  V30 7358 C 703.802 4.17332 -3.10048 0
M  V30 7359 C 701.487 4.38879 -2.44317 0
M  V30 7360 C 703.481 4.6378 -4.37249 0
M  V30 7361 C 701.168 4.85018 -3.71753 0
M  V30 7362 C 702.166 4.97428 -4.68033 0
M  V30 7363 O 701.854 5.42556 -5.93202 0
M  V30 7364 H 701.586 0.639314 -0.219667 0
M  V30 7365 H 704.14 1.63272 -1.24626 0
M  V30 7366 H 702.37 3.86699 -0.00758143 0
M  V30 7367 H 704.059 4.04033 -0.388906 0
M  V30 7368 H 704.825 3.91046 -2.86894 0
M  V30 7369 H 700.704 4.28462 -1.70121 0
M  V30 7370 H 704.248 4.73382 -5.12402 0
M  V30 7371 H 700.145 5.10746 -3.94726 0
M  V30 7372 H 700.913 5.60811 -5.96182 0
M  V30 7373 N 703.576 0.692616 1.41565 0
M  V30 7374 C 704.853 0.150496 1.9502 0
M  V30 7375 C 705.233 -1.33881 1.63215 0
M  V30 7376 O 704.581 -2.08378 0.937598 0
M  V30 7377 C 704.791 0.438636 3.46233 0
M  V30 7378 C 706.139 0.364777 4.2303 0
M  V30 7379 O 707.163 0.373383 3.54238 0
M  V30 7380 O 706.022 0.32234 5.45549 0
M  V30 7381 H 703.116 0.0132454 0.826894 0
M  V30 7382 H 705.662 0.768574 1.51298 0
M  V30 7383 H 704.434 1.46962 3.62654 0
M  V30 7384 H 704.057 -0.210562 3.97042 0
M  V30 7385 N 705.054 -1.51416 0.437162 0
M  V30 7386 C 706.3 -2.02386 -0.129555 0
M  V30 7387 C 706.633 -1.32071 -1.42376 0
M  V30 7388 O 705.908 -0.43559 -1.8956 0
M  V30 7389 C 706.191 -3.5841 -0.348487 0
M  V30 7390 C 706.044 -4.39341 0.964352 0
M  V30 7391 C 707.363 -4.25654 -1.11834 0
M  V30 7392 H 704.482 -0.735587 -0.0456109 0
M  V30 7393 H 707.124 -1.81055 0.576124 0
M  V30 7394 H 705.274 -3.76716 -0.949592 0
M  V30 7395 H 706.946 -4.32685 1.59942 0
M  V30 7396 H 705.189 -4.04432 1.56898 0
M  V30 7397 H 705.86 -5.4667 0.765212 0
M  V30 7398 H 708.336 -4.11617 -0.609165 0
M  V30 7399 H 707.212 -5.34704 -1.24029 0
M  V30 7400 H 707.473 -3.86502 -2.14636 0
M  V30 7401 O 706.571 -0.309557 -1.58506 0
M  V30 7402 H 707.262 0.253272 -1.92037 0
M  V30 END ATOM
M  V30 BEGIN BOND
M  V30 END BOND
M  V30 END CTAB
M  END
$$$$
