drugbank_target|P9WNP5 1,4-dihydroxy-2-naphthoyl-CoA synthase (DB01992; DB03059)
 OpenBabel12092120243D

  0  0  0     0  0            999 V3000
M  V30 BEGIN CTAB
M  V30 COUNTS 4805 4863 0 0 0
M  V30 BEGIN ATOM
M  V30 1 H -0.908 1.98254 -0.117106 0
M  V30 2 N 0 1.576 0 0
M  V30 3 C 0.933 2.03868 1.02534 0
M  V30 4 C 1.911 0.928543 1.3348 0
M  V30 5 O 3.095 1.19667 1.45644 0
M  V30 6 C 0.222 2.43627 2.35294 0
M  V30 7 C -0.732 3.65373 2.2001 0
M  V30 8 S 0.101 5.13292 1.52614 0
M  V30 9 C 1.257 5.56322 2.86805 0
M  V30 10 H 1.49 2.90518 0.631377 0
M  V30 11 H -0.977 1.52953 0.210867 0
M  V30 12 H 0.981 2.67203 3.11629 0
M  V30 13 H -0.358 1.57376 2.7183 0
M  V30 14 H -1.165 3.90944 3.18086 0
M  V30 15 H -1.563 3.418 1.51819 0
M  V30 16 H 0.729 5.58782 3.83104 0
M  V30 17 H 1.672 6.56266 2.65933 0
M  V30 18 H 2.08 4.83886 2.90714 0
M  V30 19 N 1.4781 -0.272755 1.55222 0
M  V30 20 C 2.7241 -1.00581 1.761 0
M  V30 21 C 3.0571 -1.85932 0.560625 0
M  V30 22 O 2.3321 -1.89416 -0.441801 0
M  V30 23 C 2.6151 -1.88816 3.06628 0
M  V30 24 C 2.4681 -1.06457 4.37021 0
M  V30 25 C 3.7871 -2.8752 3.33197 0
M  V30 26 H 0.9061 -0.364244 0.640699 0
M  V30 27 H 3.5481 -0.278189 1.87952 0
M  V30 28 H 1.6981 -2.50856 2.96654 0
M  V30 29 H 3.3701 -0.464863 4.58952 0
M  V30 30 H 1.6131 -0.368043 4.32236 0
M  V30 31 H 2.2841 -1.71514 5.24678 0
M  V30 32 H 4.7601 -2.35615 3.42965 0
M  V30 33 H 3.6361 -3.46399 4.25792 0
M  V30 34 H 3.8971 -3.62657 2.52849 0
M  V30 35 N 2.9562 -1.48159 -0.537278 0
M  V30 36 C 3.9192 -1.61665 -1.62472 0
M  V30 37 C 4.9192 -0.490395 -1.5314 0
M  V30 38 O 6.1092 -0.755998 -1.5694 0
M  V30 39 C 3.2412 -1.57997 -3.02076 0
M  V30 40 H 4.4342 -2.58621 -1.51839 0
M  V30 41 H 1.9872 -1.36647 -0.758771 0
M  V30 42 H 2.7222 -0.624913 -3.18222 0
M  V30 43 H 2.5072 -2.39755 -3.10258 0
M  V30 44 H 3.9972 -1.70627 -3.81151 0
M  V30 45 N 4.4343 0.785586 -1.36625 0
M  V30 46 C 5.8453 1.36101 -1.27803 0
M  V30 47 C 6.1963 1.96035 0.0804875 0
M  V30 48 O 5.3213 1.92834 0.982042 0
M  V30 49 C 5.9163 2.47442 -2.31426 0
M  V30 50 C 4.4753 3.00789 -2.26281 0
M  V30 51 C 3.6223 1.73896 -2.15999 0
M  V30 52 H 6.5733 0.586928 -1.47448 0
M  V30 53 H 6.5943 3.2656 -1.95291 0
M  V30 54 H 6.1063 2.03791 -3.30289 0
M  V30 55 H 4.2073 3.48851 -1.30896 0
M  V30 56 H 4.3203 3.57343 -3.19128 0
M  V30 57 H 2.6843 1.9628 -1.62316 0
M  V30 58 H 3.4673 1.32368 -3.16755 0
M  V30 59 N 5.9124 1.20967 1.01018 0
M  V30 60 C 6.8754 0.965918 2.07853 0
M  V30 61 C 7.8754 -0.0610545 1.60684 0
M  V30 62 O 9.0654 0.175681 1.73312 0
M  V30 63 C 6.1974 0.455513 3.37843 0
M  V30 64 H 7.3904 1.91365 2.3091 0
M  V30 65 H 4.9434 1.02594 1.17916 0
M  V30 66 H 5.6784 -0.497381 3.20463 0
M  V30 67 H 5.4634 1.19622 3.73407 0
M  V30 68 H 6.9534 0.304667 4.16487 0
M  V30 69 N 7.3905 -1.2043 1.01659 0
M  V30 70 C 8.6385 -1.89423 0.704522 0
M  V30 71 C 8.9595 -1.79231 -0.768197 0
M  V30 72 O 8.2295 -1.1947 -1.55254 0
M  V30 73 H 6.8095 -0.701178 0.257602 0
M  V30 74 H 9.4715 -1.4626 1.28818 0
M  V30 75 H 8.5675 -2.96052 0.987916 0
M  V30 76 N 8.8686 -0.792821 -1.36206 0
M  V30 77 C 9.7786 -0.194808 -2.3379 0
M  V30 78 C 10.7946 0.654869 -1.61206 0
M  V30 79 O 11.9706 0.569856 -1.9317 0
M  V30 80 C 9.0356 0.657721 -3.40404 0
M  V30 81 C 8.0966 -0.210849 -4.28782 0
M  V30 82 C 7.3296 0.601086 -5.30304 0
M  V30 83 O 7.5526 1.83682 -5.40016 0
M  V30 84 O 6.4866 -0.000808277 -6.019 0
M  V30 85 H 10.3126 -1.00172 -2.86704 0
M  V30 86 H 7.8976 -0.554341 -1.38735 0
M  V30 87 H 9.7796 1.14375 -4.05581 0
M  V30 88 H 8.4546 1.44247 -2.89784 0
M  V30 89 H 7.3616 -0.743714 -3.66633 0
M  V30 90 H 8.6946 -0.959195 -4.82763 0
M  V30 91 N 10.3467 1.47872 -0.545128 0
M  V30 92 C 11.2787 2.27869 0.246621 0
M  V30 93 C 12.2917 1.36282 0.890561 0
M  V30 94 O 13.4807 1.61207 0.766449 0
M  V30 95 C 10.5807 3.10159 1.36582 0
M  V30 96 C 9.7537 4.29627 0.820954 0
M  V30 97 C 8.8127 4.93607 1.82314 0
M  V30 98 O 7.8387 5.52366 1.37406 0
M  V30 99 N 9.0407 4.87211 3.15603 0
M  V30 100 H 11.8057 2.96459 -0.439539 0
M  V30 101 H 9.3667 1.57367 -0.380421 0
M  V30 102 H 11.3587 3.49829 2.03474 0
M  V30 103 H 9.9287 2.43891 1.9554 0
M  V30 104 H 9.1487 3.94192 -0.0244032 0
M  V30 105 H 10.4367 5.06928 0.436063 0
M  V30 106 H 9.8347 4.40651 3.54744 0
M  V30 107 H 8.3917 5.30937 3.78087 0
M  V30 108 N 11.8248 0.280983 1.55075 0
M  V30 109 C 13.0728 -0.333455 1.9933 0
M  V30 110 C 13.3938 -1.55937 1.17085 0
M  V30 111 O 12.6638 -1.94143 0.261805 0
M  V30 112 H 11.2438 -0.126197 0.736263 0
M  V30 113 H 13.9058 0.387678 1.91005 0
M  V30 114 H 13.0018 -0.619292 3.05894 0
M  V30 115 N 13.3029 -1.57598 0.00835791 0
M  V30 116 C 14.7189 -1.55764 -0.347822 0
M  V30 117 C 14.9189 -1.01186 -1.74252 0
M  V30 118 O 13.9749 -0.649371 -2.44007 0
M  V30 119 C 15.2879 -2.99927 -0.215407 0
M  V30 120 C 16.8359 -3.11656 -0.289725 0
M  V30 121 C 17.3109 -4.57621 -0.18634 0
M  V30 122 N 18.8019 -4.62557 -0.243978 0
M  V30 123 C 19.5369 -5.73094 -0.18745 0
M  V30 124 N 19.0329 -6.92753 -0.0810331 0
M  V30 125 N 20.8259 -5.61588 -0.239925 0
M  V30 126 H 12.9769 -1.91411 0.92062 0
M  V30 127 H 15.2399 -0.879562 0.353659 0
M  V30 128 H 14.9459 -3.43729 0.744512 0
M  V30 129 H 14.8199 -3.63865 -0.994097 0
M  V30 130 H 17.2069 -2.67779 -1.24009 0
M  V30 131 H 17.2879 -2.5048 0.51898 0
M  V30 132 H 16.9319 -5.02174 0.760519 0
M  V30 133 H 16.8619 -5.16752 -1.01364 0
M  V30 134 H 19.3529 -3.76481 -0.327217 0
M  V30 135 H 19.6659 -7.72787 -0.0440241 0
M  V30 136 H 18.0109 -6.94984 -0.0465419 0
M  V30 137 H 21.2019 -4.66996 -0.321317 0
M  V30 138 H 21.3749 -6.47714 -0.192407 0
M  V30 139 N 14.781 0.264519 -1.55364 0
M  V30 140 C 16.006 1.01726 -1.80739 0
M  V30 141 C 16.431 1.78836 -0.583044 0
M  V30 142 O 15.789 1.75167 0.467566 0
M  V30 143 C 15.837 1.94482 -3.03659 0
M  V30 144 O 14.941 3.03386 -2.7934 0
M  V30 145 H 14.282 0.290395 -0.597132 0
M  V30 146 H 16.812 0.290854 -2.02522 0
M  V30 147 H 16.822 2.36278 -3.32621 0
M  V30 148 H 15.497 1.37772 -3.92418 0
M  V30 149 H 14.074 2.65844 -2.61498 0
M  V30 150 N 16.2591 1.48442 0.529413 0
M  V30 151 C 17.4841 1.60406 1.31471 0
M  V30 152 C 17.9091 0.264738 1.86228 0
M  V30 153 O 17.2671 -0.763668 1.64432 0
M  V30 154 C 17.3151 2.65419 2.44101 0
M  V30 155 O 16.4191 2.22618 3.47153 0
M  V30 156 H 15.7601 0.537863 0.389357 0
M  V30 157 H 18.2901 1.94432 0.636965 0
M  V30 158 H 18.3001 2.86709 2.90279 0
M  V30 159 H 16.9751 3.62652 2.03608 0
M  V30 160 H 15.5521 2.11543 3.0709 0
M  V30 161 N 17.7372 -0.778329 1.37039 0
M  V30 162 C 18.9652 -1.56734 1.35063 0
M  V30 163 C 19.3802 -1.88686 -0.0655597 0
M  V30 164 O 18.7372 -1.5096 -1.02554 0
M  V30 165 C 18.7882 -2.88163 2.18276 0
M  V30 166 O 18.5092 -2.57583 3.54376 0
M  V30 167 C 20.0102 -3.82422 2.24206 0
M  V30 168 H 17.2302 -0.485778 0.462883 0
M  V30 169 H 19.7742 -0.965185 1.8029 0
M  V30 170 H 17.9292 -3.44818 1.76576 0
M  V30 171 H 18.3432 -3.41699 3.97922 0
M  V30 172 H 19.8172 -4.71667 2.86765 0
M  V30 173 H 20.2942 -4.21078 1.24861 0
M  V30 174 H 20.9002 -3.31697 2.6619 0
M  V30 175 N 19.2153 -1.21501 -1.00376 0
M  V30 176 C 20.1783 -0.976927 -2.07337 0
M  V30 177 C 21.1783 0.0525322 -1.60714 0
M  V30 178 O 22.3683 -0.184869 -1.73216 0
M  V30 179 C 19.5003 -0.473423 -3.37597 0
M  V30 180 H 20.6933 -1.92587 -2.29892 0
M  V30 181 H 18.2463 -1.03217 -1.17371 0
M  V30 182 H 18.9813 0.480379 -3.20722 0
M  V30 183 H 18.7663 -1.216 -3.72768 0
M  V30 184 H 20.2563 -0.32675 -4.1632 0
M  V30 185 N 20.6934 1.19889 -1.02296 0
M  V30 186 C 21.6234 2.25141 -0.619174 0
M  V30 187 C 22.6044 1.66051 0.368915 0
M  V30 188 O 23.7894 1.92546 0.252941 0
M  V30 189 C 20.9194 3.4728 0.0368783 0
M  V30 190 C 19.8734 4.19005 -0.872865 0
M  V30 191 C 19.1994 5.34637 -0.0822402 0
M  V30 192 C 20.4994 4.74452 -2.18387 0
M  V30 193 H 22.1934 2.59171 -1.49903 0
M  V30 194 H 19.7394 1.24579 -0.722222 0
M  V30 195 H 21.6924 4.20098 0.330958 0
M  V30 196 H 20.4164 3.12433 0.95149 0
M  V30 197 H 19.0754 3.48061 -1.15105 0
M  V30 198 H 18.7234 4.96034 0.83422 0
M  V30 199 H 18.4234 5.83557 -0.688149 0
M  V30 200 H 19.9474 6.10255 0.205238 0
M  V30 201 H 21.3614 5.39055 -1.95172 0
M  V30 202 H 19.7584 5.33834 -2.74119 0
M  V30 203 H 20.8284 3.92844 -2.84257 0
M  V30 204 N 22.1715 0.800033 1.35784 0
M  V30 205 C 23.3965 0.388511 2.03729 0
M  V30 206 C 23.8215 -0.990481 1.5991 0
M  V30 207 O 23.1795 -1.64013 0.772612 0
M  V30 208 C 23.2275 0.4726 3.5749 0
M  V30 209 O 22.3315 -0.51646 4.09153 0
M  V30 210 H 21.6725 0.163271 0.643614 0
M  V30 211 H 24.2025 1.0841 1.73518 0
M  V30 212 H 24.2125 0.34003 4.06581 0
M  V30 213 H 22.8875 1.47848 3.88734 0
M  V30 214 H 21.4645 -0.344673 3.71304 0
M  V30 215 N 23.6496 -1.47581 0.552962 0
M  V30 216 C 24.9266 -1.95563 -0.0381515 0
M  V30 217 C 25.3066 -1.49552 -1.48988 0
M  V30 218 O 24.6546 -0.732414 -2.16444 0
M  V30 219 C 24.8646 -3.48848 0.102919 0
M  V30 220 C 26.2126 -4.24577 -0.0446082 0
M  V30 221 O 27.2366 -3.56187 0.0302548 0
M  V30 222 O 26.0956 -5.46116 -0.204923 0
M  V30 223 H 23.1896 -0.824321 -0.0665067 0
M  V30 224 H 25.7356 -1.58001 0.619186 0
M  V30 225 H 24.5076 -3.75129 1.11328 0
M  V30 226 H 24.1306 -3.93165 -0.592224 0
M  V30 227 N 25.1277 -0.289203 -1.54924 0
M  V30 228 C 26.0757 0.607966 -2.24514 0
M  V30 229 C 27.0697 1.14655 -1.24702 0
M  V30 230 O 28.2757 1.09856 -1.4259 0
M  V30 231 H 24.6507 0.21464 -0.720718 0
M  V30 232 H 26.6217 -0.00164182 -2.984 0
M  V30 233 C 25.3707 1.77406 -2.99036 0
M  V30 234 H 24.6937 1.36884 -3.75637 0
M  V30 235 H 26.1337 2.37814 -3.51028 0
M  V30 236 C 24.5927 2.67107 -2.05318 0
M  V30 237 O 25.1227 3.6787 -1.61353 0
M  V30 238 N 23.3287 2.34582 -1.71521 0
M  V30 239 H 22.8757 1.52688 -2.07471 0
M  V30 240 H 22.8337 2.94867 -1.0909 0
M  V30 241 N 26.6058 1.57591 -0.0167156 0
M  V30 242 C 28.0168 1.79201 0.523834 0
M  V30 243 C 28.3678 0.925796 1.72984 0
M  V30 244 O 27.4928 0.132792 2.15992 0
M  V30 245 C 28.0878 3.25 0.957091 0
M  V30 246 C 26.6468 3.47648 1.44283 0
M  V30 247 C 25.7938 2.74374 0.401757 0
M  V30 248 H 28.7448 1.56831 -0.242816 0
M  V30 249 H 28.7658 3.34031 1.82219 0
M  V30 250 H 28.2778 3.88019 0.0791415 0
M  V30 251 H 26.3788 2.89866 2.34113 0
M  V30 252 H 26.4918 4.56352 1.45877 0
M  V30 253 H 24.8558 2.39485 0.867121 0
M  V30 254 H 25.6388 3.40102 -0.467513 0
M  V30 255 N 28.0839 -0.256276 1.55502 0
M  V30 256 C 29.3309 -0.985619 1.76895 0
M  V30 257 C 29.6589 -1.85671 0.579355 0
M  V30 258 O 28.9139 -1.90744 -0.437651 0
M  V30 259 C 29.2129 -1.88432 3.03691 0
M  V30 260 C 28.8789 -1.16936 4.35473 0
M  V30 261 C 27.5409 -0.97173 4.71286 0
M  V30 262 C 29.8929 -0.661889 5.1698 0
M  V30 263 C 27.2209 -0.254179 5.86149 0
M  V30 264 C 29.5729 0.042149 6.32586 0
M  V30 265 C 28.2369 0.25134 6.67027 0
M  V30 266 H 27.5069 -0.360663 0.647304 0
M  V30 267 H 30.1539 -0.256483 1.89775 0
M  V30 268 H 28.4589 -2.68021 2.85783 0
M  V30 269 H 30.1559 -2.45015 3.1744 0
M  V30 270 H 26.7459 -1.33332 4.07333 0
M  V30 271 H 30.9299 -0.802145 4.89775 0
M  V30 272 H 26.1859 -0.0815408 6.11346 0
M  V30 273 H 30.3599 0.443049 6.94989 0
M  V30 274 H 27.9869 0.809314 7.5588 0
M  V30 275 N 29.562 -1.4872 -0.521534 0
M  V30 276 C 30.839 -1.4766 -1.2828 0
M  V30 277 C 31.219 -0.19292 -2.10217 0
M  V30 278 O 30.567 0.825193 -2.13079 0
M  V30 279 C 30.777 -2.74358 -2.15705 0
M  V30 280 C 32.125 -3.23028 -2.75569 0
M  V30 281 O 33.149 -2.75333 -2.25987 0
M  V30 282 O 32.008 -4.0604 -3.65778 0
M  V30 283 H 29.102 -0.590085 -0.579421 0
M  V30 284 H 31.648 -1.60963 -0.537492 0
M  V30 285 H 30.42 -3.59292 -1.54999 0
M  V30 286 H 30.043 -2.63816 -2.97467 0
M  V30 287 N 31.0401 0.771051 -1.3745 0
M  V30 288 C 32.0031 1.86598 -1.33093 0
M  V30 289 C 33.0031 1.59076 -0.234845 0
M  V30 290 O 34.1931 1.67145 -0.490732 0
M  V30 291 C 31.3251 3.23747 -1.06773 0
M  V30 292 H 32.5181 1.91873 -2.30488 0
M  V30 293 H 30.0711 0.970876 -1.2249 0
M  V30 294 H 30.8061 3.24148 -0.099129 0
M  V30 295 H 30.5911 3.45115 -1.86112 0
M  V30 296 H 32.0811 4.03824 -1.06377 0
M  V30 297 N 32.5182 1.22032 0.997298 0
M  V30 298 C 33.4652 0.986467 2.08656 0
M  V30 299 C 34.4352 -0.0902671 1.65855 0
M  V30 300 O 35.6202 0.0584294 1.90711 0
M  V30 301 C 32.7602 0.565569 3.40434 0
M  V30 302 C 31.8732 1.71259 3.96604 0
M  V30 303 C 31.0082 1.24011 5.16522 0
M  V30 304 C 30.0472 2.35896 5.64818 0
M  V30 305 N 29.1842 1.89726 6.7598 0
M  V30 306 H 34.0242 1.91892 2.27994 0
M  V30 307 H 31.5612 0.956199 1.11782 0
M  V30 308 H 33.5192 0.302738 4.161 0
M  V30 309 H 32.1492 -0.329879 3.2111 0
M  V30 310 H 31.2012 2.08986 3.17851 0
M  V30 311 H 32.5132 2.55436 4.28432 0
M  V30 312 H 31.6672 0.934395 5.99461 0
M  V30 313 H 30.4062 0.368487 4.86306 0
M  V30 314 H 29.4112 2.67261 4.8047 0
M  V30 315 H 30.6362 3.23567 5.97061 0
M  V30 316 H 28.5822 1.0492 6.47555 0
M  V30 317 H 28.4992 2.67471 7.07103 0
M  V30 318 H 29.7672 1.62211 7.62435 0
M  V30 319 N 33.9963 -1.19345 1.0293 0
M  V30 320 C 34.9593 -2.20793 0.615069 0
M  V30 321 C 35.9593 -1.57553 -0.321533 0
M  V30 322 O 37.1493 -1.73862 -0.108483 0
M  V30 323 C 34.2813 -3.40754 -0.0999222 0
M  V30 324 H 35.4743 -2.58955 1.51269 0
M  V30 325 H 33.0273 -1.3303 0.820534 0
M  V30 326 H 33.7623 -3.0811 -1.01187 0
M  V30 327 H 33.5473 -3.87889 0.57309 0
M  V30 328 H 35.0373 -4.15898 -0.376645 0
M  V30 329 N 35.4744 -0.807222 -1.35358 0
M  V30 330 C 36.7204 -0.397594 -1.99476 0
M  V30 331 C 37.0754 1.02405 -1.62883 0
M  V30 332 O 36.3684 1.70077 -0.882282 0
M  V30 333 C 36.5624 -0.519036 -3.53611 0
M  V30 334 C 36.3914 -1.95094 -4.05177 0
M  V30 335 C 35.1614 -2.57945 -4.34503 0
M  V30 336 C 37.3594 -2.91558 -4.23673 0
M  V30 337 N 35.3414 -3.92539 -4.72003 0
M  V30 338 C 36.7124 -4.11024 -4.64176 0
M  V30 339 C 38.7674 -2.88381 -4.05883 0
M  V30 340 C 37.4704 -5.27745 -4.88751 0
M  V30 341 C 39.4964 -4.04306 -4.31614 0
M  V30 342 C 38.8584 -5.22519 -4.72391 0
M  V30 343 H 34.9574 -0.193274 -0.75774 0
M  V30 344 H 37.5414 -1.0486 -1.6405 0
M  V30 345 H 35.7124 0.101979 -3.88266 0
M  V30 346 H 37.4444 -0.0839321 -4.04613 0
M  V30 347 H 34.1994 -2.09295 -4.24844 0
M  V30 348 H 34.6234 -4.61836 -4.95011 0
M  V30 349 H 39.2654 -1.98137 -3.73499 0
M  V30 350 H 36.9834 -6.1856 -5.20008 0
M  V30 351 H 40.5694 -4.03229 -4.19402 0
M  V30 352 H 39.4494 -6.1073 -4.91913 0
M  V30 353 N 36.9525 1.47285 -0.560781 0
M  V30 354 C 38.3685 1.58065 -0.22081 0
M  V30 355 C 38.5685 1.55892 1.27671 0
M  V30 356 O 37.6245 1.46422 2.0571 0
M  V30 357 C 38.9375 2.88418 -0.850625 0
M  V30 358 C 40.4855 3.02009 -0.822184 0
M  V30 359 C 40.9605 4.35066 -1.43113 0
M  V30 360 N 42.4515 4.41711 -1.39448 0
M  V30 361 C 43.1865 5.43237 -1.83525 0
M  V30 362 N 42.6825 6.51555 -2.35474 0
M  V30 363 N 44.4755 5.34304 -1.74574 0
M  V30 364 H 36.6265 1.46941 -1.53369 0
M  V30 365 H 38.8895 0.699558 -0.639783 0
M  V30 366 H 38.5955 2.95755 -1.9032 0
M  V30 367 H 38.4695 3.75612 -0.345773 0
M  V30 368 H 40.8565 2.94266 0.221714 0
M  V30 369 H 40.9375 2.16347 -1.36483 0
M  V30 370 H 40.5815 4.43565 -2.47412 0
M  V30 371 H 40.5115 5.19465 -0.863899 0
M  V30 372 H 43.0025 3.64027 -1.01452 0
M  V30 373 H 43.3155 7.25203 -2.67021 0
M  V30 374 H 41.6605 6.52435 -2.39487 0
M  V30 375 H 44.8515 4.48581 -1.33763 0
M  V30 376 H 45.0245 6.13288 -2.09242 0
M  V30 377 N 38.4306 0.297415 1.54768 0
M  V30 378 C 39.3606 -0.573494 2.26348 0
M  V30 379 C 40.3416 -1.14085 1.26169 0
M  V30 380 O 41.5266 -1.17086 1.54934 0
M  V30 381 C 38.6566 -1.74716 3.00153 0
M  V30 382 C 37.6106 -1.31032 4.07449 0
M  V30 383 C 36.9366 -2.56887 4.68949 0
M  V30 384 C 38.2366 -0.444183 5.20408 0
M  V30 385 H 39.9306 0.0235131 2.99391 0
M  V30 386 H 37.4766 0.0127488 1.43994 0
M  V30 387 H 39.4296 -2.3625 3.48947 0
M  V30 388 H 38.1536 -2.37035 2.24682 0
M  V30 389 H 36.8126 -0.718066 3.59499 0
M  V30 390 H 36.4606 -3.17512 3.90122 0
M  V30 391 H 36.1606 -2.2836 5.41411 0
M  V30 392 H 37.6846 -3.19229 5.20505 0
M  V30 393 H 39.0986 -0.9651 5.65118 0
M  V30 394 H 37.4956 -0.252846 5.99567 0
M  V30 395 H 38.5656 0.531609 4.81977 0
M  V30 396 N 39.9087 -1.5758 0.0250728 0
M  V30 397 C 41.1547 -1.91917 -0.655413 0
M  V30 398 C 41.4877 -0.901433 -1.72011 0
M  V30 399 O 40.7627 0.0764069 -1.9435 0
M  V30 400 C 41.0457 -3.36751 -1.27558 0
M  V30 401 C 40.8987 -4.49258 -0.220719 0
M  V30 402 C 42.2177 -3.81469 -2.19475 0
M  V30 403 H 39.3367 -0.697925 -0.23679 0
M  V30 404 H 41.9787 -1.89825 0.0815036 0
M  V30 405 H 40.1287 -3.38664 -1.90365 0
M  V30 406 H 41.8007 -4.59478 0.409601 0
M  V30 407 H 40.0437 -4.31415 0.454264 0
M  V30 408 H 40.7147 -5.47618 -0.694175 0
M  V30 409 H 43.1907 -3.81266 -1.66659 0
M  V30 410 H 42.0667 -4.83512 -2.59822 0
M  V30 411 H 42.3277 -3.16744 -3.08424 0
M  V30 412 N 41.3868 0.248026 -1.55636 0
M  V30 413 C 42.6638 0.998988 -1.68165 0
M  V30 414 C 43.0438 2.03409 -0.564621 0
M  V30 415 O 42.3918 2.24378 0.432076 0
M  V30 416 C 42.6018 1.63334 -3.0842 0
M  V30 417 C 43.9498 2.13562 -3.66983 0
M  V30 418 O 44.9738 1.73277 -3.11213 0
M  V30 419 O 43.8328 2.87526 -4.64749 0
M  V30 420 H 40.9268 0.464933 -0.683935 0
M  V30 421 H 43.4728 0.241902 -1.67967 0
M  V30 422 H 42.2448 0.884583 -3.8117 0
M  V30 423 H 41.8678 2.45666 -3.12624 0
M  V30 424 N 42.8649 1.48995 0.513639 0
M  V30 425 C 44.1129 1.57531 1.26604 0
M  V30 426 C 44.4339 0.258236 1.93283 0
M  V30 427 O 43.7039 -0.721502 1.8213 0
M  V30 428 H 42.2839 0.580387 0.470276 0
M  V30 429 H 44.9459 1.85552 0.596373 0
M  V30 430 H 44.0419 2.36486 2.03669 0
M  V30 431 N 44.343 -0.763751 1.37857 0
M  V30 432 C 45.59 -1.52257 1.33506 0
M  V30 433 C 45.918 -1.94343 -0.078022 0
M  V30 434 O 45.173 -1.64958 -1.05297 0
M  V30 435 C 45.472 -2.79499 2.22745 0
M  V30 436 C 45.138 -2.56426 3.70886 0
M  V30 437 C 43.8 -2.49842 4.11257 0
M  V30 438 C 46.152 -2.36008 4.64704 0
M  V30 439 C 43.48 -2.20841 5.43549 0
M  V30 440 C 45.832 -2.0853 5.97242 0
M  V30 441 C 44.496 -2.00396 6.36709 0
M  V30 442 H 43.766 -0.557149 0.488534 0
M  V30 443 H 46.413 -0.879073 1.70131 0
M  V30 444 H 44.718 -3.48447 1.79142 0
M  V30 445 H 46.415 -3.37413 2.16688 0
M  V30 446 H 43.005 -2.62416 3.38874 0
M  V30 447 H 47.189 -2.40079 4.34368 0
M  V30 448 H 42.445 -2.13045 5.73081 0
M  V30 449 H 46.619 -1.91732 6.69486 0
M  V30 450 H 44.246 -1.77688 7.39142 0
M  V30 451 N 45.8211 -1.22559 -0.990812 0
M  V30 452 C 47.0981 -0.959875 -1.70428 0
M  V30 453 C 47.4781 0.524455 -2.04481 0
M  V30 454 O 46.8261 1.49302 -1.72977 0
M  V30 455 C 47.0361 -1.85955 -2.95333 0
M  V30 456 C 48.3841 -2.11687 -3.68068 0
M  V30 457 O 49.4081 -1.8342 -3.05345 0
M  V30 458 O 48.2671 -2.59572 -4.80921 0
M  V30 459 H 45.3611 -0.361154 -0.743974 0
M  V30 460 H 47.9071 -1.33554 -1.04697 0
M  V30 461 H 46.6791 -2.86346 -2.66687 0
M  V30 462 H 46.3021 -1.4856 -3.68803 0
M  V30 463 N 47.2992 1.18797 -1.03562 0
M  V30 464 C 48.5762 1.84469 -0.650434 0
M  V30 465 C 48.9562 1.92319 0.870433 0
M  V30 466 O 48.3042 1.44528 1.76986 0
M  V30 467 C 48.5142 3.2306 -1.32036 0
M  V30 468 C 49.8622 3.9915 -1.44792 0
M  V30 469 O 50.8862 3.32481 -1.27806 0
M  V30 470 O 49.7452 5.18587 -1.72423 0
M  V30 471 H 46.8392 0.795251 -0.226946 0
M  V30 472 H 49.3852 1.26231 -1.13419 0
M  V30 473 H 48.1572 3.1222 -2.3587 0
M  V30 474 H 47.7802 3.88949 -0.8249 0
M  V30 475 N 48.7773 0.814389 1.34928 0
M  V30 476 C 49.7073 0.244827 2.32213 0
M  V30 477 C 50.6883 -0.634024 1.57842 0
M  V30 478 O 51.8733 -0.562676 1.8587 0
M  V30 479 C 49.0033 -0.601106 3.42058 0
M  V30 480 C 47.9573 0.179896 4.27622 0
M  V30 481 C 47.2833 -0.788237 5.28858 0
M  V30 482 C 48.5833 1.38329 5.03649 0
M  V30 483 H 50.2773 1.05763 2.80097 0
M  V30 484 H 47.8233 0.510029 1.34665 0
M  V30 485 H 49.7763 -1.00968 4.09125 0
M  V30 486 H 48.5003 -1.44688 2.92802 0
M  V30 487 H 47.1593 0.569739 3.62146 0
M  V30 488 H 46.8073 -1.62973 4.75866 0
M  V30 489 H 46.5073 -0.269942 5.8698 0
M  V30 490 H 48.0313 -1.19485 5.98795 0
M  V30 491 H 49.4453 1.04918 5.63618 0
M  V30 492 H 47.8423 1.83662 5.71304 0
M  V30 493 H 48.9123 2.16592 4.33839 0
M  V30 494 N 50.2554 -1.46986 0.568584 0
M  V30 495 C 51.4834 -2.0683 0.0539956 0
M  V30 496 C 51.8984 -1.41953 -1.24478 0
M  V30 497 O 51.2554 -0.519933 -1.74937 0
M  V30 498 C 51.3064 -3.61254 -0.133362 0
M  V30 499 O 51.0274 -4.237 1.11399 0
M  V30 500 C 52.5284 -4.37992 -0.683927 0
M  V30 501 H 49.7484 -0.669058 0.0510141 0
M  V30 502 H 52.2924 -1.88824 0.785234 0
M  V30 503 H 50.4474 -3.78735 -0.81477 0
M  V30 504 H 50.8614 -5.16388 0.91888 0
M  V30 505 H 52.3354 -5.46684 -0.764263 0
M  V30 506 H 52.8124 -4.05058 -1.69778 0
M  V30 507 H 53.4184 -4.25283 -0.0378494 0
M  V30 508 N 51.7335 -0.305618 -1.54608 0
M  V30 509 C 53.0105 0.355652 -1.92339 0
M  V30 510 C 53.3905 1.71324 -1.23335 0
M  V30 511 O 52.7385 2.25473 -0.370702 0
M  V30 512 C 52.9485 0.46572 -3.45879 0
M  V30 513 C 54.2965 0.734426 -4.182 0
M  V30 514 O 55.3205 0.54935 -3.51938 0
M  V30 515 O 54.1795 1.09024 -5.35515 0
M  V30 516 H 51.2735 0.199666 -0.802535 0
M  V30 517 H 53.8195 -0.354017 -1.65966 0
M  V30 518 H 52.5915 -0.488461 -3.88239 0
M  V30 519 H 52.2145 1.22367 -3.78301 0
M  V30 520 N 53.2116 1.57565 -0.0334293 0
M  V30 521 C 54.4606 1.91155 0.643639 0
M  V30 522 C 54.7736 0.91192 1.73042 0
M  V30 523 O 55.9796 1.13923 2.46442 0
M  V30 524 C 54.4356 3.39443 1.1961 0
M  V30 525 C 54.0436 4.47774 0.142381 0
M  V30 526 C 55.7876 3.82094 1.84944 0
M  V30 527 C 53.6946 5.87162 0.706727 0
M  V30 528 H 52.6246 0.713368 0.244176 0
M  V30 529 H 55.2756 1.8323 -0.0994323 0
M  V30 530 H 53.6576 3.42313 1.99092 0
M  V30 531 H 54.8316 4.56469 -0.630296 0
M  V30 532 H 53.1466 4.14352 -0.412446 0
M  V30 533 H 55.7436 4.83591 2.2813 0
M  V30 534 H 56.0866 3.17386 2.69392 0
M  V30 535 H 56.6196 3.81665 1.12145 0
M  V30 536 H 53.3586 6.55424 -0.0997178 0
M  V30 537 H 52.8786 5.82064 1.44779 0
M  V30 538 H 54.5576 6.35866 1.19514 0
M  V30 539 N 54.6897 -0.239769 1.55765 0
M  V30 540 C 55.9177 -0.98417 1.81994 0
M  V30 541 C 56.3327 -1.7867 0.610124 0
M  V30 542 O 55.6897 -1.77571 -0.421271 0
M  V30 543 C 55.7407 -1.91635 3.06526 0
M  V30 544 O 55.4617 -1.14629 4.22838 0
M  V30 545 C 56.9627 -2.77616 3.45607 0
M  V30 546 H 54.1827 -0.28928 0.605441 0
M  V30 547 H 56.7267 -0.260499 2.02834 0
M  V30 548 H 54.8817 -2.5942 2.87715 0
M  V30 549 H 55.2957 -1.77745 4.93464 0
M  V30 550 H 56.7697 -3.38759 4.35828 0
M  V30 551 H 57.2467 -3.4909 2.6652 0
M  V30 552 H 57.8527 -2.15271 3.66795 0
M  V30 553 N 56.1678 -1.49265 -0.50573 0
M  V30 554 C 57.3978 -1.61979 -1.28243 0
M  V30 555 C 57.8058 -0.288576 -1.86986 0
M  V30 556 O 57.1488 0.735408 -1.68337 0
M  V30 557 C 57.2108 -2.62632 -2.45489 0
M  V30 558 C 56.8748 -4.071 -2.07651 0
M  V30 559 C 57.8718 -4.94049 -1.61901 0
M  V30 560 C 55.5568 -4.52801 -2.17431 0
M  V30 561 C 57.5508 -6.24736 -1.26428 0
M  V30 562 C 55.2378 -5.83503 -1.8157 0
M  V30 563 C 56.2358 -6.69294 -1.36142 0
M  V30 564 O 55.9238 -7.9756 -1.00764 0
M  V30 565 H 55.6558 -0.54834 -0.395347 0
M  V30 566 H 58.2098 -1.96002 -0.614204 0
M  V30 567 H 56.4398 -2.2378 -3.15372 0
M  V30 568 H 58.1288 -2.64925 -3.07522 0
M  V30 569 H 58.8948 -4.5997 -1.53795 0
M  V30 570 H 54.7738 -3.86196 -2.51742 0
M  V30 571 H 58.3178 -6.91652 -0.908992 0
M  V30 572 H 54.2148 -6.17112 -1.89324 0
M  V30 573 H 54.9828 -8.10529 -1.13952 0
M  V30 574 N 57.6459 0.756429 -1.3826 0
M  V30 575 C 58.5959 1.86069 -1.31766 0
M  V30 576 C 59.5799 1.59621 -0.202483 0
M  V30 577 O 60.7719 1.7149 -0.438211 0
M  V30 578 C 57.9009 3.23742 -1.1422 0
M  V30 579 C 56.9869 3.56091 -2.30348 0
M  V30 580 N 57.3779 3.59517 -3.55783 0
M  V30 581 C 55.6759 3.86341 -2.22838 0
M  V30 582 C 56.3769 3.89052 -4.32451 0
M  V30 583 N 55.3529 4.05736 -3.61772 0
M  V30 584 H 59.1549 1.86992 -2.26741 0
M  V30 585 H 56.6689 0.953643 -1.31451 0
M  V30 586 H 58.6659 4.02761 -1.07652 0
M  V30 587 H 57.3259 3.24073 -0.201763 0
M  V30 588 H 58.3369 3.41347 -3.89491 0
M  V30 589 H 55.0139 3.94404 -1.36937 0
M  V30 590 H 56.4039 3.98349 -5.4108 0
M  V30 591 N 59.124 1.23083 0.984299 0
M  V30 592 C 60.54 0.992637 1.24975 0
M  V30 593 C 60.74 -0.308618 1.99123 0
M  V30 594 O 59.796 -1.02905 2.30579 0
M  V30 595 C 61.109 2.19698 2.05312 0
M  V30 596 C 62.657 2.24147 2.18465 0
M  V30 597 C 63.132 3.44157 3.02192 0
M  V30 598 N 64.623 3.44372 3.09777 0
M  V30 599 C 65.358 4.33886 3.74874 0
M  V30 600 N 64.854 5.3363 4.41827 0
M  V30 601 N 66.647 4.21639 3.71721 0
M  V30 602 H 58.798 2.06731 0.487453 0
M  V30 603 H 61.061 0.906339 0.277944 0
M  V30 604 H 60.767 3.1411 1.58201 0
M  V30 605 H 60.641 2.20465 3.06064 0
M  V30 606 H 63.028 1.30277 2.64786 0
M  V30 607 H 63.109 2.27415 1.17115 0
M  V30 608 H 62.753 4.38332 2.56568 0
M  V30 609 H 62.683 3.3813 4.03702 0
M  V30 610 H 65.174 2.72201 2.62135 0
M  V30 611 H 65.487 5.98196 4.89266 0
M  V30 612 H 63.832 5.37534 4.40548 0
M  V30 613 H 67.023 3.42962 3.18582 0
M  V30 614 H 67.196 4.91604 4.22173 0
M  V30 615 N 60.6021 -1.18246 1.0419 0
M  V30 616 C 61.5521 -2.19843 0.604392 0
M  V30 617 C 62.5361 -1.56962 -0.353814 0
M  V30 618 O 63.7281 -1.76156 -0.17267 0
M  V30 619 C 60.8571 -3.43287 -0.0298975 0
M  V30 620 C 59.9431 -4.13288 0.951531 0
M  V30 621 N 60.3341 -4.59271 2.11906 0
M  V30 622 C 58.6321 -4.39165 0.7778 0
M  V30 623 C 59.3331 -5.13173 2.73912 0
M  V30 624 N 58.3091 -5.04763 2.01779 0
M  V30 625 H 62.1111 -2.53089 1.4941 0
M  V30 626 H 59.6251 -1.34465 0.910658 0
M  V30 627 H 61.6221 -4.15334 -0.361037 0
M  V30 628 H 60.2821 -3.11537 -0.915127 0
M  V30 629 H 61.2931 -4.5368 2.49789 0
M  V30 630 H 57.9701 -4.17461 -0.0572331 0
M  V30 631 H 59.3601 -5.58947 3.72864 0
M  V30 632 N 62.0802 -0.821533 -1.34494 0
M  V30 633 C 63.3262 -0.409552 -1.98622 0
M  V30 634 C 63.6592 1.0244 -1.64984 0
M  V30 635 O 62.9342 1.71325 -0.920758 0
M  V30 636 C 63.2172 -0.610458 -3.54888 0
M  V30 637 C 63.0702 -2.09043 -3.98273 0
M  V30 638 C 64.3892 -0.0455379 -4.40076 0
M  V30 639 H 61.5082 -0.15028 -0.721516 0
M  V30 640 H 64.1502 -1.03384 -1.59411 0
M  V30 641 H 62.3002 -0.079044 -3.8842 0
M  V30 642 H 63.9722 -2.68537 -3.75081 0
M  V30 643 H 62.2152 -2.58139 -3.48635 0
M  V30 644 H 62.8862 -2.18182 -5.07051 0
M  V30 645 H 65.3622 -0.499557 -4.1309 0
M  V30 646 H 64.2382 -0.215922 -5.48475 0
M  V30 647 H 64.4992 1.04939 -4.29465 0
M  V30 648 N 63.5583 1.46682 -0.576371 0
M  V30 649 C 64.8353 1.95599 0.00703437 0
M  V30 650 C 65.2153 1.51904 1.46589 0
M  V30 651 O 64.5633 0.766755 2.15251 0
M  V30 652 C 64.7733 3.4864 -0.158404 0
M  V30 653 C 66.1213 4.24594 -0.0229439 0
M  V30 654 O 67.1453 3.56094 -0.0869173 0
M  V30 655 O 66.0043 5.46373 0.118015 0
M  V30 656 H 63.0983 0.825275 0.053384 0
M  V30 657 H 65.6443 1.56996 -0.644244 0
M  V30 658 H 64.4163 3.7331 -1.17282 0
M  V30 659 H 64.0393 3.94057 0.5296 0
M  V30 660 N 65.0364 0.313813 1.54444 0
M  V30 661 C 66.3134 -0.345447 1.92525 0
M  V30 662 C 66.6934 -1.70667 1.24242 0
M  V30 663 O 66.0414 -2.25273 0.382654 0
M  V30 664 C 66.2514 -0.44737 3.46121 0
M  V30 665 C 67.5994 -0.712238 4.18584 0
M  V30 666 O 68.6234 -0.530678 3.52225 0
M  V30 667 O 67.4824 -1.06183 5.36085 0
M  V30 668 H 64.5764 -0.195407 0.803583 0
M  V30 669 H 67.1224 0.362813 1.65776 0
M  V30 670 H 65.8944 0.509043 3.87975 0
M  V30 671 H 65.5174 -1.20359 3.78945 0
M  V30 672 N 66.5145 -1.57545 0.0417849 0
M  V30 673 C 67.4775 -2.09885 -0.92093 0
M  V30 674 C 68.4775 -1.01648 -1.24596 0
M  V30 675 O 69.6675 -1.27759 -1.1842 0
M  V30 676 C 66.7995 -2.57527 -2.23367 0
M  V30 677 H 67.9925 -2.96236 -0.467382 0
M  V30 678 H 65.5455 -1.5493 -0.206467 0
M  V30 679 H 66.2805 -1.74542 -2.73323 0
M  V30 680 H 66.0655 -3.36613 -2.01083 0
M  V30 681 H 67.5555 -2.98201 -2.92346 0
M  V30 682 N 67.9926 0.231505 -1.5589 0
M  V30 683 C 69.2206 0.974505 -1.82513 0
M  V30 684 C 69.6356 1.78344 -0.619591 0
M  V30 685 O 68.9926 1.77792 0.411848 0
M  V30 686 C 69.0436 1.90007 -3.07538 0
M  V30 687 O 68.7646 1.12385 -4.2344 0
M  V30 688 C 70.2656 2.75779 -3.47075 0
M  V30 689 H 67.4856 0.286065 -0.606966 0
M  V30 690 H 70.0296 0.249739 -2.02969 0
M  V30 691 H 68.1846 2.57891 -2.89086 0
M  V30 692 H 68.5986 1.75125 -4.944 0
M  V30 693 H 70.0726 3.36443 -4.37619 0
M  V30 694 H 70.5496 3.47672 -2.68367 0
M  V30 695 H 71.1556 2.13323 -3.67931 0
M  V30 696 N 69.4707 1.49531 0.497807 0
M  V30 697 C 70.7167 1.59415 1.25358 0
M  V30 698 C 71.0497 0.281422 1.9215 0
M  V30 699 O 70.3247 -0.715249 1.80871 0
M  V30 700 C 70.6077 2.75566 2.3181 0
M  V30 701 C 70.4607 4.16642 1.69498 0
M  V30 702 C 71.7797 2.87347 3.33346 0
M  V30 703 H 68.8987 0.580244 0.454408 0
M  V30 704 H 71.5407 1.81827 0.551262 0
M  V30 705 H 69.6907 2.56587 2.91711 0
M  V30 706 H 71.3627 4.47145 1.13399 0
M  V30 707 H 69.6057 4.22141 0.998978 0
M  V30 708 H 70.2767 4.93792 2.46725 0
M  V30 709 H 72.7527 3.04634 2.83438 0
M  V30 710 H 71.6287 3.70289 4.05188 0
M  V30 711 H 71.8897 1.96834 3.95865 0
M  V30 712 N 70.9488 -0.749086 1.3866 0
M  V30 713 C 72.3648 -1.05276 1.19955 0
M  V30 714 C 72.5648 -2.01435 0.05134 0
M  V30 715 O 71.6208 -2.45232 -0.60147 0
M  V30 716 C 72.9338 -1.62853 2.52783 0
M  V30 717 C 74.4818 -1.75002 2.59506 0
M  V30 718 C 74.9568 -2.35991 3.92521 0
M  V30 719 N 76.4478 -2.43416 3.94085 0
M  V30 720 C 77.1828 -2.91511 4.9377 0
M  V30 721 N 76.6788 -3.39608 6.03853 0
M  V30 722 N 78.4718 -2.90592 4.81157 0
M  V30 723 H 70.6228 -0.111066 2.12109 0
M  V30 724 H 72.8858 -0.111901 0.941373 0
M  V30 725 H 72.5918 -0.99664 3.37283 0
M  V30 726 H 72.4658 -2.61854 2.715 0
M  V30 727 H 74.8528 -2.37317 1.75398 0
M  V30 728 H 74.9338 -0.74693 2.44652 0
M  V30 729 H 74.5778 -1.74308 4.77053 0
M  V30 730 H 74.5078 -3.3695 4.04688 0
M  V30 731 H 76.9988 -2.09405 3.14576 0
M  V30 732 H 77.3118 -3.74775 6.75843 0
M  V30 733 H 75.6568 -3.37653 6.07466 0
M  V30 734 H 78.8478 -2.52332 3.94267 0
M  V30 735 H 79.0208 -3.27762 5.58996 0
M  V30 736 N 72.4269 -1.23603 -0.977757 0
M  V30 737 C 73.6729 -1.07129 -1.72195 0
M  V30 738 C 74.0059 0.390501 -1.90233 0
M  V30 739 O 73.2809 1.28902 -1.45653 0
M  V30 740 C 73.5639 -1.80031 -3.11867 0
M  V30 741 C 73.4169 -3.33899 -3.01383 0
M  V30 742 C 74.7359 -1.56492 -4.11337 0
M  V30 743 H 71.8549 -0.390571 -0.624999 0
M  V30 744 H 74.4969 -1.52142 -1.13811 0
M  V30 745 H 72.6469 -1.41768 -3.6171 0
M  V30 746 H 74.3189 -3.81699 -2.59043 0
M  V30 747 H 72.5619 -3.62796 -2.37827 0
M  V30 748 H 73.2329 -3.801 -4.00285 0
M  V30 749 H 75.7089 -1.89757 -3.70313 0
M  V30 750 H 74.5849 -2.09973 -5.07151 0
M  V30 751 H 74.8459 -0.500874 -4.39254 0
M  V30 752 N 73.905 1.17692 -1.04816 0
M  V30 753 C 74.868 2.19787 -0.650117 0
M  V30 754 C 75.868 1.58044 0.296427 0
M  V30 755 O 77.058 1.74012 0.0808097 0
M  V30 756 C 74.19 3.40869 0.0456987 0
M  V30 757 H 75.383 2.56516 -1.5537 0
M  V30 758 H 72.936 1.31708 -0.841594 0
M  V30 759 H 73.671 3.09681 0.962726 0
M  V30 760 H 73.456 3.86928 -0.634727 0
M  V30 761 H 74.946 4.16445 0.310432 0
M  V30 762 N 75.3831 0.828654 1.34056 0
M  V30 763 C 76.6301 0.419458 1.98108 0
M  V30 764 C 76.9581 -1.01886 1.65679 0
M  V30 765 O 76.2131 -1.72539 0.923512 0
M  V30 766 C 76.5121 0.575226 3.52741 0
M  V30 767 C 76.1781 1.98012 4.05095 0
M  V30 768 C 74.8401 2.36442 4.19104 0
M  V30 769 C 77.1921 2.89824 4.33188 0
M  V30 770 C 74.5201 3.66009 4.58535 0
M  V30 771 C 76.8721 4.1886 4.74066 0
M  V30 772 C 75.5361 4.5726 4.86281 0
M  V30 773 H 74.8061 0.153491 0.724929 0
M  V30 774 H 77.4531 1.05371 1.59904 0
M  V30 775 H 75.7581 -0.142385 3.91541 0
M  V30 776 H 77.4551 0.239057 4.00287 0
M  V30 777 H 74.0451 1.67162 3.94658 0
M  V30 778 H 78.2291 2.61375 4.21897 0
M  V30 779 H 73.4851 3.95579 4.66184 0
M  V30 780 H 77.6591 4.90086 4.94761 0
M  V30 781 H 75.2861 5.57707 5.16592 0
M  V30 782 N 76.8612 -1.46375 0.584142 0
M  V30 783 C 77.8092 -2.32042 -0.161047 0
M  V30 784 C 78.8032 -1.44569 -0.882966 0
M  V30 785 O 80.0092 -1.61186 -0.801191 0
M  V30 786 H 76.3842 -0.748659 -0.0708033 0
M  V30 787 H 78.3552 -2.92704 0.580269 0
M  V30 788 C 77.1042 -3.27762 -1.1605 0
M  V30 789 H 76.4272 -3.95051 -0.614419 0
M  V30 790 H 77.8672 -3.90481 -1.65228 0
M  V30 791 C 76.3262 -2.53218 -2.22221 0
M  V30 792 O 76.8562 -2.29628 -3.29597 0
M  V30 793 N 75.0622 -2.13756 -1.96868 0
M  V30 794 H 74.6092 -2.33142 -1.09557 0
M  V30 795 H 74.5672 -1.642 -2.68115 0
M  V30 796 N 78.3393 -0.321999 -1.54275 0
M  V30 797 C 79.7553 0.0306999 -1.5957 0
M  V30 798 C 79.9553 1.50614 -1.33857 0
M  V30 799 O 79.0113 2.2619 -1.12223 0
M  V30 800 C 80.3243 -0.386122 -2.98211 0
M  V30 801 C 81.8723 -0.336647 -3.11184 0
M  V30 802 C 82.3473 -0.728607 -4.52167 0
M  V30 803 N 83.8383 -0.681952 -4.58152 0
M  V30 804 C 84.5733 -0.957449 -5.6535 0
M  V30 805 N 84.0693 -1.3 -6.80494 0
M  V30 806 N 85.8623 -0.883113 -5.55119 0
M  V30 807 H 78.0133 -1.28332 -1.69247 0
M  V30 808 H 80.2763 -0.521716 -0.791528 0
M  V30 809 H 79.9823 -1.41404 -3.22022 0
M  V30 810 H 79.8563 0.249662 -3.76373 0
M  V30 811 H 82.2433 0.682058 -2.8711 0
M  V30 812 H 82.3243 -1.00734 -2.3513 0
M  V30 813 H 81.9683 -1.74522 -4.76974 0
M  V30 814 H 81.8983 -0.0356152 -5.26588 0
M  V30 815 H 84.3893 -0.428985 -3.75457 0
M  V30 816 H 84.7023 -1.49563 -7.58189 0
M  V30 817 H 83.0473 -1.33824 -6.81994 0
M  V30 818 H 86.2383 -0.615001 -4.64042 0
M  V30 819 H 86.4113 -1.10118 -6.38575 0
M  V30 820 N 79.8174 1.5752 -0.0501392 0
M  V30 821 C 81.2284 1.80271 0.485705 0
M  V30 822 C 81.5794 0.96228 1.70981 0
M  V30 823 O 80.7044 0.178578 2.15662 0
M  V30 824 C 81.2994 3.26957 0.887938 0
M  V30 825 C 79.8584 3.5063 1.36877 0
M  V30 826 C 79.0054 2.75165 0.343468 0
M  V30 827 H 81.9564 1.56281 -0.276028 0
M  V30 828 H 81.9774 3.37821 1.75093 0
M  V30 829 H 81.4894 3.881 -0.0031809 0
M  V30 830 H 79.5904 2.94766 2.27911 0
M  V30 831 H 79.7034 4.59343 1.36164 0
M  V30 832 H 78.0674 2.4127 0.816128 0
M  V30 833 H 78.8504 3.39034 -0.539548 0
M  V30 834 N 81.2955 -0.223234 1.56011 0
M  V30 835 C 82.2055 -1.29766 1.95443 0
M  V30 836 C 83.2215 -1.51373 0.858028 0
M  V30 837 O 84.3975 -1.64536 1.16146 0
M  V30 838 C 81.4625 -2.62772 2.26167 0
M  V30 839 C 80.5235 -2.49482 3.49367 0
M  V30 840 C 79.7565 -3.76145 3.78616 0
M  V30 841 O 79.9795 -4.79087 3.09568 0
M  V30 842 O 78.9135 -3.73358 4.72109 0
M  V30 843 H 82.7395 -0.99309 2.87004 0
M  V30 844 H 80.3245 -0.425958 1.43199 0
M  V30 845 H 82.2065 -3.41327 2.47131 0
M  V30 846 H 80.8815 -2.92913 1.37781 0
M  V30 847 H 79.7885 -1.69133 3.33684 0
M  V30 848 H 81.1215 -2.2428 4.38131 0
M  V30 849 N 82.7736 -1.49793 -0.48987 0
M  V30 850 C 84.0196 -1.60078 -1.24511 0
M  V30 851 C 84.3526 -0.291608 -1.91998 0
M  V30 852 O 83.6276 0.705647 -1.81248 0
M  V30 853 C 83.9106 -2.76791 -2.30345 0
M  V30 854 C 83.7636 -4.17535 -1.67286 0
M  V30 855 C 85.0826 -2.89111 -3.31817 0
M  V30 856 H 82.2016 -0.582645 -0.451324 0
M  V30 857 H 84.8436 -1.82117 -0.541612 0
M  V30 858 H 82.9936 -2.5813 -2.90346 0
M  V30 859 H 84.6656 -4.4774 -1.11026 0
M  V30 860 H 82.9086 -4.22665 -0.976577 0
M  V30 861 H 83.5796 -4.95094 -2.44103 0
M  V30 862 H 86.0556 -3.06133 -2.81819 0
M  V30 863 H 84.9316 -3.72433 -4.03219 0
M  V30 864 H 85.1926 -1.9893 -3.94815 0
M  V30 865 N 84.2517 0.741722 -1.39055 0
M  V30 866 C 85.6677 1.04638 -1.20512 0
M  V30 867 C 85.8677 2.01405 -0.0620218 0
M  V30 868 O 84.9237 2.45547 0.588457 0
M  V30 869 C 86.2367 1.6151 -2.53643 0
M  V30 870 C 87.7847 1.73623 -2.6043 0
M  V30 871 C 88.2597 2.33906 -3.93767 0
M  V30 872 N 89.7507 2.41323 -3.9537 0
M  V30 873 C 90.4857 2.88888 -4.95309 0
M  V30 874 N 89.9817 3.36401 -6.05645 0
M  V30 875 N 91.7747 2.88037 -4.82692 0
M  V30 876 H 83.9257 0.0998155 -2.12165 0
M  V30 877 H 86.1887 0.106907 -0.941953 0
M  V30 878 H 85.8947 0.978739 -3.37807 0
M  V30 879 H 85.7687 2.60411 -2.72885 0
M  V30 880 H 88.1557 2.36384 -1.76655 0
M  V30 881 H 88.2367 0.733945 -2.45045 0
M  V30 882 H 87.8807 1.71776 -4.7797 0
M  V30 883 H 87.8107 3.34799 -4.06469 0
M  V30 884 H 90.3017 2.07734 -3.15682 0
M  V30 885 H 90.6147 3.71186 -6.77821 0
M  V30 886 H 88.9597 3.34427 -6.09248 0
M  V30 887 H 92.1507 2.50237 -3.95599 0
M  V30 888 H 92.3237 3.24792 -5.60726 0
M  V30 889 N 85.7298 1.2412 0.971189 0
M  V30 890 C 86.6778 1.02812 2.08644 0
M  V30 891 C 87.6718 -0.0358403 1.69362 0
M  V30 892 O 88.8778 0.118429 1.7961 0
M  V30 893 H 85.2528 0.315428 0.682649 0
M  V30 894 H 87.2238 1.97397 2.23779 0
M  V30 895 C 85.9728 0.645874 3.41649 0
M  V30 896 H 85.2958 1.45632 3.72332 0
M  V30 897 H 86.7358 0.536366 4.20594 0
M  V30 898 C 85.1948 -0.646713 3.30635 0
M  V30 899 O 85.7248 -1.69338 3.64263 0
M  V30 900 N 83.9308 -0.626115 2.83775 0
M  V30 901 H 83.4778 0.225988 2.56607 0
M  V30 902 H 83.4358 -1.49117 2.76788 0
M  V30 903 N 87.2079 -1.17134 1.05439 0
M  V30 904 C 88.1709 -2.19439 0.661764 0
M  V30 905 C 89.1709 -1.58199 -0.288042 0
M  V30 906 O 90.3609 -1.74053 -0.0715803 0
M  V30 907 C 87.4929 -3.40889 -0.0276209 0
M  V30 908 H 88.6859 -2.55688 1.56728 0
M  V30 909 H 86.2389 -1.31259 0.848567 0
M  V30 910 H 86.9739 -3.10187 -0.94629 0
M  V30 911 H 86.7589 -3.86586 0.655238 0
M  V30 912 H 88.2489 -4.16603 -0.288342 0
M  V30 913 N 88.686 -0.835752 -1.33615 0
M  V30 914 C 89.933 -0.429959 -1.97883 0
M  V30 915 C 90.261 1.01006 -1.66217 0
M  V30 916 O 89.516 1.72047 -0.93265 0
M  V30 917 C 89.815 -0.593925 -3.52431 0
M  V30 918 C 89.481 -2.00158 -4.04039 0
M  V30 919 C 88.143 -2.38662 -4.17844 0
M  V30 920 C 90.495 -2.92117 -4.31644 0
M  V30 921 C 87.823 -3.68435 -4.56588 0
M  V30 922 C 90.175 -4.21368 -4.71838 0
M  V30 923 C 88.839 -4.59833 -4.83849 0
M  V30 924 H 88.109 -0.157333 -0.724104 0
M  V30 925 H 90.756 -1.06217 -1.59343 0
M  V30 926 H 89.061 0.121619 -3.91611 0
M  V30 927 H 90.758 -0.260282 -4.00154 0
M  V30 928 H 87.348 -1.69252 -3.93766 0
M  V30 929 H 91.532 -2.63608 -4.20505 0
M  V30 930 H 86.788 -3.98046 -4.64079 0
M  V30 931 H 90.962 -4.92703 -4.92155 0
M  V30 932 H 88.589 -5.60438 -5.13627 0
M  V30 933 N 90.1641 1.46063 -0.591896 0
M  V30 934 C 91.5801 1.57561 -0.254288 0
M  V30 935 C 91.7801 1.58565 1.24336 0
M  V30 936 O 90.8361 1.50753 2.02558 0
M  V30 937 C 92.1491 2.86549 -0.911611 0
M  V30 938 C 93.6971 3.00197 -0.886059 0
M  V30 939 C 94.1721 4.31933 -1.5231 0
M  V30 940 N 95.6631 4.38654 -1.48786 0
M  V30 941 C 96.3981 5.39222 -1.95006 0
M  V30 942 N 95.8941 6.46414 -2.49241 0
M  V30 943 N 97.6871 5.3048 -1.85868 0
M  V30 944 H 89.8381 1.43655 -1.56451 0
M  V30 945 H 92.1011 0.68583 -0.654478 0
M  V30 946 H 91.8071 2.91651 -1.96551 0
M  V30 947 H 91.6811 3.74794 -0.425368 0
M  V30 948 H 94.0681 2.9467 0.159246 0
M  V30 949 H 94.1491 2.13403 -1.41041 0
M  V30 950 H 93.7931 4.38217 -2.56765 0
M  V30 951 H 93.7231 5.17516 -0.973891 0
M  V30 952 H 96.2141 3.61793 -1.09151 0
M  V30 953 H 96.5271 7.19376 -2.82344 0
M  V30 954 H 94.8721 6.47208 -2.53272 0
M  V30 955 H 98.0631 4.45643 -1.43248 0
M  V30 956 H 98.2361 6.08711 -2.22204 0
M  V30 957 N 91.6422 0.330177 1.54103 0
M  V30 958 C 93.0532 -0.15652 1.86043 0
M  V30 959 C 93.4042 -1.51086 1.2517 0
M  V30 960 O 92.5292 -2.09023 0.560217 0
M  V30 961 C 93.1242 -0.290784 3.3755 0
M  V30 962 C 91.6832 -0.721705 3.69416 0
M  V30 963 C 90.8302 0.152622 2.7688 0
M  V30 964 H 93.7812 0.550237 1.48856 0
M  V30 965 H 93.8022 -1.12058 3.63625 0
M  V30 966 H 93.3142 0.695068 3.81825 0
M  V30 967 H 91.4152 -1.71706 3.30678 0
M  V30 968 H 91.5282 -0.520869 4.7626 0
M  V30 969 H 89.8922 -0.372894 2.51956 0
M  V30 970 H 90.6752 1.13536 3.23982 0
M  V30 971 N 93.1203 -1.57491 0.0584922 0
M  V30 972 C 94.0703 -2.08474 -0.923188 0
M  V30 973 C 95.0543 -0.991479 -1.26722 0
M  V30 974 O 96.2463 -1.25473 -1.24842 0
M  V30 975 C 93.3753 -2.6392 -2.19548 0
M  V30 976 C 92.4613 -3.80227 -1.87852 0
M  V30 977 N 92.8523 -4.89714 -1.26546 0
M  V30 978 C 91.1503 -3.89271 -2.17679 0
M  V30 979 C 91.8513 -5.70689 -1.12644 0
M  V30 980 N 90.8273 -5.18531 -1.63176 0
M  V30 981 H 94.6293 -2.90517 -0.444653 0
M  V30 982 H 92.1433 -1.61745 -0.145764 0
M  V30 983 H 94.1403 -2.98752 -2.9078 0
M  V30 984 H 92.8003 -1.83318 -2.68001 0
M  V30 985 H 93.8113 -5.09358 -0.936757 0
M  V30 986 H 90.4883 -3.19623 -2.68602 0
M  V30 987 H 91.8783 -6.6875 -0.6499 0
M  V30 988 N 94.5984 0.214957 -1.56127 0
M  V30 989 C 95.8264 0.955092 -1.83536 0
M  V30 990 C 96.2414 1.77677 -0.638472 0
M  V30 991 O 95.5984 1.78219 0.392968 0
M  V30 992 C 95.6494 1.86734 -3.09536 0
M  V30 993 O 95.3704 1.07887 -4.24608 0
M  V30 994 C 96.8714 2.72082 -3.4998 0
M  V30 995 H 94.0914 0.279611 -0.609966 0
M  V30 996 H 96.6354 0.228197 -2.03223 0
M  V30 997 H 94.7904 2.5481 -2.91806 0
M  V30 998 H 95.2044 1.69872 -4.9623 0
M  V30 999 H 96.6784 3.31782 -4.41163 0
M  V30 1000 H 97.1554 3.44806 -2.7204 0
M  V30 1001 H 97.7614 2.09409 -3.70173 0
M  V30 1002 N 96.0765 1.50051 0.48192 0
M  V30 1003 C 97.3225 1.60736 1.2366 0
M  V30 1004 C 97.6555 0.301786 1.91841 0
M  V30 1005 O 96.9305 -0.696025 1.8162 0
M  V30 1006 C 97.2135 2.78009 2.28874 0
M  V30 1007 C 97.0665 4.18416 1.65069 0
M  V30 1008 C 98.3855 2.90867 3.30279 0
M  V30 1009 H 95.5045 0.585031 0.448228 0
M  V30 1010 H 98.1465 1.82402 0.531946 0
M  V30 1011 H 96.2965 2.59667 2.88973 0
M  V30 1012 H 97.9685 4.48322 1.0865 0
M  V30 1013 H 96.2115 4.23177 0.954148 0
M  V30 1014 H 96.8825 4.96381 2.41474 0
M  V30 1015 H 99.3585 3.07623 2.80191 0
M  V30 1016 H 98.2345 3.74566 4.01238 0
M  V30 1017 H 98.4955 2.01021 3.93755 0
M  V30 1018 N 97.5546 -0.734337 1.39446 0
M  V30 1019 C 98.8316 -1.48579 1.27215 0
M  V30 1020 C 99.2116 -2.1077 -0.117968 0
M  V30 1021 O 98.5596 -1.98646 -1.12924 0
M  V30 1022 C 98.7696 -2.53667 2.39696 0
M  V30 1023 C 100.118 -3.20031 2.79044 0
M  V30 1024 O 101.142 -2.6398 2.39151 0
M  V30 1025 O 100.001 -4.21455 3.47905 0
M  V30 1026 H 97.0946 -0.659816 0.49857 0
M  V30 1027 H 99.6406 -0.768106 1.51322 0
M  V30 1028 H 98.4126 -2.06096 3.32626 0
M  V30 1029 H 98.0356 -3.32994 2.17258 0
M  V30 1030 N 99.0327 -1.24633 -0.964593 0
M  V30 1031 C 99.9427 -1.05859 -2.09359 0
M  V30 1032 C 100.959 0.00148855 -1.74 0
M  V30 1033 O 102.135 -0.197346 -2.00431 0
M  V30 1034 C 99.1997 -0.668879 -3.40187 0
M  V30 1035 C 98.2607 -1.80578 -3.89474 0
M  V30 1036 C 97.4937 -1.43457 -5.14058 0
M  V30 1037 O 97.7167 -0.325775 -5.69469 0
M  V30 1038 O 96.6507 -2.2613 -5.57807 0
M  V30 1039 H 100.477 -2.00516 -2.28094 0
M  V30 1040 H 98.0617 -1.03481 -1.0776 0
M  V30 1041 H 99.9437 -0.463211 -4.18846 0
M  V30 1042 H 98.6187 0.248536 -3.22744 0
M  V30 1043 H 97.5257 -2.06623 -3.11862 0
M  V30 1044 H 98.8587 -2.70208 -4.11398 0
M  V30 1045 N 100.511 1.16574 -1.06058 0
M  V30 1046 C 101.441 2.23057 -0.690488 0
M  V30 1047 C 102.422 1.67141 0.315901 0
M  V30 1048 O 103.607 1.93253 0.191556 0
M  V30 1049 C 100.737 3.47222 -0.073625 0
M  V30 1050 C 99.6908 4.16016 -1.00573 0
M  V30 1051 C 99.0168 5.34104 -0.252289 0
M  V30 1052 C 100.317 4.67264 -2.33371 0
M  V30 1053 H 102.011 2.54271 -1.58072 0
M  V30 1054 H 99.5568 1.22218 -0.76149 0
M  V30 1055 H 101.51 4.20939 0.19714 0
M  V30 1056 H 100.234 3.15302 0.85161 0
M  V30 1057 H 98.8928 3.44223 -1.2612 0
M  V30 1058 H 98.5408 4.98437 0.675988 0
M  V30 1059 H 98.2408 5.81072 -0.873455 0
M  V30 1060 H 99.7648 6.10599 0.0109857 0
M  V30 1061 H 101.179 5.32573 -2.12223 0
M  V30 1062 H 99.5758 5.24843 -2.90963 0
M  V30 1063 H 100.646 3.83602 -2.96611 0
M  V30 1064 N 101.989 0.842826 1.3317 0
M  V30 1065 C 103.219 0.453397 2.01564 0
M  V30 1066 C 103.627 -0.951147 1.63554 0
M  V30 1067 O 102.97 -1.63021 0.846746 0
M  V30 1068 C 103.032 0.499013 3.5602 0
M  V30 1069 C 102.696 1.86037 4.1742 0
M  V30 1070 C 103.693 2.82416 4.36506 0
M  V30 1071 C 101.378 2.15428 4.53757 0
M  V30 1072 C 103.372 4.06346 4.91082 0
M  V30 1073 C 101.059 3.39615 5.0804 0
M  V30 1074 C 102.057 4.3489 5.26649 0
M  V30 1075 O 101.745 5.5688 5.79776 0
M  V30 1076 H 101.477 0.177871 0.652179 0
M  V30 1077 H 104.031 1.13808 1.70988 0
M  V30 1078 H 102.261 -0.242467 3.85939 0
M  V30 1079 H 103.95 0.126852 4.05702 0
M  V30 1080 H 104.716 2.6101 4.08777 0
M  V30 1081 H 100.595 1.42061 4.38565 0
M  V30 1082 H 104.139 4.80722 5.05522 0
M  V30 1083 H 100.036 3.60876 5.352 0
M  V30 1084 H 100.804 5.58674 5.98185 0
M  V30 1085 N 103.467 -1.45747 0.599634 0
M  V30 1086 C 104.883 -1.57424 0.26264 0
M  V30 1087 C 105.083 -1.59222 -1.23493 0
M  V30 1088 O 104.139 -1.51825 -2.01756 0
M  V30 1089 C 105.452 -2.86061 0.926795 0
M  V30 1090 C 107 -2.99722 0.901967 0
M  V30 1091 C 107.475 -4.31119 1.54598 0
M  V30 1092 N 108.966 -4.37858 1.5111 0
M  V30 1093 C 109.701 -5.3818 1.97863 0
M  V30 1094 N 109.197 -6.45083 2.52666 0
M  V30 1095 N 110.99 -5.29487 1.88679 0
M  V30 1096 H 103.141 -1.42823 1.57211 0
M  V30 1097 H 105.404 -0.68235 0.658105 0
M  V30 1098 H 105.11 -2.90605 1.98095 0
M  V30 1099 H 104.984 -3.74563 0.445238 0
M  V30 1100 H 107.371 -2.9475 -0.143617 0
M  V30 1101 H 107.452 -2.12652 1.42171 0
M  V30 1102 H 107.096 -4.36849 2.59085 0
M  V30 1103 H 107.026 -5.16992 1.00132 0
M  V30 1104 H 109.517 -3.61209 1.11068 0
M  V30 1105 H 109.83 -7.17869 2.86155 0
M  V30 1106 H 108.175 -6.45856 2.56701 0
M  V30 1107 H 111.366 -4.44877 1.4561 0
M  V30 1108 H 111.539 -6.07524 2.25429 0
M  V30 1109 N 104.945 -0.338344 -1.53925 0
M  V30 1110 C 106.191 0.260143 -2.01125 0
M  V30 1111 C 106.524 1.50617 -1.22589 0
M  V30 1112 O 105.799 1.91979 -0.312113 0
M  V30 1113 C 106.082 0.579499 -3.55407 0
M  V30 1114 C 105.935 -0.678264 -4.44657 0
M  V30 1115 C 107.254 1.39122 -4.17532 0
M  V30 1116 H 104.373 0.0930772 -0.731099 0
M  V30 1117 H 107.015 -0.457852 -1.84401 0
M  V30 1118 H 105.165 1.19118 -3.69788 0
M  V30 1119 H 106.837 -1.31631 -4.42121 0
M  V30 1120 H 105.08 -1.3042 -4.13731 0
M  V30 1121 H 105.751 -0.410143 -5.50474 0
M  V30 1122 H 108.227 0.874035 -4.06817 0
M  V30 1123 H 107.103 1.58342 -5.25565 0
M  V30 1124 H 107.364 2.39178 -3.71815 0
M  V30 1125 N 106.423 1.57458 -0.0668435 0
M  V30 1126 C 107.353 2.15468 0.899764 0
M  V30 1127 C 108.334 1.08042 1.31381 0
M  V30 1128 O 109.519 1.36054 1.38574 0
M  V30 1129 C 106.649 2.71232 2.16911 0
M  V30 1130 C 105.603 3.83781 1.89463 0
M  V30 1131 C 104.929 4.26127 3.22986 0
M  V30 1132 C 106.229 5.08238 1.20381 0
M  V30 1133 H 107.923 2.96488 0.416529 0
M  V30 1134 H 105.469 1.4262 0.198908 0
M  V30 1135 H 107.422 3.10458 2.84945 0
M  V30 1136 H 106.146 1.87426 2.67468 0
M  V30 1137 H 104.805 3.45051 1.23836 0
M  V30 1138 H 104.453 3.39249 3.71374 0
M  V30 1139 H 104.153 5.01993 3.05413 0
M  V30 1140 H 105.677 4.67966 3.92225 0
M  V30 1141 H 107.091 5.44811 1.78475 0
M  V30 1142 H 105.488 5.89349 1.13083 0
M  V30 1143 H 106.558 4.84558 0.182153 0
M  V30 1144 N 107.901 -0.206675 1.56239 0
M  V30 1145 C 109.178 -0.954051 1.70755 0
M  V30 1146 C 109.558 -2.01841 0.618353 0
M  V30 1147 O 108.906 -2.25444 -0.372434 0
M  V30 1148 C 109.116 -1.551 3.12642 0
M  V30 1149 C 110.464 -2.03757 3.72516 0
M  V30 1150 O 111.488 -1.64965 3.15698 0
M  V30 1151 O 110.347 -2.75103 4.72208 0
M  V30 1152 H 107.441 -0.446636 0.696021 0
M  V30 1153 H 109.987 -0.197283 1.68549 0
M  V30 1154 H 108.759 -0.783212 3.83382 0
M  V30 1155 H 108.382 -2.37291 3.19028 0
M  V30 1156 N 109.379 -1.50304 -0.473955 0
M  V30 1157 C 110.329 -1.65347 -1.56985 0
M  V30 1158 C 111.313 -0.508176 -1.52664 0
M  V30 1159 O 112.505 -0.762446 -1.59737 0
M  V30 1160 C 109.634 -1.74832 -2.95447 0
M  V30 1161 C 108.72 -2.95028 -3.04662 0
M  V30 1162 N 109.111 -4.18747 -2.83698 0
M  V30 1163 C 107.409 -2.93527 -3.35795 0
M  V30 1164 C 108.11 -4.99687 -2.97805 0
M  V30 1165 N 107.086 -4.33585 -3.2788 0
M  V30 1166 H 110.888 -2.58698 -1.39472 0
M  V30 1167 H 108.402 -1.47449 -0.680629 0
M  V30 1168 H 110.399 -1.83712 -3.7424 0
M  V30 1169 H 109.059 -0.826376 -3.14008 0
M  V30 1170 H 110.07 -4.48291 -2.59337 0
M  V30 1171 H 106.747 -2.10821 -3.60362 0
M  V30 1172 H 108.137 -6.08057 -2.85861 0
M  V30 1173 N 110.857 0.726932 -1.39834 0
M  V30 1174 C 111.82 1.82269 -1.38962 0
M  V30 1175 C 112.82 1.58248 -0.285334 0
M  V30 1176 O 114.01 1.65499 -0.54366 0
M  V30 1177 C 111.142 3.20186 -1.17019 0
M  V30 1178 H 112.335 1.84443 -2.36476 0
M  V30 1179 H 109.888 0.931416 -1.25516 0
M  V30 1180 H 110.623 3.23669 -0.202204 0
M  V30 1181 H 110.408 3.3902 -1.96998 0
M  V30 1182 H 111.898 4.00235 -1.1917 0
M  V30 1183 N 112.336 1.25143 0.95797 0
M  V30 1184 C 113.752 1.01892 1.22842 0
M  V30 1185 C 113.952 -0.266311 1.99732 0
M  V30 1186 O 113.008 -0.979913 2.3271 0
M  V30 1187 C 114.321 2.24004 2.00606 0
M  V30 1188 C 115.869 2.28731 2.13662 0
M  V30 1189 C 116.344 3.5049 2.94823 0
M  V30 1190 N 117.835 3.50866 3.02403 0
M  V30 1191 C 118.57 4.4174 3.65586 0
M  V30 1192 N 118.066 5.42882 4.30408 0
M  V30 1193 N 119.859 4.29429 3.62694 0
M  V30 1194 H 112.01 2.07718 0.443493 0
M  V30 1195 H 114.273 0.912031 0.258657 0
M  V30 1196 H 113.979 3.17395 1.51503 0
M  V30 1197 H 113.853 2.26907 3.01319 0
M  V30 1198 H 116.24 1.35865 2.61963 0
M  V30 1199 H 116.321 2.29848 1.12265 0
M  V30 1200 H 115.965 4.43676 2.47213 0
M  V30 1201 H 115.895 3.46617 3.96439 0
M  V30 1202 H 118.386 2.777 2.56302 0
M  V30 1203 H 118.699 6.0844 4.76467 0
M  V30 1204 H 117.044 5.46758 4.29047 0
M  V30 1205 H 120.235 3.49643 3.11236 0
M  V30 1206 H 120.408 5.00448 4.1165 0
M  V30 1207 N 113.814 -1.1601 1.06675 0
M  V30 1208 C 114.747 -2.1947 0.625168 0
M  V30 1209 C 115.725 -1.58699 -0.354041 0
M  V30 1210 O 116.909 -1.86669 -0.262098 0
M  V30 1211 C 114.036 -3.38598 -0.0829593 0
M  V30 1212 C 113.082 -4.1787 0.853611 0
M  V30 1213 S 113.915 -4.81135 2.35094 0
M  V30 1214 C 115.071 -6.03639 1.65441 0
M  V30 1215 H 115.304 -2.56587 1.50168 0
M  V30 1216 H 112.837 -1.26862 0.880078 0
M  V30 1217 H 114.795 -4.07621 -0.485288 0
M  V30 1218 H 113.456 -2.99839 -0.935716 0
M  V30 1219 H 112.649 -5.03078 0.304755 0
M  V30 1220 H 112.251 -3.54361 1.196 0
M  V30 1221 H 114.543 -6.70632 0.962201 0
M  V30 1222 H 115.486 -6.63081 2.48454 0
M  V30 1223 H 115.894 -5.52965 1.13534 0
M  V30 1224 N 115.292 -0.849877 -1.32721 0
M  V30 1225 C 116.517 -0.463856 -2.02146 0
M  V30 1226 C 116.942 0.930449 -1.63476 0
M  V30 1227 O 116.3 1.61033 -0.832952 0
M  V30 1228 C 116.348 -0.604955 -3.55489 0
M  V30 1229 O 115.452 0.36425 -4.10788 0
M  V30 1230 H 114.793 -0.187046 -0.637111 0
M  V30 1231 H 117.323 -1.14775 -1.69375 0
M  V30 1232 H 117.333 -0.490696 -4.05038 0
M  V30 1233 H 116.008 -1.62174 -3.82978 0
M  V30 1234 H 114.585 0.206628 -3.72327 0
M  V30 1235 N 116.77 1.45427 -0.607355 0
M  V30 1236 C 118.181 1.85756 -0.187535 0
M  V30 1237 C 118.532 1.5077 1.25551 0
M  V30 1238 O 117.657 0.93427 1.95193 0
M  V30 1239 C 118.252 3.37154 -0.333572 0
M  V30 1240 C 116.811 3.76387 0.0315542 0
M  V30 1241 C 115.958 2.69377 -0.658117 0
M  V30 1242 H 118.909 1.36231 -0.81405 0
M  V30 1243 H 118.93 3.78014 0.43428 0
M  V30 1244 H 118.442 3.62586 -1.38393 0
M  V30 1245 H 116.543 3.56571 1.0811 0
M  V30 1246 H 116.656 4.77731 -0.361935 0
M  V30 1247 H 115.02 2.5452 -0.0957873 0
M  V30 1248 H 115.803 2.97646 -1.7106 0
M  V30 1249 N 118.248 0.346503 1.53744 0
M  V30 1250 C 119.525 -0.304532 1.93215 0
M  V30 1251 C 119.905 -1.67993 1.27834 0
M  V30 1252 O 119.253 -2.24411 0.430352 0
M  V30 1253 C 119.463 -0.373852 3.46992 0
M  V30 1254 C 120.811 -0.62329 4.2 0
M  V30 1255 O 121.835 -0.455847 3.53271 0
M  V30 1256 O 120.694 -0.947879 5.38217 0
M  V30 1257 H 117.788 -0.178318 0.807547 0
M  V30 1258 H 120.334 0.397895 1.64969 0
M  V30 1259 H 119.106 0.591224 3.86808 0
M  V30 1260 H 118.729 -1.12294 3.81413 0
M  V30 1261 N 119.726 -1.57421 0.075193 0
M  V30 1262 C 120.972 -1.93905 -0.594025 0
M  V30 1263 C 121.305 -0.955701 -1.69056 0
M  V30 1264 O 120.58 0.0145373 -1.94495 0
M  V30 1265 C 120.863 -3.40638 -1.1678 0
M  V30 1266 C 120.716 -4.49733 -0.0776792 0
M  V30 1267 C 122.035 -3.88259 -2.07228 0
M  V30 1268 H 119.154 -0.705105 -0.214466 0
M  V30 1269 H 121.796 -1.8947 0.141854 0
M  V30 1270 H 119.946 -3.44549 -1.79494 0
M  V30 1271 H 121.618 -4.57942 0.555573 0
M  V30 1272 H 119.861 -4.29751 0.591286 0
M  V30 1273 H 120.532 -5.49549 -0.519603 0
M  V30 1274 H 123.008 -3.86376 -1.54445 0
M  V30 1275 H 121.884 -4.91533 -2.44308 0
M  V30 1276 H 122.145 -3.26396 -2.98191 0
M  V30 1277 N 121.204 0.198386 -1.56346 0
M  V30 1278 C 122.452 0.91747 -1.80075 0
M  V30 1279 C 122.773 1.83929 -0.647692 0
M  V30 1280 O 122.043 1.93029 0.334166 0
M  V30 1281 H 120.623 0.341774 -0.664228 0
M  V30 1282 H 123.285 0.204684 -1.93822 0
M  V30 1283 H 122.381 1.51055 -2.7311 0
M  V30 1284 N 122.682 1.50554 0.465978 0
M  V30 1285 C 123.928 1.62038 1.21949 0
M  V30 1286 C 124.261 0.322116 1.9151 0
M  V30 1287 O 123.536 -0.676723 1.82348 0
M  V30 1288 C 123.819 2.80421 2.25912 0
M  V30 1289 C 123.672 4.20144 1.60622 0
M  V30 1290 C 124.991 2.94354 3.27176 0
M  V30 1291 H 122.11 0.589752 0.441998 0
M  V30 1292 H 124.752 1.82956 0.51257 0
M  V30 1293 H 122.902 2.62717 2.86203 0
M  V30 1294 H 124.574 4.49449 1.03889 0
M  V30 1295 H 122.817 4.24165 0.909211 0
M  V30 1296 H 123.488 4.98914 2.36196 0
M  V30 1297 H 125.964 3.10578 2.76913 0
M  V30 1298 H 124.84 3.788 3.97242 0
M  V30 1299 H 125.101 2.05186 3.916 0
M  V30 1300 N 124.16 -0.719506 1.40217 0
M  V30 1301 C 125.406 -1.48152 1.38488 0
M  V30 1302 C 125.739 -1.94195 -0.0141867 0
M  V30 1303 O 125.014 -1.67884 -0.982096 0
M  V30 1304 C 125.297 -2.71035 2.37091 0
M  V30 1305 C 125.15 -2.30912 3.86005 0
M  V30 1306 C 126.469 -3.73182 2.33288 0
M  V30 1307 H 123.588 -0.537395 0.504357 0
M  V30 1308 H 126.23 -0.821472 1.71324 0
M  V30 1309 H 124.38 -3.27352 2.0922 0
M  V30 1310 H 126.052 -1.80107 4.24687 0
M  V30 1311 H 124.295 -1.62958 4.02029 0
M  V30 1312 H 124.966 -3.18978 4.50508 0
M  V30 1313 H 127.442 -3.26485 2.57966 0
M  V30 1314 H 126.318 -4.56806 3.04334 0
M  V30 1315 H 126.579 -4.21202 1.34317 0
M  V30 1316 N 125.638 -1.25649 -0.95132 0
M  V30 1317 C 126.568 -1.08808 -2.06599 0
M  V30 1318 C 127.549 0.00382547 -1.701 0
M  V30 1319 O 128.734 -0.166325 -1.93486 0
M  V30 1320 C 125.864 -0.709542 -3.39975 0
M  V30 1321 C 124.818 -1.75206 -3.90496 0
M  V30 1322 C 124.144 -1.22811 -5.20405 0
M  V30 1323 C 125.444 -3.15153 -4.16504 0
M  V30 1324 H 127.138 -2.02048 -2.20946 0
M  V30 1325 H 124.684 -0.972835 -1.06169 0
M  V30 1326 H 126.637 -0.578649 -4.17408 0
M  V30 1327 H 125.361 0.258556 -3.25575 0
M  V30 1328 H 124.02 -1.87145 -3.15234 0
M  V30 1329 H 123.668 -0.250145 -5.02378 0
M  V30 1330 H 123.368 -1.92492 -5.55176 0
M  V30 1331 H 124.892 -1.10968 -6.00432 0
M  V30 1332 H 126.306 -3.06349 -4.84586 0
M  V30 1333 H 124.703 -3.82333 -4.62538 0
M  V30 1334 H 125.773 -3.61966 -3.22658 0
M  V30 1335 N 127.117 1.15442 -1.07289 0
M  V30 1336 C 128.047 2.22312 -0.714107 0
M  V30 1337 C 129.028 1.67467 0.298155 0
M  V30 1338 O 130.213 1.93445 0.171048 0
M  V30 1339 C 127.343 3.47124 -0.110448 0
M  V30 1340 C 126.297 4.14926 -1.04979 0
M  V30 1341 C 125.623 5.33807 -0.308924 0
M  V30 1342 C 126.923 4.64762 -2.38314 0
M  V30 1343 H 128.617 2.5258 -1.6076 0
M  V30 1344 H 126.163 1.21404 -0.77441 0
M  V30 1345 H 128.116 4.21124 0.152482 0
M  V30 1346 H 126.84 3.16187 0.81812 0
M  V30 1347 H 125.499 3.42866 -1.29764 0
M  V30 1348 H 125.147 4.99126 0.623084 0
M  V30 1349 H 124.847 5.80113 -0.935036 0
M  V30 1350 H 126.371 6.10576 -0.0537771 0
M  V30 1351 H 127.785 5.30292 -2.1786 0
M  V30 1352 H 126.182 5.21728 -2.96514 0
M  V30 1353 H 127.252 3.80434 -3.00663 0
M  V30 1354 N 128.595 0.856903 1.32268 0
M  V30 1355 C 129.823 0.475439 2.01363 0
M  V30 1356 C 130.238 -0.928486 1.64392 0
M  V30 1357 O 129.595 -1.60624 0.866387 0
M  V30 1358 C 129.646 0.607545 3.56358 0
M  V30 1359 O 129.367 1.95617 3.92002 0
M  V30 1360 C 130.868 0.225382 4.42727 0
M  V30 1361 H 128.088 0.186636 0.644521 0
M  V30 1362 H 130.632 1.15446 1.68797 0
M  V30 1363 H 128.787 -0.0237719 3.87393 0
M  V30 1364 H 129.201 1.95455 4.86721 0
M  V30 1365 H 130.675 0.368813 5.50767 0
M  V30 1366 H 131.152 -0.834369 4.31202 0
M  V30 1367 H 131.758 0.831864 4.17085 0
M  V30 1368 N 130.073 -1.45103 0.615059 0
M  V30 1369 C 131.321 -2.01784 0.112955 0
M  V30 1370 C 131.642 -1.48504 -1.26378 0
M  V30 1371 O 130.912 -0.682245 -1.83636 0
M  V30 1372 H 129.492 -0.745993 0.0387668 0
M  V30 1373 H 132.154 -1.77808 0.798141 0
M  V30 1374 H 131.25 -3.12025 0.0684069 0
M  V30 1375 N 131.551 -0.354651 -1.53558 0
M  V30 1376 C 132.499 0.512195 -2.26891 0
M  V30 1377 C 133.493 1.09263 -1.29452 0
M  V30 1378 O 134.699 1.03709 -1.47121 0
M  V30 1379 H 131.074 0.183878 -0.729173 0
M  V30 1380 H 133.045 -0.128202 -2.98124 0
M  V30 1381 C 131.794 1.64563 -3.06291 0
M  V30 1382 H 131.117 1.20829 -3.81104 0
M  V30 1383 H 132.557 2.22711 -3.60799 0
M  V30 1384 C 131.016 2.58158 -2.16462 0
M  V30 1385 O 131.546 3.60695 -1.76811 0
M  V30 1386 N 129.752 2.27096 -1.81317 0
M  V30 1387 H 129.299 1.43751 -2.1376 0
M  V30 1388 H 129.257 2.89975 -1.21498 0
M  V30 1389 N 133.029 1.57378 -0.0835403 0
M  V30 1390 C 134.277 1.93547 0.581718 0
M  V30 1391 C 134.598 0.96524 1.69435 0
M  V30 1392 O 133.868 0.0153369 1.95894 0
M  V30 1393 H 132.448 0.714521 0.217874 0
M  V30 1394 H 135.11 1.94366 -0.144158 0
M  V30 1395 H 134.206 2.95665 0.999423 0
M  V30 1396 N 134.507 -0.190092 1.56449 0
M  V30 1397 C 135.918 -0.754312 1.70784 0
M  V30 1398 C 136.269 -1.83631 0.690951 0
M  V30 1399 O 135.394 -2.15868 -0.151604 0
M  V30 1400 C 135.989 -1.37503 3.09642 0
M  V30 1401 C 134.548 -1.88628 3.25725 0
M  V30 1402 C 133.695 -0.758098 2.66736 0
M  V30 1403 H 136.646 0.0350524 1.58661 0
M  V30 1404 H 136.667 -2.2445 3.0725 0
M  V30 1405 H 136.179 -0.587302 3.83631 0
M  V30 1406 H 134.28 -2.70103 2.56661 0
M  V30 1407 H 134.393 -2.04462 4.3328 0
M  V30 1408 H 132.757 -1.17369 2.26046 0
M  V30 1409 H 133.54 0.0174705 3.43296 0
M  V30 1410 N 135.985 -1.50799 -0.457987 0
M  V30 1411 C 137.21 -1.66496 -1.23668 0
M  V30 1412 C 137.635 -0.353288 -1.84752 0
M  V30 1413 O 136.993 0.684346 -1.67888 0
M  V30 1414 C 137.041 -2.76763 -2.3116 0
M  V30 1415 O 136.145 -2.38928 -3.36136 0
M  V30 1416 H 135.486 -0.555828 -0.363252 0
M  V30 1417 H 138.016 -1.9725 -0.543474 0
M  V30 1418 H 138.026 -3.00232 -2.76269 0
M  V30 1419 H 136.701 -3.71954 -1.86073 0
M  V30 1420 H 135.278 -2.25953 -2.96647 0
M  V30 1421 N 137.463 0.71206 -1.40597 0
M  V30 1422 C 138.874 1.29135 -1.34837 0
M  V30 1423 C 139.225 1.96186 -0.0235395 0
M  V30 1424 O 138.35 1.97768 0.878444 0
M  V30 1425 C 138.945 2.34827 -2.44217 0
M  V30 1426 C 137.504 2.88371 -2.41907 0
M  V30 1427 C 136.651 1.62202 -2.24913 0
M  V30 1428 H 139.602 0.507944 -1.50352 0
M  V30 1429 H 139.623 3.15749 -2.12327 0
M  V30 1430 H 139.135 1.85996 -3.40627 0
M  V30 1431 H 137.236 3.41422 -1.49204 0
M  V30 1432 H 137.349 3.39925 -3.37621 0
M  V30 1433 H 135.713 1.874 -1.72492 0
M  V30 1434 H 136.496 1.15391 -3.23326 0
M  V30 1435 N 138.941 1.26152 0.944643 0
M  V30 1436 C 139.888 1.07408 2.04285 0
M  V30 1437 C 140.858 -0.0198413 1.66088 0
M  V30 1438 O 142.043 0.139264 1.90291 0
M  V30 1439 C 139.183 0.70945 3.37729 0
M  V30 1440 C 138.296 1.87926 3.88983 0
M  V30 1441 C 137.431 1.45807 5.10797 0
M  V30 1442 C 136.47 2.5964 5.54305 0
M  V30 1443 N 135.607 2.18226 6.67324 0
M  V30 1444 H 140.447 2.01389 2.1965 0
M  V30 1445 H 137.984 1.00275 1.07626 0
M  V30 1446 H 139.942 0.478948 4.14442 0
M  V30 1447 H 138.572 -0.193389 3.2222 0
M  V30 1448 H 137.624 2.22279 3.08701 0
M  V30 1449 H 138.936 2.73377 4.17213 0
M  V30 1450 H 138.09 1.18781 5.94959 0
M  V30 1451 H 136.829 0.574414 4.84305 0
M  V30 1452 H 135.834 2.87399 4.68702 0
M  V30 1453 H 137.059 3.48599 5.828 0
M  V30 1454 H 135.005 1.3229 6.42523 0
M  V30 1455 H 134.922 2.97221 6.95123 0
M  V30 1456 H 136.19 1.94403 7.54869 0
M  V30 1457 N 140.419 -1.14872 1.07899 0
M  V30 1458 C 141.696 -1.81928 0.71845 0
M  V30 1459 C 142.076 -1.95417 -0.798455 0
M  V30 1460 O 141.424 -1.50997 -1.715 0
M  V30 1461 C 141.634 -3.17937 1.43935 0
M  V30 1462 C 142.982 -3.93501 1.59506 0
M  V30 1463 O 144.006 -3.27509 1.40058 0
M  V30 1464 O 142.865 -5.1183 1.91551 0
M  V30 1465 H 139.959 -0.78628 0.256305 0
M  V30 1466 H 142.505 -1.21934 1.18026 0
M  V30 1467 H 141.277 -3.0325 2.47295 0
M  V30 1468 H 140.9 -3.85619 0.968687 0
M  V30 1469 N 141.898 -0.863906 -1.31812 0
M  V30 1470 C 143.146 -0.470904 -1.96537 0
M  V30 1471 C 143.467 0.978771 -1.68657 0
M  V30 1472 O 142.737 1.6853 -0.998717 0
M  V30 1473 H 141.317 -0.171148 -0.72713 0
M  V30 1474 H 143.979 -1.10236 -1.60729 0
M  V30 1475 H 143.075 -0.623616 -3.05806 0
M  V30 1476 N 143.376 1.44774 -0.622745 0
M  V30 1477 C 144.624 2.01721 -0.123655 0
M  V30 1478 C 144.945 1.49172 1.25589 0
M  V30 1479 O 144.215 0.691974 1.83272 0
M  V30 1480 H 142.795 0.745777 -0.0427225 0
M  V30 1481 H 145.457 1.77382 -0.807559 0
M  V30 1482 H 144.553 3.11984 -0.0849534 0
M  V30 1483 N 144.854 0.36279 1.53368 0
M  V30 1484 C 146.1 -0.220702 2.02199 0
M  V30 1485 C 146.455 -1.46649 1.24546 0
M  V30 1486 O 145.748 -1.88737 0.32996 0
M  V30 1487 C 145.942 -0.568417 3.52851 0
M  V30 1488 C 145.771 0.642126 4.45092 0
M  V30 1489 C 144.541 1.15335 4.91961 0
M  V30 1490 C 146.739 1.50649 4.91741 0
M  V30 1491 N 144.721 2.3242 5.68202 0
M  V30 1492 C 146.092 2.52404 5.66297 0
M  V30 1493 C 148.147 1.52969 4.73819 0
M  V30 1494 C 146.85 3.56331 6.24836 0
M  V30 1495 C 148.876 2.55789 5.33222 0
M  V30 1496 C 148.238 3.56268 6.07662 0
M  V30 1497 H 144.337 -0.0435508 0.780786 0
M  V30 1498 H 146.921 0.506704 1.87991 0
M  V30 1499 H 145.092 -1.2649 3.67226 0
M  V30 1500 H 146.824 -1.13676 3.88407 0
M  V30 1501 H 143.579 0.718412 4.68119 0
M  V30 1502 H 144.003 2.91591 6.10986 0
M  V30 1503 H 148.645 0.766418 4.15795 0
M  V30 1504 H 146.363 4.33543 6.81958 0
M  V30 1505 H 149.949 2.58435 5.21251 0
M  V30 1506 H 148.829 4.34524 6.52808 0
M  V30 1507 N 146.332 -1.57332 0.0918853 0
M  V30 1508 C 147.295 -2.12708 -0.85369 0
M  V30 1509 C 148.295 -1.05561 -1.213 0
M  V30 1510 O 149.485 -1.31461 -1.14296 0
M  V30 1511 C 146.617 -2.64503 -2.15061 0
M  V30 1512 H 147.81 -2.97573 -0.3729 0
M  V30 1513 H 145.363 -1.55509 -0.157072 0
M  V30 1514 H 146.098 -1.83149 -2.67632 0
M  V30 1515 H 145.883 -3.4284 -1.90272 0
M  V30 1516 H 147.373 -3.07351 -2.82711 0
M  V30 1517 N 147.81 0.181792 -1.56548 0
M  V30 1518 C 149.057 0.900097 -1.81396 0
M  V30 1519 C 149.385 1.82695 -0.667281 0
M  V30 1520 O 148.64 1.92614 0.346146 0
M  V30 1521 C 148.939 1.73728 -3.12335 0
M  V30 1522 C 148.605 0.960255 -4.40556 0
M  V30 1523 C 147.267 0.745766 -4.75386 0
M  V30 1524 C 149.619 0.414477 -5.19549 0
M  V30 1525 C 146.947 -0.0257694 -5.86694 0
M  V30 1526 C 149.299 -0.343916 -6.31664 0
M  V30 1527 C 147.963 -0.569301 -6.65068 0
M  V30 1528 H 147.233 0.329369 -0.663775 0
M  V30 1529 H 149.88 0.165647 -1.90782 0
M  V30 1530 H 148.185 2.54081 -2.98245 0
M  V30 1531 H 149.882 2.29591 -3.28769 0
M  V30 1532 H 146.472 1.13746 -4.13231 0
M  V30 1533 H 150.656 0.567554 -4.93044 0
M  V30 1534 H 145.912 -0.210233 -6.11038 0
M  V30 1535 H 150.086 -0.774133 -6.92084 0
M  V30 1536 H 147.713 -1.16903 -7.51158 0
M  V30 1537 N 149.288 1.51039 0.449983 0
M  V30 1538 C 150.528 1.64732 1.21007 0
M  V30 1539 C 150.892 0.349865 1.88785 0
M  V30 1540 O 152.093 0.362431 2.66345 0
M  V30 1541 C 150.364 2.80902 2.20973 0
M  V30 1542 S 151.923 3.14851 3.05638 0
M  V30 1543 H 148.741 0.5805 0.410538 0
M  V30 1544 H 151.343 1.88901 0.503634 0
M  V30 1545 H 150.047 3.73627 1.69796 0
M  V30 1546 H 149.578 2.58882 2.96215 0
M  V30 1547 H 151.593 2.60306 4.22439 0
M  V30 1548 N 150.766 -0.704594 1.40972 0
M  V30 1549 C 151.991 -1.49858 1.43378 0
M  V30 1550 C 152.416 -1.88061 0.038184 0
M  V30 1551 O 151.774 -1.5402 -0.956425 0
M  V30 1552 C 151.822 -2.74333 2.34038 0
M  V30 1553 O 150.926 -3.7147 1.7912 0
M  V30 1554 H 150.267 -0.45139 0.486974 0
M  V30 1555 H 152.797 -0.866832 1.8533 0
M  V30 1556 H 152.807 -3.22741 2.49604 0
M  V30 1557 H 151.482 -2.45863 3.35446 0
M  V30 1558 H 150.059 -3.30363 1.72958 0
M  V30 1559 N 152.244 -1.26651 -0.937939 0
M  V30 1560 C 153.492 -1.12165 -1.68118 0
M  V30 1561 C 153.813 0.334983 -1.92101 0
M  V30 1562 O 153.083 1.23583 -1.52 0
M  V30 1563 H 151.663 -0.412093 -0.623048 0
M  V30 1564 H 154.325 -1.59027 -1.12678 0
M  V30 1565 H 153.421 -1.64289 -2.6536 0
M  V30 1566 N 153.722 1.14298 -1.08507 0
M  V30 1567 C 154.97 1.84993 -0.813763 0
M  V30 1568 C 155.291 1.83405 0.662393 0
M  V30 1569 O 154.561 1.28319 1.48024 0
M  V30 1570 H 153.141 0.684966 -0.298045 0
M  V30 1571 H 155.803 1.385 -1.37126 0
M  V30 1572 H 154.899 2.89788 -1.15884 0
M  V30 1573 N 155.201 0.870884 1.31352 0
M  V30 1574 C 156.478 0.402907 1.91405 0
M  V30 1575 C 156.858 -1.11512 1.79244 0
M  V30 1576 O 156.206 -1.94411 1.2007 0
M  V30 1577 C 156.416 0.885301 3.37585 0
M  V30 1578 C 157.764 0.911971 4.14691 0
M  V30 1579 O 158.788 0.831016 3.46371 0
M  V30 1580 O 157.647 1.02927 5.3672 0
M  V30 1581 H 154.741 0.120698 0.818145 0
M  V30 1582 H 157.287 0.958857 1.40014 0
M  V30 1583 H 156.059 1.92889 3.40455 0
M  V30 1584 H 155.682 0.307714 3.96407 0
M  V30 1585 N 156.679 -1.44442 0.630414 0
M  V30 1586 C 157.611 -2.2892 -0.113347 0
M  V30 1587 C 158.624 -1.41243 -0.80959 0
M  V30 1588 O 159.813 -1.65402 -0.671156 0
M  V30 1589 C 156.913 -3.17594 -1.18266 0
M  V30 1590 C 156.086 -4.33682 -0.569073 0
M  V30 1591 C 155.145 -5.03397 -1.53226 0
M  V30 1592 O 154.171 -5.59438 -1.04967 0
M  V30 1593 N 155.373 -5.04783 -2.86661 0
M  V30 1594 H 158.138 -2.93392 0.611636 0
M  V30 1595 H 155.699 -1.54881 0.471523 0
M  V30 1596 H 157.691 -3.61097 -1.82732 0
M  V30 1597 H 156.261 -2.54876 -1.80988 0
M  V30 1598 H 155.481 -3.9338 0.254187 0
M  V30 1599 H 156.769 -5.08608 -0.139767 0
M  V30 1600 H 156.167 -4.60584 -3.28449 0
M  V30 1601 H 154.724 -5.52077 -3.46489 0
M  V30 1602 N 158.157 -0.370918 -1.53173 0
M  V30 1603 C 159.573 -0.0200818 -1.59587 0
M  V30 1604 C 159.773 1.46279 -1.38581 0
M  V30 1605 O 158.829 2.22506 -1.19363 0
M  V30 1606 C 160.142 -0.4808 -2.96831 0
M  V30 1607 C 161.69 -0.435477 -3.09956 0
M  V30 1608 C 162.165 -0.872092 -4.4962 0
M  V30 1609 N 163.656 -0.827364 -4.55751 0
M  V30 1610 C 164.391 -1.13683 -5.62018 0
M  V30 1611 N 163.887 -1.51584 -6.76014 0
M  V30 1612 N 165.68 -1.05927 -5.52029 0
M  V30 1613 H 157.831 -1.33652 -1.65079 0
M  V30 1614 H 160.094 -0.546634 -0.774529 0
M  V30 1615 H 159.8 -1.51577 -3.1736 0
M  V30 1616 H 159.674 0.129796 -3.76977 0
M  V30 1617 H 162.061 0.590371 -2.89134 0
M  V30 1618 H 162.142 -1.08164 -2.31806 0
M  V30 1619 H 161.786 -1.89608 -4.71181 0
M  V30 1620 H 161.716 -0.203127 -5.26208 0
M  V30 1621 H 164.207 -0.548216 -3.73902 0
M  V30 1622 H 164.52 -1.73609 -7.53047 0
M  V30 1623 H 162.865 -1.55454 -6.77391 0
M  V30 1624 H 166.056 -0.762321 -4.61851 0
M  V30 1625 H 166.229 -1.30378 -6.34749 0
M  V30 1626 N 159.635 1.57281 -0.100228 0
M  V30 1627 C 160.884 1.93713 0.561984 0
M  V30 1628 C 161.197 0.984492 1.69018 0
M  V30 1629 O 162.403 1.24273 2.41389 0
M  V30 1630 C 160.859 3.4421 1.05106 0
M  V30 1631 C 160.467 4.47975 -0.0476628 0
M  V30 1632 C 162.211 3.89595 1.68571 0
M  V30 1633 C 160.118 5.89631 0.457055 0
M  V30 1634 H 159.048 0.723082 0.2137 0
M  V30 1635 H 161.699 1.82644 -0.177057 0
M  V30 1636 H 160.081 3.50449 1.84395 0
M  V30 1637 H 161.255 4.53385 -0.823333 0
M  V30 1638 H 159.57 4.1223 -0.587816 0
M  V30 1639 H 162.167 4.92832 2.07414 0
M  V30 1640 H 162.51 3.28526 2.55688 0
M  V30 1641 H 163.043 3.86078 0.958562 0
M  V30 1642 H 159.782 6.54411 -0.377616 0
M  V30 1643 H 159.302 5.87681 1.19962 0
M  V30 1644 H 160.981 6.40363 0.92437 0
M  V30 1645 N 161.113 -0.173488 1.56642 0
M  V30 1646 C 162.529 -0.525174 1.50712 0
M  V30 1647 C 162.729 -1.8476 0.804107 0
M  V30 1648 O 161.785 -2.49869 0.363574 0
M  V30 1649 C 163.098 -0.559937 2.95441 0
M  V30 1650 C 164.646 -0.647288 3.06234 0
M  V30 1651 C 165.121 -0.712963 4.52417 0
M  V30 1652 N 166.612 -0.775911 4.56655 0
M  V30 1653 C 167.347 -0.847264 5.67106 0
M  V30 1654 N 166.843 -0.879585 6.87194 0
M  V30 1655 N 168.636 -0.886117 5.55071 0
M  V30 1656 H 160.787 0.693681 2.00753 0
M  V30 1657 H 163.05 0.249841 0.914485 0
M  V30 1658 H 162.756 0.343049 3.50023 0
M  V30 1659 H 162.63 -1.40718 3.49969 0
M  V30 1660 H 165.017 -1.5407 2.51687 0
M  V30 1661 H 165.098 0.226586 2.54794 0
M  V30 1662 H 164.742 0.176183 5.07594 0
M  V30 1663 H 164.672 -1.60295 5.0161 0
M  V30 1664 H 167.163 -0.759304 3.70193 0
M  V30 1665 H 167.476 -0.935144 7.67121 0
M  V30 1666 H 165.821 -0.847898 6.89808 0
M  V30 1667 H 169.012 -0.857853 4.60172 0
M  V30 1668 H 169.185 -0.938263 6.41171 0
M  V30 1669 N 162.591 -1.51276 -0.441967 0
M  V30 1670 C 163.839 -1.63392 -1.18943 0
M  V30 1671 C 164.16 -0.350159 -1.9183 0
M  V30 1672 O 163.43 0.633784 -1.85364 0
M  V30 1673 H 162.01 -0.602164 -0.442049 0
M  V30 1674 H 164.672 -1.88186 -0.507165 0
M  V30 1675 H 163.768 -2.45934 -1.92154 0
M  V30 1676 N 164.069 0.697108 -1.41344 0
M  V30 1677 C 165.485 1.00751 -1.2378 0
M  V30 1678 C 165.685 2.01105 -0.126066 0
M  V30 1679 O 164.741 2.47295 0.51004 0
M  V30 1680 C 166.054 1.53359 -2.58653 0
M  V30 1681 C 167.602 1.6525 -2.65822 0
M  V30 1682 C 168.077 2.2126 -4.01009 0
M  V30 1683 N 169.568 2.28622 -4.02847 0
M  V30 1684 C 170.303 2.72984 -5.04249 0
M  V30 1685 N 169.799 3.16962 -6.16041 0
M  V30 1686 N 171.592 2.72534 -4.91611 0
M  V30 1687 H 163.743 0.0322662 -2.12375 0
M  V30 1688 H 166.006 0.0768853 -0.944877 0
M  V30 1689 H 165.712 0.870773 -3.4075 0
M  V30 1690 H 165.586 2.51597 -2.81032 0
M  V30 1691 H 167.973 2.30644 -1.84086 0
M  V30 1692 H 168.054 0.655614 -2.47256 0
M  V30 1693 H 167.698 1.56482 -4.83193 0
M  V30 1694 H 167.628 3.21698 -4.16915 0
M  V30 1695 H 170.119 1.97585 -3.22131 0
M  V30 1696 H 170.432 3.49434 -6.89287 0
M  V30 1697 H 168.777 3.14875 -6.1958 0
M  V30 1698 H 171.968 2.37525 -4.0336 0
M  V30 1699 H 172.141 3.06789 -5.70775 0
M  V30 1700 N 165.547 1.27147 0.931209 0
M  V30 1701 C 166.772 1.16191 1.71797 0
M  V30 1702 C 167.197 -0.278004 1.86034 0
M  V30 1703 O 166.555 -1.20137 1.35782 0
M  V30 1704 C 166.603 1.84673 3.09723 0
M  V30 1705 O 165.707 1.14231 3.96264 0
M  V30 1706 H 165.048 0.404303 0.526721 0
M  V30 1707 H 167.578 1.68152 1.1656 0
M  V30 1708 H 167.588 1.91893 3.60057 0
M  V30 1709 H 166.263 2.89421 2.98677 0
M  V30 1710 H 164.84 1.15056 3.54706 0
M  V30 1711 N 167.025 -1.13721 1.09112 0
M  V30 1712 C 168.273 -1.84559 0.823562 0
M  V30 1713 C 168.594 -1.83754 -0.652658 0
M  V30 1714 O 167.864 -1.29102 -1.47342 0
M  V30 1715 H 166.444 -0.683376 0.301673 0
M  V30 1716 H 169.106 -1.37771 1.37859 0
M  V30 1717 H 168.202 -2.8917 1.17419 0
M  V30 1718 N 168.503 -0.877838 -1.30888 0
M  V30 1719 C 169.733 -0.506678 -2.00291 0
M  V30 1720 C 170.141 0.907449 -1.66018 0
M  V30 1721 O 169.484 1.60719 -0.88967 0
M  V30 1722 C 169.546 -0.59323 -3.54572 0
M  V30 1723 C 169.21 -1.97038 -4.12341 0
M  V30 1724 C 170.207 -2.93889 -4.28865 0
M  V30 1725 C 167.892 -2.27383 -4.47886 0
M  V30 1726 C 169.886 -4.19224 -4.80136 0
M  V30 1727 C 167.573 -3.52965 -4.98857 0
M  V30 1728 C 168.571 -4.48701 -5.14934 0
M  V30 1729 O 168.259 -5.72056 -5.64808 0
M  V30 1730 H 167.991 -0.1951 -0.647234 0
M  V30 1731 H 170.545 -1.18301 -1.6791 0
M  V30 1732 H 168.775 0.140057 -3.86446 0
M  V30 1733 H 170.464 -0.234372 -4.05223 0
M  V30 1734 H 171.23 -2.71756 -4.01714 0
M  V30 1735 H 167.109 -1.53639 -4.34645 0
M  V30 1736 H 170.653 -4.93956 -4.92599 0
M  V30 1737 H 166.55 -3.74939 -5.25443 0
M  V30 1738 H 167.318 -5.74337 -5.83163 0
M  V30 1739 N 169.982 1.44106 -0.638065 0
M  V30 1740 C 170.914 2.28976 0.101205 0
M  V30 1741 C 171.927 1.4167 0.802088 0
M  V30 1742 O 173.116 1.65755 0.662375 0
M  V30 1743 C 170.216 3.18217 1.16581 0
M  V30 1744 C 169.389 4.33978 0.546066 0
M  V30 1745 C 168.448 5.04202 1.50554 0
M  V30 1746 O 167.474 5.59986 1.01999 0
M  V30 1747 N 168.676 5.06296 2.8398 0
M  V30 1748 H 171.441 2.93064 -0.627186 0
M  V30 1749 H 169.002 1.54629 -0.479731 0
M  V30 1750 H 170.994 3.62061 1.80815 0
M  V30 1751 H 169.564 2.55833 1.79634 0
M  V30 1752 H 168.784 3.93239 -0.275046 0
M  V30 1753 H 170.072 5.08675 0.112793 0
M  V30 1754 H 169.47 4.62319 3.26002 0
M  V30 1755 H 168.027 5.53907 3.43556 0
M  V30 1756 N 171.46 0.379036 1.52974 0
M  V30 1757 C 172.69 -0.20649 2.05566 0
M  V30 1758 C 173.098 -1.41906 1.25137 0
M  V30 1759 O 172.441 -1.81421 0.288464 0
M  V30 1760 C 172.503 -0.651086 3.53555 0
M  V30 1761 C 172.167 0.446626 4.54812 0
M  V30 1762 C 173.164 1.30079 5.03364 0
M  V30 1763 C 170.849 0.610719 4.98573 0
M  V30 1764 C 172.843 2.30426 5.94292 0
M  V30 1765 C 170.53 1.61754 5.89304 0
M  V30 1766 C 171.528 2.46274 6.37054 0
M  V30 1767 O 171.216 3.45237 7.25994 0
M  V30 1768 H 170.948 -0.0372381 0.674974 0
M  V30 1769 H 173.502 0.539718 1.98182 0
M  V30 1770 H 171.732 -1.44911 3.58522 0
M  V30 1771 H 173.421 -1.16112 3.88938 0
M  V30 1772 H 174.187 1.18527 4.70294 0
M  V30 1773 H 170.066 -0.0374044 4.60985 0
M  V30 1774 H 173.61 2.96432 6.31485 0
M  V30 1775 H 169.507 1.73348 6.21788 0
M  V30 1776 H 170.275 3.41124 7.44027 0
M  V30 1777 N 172.938 -1.57226 0.108567 0
M  V30 1778 C 173.901 -2.13602 -0.831082 0
M  V30 1779 C 174.901 -1.06841 -1.20173 0
M  V30 1780 O 176.091 -1.32666 -1.12895 0
M  V30 1781 C 173.223 -2.66769 -2.12243 0
M  V30 1782 H 174.416 -2.97951 -0.341317 0
M  V30 1783 H 171.969 -1.55667 -0.14057 0
M  V30 1784 H 172.704 -1.85977 -2.65675 0
M  V30 1785 H 172.489 -3.44839 -1.86625 0
M  V30 1786 H 173.979 -3.10332 -2.79435 0
M  V30 1787 N 174.416 0.165178 -1.56732 0
M  V30 1788 C 175.641 0.900253 -1.86843 0
M  V30 1789 C 176.066 1.74766 -0.695596 0
M  V30 1790 O 175.424 1.77786 0.35522 0
M  V30 1791 C 175.472 1.74777 -3.15413 0
M  V30 1792 O 174.576 2.85007 -2.98068 0
M  V30 1793 H 173.917 0.251832 -0.614391 0
M  V30 1794 H 176.447 0.161468 -2.03962 0
M  V30 1795 H 176.457 2.14646 -3.46974 0
M  V30 1796 H 175.132 1.12537 -4.00385 0
M  V30 1797 H 173.709 2.48676 -2.77875 0
M  V30 1798 N 175.894 1.51508 0.433938 0
M  V30 1799 C 177.142 1.6402 1.18075 0
M  V30 1800 C 177.463 0.360328 1.91642 0
M  V30 1801 O 176.733 -0.623945 1.85698 0
M  V30 1802 H 175.313 0.6045 0.43885 0
M  V30 1803 H 177.975 1.88452 0.497178 0
M  V30 1804 H 177.071 2.46949 1.90847 0
M  V30 1805 N 177.372 -0.689602 1.41712 0
M  V30 1806 C 178.649 -1.44457 1.31877 0
M  V30 1807 C 179.029 -2.11039 -0.0508537 0
M  V30 1808 O 178.377 -2.02138 -1.06547 0
M  V30 1809 C 178.587 -2.45913 2.47645 0
M  V30 1810 C 179.935 -3.10991 2.89084 0
M  V30 1811 O 180.959 -2.56238 2.47428 0
M  V30 1812 O 179.818 -4.10174 3.61137 0
M  V30 1813 H 176.912 -0.64362 0.519309 0
M  V30 1814 H 179.458 -0.719576 1.53689 0
M  V30 1815 H 178.23 -1.95409 3.39015 0
M  V30 1816 H 177.853 -3.25913 2.27742 0
M  V30 1817 N 178.85 -1.27639 -0.924453 0
M  V30 1818 C 180.078 -1.16989 -1.70649 0
M  V30 1819 C 180.493 0.272869 -1.86818 0
M  V30 1820 O 179.85 1.18549 -1.38753 0
M  V30 1821 C 179.901 -1.85229 -3.10439 0
M  V30 1822 O 179.622 -3.23868 -2.95028 0
M  V30 1823 C 181.123 -1.80746 -4.04779 0
M  V30 1824 H 178.343 -0.406595 -0.53378 0
M  V30 1825 H 180.887 -1.68569 -1.15778 0
M  V30 1826 H 179.042 -1.37545 -3.6216 0
M  V30 1827 H 179.456 -3.57889 -3.83426 0
M  V30 1828 H 180.93 -2.33101 -5.00368 0
M  V30 1829 H 181.407 -0.777499 -4.32263 0
M  V30 1830 H 182.013 -2.28059 -3.58984 0
M  V30 1831 N 180.328 1.1314 -1.09713 0
M  V30 1832 C 181.291 2.16831 -0.742751 0
M  V30 1833 C 182.291 1.59159 0.229129 0
M  V30 1834 O 183.481 1.74199 0.00693237 0
M  V30 1835 C 180.613 3.40756 -0.0989168 0
M  V30 1836 H 181.806 2.49695 -1.66109 0
M  V30 1837 H 179.359 1.2802 -0.896699 0
M  V30 1838 H 180.094 3.13485 0.830514 0
M  V30 1839 H 179.879 3.83888 -0.798265 0
M  V30 1840 H 181.369 4.17386 0.133524 0
M  V30 1841 N 181.806 0.884767 1.30421 0
M  V30 1842 C 183.083 0.423185 1.90967 0
M  V30 1843 C 183.463 -1.09605 1.80416 0
M  V30 1844 O 182.811 -1.93126 1.22125 0
M  V30 1845 C 183.021 0.921056 3.36627 0
M  V30 1846 C 184.369 0.955903 4.137 0
M  V30 1847 O 185.393 0.867706 3.4547 0
M  V30 1848 O 184.252 1.08614 5.35598 0
M  V30 1849 H 181.346 0.129369 0.816819 0
M  V30 1850 H 183.892 0.973653 1.3899 0
M  V30 1851 H 182.664 1.96489 3.3839 0
M  V30 1852 H 182.287 0.349741 3.96059 0
M  V30 1853 N 183.284 -1.43765 0.645699 0
M  V30 1854 C 184.512 -2.06253 0.163556 0
M  V30 1855 C 184.927 -1.48352 -1.16778 0
M  V30 1856 O 184.284 -0.611932 -1.71935 0
M  V30 1857 C 184.335 -3.61453 0.0583186 0
M  V30 1858 O 184.056 -4.172 1.33702 0
M  V30 1859 C 185.557 -4.41002 -0.450795 0
M  V30 1860 H 182.777 -0.665413 0.0864077 0
M  V30 1861 H 185.321 -1.84396 0.884222 0
M  V30 1862 H 183.476 -3.82522 -0.612865 0
M  V30 1863 H 183.89 -5.10791 1.19131 0
M  V30 1864 H 185.364 -5.49966 -0.473403 0
M  V30 1865 H 185.841 -4.13488 -1.48068 0
M  V30 1866 H 186.447 -4.24886 0.187637 0
M  V30 1867 N 184.763 -0.387143 -1.52771 0
M  V30 1868 C 186.009 0.196025 -2.0185 0
M  V30 1869 C 186.342 1.46641 -1.27319 0
M  V30 1870 O 185.617 1.90889 -0.373032 0
M  V30 1871 C 185.9 0.466136 -3.5707 0
M  V30 1872 C 185.753 -0.819385 -4.42274 0
M  V30 1873 C 187.072 1.25768 -4.21747 0
M  V30 1874 H 184.191 0.0697708 -0.73369 0
M  V30 1875 H 186.833 -0.516286 -1.82851 0
M  V30 1876 H 184.983 1.07293 -3.7339 0
M  V30 1877 H 186.655 -1.4563 -4.37709 0
M  V30 1878 H 184.898 -1.43517 -4.09372 0
M  V30 1879 H 185.569 -0.585065 -5.48891 0
M  V30 1880 H 188.045 0.744167 -4.09391 0
M  V30 1881 H 186.921 1.41541 -5.30337 0
M  V30 1882 H 187.182 2.27228 -3.79236 0
M  V30 1883 N 186.241 1.57166 -0.116904 0
M  V30 1884 C 187.518 1.86645 0.585049 0
M  V30 1885 C 187.898 1.0177 1.84949 0
M  V30 1886 O 187.246 0.0960379 2.28298 0
M  V30 1887 C 187.456 3.37736 0.879507 0
M  V30 1888 C 188.804 4.06289 1.23348 0
M  V30 1889 O 189.828 3.42743 0.969836 0
M  V30 1890 O 188.687 5.18455 1.7282 0
M  V30 1891 H 185.781 0.772593 0.295007 0
M  V30 1892 H 188.327 1.69025 -0.151249 0
M  V30 1893 H 187.099 3.91296 -0.0166136 0
M  V30 1894 H 186.722 3.6078 1.67103 0
M  V30 1895 N 187.719 -0.156864 1.56817 0
M  V30 1896 C 188.965 -0.872416 1.83076 0
M  V30 1897 C 189.298 -1.81261 0.697001 0
M  V30 1898 O 188.573 -1.92171 -0.30008 0
M  V30 1899 C 188.856 -1.65551 3.19789 0
M  V30 1900 C 188.709 -0.737467 4.43713 0
M  V30 1901 C 190.028 -2.62012 3.53606 0
M  V30 1902 H 187.147 -0.315715 0.665953 0
M  V30 1903 H 189.789 -0.138004 1.89498 0
M  V30 1904 H 187.939 -2.28159 3.14445 0
M  V30 1905 H 189.611 -0.123143 4.61136 0
M  V30 1906 H 187.854 -0.0464067 4.33775 0
M  V30 1907 H 188.525 -1.32122 5.35955 0
M  V30 1908 H 191.001 -2.09525 3.59497 0
M  V30 1909 H 189.877 -3.13861 4.50314 0
M  V30 1910 H 190.138 -3.42902 2.79053 0
M  V30 1911 N 189.197 -1.51736 -0.425897 0
M  V30 1912 C 190.16 -1.73271 -1.50032 0
M  V30 1913 C 191.16 -0.602639 -1.4908 0
M  V30 1914 O 192.35 -0.87033 -1.509 0
M  V30 1915 C 189.482 -1.79969 -2.89523 0
M  V30 1916 H 190.675 -2.69172 -1.32237 0
M  V30 1917 H 188.228 -1.41899 -0.65532 0
M  V30 1918 H 188.963 -0.859241 -3.1271 0
M  V30 1919 H 188.748 -2.62109 -2.91619 0
M  V30 1920 H 190.238 -1.9843 -3.67444 0
M  V30 1921 N 190.675 0.682077 -1.42076 0
M  V30 1922 C 192.091 0.994324 -1.24841 0
M  V30 1923 C 192.291 2.0096 -0.147389 0
M  V30 1924 O 191.347 2.47822 0.483782 0
M  V30 1925 C 192.66 1.50607 -2.60265 0
M  V30 1926 C 194.208 1.62421 -2.6756 0
M  V30 1927 C 194.683 2.16994 -4.03333 0
M  V30 1928 N 196.174 2.24337 -4.0525 0
M  V30 1929 C 196.909 2.67621 -5.07116 0
M  V30 1930 N 196.405 3.1041 -6.19368 0
M  V30 1931 N 198.198 2.67305 -4.94474 0
M  V30 1932 H 190.349 0.00973908 -2.12398 0
M  V30 1933 H 192.612 0.0668593 -0.945639 0
M  V30 1934 H 192.318 0.834583 -3.41654 0
M  V30 1935 H 192.192 2.48602 -2.83684 0
M  V30 1936 H 194.579 2.28678 -1.86521 0
M  V30 1937 H 194.66 0.629352 -2.47937 0
M  V30 1938 H 194.304 1.51349 -4.84826 0
M  V30 1939 H 194.234 3.17258 -4.20304 0
M  V30 1940 H 196.725 1.94158 -3.24209 0
M  V30 1941 H 197.038 3.42103 -6.92954 0
M  V30 1942 H 195.383 3.08286 -6.22884 0
M  V30 1943 H 198.574 2.33233 -4.05857 0
M  V30 1944 H 198.747 3.00718 -5.73997 0
M  V30 1945 N 192.153 1.28127 0.917671 0
M  V30 1946 C 193.116 1.11744 2.00115 0
M  V30 1947 C 194.116 0.0583052 1.60694 0
M  V30 1948 O 195.306 0.303755 1.71531 0
M  V30 1949 C 192.438 0.704862 3.33533 0
M  V30 1950 H 193.631 2.07966 2.16079 0
M  V30 1951 H 191.184 1.11058 1.09981 0
M  V30 1952 H 191.919 -0.258299 3.2327 0
M  V30 1953 H 191.704 1.4699 3.63505 0
M  V30 1954 H 193.194 0.612768 4.1308 0
M  V30 1955 N 193.631 -1.12557 1.10312 0
M  V30 1956 C 194.879 -1.83675 0.843091 0
M  V30 1957 C 195.2 -1.84435 -0.633131 0
M  V30 1958 O 194.47 -1.30657 -1.45964 0
M  V30 1959 H 193.05 -0.680138 0.308904 0
M  V30 1960 H 195.712 -1.36301 1.39313 0
M  V30 1961 H 194.808 -2.87908 1.2048 0
M  V30 1962 N 195.109 -0.891671 -1.2995 0
M  V30 1963 C 196.525 -0.58662 -1.48428 0
M  V30 1964 C 196.725 0.873951 -1.81561 0
M  V30 1965 O 195.781 1.65471 -1.90724 0
M  V30 1966 C 197.094 -1.50553 -2.60296 0
M  V30 1967 C 198.642 -1.50988 -2.74175 0
M  V30 1968 C 199.117 -2.41488 -3.89163 0
M  V30 1969 N 200.608 -2.39489 -3.96483 0
M  V30 1970 C 201.343 -3.06223 -4.84784 0
M  V30 1971 N 200.839 -3.82206 -5.77833 0
M  V30 1972 N 202.632 -2.95421 -4.78208 0
M  V30 1973 H 194.783 -1.83644 -1.06718 0
M  V30 1974 H 197.046 -0.786455 -0.529332 0
M  V30 1975 H 196.752 -2.54581 -2.42654 0
M  V30 1976 H 196.626 -1.22008 -3.56923 0
M  V30 1977 H 199.013 -0.47708 -2.91218 0
M  V30 1978 H 199.094 -1.83567 -1.78148 0
M  V30 1979 H 198.738 -3.44857 -3.72876 0
M  V30 1980 H 198.668 -2.06222 -4.84541 0
M  V30 1981 H 201.159 -1.84278 -3.29924 0
M  V30 1982 H 201.472 -4.302 -6.41988 0
M  V30 1983 H 199.817 -3.86313 -5.77743 0
M  V30 1984 H 203.008 -2.35581 -4.04499 0
M  V30 1985 H 203.181 -3.47704 -5.46814 0
M  V30 1986 N 196.587 1.43421 -0.653314 0
M  V30 1987 C 197.517 2.33487 0.0246656 0
M  V30 1988 C 198.498 1.49475 0.811863 0
M  V30 1989 O 199.683 1.78139 0.773322 0
M  V30 1990 C 196.813 3.32841 0.99166 0
M  V30 1991 C 195.767 4.26842 0.314568 0
M  V30 1992 C 195.093 5.16236 1.39302 0
M  V30 1993 C 196.393 5.16243 -0.793095 0
M  V30 1994 H 198.087 2.90427 -0.727481 0
M  V30 1995 H 195.633 1.39649 -0.351287 0
M  V30 1996 H 197.586 3.94747 1.47487 0
M  V30 1997 H 196.31 2.74158 1.77497 0
M  V30 1998 H 194.969 3.663 -0.148199 0
M  V30 1999 H 194.617 4.53891 2.16776 0
M  V30 2000 H 194.317 5.79948 0.945223 0
M  V30 2001 H 195.841 5.81015 1.87759 0
M  V30 2002 H 197.255 5.71958 -0.392039 0
M  V30 2003 H 195.652 5.88676 -1.16536 0
M  V30 2004 H 196.722 4.55927 -1.65103 0
M  V30 2005 N 198.065 0.39524 1.52563 0
M  V30 2006 C 199.015 -0.4541 2.23432 0
M  V30 2007 C 199.999 -1.02482 1.24042 0
M  V30 2008 O 201.191 -0.949938 1.49349 0
M  V30 2009 C 198.32 -1.57769 3.049 0
M  V30 2010 C 197.406 -1.01842 4.1169 0
M  V30 2011 N 197.797 -0.184613 5.05463 0
M  V30 2012 C 196.095 -1.29033 4.26927 0
M  V30 2013 C 196.796 0.125013 5.81566 0
M  V30 2014 N 195.772 -0.480498 5.41472 0
M  V30 2015 H 199.574 0.189413 2.93289 0
M  V30 2016 H 197.088 0.204877 1.61102 0
M  V30 2017 H 199.085 -2.19862 3.54212 0
M  V30 2018 H 197.745 -2.22397 2.36579 0
M  V30 2019 H 198.756 0.178602 5.17592 0
M  V30 2020 H 195.433 -1.93721 3.69836 0
M  V30 2021 H 196.823 0.800962 6.67109 0
M  V30 2022 N 199.544 -1.57102 0.125237 0
M  V30 2023 C 200.793 -1.94582 -0.531095 0
M  V30 2024 C 201.106 -1.01126 -1.6743 0
M  V30 2025 O 202.312 -1.28097 -2.39381 0
M  V30 2026 C 200.768 -3.45839 -0.996164 0
M  V30 2027 C 200.376 -4.47842 0.118926 0
M  V30 2028 C 202.12 -3.92227 -1.62352 0
M  V30 2029 C 200.027 -5.90284 -0.363192 0
M  V30 2030 H 198.957 -0.726391 -0.20217 0
M  V30 2031 H 201.608 -1.82339 0.206092 0
M  V30 2032 H 199.99 -3.53338 -1.78796 0
M  V30 2033 H 201.164 -4.52018 0.895358 0
M  V30 2034 H 199.479 -4.11243 0.653324 0
M  V30 2035 H 202.076 -4.96069 -1.99548 0
M  V30 2036 H 202.419 -3.32552 -2.50429 0
M  V30 2037 H 202.952 -3.87554 -0.897019 0
M  V30 2038 H 199.691 -6.53728 0.481679 0
M  V30 2039 H 199.211 -5.89515 -1.10597 0
M  V30 2040 H 200.89 -6.41752 -0.822377 0
M  V30 2041 N 201.022 0.148545 -1.56898 0
M  V30 2042 C 201.952 1.18524 -2.01182 0
M  V30 2043 C 202.933 1.4489 -0.891123 0
M  V30 2044 O 204.118 1.55836 -1.15882 0
M  V30 2045 C 201.248 2.51879 -2.39112 0
M  V30 2046 C 200.202 2.40038 -3.54353 0
M  V30 2047 C 199.528 3.78089 -3.78091 0
M  V30 2048 C 200.828 1.88577 -4.87069 0
M  V30 2049 H 202.522 0.817029 -2.88036 0
M  V30 2050 H 200.068 0.391575 -1.38574 0
M  V30 2051 H 202.021 3.24627 -2.68692 0
M  V30 2052 H 200.745 2.90532 -1.49193 0
M  V30 2053 H 199.404 1.69742 -3.24936 0
M  V30 2054 H 199.052 4.14175 -2.85426 0
M  V30 2055 H 198.752 3.71028 -4.55645 0
M  V30 2056 H 200.276 4.52387 -4.10095 0
M  V30 2057 H 201.69 2.51117 -5.15377 0
M  V30 2058 H 200.087 1.9241 -5.68417 0
M  V30 2059 H 201.157 0.84136 -4.77545 0
M  V30 2060 N 202.5 1.5196 0.417844 0
M  V30 2061 C 203.41 1.77554 1.53336 0
M  V30 2062 C 204.426 0.660655 1.6097 0
M  V30 2063 O 205.602 0.945099 1.77848 0
M  V30 2064 C 202.667 1.91291 2.89152 0
M  V30 2065 C 201.728 3.15183 2.91475 0
M  V30 2066 C 200.961 3.28256 4.20813 0
M  V30 2067 O 201.184 2.46798 5.14244 0
M  V30 2068 O 200.118 4.21356 4.29817 0
M  V30 2069 H 203.944 2.7222 1.34647 0
M  V30 2070 H 201.529 1.36698 0.602828 0
M  V30 2071 H 203.411 2.02199 3.69721 0
M  V30 2072 H 202.086 0.998129 3.07927 0
M  V30 2073 H 200.993 3.09739 2.09791 0
M  V30 2074 H 202.326 4.06414 2.77648 0
M  V30 2075 N 203.978 -0.674533 1.42435 0
M  V30 2076 C 205.224 -1.43671 1.43131 0
M  V30 2077 C 205.557 -1.94142 0.0476021 0
M  V30 2078 O 204.832 -1.70924 -0.928188 0
M  V30 2079 C 205.115 -2.63355 2.45594 0
M  V30 2080 C 204.968 -2.18514 3.93156 0
M  V30 2081 C 206.287 -3.65571 2.45043 0
M  V30 2082 H 203.406 -0.521077 0.521198 0
M  V30 2083 H 206.048 -0.766551 1.7385 0
M  V30 2084 H 204.198 -3.2053 2.19528 0
M  V30 2085 H 205.87 -1.66504 4.30202 0
M  V30 2086 H 204.113 -1.50086 4.07009 0
M  V30 2087 H 204.784 -3.04484 4.60428 0
M  V30 2088 H 207.26 -3.18113 2.68223 0
M  V30 2089 H 206.136 -4.46893 3.18713 0
M  V30 2090 H 206.397 -4.16716 1.47649 0
M  V30 2091 N 205.456 -1.28612 -0.910864 0
M  V30 2092 C 206.388 -1.08589 -2.01844 0
M  V30 2093 C 207.401 -0.0367419 -1.62759 0
M  V30 2094 O 208.59 -0.280101 -1.76289 0
M  V30 2095 C 205.69 -0.628626 -3.33019 0
M  V30 2096 C 204.863 -1.75382 -4.00699 0
M  V30 2097 C 203.922 -1.28945 -5.10156 0
M  V30 2098 O 202.948 -1.9922 -5.33198 0
M  V30 2099 N 204.15 -0.154224 -5.80295 0
M  V30 2100 H 206.915 -2.03973 -2.19579 0
M  V30 2101 H 204.476 -1.20403 -1.08234 0
M  V30 2102 H 206.468 -0.301508 -4.03575 0
M  V30 2103 H 205.038 0.232451 -3.11735 0
M  V30 2104 H 204.258 -2.25039 -3.23653 0
M  V30 2105 H 205.546 -2.50854 -4.42662 0
M  V30 2106 H 204.944 0.43194 -5.64049 0
M  V30 2107 H 203.501 0.113599 -6.51701 0
M  V30 2108 N 206.934 1.1197 -1.10907 0
M  V30 2109 C 208.35 1.35591 -0.841852 0
M  V30 2110 C 208.55 1.94233 0.536246 0
M  V30 2111 O 207.606 2.1717 1.28816 0
M  V30 2112 C 208.919 2.29284 -1.94549 0
M  V30 2113 C 210.467 2.42862 -1.97451 0
M  V30 2114 C 210.942 3.39873 -3.07002 0
M  V30 2115 N 212.433 3.47433 -3.06341 0
M  V30 2116 C 213.168 4.22421 -3.87748 0
M  V30 2117 N 212.664 5.00432 -4.79103 0
M  V30 2118 N 214.457 4.17876 -3.75946 0
M  V30 2119 H 206.608 0.722664 -1.99728 0
M  V30 2120 H 208.871 0.380635 -0.868229 0
M  V30 2121 H 208.577 1.93378 -2.93765 0
M  V30 2122 H 208.451 3.29452 -1.83688 0
M  V30 2123 H 210.838 2.78046 -0.988645 0
M  V30 2124 H 210.919 1.42566 -2.12388 0
M  V30 2125 H 210.563 3.05417 -4.05811 0
M  V30 2126 H 210.493 4.40011 -2.89306 0
M  V30 2127 H 212.984 2.91784 -2.40147 0
M  V30 2128 H 213.297 5.55002 -5.37766 0
M  V30 2129 H 211.642 4.99612 -4.83128 0
M  V30 2130 H 214.833 3.56016 -3.03924 0
M  V30 2131 H 215.006 4.76061 -4.39624 0
M  V30 2132 N 208.412 0.89855 1.29475 0
M  V30 2133 C 209.342 0.39201 2.30186 0
M  V30 2134 C 210.323 -0.532359 1.61555 0
M  V30 2135 O 211.508 -0.443331 1.89072 0
M  V30 2136 C 208.638 -0.382353 3.45189 0
M  V30 2137 C 207.592 0.451483 4.25612 0
M  V30 2138 C 206.918 -0.450307 5.328 0
M  V30 2139 C 208.218 1.70079 4.93832 0
M  V30 2140 H 209.912 1.23362 2.72804 0
M  V30 2141 H 207.458 0.594638 1.31149 0
M  V30 2142 H 209.411 -0.747451 4.14718 0
M  V30 2143 H 208.135 -1.25774 3.01411 0
M  V30 2144 H 206.794 0.798897 3.57789 0
M  V30 2145 H 206.442 -1.32379 4.85268 0
M  V30 2146 H 206.142 0.103902 5.87508 0
M  V30 2147 H 207.666 -0.811623 6.05182 0
M  V30 2148 H 209.08 1.40549 5.55805 0
M  V30 2149 H 207.477 2.19623 5.58467 0
M  V30 2150 H 208.547 2.43744 4.19186 0
M  V30 2151 N 209.89 -1.43072 0.660911 0
M  V30 2152 C 211.139 -2.00942 0.174735 0
M  V30 2153 C 211.452 -1.52797 -1.22117 0
M  V30 2154 O 212.658 -2.02991 -1.80297 0
M  V30 2155 C 211.114 -3.58948 0.261559 0
M  V30 2156 C 210.722 -4.16085 1.66064 0
M  V30 2157 C 212.466 -4.24173 -0.166617 0
M  V30 2158 C 210.373 -5.6641 1.70098 0
M  V30 2159 H 209.303 -0.751483 0.0615631 0
M  V30 2160 H 211.954 -1.63955 0.824069 0
M  V30 2161 H 210.336 -3.93372 -0.455421 0
M  V30 2162 H 211.51 -3.93147 2.40359 0
M  V30 2163 H 209.825 -3.6326 2.03546 0
M  V30 2164 H 212.422 -5.34471 -0.156433 0
M  V30 2165 H 212.765 -3.98647 -1.19943 0
M  V30 2166 H 213.298 -3.94659 0.498875 0
M  V30 2167 H 210.037 -5.96715 2.71315 0
M  V30 2168 H 209.557 -5.91382 1.00139 0
M  V30 2169 H 211.236 -6.30585 1.44816 0
M  V30 2170 N 211.368 -0.403325 -1.52352 0
M  V30 2171 C 212.784 -0.0539281 -1.59509 0
M  V30 2172 C 212.984 1.43307 -1.41652 0
M  V30 2173 O 212.04 2.19924 -1.24056 0
M  V30 2174 C 213.353 -0.543654 -2.95745 0
M  V30 2175 C 214.901 -0.501125 -3.08962 0
M  V30 2176 C 215.376 -0.967267 -4.47669 0
M  V30 2177 N 216.867 -0.923849 -4.53893 0
M  V30 2178 C 217.602 -1.25578 -5.5948 0
M  V30 2179 N 217.098 -1.65889 -6.72646 0
M  V30 2180 N 218.891 -1.17613 -5.49658 0
M  V30 2181 H 211.042 -1.37123 -1.62206 0
M  V30 2182 H 213.305 -0.56294 -0.76276 0
M  V30 2183 H 213.011 -1.58275 -3.14073 0
M  V30 2184 H 212.885 0.0498042 -3.77167 0
M  V30 2185 H 215.272 0.528909 -2.90321 0
M  V30 2186 H 215.353 -1.13056 -2.2946 0
M  V30 2187 H 214.997 -1.9956 -4.67053 0
M  V30 2188 H 214.927 -0.314698 -5.25659 0
M  V30 2189 H 217.418 -0.627403 -3.72655 0
M  V30 2190 H 217.731 -1.89543 -7.49195 0
M  V30 2191 H 216.076 -1.69787 -6.73942 0
M  V30 2192 H 219.267 -0.860115 -4.6013 0
M  V30 2193 H 219.44 -1.43812 -6.3184 0
M  V30 2194 N 212.846 1.57033 -0.133567 0
M  V30 2195 C 214.093 1.95686 0.520877 0
M  V30 2196 C 214.421 1.0177 1.6575 0
M  V30 2197 O 213.676 0.0443195 1.9565 0
M  V30 2198 C 213.975 3.40674 1.08057 0
M  V30 2199 C 213.641 4.50855 0.0637899 0
M  V30 2200 C 212.303 4.80716 -0.215757 0
M  V30 2201 C 214.655 5.17398 -0.62835 0
M  V30 2202 C 211.983 5.74433 -1.19348 0
M  V30 2203 C 214.335 6.12167 -1.5948 0
M  V30 2204 C 212.999 6.40414 -1.88218 0
M  V30 2205 H 212.269 0.716067 0.190602 0
M  V30 2206 H 214.916 1.9026 -0.217556 0
M  V30 2207 H 213.221 3.42865 1.89606 0
M  V30 2208 H 214.918 3.67902 1.59529 0
M  V30 2209 H 211.508 4.27605 0.291855 0
M  V30 2210 H 215.692 4.94472 -0.425562 0
M  V30 2211 H 210.948 5.94616 -1.42272 0
M  V30 2212 H 215.122 6.6281 -2.13671 0
M  V30 2213 H 212.749 7.12838 -2.64133 0
M  V30 2214 N 214.325 -0.140222 1.56975 0
M  V30 2215 C 215.258 -1.20266 1.93936 0
M  V30 2216 C 216.236 -1.41212 0.806099 0
M  V30 2217 O 217.42 -1.55713 1.06234 0
M  V30 2218 C 214.547 -2.56037 2.21726 0
M  V30 2219 C 213.593 -2.51646 3.44349 0
M  V30 2220 S 214.426 -1.97678 4.97678 0
M  V30 2221 C 215.582 -3.35165 5.28597 0
M  V30 2222 H 215.815 -0.887358 2.83749 0
M  V30 2223 H 213.348 -0.346119 1.50471 0
M  V30 2224 H 215.306 -3.34167 2.38416 0
M  V30 2225 H 213.967 -2.84755 1.32566 0
M  V30 2226 H 213.16 -3.51608 3.61092 0
M  V30 2227 H 212.762 -1.81628 3.26936 0
M  V30 2228 H 215.054 -4.31302 5.2248 0
M  V30 2229 H 215.997 -3.23269 6.30002 0
M  V30 2230 H 216.405 -3.32614 4.56101 0
M  V30 2231 N 215.803 -1.52179 -0.40978 0
M  V30 2232 C 217.214 -1.58377 -0.988615 0
M  V30 2233 C 217.565 -0.423879 -1.91566 0
M  V30 2234 O 216.69 0.455844 -2.11544 0
M  V30 2235 C 217.285 -2.87044 -1.79976 0
M  V30 2236 C 215.844 -2.95722 -2.32863 0
M  V30 2237 C 214.991 -2.53309 -1.12828 0
M  V30 2238 H 217.942 -1.57558 -0.190039 0
M  V30 2239 H 217.963 -2.7236 -2.65707 0
M  V30 2240 H 217.475 -3.71444 -1.12478 0
M  V30 2241 H 215.576 -2.15814 -3.03735 0
M  V30 2242 H 215.689 -3.99951 -2.63773 0
M  V30 2243 H 214.053 -2.07142 -1.48204 0
M  V30 2244 H 214.836 -3.40082 -0.46897 0
M  V30 2245 N 217.281 0.66697 -1.42791 0
M  V30 2246 C 218.228 1.7803 -1.4688 0
M  V30 2247 C 219.198 1.6299 -0.319919 0
M  V30 2248 O 220.383 1.83432 -0.525118 0
M  V30 2249 C 217.523 3.1611 -1.38451 0
M  V30 2250 C 216.636 3.42381 -2.63437 0
M  V30 2251 C 215.771 4.70232 -2.47094 0
M  V30 2252 C 214.81 4.89564 -3.67415 0
M  V30 2253 N 213.947 6.08661 -3.49966 0
M  V30 2254 H 218.787 1.7387 -2.42019 0
M  V30 2255 H 216.324 0.84868 -1.20149 0
M  V30 2256 H 218.282 3.95914 -1.31561 0
M  V30 2257 H 216.912 3.19374 -0.469033 0
M  V30 2258 H 215.964 2.56774 -2.80662 0
M  V30 2259 H 217.276 3.52557 -3.52853 0
M  V30 2260 H 216.43 5.5814 -2.37834 0
M  V30 2261 H 215.169 4.62353 -1.5518 0
M  V30 2262 H 214.174 4.00096 -3.77099 0
M  V30 2263 H 215.399 4.99282 -4.6032 0
M  V30 2264 H 213.345 6.0194 -2.60776 0
M  V30 2265 H 213.262 6.19733 -4.32975 0
M  V30 2266 H 214.53 6.99226 -3.44532 0
M  V30 2267 N 218.759 1.29093 0.90403 0
M  V30 2268 C 220.005 1.16986 1.65656 0
M  V30 2269 C 220.338 -0.278925 1.92186 0
M  V30 2270 O 219.613 -1.2019 1.5292 0
M  V30 2271 C 219.896 1.97908 3.0084 0
M  V30 2272 C 219.749 3.50903 2.81403 0
M  V30 2273 C 221.068 1.80208 4.01513 0
M  V30 2274 H 218.187 0.426346 0.601164 0
M  V30 2275 H 220.829 1.58518 1.04747 0
M  V30 2276 H 218.979 1.62616 3.52829 0
M  V30 2277 H 220.651 3.96153 2.36348 0
M  V30 2278 H 218.894 3.76045 2.1627 0
M  V30 2279 H 219.565 4.02791 3.77443 0
M  V30 2280 H 222.041 2.11025 3.58619 0
M  V30 2281 H 220.917 2.39184 4.94047 0
M  V30 2282 H 221.178 0.756119 4.35586 0
M  V30 2283 N 220.237 -1.11381 1.11499 0
M  V30 2284 C 221.483 -1.83403 0.865512 0
M  V30 2285 C 221.816 -1.84459 -0.607329 0
M  V30 2286 O 221.091 -1.29811 -1.44842 0
M  V30 2287 C 221.374 -3.30552 1.42855 0
M  V30 2288 C 221.227 -3.37886 2.96906 0
M  V30 2289 C 222.546 -4.26643 1.08 0
M  V30 2290 H 219.665 -0.665879 0.31587 0
M  V30 2291 H 222.307 -1.30601 1.37998 0
M  V30 2292 H 220.457 -3.75648 0.990985 0
M  V30 2293 H 222.129 -3.01343 3.49271 0
M  V30 2294 H 220.372 -2.78088 3.32941 0
M  V30 2295 H 221.043 -4.41458 3.31389 0
M  V30 2296 H 223.519 -3.89729 1.45775 0
M  V30 2297 H 222.395 -5.27986 1.50072 0
M  V30 2298 H 222.656 -4.42099 -0.00915037 0
M  V30 2299 N 221.715 -0.905404 -1.28997 0
M  V30 2300 C 222.964 -0.530191 -1.94607 0
M  V30 2301 C 223.277 0.929185 -1.72121 0
M  V30 2302 O 224.483 1.41218 -2.31883 0
M  V30 2303 C 222.939 -0.897333 -3.48534 0
M  V30 2304 C 222.547 -2.37587 -3.79811 0
M  V30 2305 C 224.291 -0.592304 -4.20347 0
M  V30 2306 C 222.198 -2.68357 -5.27009 0
M  V30 2307 H 221.128 -0.194558 -0.728466 0
M  V30 2308 H 223.779 -1.10318 -1.46636 0
M  V30 2309 H 222.161 -0.253214 -3.9519 0
M  V30 2310 H 223.335 -3.06602 -3.43994 0
M  V30 2311 H 221.65 -2.6505 -3.2115 0
M  V30 2312 H 224.247 -0.798975 -5.28697 0
M  V30 2313 H 224.59 0.469474 -4.13644 0
M  V30 2314 H 225.123 -1.19452 -3.79442 0
M  V30 2315 H 221.862 -3.73355 -5.38782 0
M  V30 2316 H 221.382 -2.03971 -5.64053 0
M  V30 2317 H 223.061 -2.54922 -5.94663 0
M  V30 2318 N 223.193 1.4272 -0.668489 0
M  V30 2319 C 224.433 2.03497 -0.19194 0
M  V30 2320 C 224.797 1.51684 1.17712 0
M  V30 2321 O 225.998 2.04205 1.74796 0
M  V30 2322 C 224.269 3.56734 -0.218032 0
M  V30 2323 S 225.828 4.38395 0.188438 0
M  V30 2324 H 222.646 0.706542 -0.0794959 0
M  V30 2325 H 225.248 1.74563 -0.880235 0
M  V30 2326 H 223.952 3.91943 -1.2169 0
M  V30 2327 H 223.483 3.90333 0.490303 0
M  V30 2328 H 225.498 4.75345 1.42345 0
M  V30 2329 N 224.671 0.411399 1.52136 0
M  V30 2330 C 225.601 -0.404015 2.29978 0
M  V30 2331 C 226.582 -1.04412 1.34284 0
M  V30 2332 O 227.767 -1.0527 1.63192 0
M  V30 2333 C 224.897 -1.5197 3.12286 0
M  V30 2334 C 223.851 -1.00448 4.16046 0
M  V30 2335 C 223.177 -2.21393 4.86712 0
M  V30 2336 C 224.477 -0.0569336 5.22269 0
M  V30 2337 H 226.171 0.245529 2.98392 0
M  V30 2338 H 223.717 0.119525 1.43503 0
M  V30 2339 H 225.67 -2.09715 3.6551 0
M  V30 2340 H 224.394 -2.19716 2.41646 0
M  V30 2341 H 223.053 -0.449421 3.63835 0
M  V30 2342 H 222.701 -2.87699 4.12599 0
M  V30 2343 H 222.401 -1.87571 5.56858 0
M  V30 2344 H 223.925 -2.7974 5.4275 0
M  V30 2345 H 225.339 -0.54325 5.7072 0
M  V30 2346 H 223.736 0.192594 5.99791 0
M  V30 2347 H 224.806 0.887663 4.76706 0
M  V30 2348 N 226.149 -1.5696 0.141893 0
M  V30 2349 C 227.395 -1.9625 -0.511248 0
M  V30 2350 C 227.728 -1.02654 -1.64851 0
M  V30 2351 O 227.003 -0.0679676 -1.94381 0
M  V30 2352 C 227.286 -3.45285 -1.02227 0
M  V30 2353 C 227.139 -4.49658 0.113138 0
M  V30 2354 C 228.458 -3.96698 -1.90574 0
M  V30 2355 H 225.577 -0.713567 -0.184367 0
M  V30 2356 H 228.219 -1.88698 0.222087 0
M  V30 2357 H 226.369 -3.51852 -1.64719 0
M  V30 2358 H 228.041 -4.55174 0.749302 0
M  V30 2359 H 226.284 -4.26857 0.773026 0
M  V30 2360 H 226.955 -5.51258 -0.286053 0
M  V30 2361 H 229.431 -3.92578 -1.37918 0
M  V30 2362 H 228.307 -5.01453 -2.2324 0
M  V30 2363 H 228.568 -3.3875 -2.84079 0
M  V30 2364 N 227.627 0.131896 -1.57047 0
M  V30 2365 C 228.575 1.18146 -2.0036 0
M  V30 2366 C 229.569 1.43614 -0.898406 0
M  V30 2367 O 230.775 1.43729 -1.08361 0
M  V30 2368 H 227.15 0.398042 -0.638018 0
M  V30 2369 H 229.121 0.789564 -2.87765 0
M  V30 2370 C 227.87 2.50341 -2.41298 0
M  V30 2371 H 227.193 2.31578 -3.25902 0
M  V30 2372 H 228.633 3.22371 -2.75414 0
M  V30 2373 C 227.092 3.11984 -1.27153 0
M  V30 2374 O 227.622 3.97484 -0.580459 0
M  V30 2375 N 225.828 2.71662 -1.03189 0
M  V30 2376 H 225.375 2.02231 -1.59564 0
M  V30 2377 H 225.333 3.13238 -0.270077 0
M  V30 2378 N 229.106 1.52395 0.401703 0
M  V30 2379 C 230.354 1.66488 1.14569 0
M  V30 2380 C 230.675 0.400897 1.90835 0
M  V30 2381 O 229.945 -0.584415 1.8698 0
M  V30 2382 H 228.525 0.613672 0.425929 0
M  V30 2383 H 231.187 1.89464 0.457093 0
M  V30 2384 H 230.283 2.50942 1.85566 0
M  V30 2385 N 230.584 -0.659388 1.43143 0
M  V30 2386 C 231.83 -1.41984 1.45644 0
M  V30 2387 C 232.185 -1.92245 0.0771718 0
M  V30 2388 O 231.478 -1.68976 -0.903205 0
M  V30 2389 C 231.672 -2.62206 2.42864 0
M  V30 2390 C 231.501 -2.23711 3.90107 0
M  V30 2391 C 230.271 -2.12332 4.58523 0
M  V30 2392 C 232.469 -1.84384 4.80112 0
M  V30 2393 N 230.451 -1.67102 5.9072 0
M  V30 2394 C 231.822 -1.5019 6.01534 0
M  V30 2395 C 233.877 -1.71512 4.67427 0
M  V30 2396 C 232.58 -1.04414 7.11681 0
M  V30 2397 C 234.606 -1.27142 5.77572 0
M  V30 2398 C 233.968 -0.938808 6.98116 0
M  V30 2399 H 230.067 -0.515448 0.588079 0
M  V30 2400 H 232.651 -0.759409 1.79279 0
M  V30 2401 H 230.822 -3.25917 2.11265 0
M  V30 2402 H 232.554 -3.28877 2.35843 0
M  V30 2403 H 229.309 -2.31893 4.12944 0
M  V30 2404 H 229.733 -1.46866 6.60878 0
M  V30 2405 H 234.375 -1.95868 3.74694 0
M  V30 2406 H 232.093 -0.788061 8.04248 0
M  V30 2407 H 235.679 -1.17681 5.69774 0
M  V30 2408 H 234.559 -0.6007 7.81896 0
M  V30 2409 N 232.062 -1.29571 -0.897171 0
M  V30 2410 C 233.025 -1.14913 -1.98312 0
M  V30 2411 C 234.025 -0.0838629 -1.60581 0
M  V30 2412 O 235.215 -0.331006 -1.71026 0
M  V30 2413 C 232.347 -0.757835 -3.3237 0
M  V30 2414 H 233.54 -2.11377 -2.12743 0
M  V30 2415 H 231.093 -1.12793 -1.08201 0
M  V30 2416 H 231.828 0.206837 -3.2364 0
M  V30 2417 H 231.613 -1.52755 -3.61121 0
M  V30 2418 H 233.103 -0.678408 -4.12053 0
M  V30 2419 N 233.54 1.10788 -1.12088 0
M  V30 2420 C 234.503 2.15207 -0.788577 0
M  V30 2421 C 235.503 1.59609 0.195317 0
M  V30 2422 O 236.693 1.74174 -0.0300193 0
M  V30 2423 C 233.825 3.4047 -0.171174 0
M  V30 2424 H 235.018 2.46116 -1.71368 0
M  V30 2425 H 232.571 1.26089 -0.923652 0
M  V30 2426 H 233.306 3.15176 0.763832 0
M  V30 2427 H 233.091 3.82109 -0.879514 0
M  V30 2428 H 234.581 4.17576 0.04496 0
M  V30 2429 N 235.018 0.912232 1.28515 0
M  V30 2430 C 236.266 0.543523 1.94654 0
M  V30 2431 C 236.587 -0.9155 1.72173 0
M  V30 2432 O 235.857 -1.64708 1.06058 0
M  V30 2433 H 234.437 0.198017 0.720277 0
M  V30 2434 H 237.099 1.16126 1.56527 0
M  V30 2435 H 236.195 0.736684 3.03281 0
M  V30 2436 N 236.496 -1.42363 0.676048 0
M  V30 2437 C 237.744 -2.01123 0.198437 0
M  V30 2438 C 238.065 -1.53731 -1.19966 0
M  V30 2439 O 237.335 -0.759518 -1.80577 0
M  V30 2440 H 235.915 -0.743678 0.0703721 0
M  V30 2441 H 238.577 -1.74263 0.872837 0
M  V30 2442 H 237.673 -3.11454 0.200686 0
M  V30 2443 N 237.974 -0.419461 -1.51915 0
M  V30 2444 C 239.222 0.152637 -2.01523 0
M  V30 2445 C 239.543 1.44762 -1.30649 0
M  V30 2446 O 238.813 1.90997 -0.435535 0
M  V30 2447 H 237.393 0.0593966 -0.744635 0
M  V30 2448 H 240.055 -0.558073 -1.86739 0
M  V30 2449 H 239.151 0.341369 -3.10227 0
M  V30 2450 N 239.452 1.56882 -0.150215 0
M  V30 2451 C 240.402 2.13501 0.800071 0
M  V30 2452 C 241.386 1.06368 1.20726 0
M  V30 2453 O 242.578 1.32538 1.17314 0
M  V30 2454 C 239.707 2.76271 2.03787 0
M  V30 2455 C 238.793 3.90533 1.65364 0
M  V30 2456 N 239.184 4.96259 0.977794 0
M  V30 2457 C 237.482 4.013 1.94613 0
M  V30 2458 C 238.183 5.76286 0.791794 0
M  V30 2459 N 237.159 5.27163 1.32666 0
M  V30 2460 H 240.961 2.92615 0.274517 0
M  V30 2461 H 238.475 1.62319 0.0512144 0
M  V30 2462 H 240.472 3.15197 2.72867 0
M  V30 2463 H 239.132 1.98631 2.56857 0
M  V30 2464 H 240.143 5.13953 0.638193 0
M  V30 2465 H 236.82 3.3474 2.4951 0
M  V30 2466 H 238.21 6.71401 0.258894 0
M  V30 2467 N 240.93 -0.123565 1.57115 0
M  V30 2468 C 242.155 -0.850398 1.89164 0
M  V30 2469 C 242.58 -1.7286 0.741688 0
M  V30 2470 O 241.938 -1.78665 -0.307958 0
M  V30 2471 C 241.986 -1.66353 3.19936 0
M  V30 2472 O 241.09 -2.77004 3.0552 0
M  V30 2473 H 240.431 -0.235454 0.620852 0
M  V30 2474 H 242.961 -0.107335 2.04318 0
M  V30 2475 H 242.971 -2.05372 3.52543 0
M  V30 2476 H 241.646 -1.01881 4.03228 0
M  V30 2477 H 240.223 -2.41221 2.84371 0
M  V30 2478 N 242.408 -1.52605 -0.393616 0
M  V30 2479 C 243.338 -1.80022 -1.48709 0
M  V30 2480 C 244.319 -0.651995 -1.57108 0
M  V30 2481 O 245.504 -0.89913 -1.72132 0
M  V30 2482 C 242.634 -1.96492 -2.86371 0
M  V30 2483 C 241.588 -3.12161 -2.92813 0
M  V30 2484 C 240.914 -3.13877 -4.3288 0
M  V30 2485 C 242.214 -4.51322 -2.6288 0
M  V30 2486 H 243.908 -2.71589 -1.26015 0
M  V30 2487 H 241.454 -1.30684 -0.604778 0
M  V30 2488 H 243.407 -2.14255 -3.62867 0
M  V30 2489 H 242.131 -1.01611 -3.10391 0
M  V30 2490 H 240.79 -2.94173 -2.18764 0
M  V30 2491 H 240.438 -2.16687 -4.53933 0
M  V30 2492 H 240.138 -3.91576 -4.38112 0
M  V30 2493 H 241.662 -3.33789 -5.1129 0
M  V30 2494 H 243.076 -4.69435 -3.29096 0
M  V30 2495 H 241.473 -5.31053 -2.79468 0
M  V30 2496 H 242.543 -4.58353 -1.58242 0
M  V30 2497 N 243.887 0.651787 -1.4349 0
M  V30 2498 C 244.837 1.75783 -1.45205 0
M  V30 2499 C 245.821 1.57679 -0.320328 0
M  V30 2500 O 247.013 1.67767 -0.564211 0
M  V30 2501 C 244.142 3.14377 -1.3792 0
M  V30 2502 C 243.228 3.38023 -2.56127 0
M  V30 2503 N 243.619 3.32135 -3.81471 0
M  V30 2504 C 241.917 3.68747 -2.50882 0
M  V30 2505 C 242.618 3.55902 -4.60118 0
M  V30 2506 N 241.594 3.77783 -3.90872 0
M  V30 2507 H 245.396 1.69657 -2.39987 0
M  V30 2508 H 242.91 0.853508 -1.38163 0
M  V30 2509 H 244.907 3.93666 -1.37231 0
M  V30 2510 H 243.567 3.21683 -0.441596 0
M  V30 2511 H 244.578 3.11515 -4.13738 0
M  V30 2512 H 241.255 3.8316 -1.65816 0
M  V30 2513 H 242.645 3.57116 -5.69138 0
M  V30 2514 N 245.365 1.30045 0.890287 0
M  V30 2515 C 246.611 1.18737 1.64406 0
M  V30 2516 C 246.944 -0.258525 1.92472 0
M  V30 2517 O 246.219 -1.18562 1.54186 0
M  V30 2518 C 246.502 2.01087 2.98724 0
M  V30 2519 C 246.355 3.53867 2.77665 0
M  V30 2520 C 247.674 1.84457 3.9958 0
M  V30 2521 H 244.793 0.432698 0.596608 0
M  V30 2522 H 247.435 1.5962 1.0306 0
M  V30 2523 H 245.585 1.66349 3.51084 0
M  V30 2524 H 247.257 3.98637 2.32133 0
M  V30 2525 H 245.5 3.78318 2.12269 0
M  V30 2526 H 246.171 4.06772 3.7315 0
M  V30 2527 H 248.647 2.14817 3.56361 0
M  V30 2528 H 247.523 2.44411 4.91482 0
M  V30 2529 H 247.784 0.802276 4.3476 0
M  V30 2530 N 246.843 -1.10192 1.12674 0
M  V30 2531 C 248.089 -1.82475 0.884915 0
M  V30 2532 C 248.422 -1.85093 -0.58773 0
M  V30 2533 O 247.697 -1.3134 -1.43457 0
M  V30 2534 C 247.98 -3.29018 1.46353 0
M  V30 2535 C 247.833 -3.34718 3.00473 0
M  V30 2536 C 249.152 -4.25473 1.12519 0
M  V30 2537 H 246.271 -0.662492 0.322915 0
M  V30 2538 H 248.913 -1.2913 1.39375 0
M  V30 2539 H 247.063 -3.74576 1.03077 0
M  V30 2540 H 248.735 -2.97622 3.52447 0
M  V30 2541 H 246.978 -2.74541 3.35872 0
M  V30 2542 H 247.649 -4.37918 3.36053 0
M  V30 2543 H 250.125 -3.88161 1.499 0
M  V30 2544 H 249.001 -5.26365 1.55663 0
M  V30 2545 H 249.262 -4.42084 0.0377407 0
M  V30 2546 N 248.321 -0.919034 -1.28029 0
M  V30 2547 C 249.561 -0.562107 -1.96519 0
M  V30 2548 C 249.925 0.878784 -1.70708 0
M  V30 2549 O 251.126 1.34355 -2.32813 0
M  V30 2550 C 249.397 -0.868953 -3.46676 0
M  V30 2551 S 250.956 -0.619237 -4.34409 0
M  V30 2552 H 247.774 -0.2078 -0.679956 0
M  V30 2553 H 250.376 -1.18562 -1.55446 0
M  V30 2554 H 249.08 -1.91547 -3.62957 0
M  V30 2555 H 248.611 -0.234301 -3.92702 0
M  V30 2556 H 250.626 0.526995 -4.93394 0
M  V30 2557 N 249.799 1.42003 -0.683588 0
M  V30 2558 C 251.076 1.95112 -0.138075 0
M  V30 2559 C 251.456 1.62359 1.34918 0
M  V30 2560 O 250.804 0.924311 2.08971 0
M  V30 2561 C 251.014 3.46505 -0.416581 0
M  V30 2562 C 252.362 4.23254 -0.337834 0
M  V30 2563 O 253.386 3.54468 -0.35082 0
M  V30 2564 O 252.245 5.45743 -0.287596 0
M  V30 2565 H 249.339 0.826961 -0.00797996 0
M  V30 2566 H 251.885 1.51784 -0.758924 0
M  V30 2567 H 250.657 3.63582 -1.4465 0
M  V30 2568 H 250.28 3.969 0.235839 0
M  V30 2569 N 251.277 0.427512 1.51691 0
M  V30 2570 C 252.207 -0.3796 2.30394 0
M  V30 2571 C 253.188 -1.02982 1.35384 0
M  V30 2572 O 254.373 -1.03534 1.643 0
M  V30 2573 C 251.503 -1.48649 3.1388 0
M  V30 2574 C 250.457 -0.960294 4.17088 0
M  V30 2575 C 249.783 -2.16219 4.89033 0
M  V30 2576 C 251.083 -0.00153679 5.223 0
M  V30 2577 H 252.777 0.277164 2.98114 0
M  V30 2578 H 250.323 0.134739 1.43368 0
M  V30 2579 H 252.276 -2.05826 3.67714 0
M  V30 2580 H 251 -2.1714 2.43962 0
M  V30 2581 H 249.659 -0.410806 3.64291 0
M  V30 2582 H 249.307 -2.83307 4.15628 0
M  V30 2583 H 249.007 -1.81654 5.58816 0
M  V30 2584 H 250.531 -2.73968 5.45687 0
M  V30 2585 H 251.945 -0.482687 5.71264 0
M  V30 2586 H 250.342 0.256199 5.99553 0
M  V30 2587 H 251.412 0.938174 4.75738 0
M  V30 2588 N 252.755 -1.56801 0.158532 0
M  V30 2589 C 253.983 -2.00859 -0.496303 0
M  V30 2590 C 254.398 -1.03871 -1.57659 0
M  V30 2591 O 253.755 -0.0375165 -1.82461 0
M  V30 2592 C 253.806 -3.4479 -1.08638 0
M  V30 2593 O 253.527 -4.38072 -0.0492322 0
M  V30 2594 C 255.028 -4.04185 -1.8207 0
M  V30 2595 H 252.248 -0.65864 -0.128199 0
M  V30 2596 H 254.792 -2.02885 0.256506 0
M  V30 2597 H 252.947 -3.43579 -1.78975 0
M  V30 2598 H 253.361 -5.2227 -0.483102 0
M  V30 2599 H 254.835 -5.06857 -2.18633 0
M  V30 2600 H 255.312 -3.45549 -2.71095 0
M  V30 2601 H 255.918 -4.0906 -1.16405 0
M  V30 2602 N 254.233 0.115231 -1.57178 0
M  V30 2603 C 255.163 1.1423 -2.03651 0
M  V30 2604 C 256.144 1.42967 -0.921655 0
M  V30 2605 O 257.329 1.53343 -1.19162 0
M  V30 2606 C 254.459 2.4675 -2.44401 0
M  V30 2607 C 253.413 2.32467 -3.59365 0
M  V30 2608 C 252.739 3.69984 -3.86026 0
M  V30 2609 C 254.039 1.78203 -4.90959 0
M  V30 2610 H 255.733 0.755749 -2.89705 0
M  V30 2611 H 253.279 0.362093 -1.39373 0
M  V30 2612 H 255.232 3.18854 -2.75517 0
M  V30 2613 H 253.956 2.87302 -1.55322 0
M  V30 2614 H 252.615 1.62811 -3.28463 0
M  V30 2615 H 252.263 4.08028 -2.94147 0
M  V30 2616 H 251.963 3.61279 -4.63412 0
M  V30 2617 H 253.487 4.43587 -4.19599 0
M  V30 2618 H 254.901 2.40128 -5.20587 0
M  V30 2619 H 253.298 1.8031 -5.72371 0
M  V30 2620 H 254.368 0.739876 -4.79222 0
M  V30 2621 N 255.711 1.52812 0.385517 0
M  V30 2622 C 256.674 1.77188 1.45386 0
M  V30 2623 C 257.674 0.641953 1.4743 0
M  V30 2624 O 258.864 0.910033 1.4854 0
M  V30 2625 C 255.996 1.87582 2.8465 0
M  V30 2626 H 257.189 2.72583 1.25054 0
M  V30 2627 H 254.742 1.43586 0.617467 0
M  V30 2628 H 255.477 0.941849 3.10322 0
M  V30 2629 H 255.262 2.69748 2.84567 0
M  V30 2630 H 256.752 2.08102 3.62054 0
M  V30 2631 N 257.189 -0.644168 1.43834 0
M  V30 2632 C 258.414 -1.43642 1.49605 0
M  V30 2633 C 258.839 -1.8773 0.117913 0
M  V30 2634 O 258.197 -1.57938 -0.890239 0
M  V30 2635 C 258.245 -2.6416 2.45463 0
M  V30 2636 O 257.349 -3.63538 1.94714 0
M  V30 2637 H 256.69 -0.430329 0.50568 0
M  V30 2638 H 259.22 -0.787448 1.8884 0
M  V30 2639 H 259.23 -3.11864 2.63068 0
M  V30 2640 H 257.905 -2.31414 3.45572 0
M  V30 2641 H 256.482 -3.2273 1.86814 0
M  V30 2642 N 258.668 -1.30515 -0.883378 0
M  V30 2643 C 260.084 -1.08881 -1.16692 0
M  V30 2644 C 260.284 0.149409 -2.00945 0
M  V30 2645 O 259.34 0.84257 -2.38027 0
M  V30 2646 C 260.653 -2.35319 -1.87204 0
M  V30 2647 C 262.201 -2.40799 -1.99962 0
M  V30 2648 C 262.676 -3.67083 -2.73887 0
M  V30 2649 N 264.167 -3.679 -2.81432 0
M  V30 2650 C 264.902 -4.62303 -3.3921 0
M  V30 2651 N 264.398 -5.67052 -3.98025 0
M  V30 2652 N 266.191 -4.49845 -3.3704 0
M  V30 2653 H 258.342 -2.09951 -0.321633 0
M  V30 2654 H 260.605 -0.92556 -0.205043 0
M  V30 2655 H 260.311 -3.25689 -1.3274 0
M  V30 2656 H 260.185 -2.44089 -2.87577 0
M  V30 2657 H 262.572 -1.50907 -2.53597 0
M  V30 2658 H 262.653 -2.36003 -0.98673 0
M  V30 2659 H 262.297 -4.57334 -2.20925 0
M  V30 2660 H 262.227 -3.69141 -3.75556 0
M  V30 2661 H 264.718 -2.92171 -2.39676 0
M  V30 2662 H 265.031 -6.35184 -4.40183 0
M  V30 2663 H 263.376 -5.70842 -3.96439 0
M  V30 2664 H 266.567 -3.67194 -2.90321 0
M  V30 2665 H 266.74 -5.23597 -3.81772 0
M  V30 2666 N 260.146 1.09593 -1.13257 0
M  V30 2667 C 261.056 2.19739 -0.821691 0
M  V30 2668 C 262.072 1.72926 0.19302 0
M  V30 2669 O 263.248 2.01385 0.0244895 0
M  V30 2670 C 260.313 3.45482 -0.290333 0
M  V30 2671 C 259.374 4.06985 -1.36607 0
M  V30 2672 C 258.607 5.26726 -0.859975 0
M  V30 2673 O 258.83 5.69594 0.303082 0
M  V30 2674 O 257.764 5.7931 -1.63351 0
M  V30 2675 H 261.59 2.48781 -1.74189 0
M  V30 2676 H 259.175 1.18496 -0.909894 0
M  V30 2677 H 261.057 4.214 0.000674022 0
M  V30 2678 H 259.732 3.18047 0.602306 0
M  V30 2679 H 258.639 3.32712 -1.71037 0
M  V30 2680 H 259.972 4.38643 -2.23279 0
M  V30 2681 N 261.624 0.925811 1.2754 0
M  V30 2682 C 262.854 0.580666 1.98272 0
M  V30 2683 C 263.262 -0.845207 1.69272 0
M  V30 2684 O 262.605 -1.57306 0.948707 0
M  V30 2685 C 262.667 0.724418 3.52126 0
M  V30 2686 C 262.331 2.12206 4.04744 0
M  V30 2687 C 263.328 3.09604 4.17662 0
M  V30 2688 C 261.013 2.4385 4.39138 0
M  V30 2689 C 263.007 4.36755 4.64246 0
M  V30 2690 C 260.694 3.71237 4.85414 0
M  V30 2691 C 261.692 4.67503 4.97926 0
M  V30 2692 O 261.38 5.92624 5.43187 0
M  V30 2693 H 261.112 0.218987 0.639547 0
M  V30 2694 H 263.666 1.24452 1.63404 0
M  V30 2695 H 261.896 0.0034663 3.867 0
M  V30 2696 H 263.585 0.384607 4.04074 0
M  V30 2697 H 264.351 2.86478 3.91351 0
M  V30 2698 H 260.23 1.69665 4.28643 0
M  V30 2699 H 263.774 5.11898 4.73927 0
M  V30 2700 H 259.671 3.94182 5.11166 0
M  V30 2701 H 260.439 5.95585 5.61445 0
M  V30 2702 N 263.102 -1.41638 0.69111 0
M  V30 2703 C 264.065 -2.29178 0.0319786 0
M  V30 2704 C 265.065 -1.44153 -0.712496 0
M  V30 2705 O 266.255 -1.65354 -0.548053 0
M  V30 2706 C 263.387 -3.26952 -0.965161 0
M  V30 2707 H 264.58 -2.88959 0.802681 0
M  V30 2708 H 262.133 -1.4955 0.454356 0
M  V30 2709 H 262.868 -2.72142 -1.76378 0
M  V30 2710 H 262.653 -3.89685 -0.434522 0
M  V30 2711 H 264.143 -3.92561 -1.42428 0
M  V30 2712 N 264.58 -0.43555 -1.51462 0
M  V30 2713 C 265.996 -0.0877501 -1.59359 0
M  V30 2714 C 266.196 1.4027 -1.4466 0
M  V30 2715 O 265.252 2.17243 -1.28693 0
M  V30 2716 C 266.565 -0.606264 -2.94525 0
M  V30 2717 C 268.113 -0.566548 -3.0783 0
M  V30 2718 C 268.588 -1.06201 -4.45517 0
M  V30 2719 N 270.079 -1.01992 -4.51832 0
M  V30 2720 C 270.814 -1.37417 -5.5669 0
M  V30 2721 N 270.31 -1.80119 -6.68976 0
M  V30 2722 N 272.103 -1.29245 -5.47039 0
M  V30 2723 H 264.254 -1.40533 -1.59261 0
M  V30 2724 H 266.517 -0.578992 -0.750648 0
M  V30 2725 H 266.223 -1.64901 -3.10645 0
M  V30 2726 H 266.097 -0.0302097 -3.77188 0
M  V30 2727 H 268.484 0.467208 -2.91378 0
M  V30 2728 H 268.565 -1.17898 -2.2701 0
M  V30 2729 H 268.209 -2.09422 -4.62715 0
M  V30 2730 H 268.139 -0.426127 -5.24873 0
M  V30 2731 H 270.63 -0.706308 -3.71241 0
M  V30 2732 H 270.943 -2.05392 -7.45006 0
M  V30 2733 H 269.288 -1.84044 -6.70189 0
M  V30 2734 H 272.479 -0.957522 -4.58202 0
M  V30 2735 H 272.652 -1.57182 -6.28648 0
M  V30 2736 N 266.058 1.56714 -0.166846 0
M  V30 2737 C 267.305 1.96747 0.479252 0
M  V30 2738 C 267.633 1.05263 1.63554 0
M  V30 2739 O 266.888 0.0858098 1.95512 0
M  V30 2740 C 267.187 3.42889 1.00806 0
M  V30 2741 C 266.853 4.50889 -0.0318574 0
M  V30 2742 C 265.515 4.8015 -0.317675 0
M  V30 2743 C 267.867 5.15949 -0.737956 0
M  V30 2744 C 265.195 5.71772 -1.31506 0
M  V30 2745 C 267.547 6.08647 -1.72429 0
M  V30 2746 C 266.211 6.36277 -2.0176 0
M  V30 2747 H 265.481 0.719949 0.175371 0
M  V30 2748 H 268.128 1.89756 -0.257864 0
M  V30 2749 H 266.433 3.4681 1.82291 0
M  V30 2750 H 268.13 3.71203 1.51689 0
M  V30 2751 H 264.72 4.28128 0.201088 0
M  V30 2752 H 268.904 4.93458 -0.530351 0
M  V30 2753 H 264.16 5.91465 -1.54853 0
M  V30 2754 H 268.334 6.58129 -2.27682 0
M  V30 2755 H 265.961 7.07075 -2.79194 0
M  V30 2756 N 267.536 -0.106894 1.57237 0
M  V30 2757 C 268.483 -1.13049 2.01217 0
M  V30 2758 C 269.453 -1.40471 0.886403 0
M  V30 2759 O 270.638 -1.52133 1.15153 0
M  V30 2760 C 267.778 -2.4487 2.43172 0
M  V30 2761 C 266.891 -2.24281 3.69218 0
M  V30 2762 C 266.026 -3.49417 4.00101 0
M  V30 2763 C 265.065 -3.24038 5.19294 0
M  V30 2764 N 264.202 -4.41409 5.45988 0
M  V30 2765 H 269.042 -0.748456 2.88448 0
M  V30 2766 H 266.579 -0.358054 1.42676 0
M  V30 2767 H 268.537 -3.21786 2.65537 0
M  V30 2768 H 267.167 -2.80944 1.58967 0
M  V30 2769 H 266.219 -1.38224 3.54398 0
M  V30 2770 H 267.531 -2.01512 4.56283 0
M  V30 2771 H 266.685 -4.34746 4.2318 0
M  V30 2772 H 265.424 -3.75229 3.11535 0
M  V30 2773 H 264.429 -2.37102 4.96047 0
M  V30 2774 H 265.654 -2.99584 6.09447 0
M  V30 2775 H 263.6 -4.67319 4.60379 0
M  V30 2776 H 263.517 -4.21788 6.274 0
M  V30 2777 H 264.785 -5.27836 5.73593 0
M  V30 2778 N 269.014 -1.53014 -0.377408 0
M  V30 2779 C 269.946 -1.74884 -1.48149 0
M  V30 2780 C 270.959 -0.629433 -1.5014 0
M  V30 2781 O 272.148 -0.905416 -1.53833 0
M  V30 2782 C 269.248 -1.80299 -2.86959 0
M  V30 2783 C 268.421 -3.09776 -3.08801 0
M  V30 2784 C 267.48 -3.06586 -4.27658 0
M  V30 2785 O 266.506 -3.80419 -4.23403 0
M  V30 2786 N 267.708 -2.26578 -5.34455 0
M  V30 2787 H 270.473 -2.70147 -1.29771 0
M  V30 2788 H 268.034 -1.51646 -0.56703 0
M  V30 2789 H 270.026 -1.75657 -3.64591 0
M  V30 2790 H 268.596 -0.92372 -2.98641 0
M  V30 2791 H 267.816 -3.27815 -2.18931 0
M  V30 2792 H 269.104 -3.95366 -3.20255 0
M  V30 2793 H 268.502 -1.66081 -5.40771 0
M  V30 2794 H 267.059 -2.27766 -6.10709 0
M  V30 2795 N 270.492 0.636531 -1.44174 0
M  V30 2796 C 271.72 1.42353 -1.50144 0
M  V30 2797 C 272.135 1.88389 -0.124575 0
M  V30 2798 O 271.492 1.6051 0.868489 0
M  V30 2799 C 271.543 2.64744 -2.46156 0
M  V30 2800 O 271.264 2.20629 -3.7849 0
M  V30 2801 C 272.765 3.57929 -2.61537 0
M  V30 2802 H 269.985 0.436752 -0.5094 0
M  V30 2803 H 272.529 0.778933 -1.89084 0
M  V30 2804 H 270.684 3.25307 -2.10366 0
M  V30 2805 H 271.098 2.99938 -4.30276 0
M  V30 2806 H 272.572 4.40428 -3.32757 0
M  V30 2807 H 273.049 4.06382 -1.66585 0
M  V30 2808 H 273.655 3.03238 -2.98206 0
M  V30 2809 N 271.97 1.30982 0.876444 0
M  V30 2810 C 273.247 1.10942 1.61094 0
M  V30 2811 C 273.627 -0.338223 2.08373 0
M  V30 2812 O 272.975 -1.33122 1.85717 0
M  V30 2813 C 273.185 2.11789 2.77392 0
M  V30 2814 C 274.533 2.43965 3.47514 0
M  V30 2815 O 275.557 2.10166 2.87591 0
M  V30 2816 O 274.416 3.01817 4.55597 0
M  V30 2817 H 271.51 0.42667 0.708436 0
M  V30 2818 H 274.056 1.42438 0.922474 0
M  V30 2819 H 272.828 3.09194 2.39823 0
M  V30 2820 H 272.451 1.81161 3.5393 0
M  V30 2821 N 273.449 -1.08991 1.13837 0
M  V30 2822 C 274.412 -2.13925 0.822715 0
M  V30 2823 C 275.412 -1.599 -0.1699 0
M  V30 2824 O 276.602 -1.74104 0.0577251 0
M  V30 2825 C 273.734 -3.40155 0.225318 0
M  V30 2826 H 274.927 -2.43358 1.75262 0
M  V30 2827 H 272.48 -1.24603 0.943594 0
M  V30 2828 H 273.215 -3.16352 -0.713594 0
M  V30 2829 H 273 -3.80661 0.940193 0
M  V30 2830 H 274.49 -4.17594 0.0214784 0
M  V30 2831 N 274.927 -0.932562 -1.27047 0
M  V30 2832 C 276.204 -0.49377 -1.89265 0
M  V30 2833 C 276.584 1.02833 -1.8436 0
M  V30 2834 O 275.932 1.88461 -1.29209 0
M  V30 2835 C 276.142 -1.04536 -3.32976 0
M  V30 2836 C 277.49 -1.10879 -4.09867 0
M  V30 2837 O 278.514 -0.995327 -3.42011 0
M  V30 2838 O 277.373 -1.28417 -5.31198 0
M  V30 2839 H 274.467 -0.159596 -0.811454 0
M  V30 2840 H 277.013 -1.02457 -1.3528 0
M  V30 2841 H 275.785 -2.08913 -3.30864 0
M  V30 2842 H 275.408 -0.496494 -3.94488 0
M  V30 2843 N 276.405 1.4127 -0.698611 0
M  V30 2844 C 277.651 2.01478 -0.231207 0
M  V30 2845 C 277.984 1.55215 1.16713 0
M  V30 2846 O 277.259 0.764672 1.78838 0
M  V30 2847 C 277.542 3.58912 -0.292281 0
M  V30 2848 C 277.395 4.15293 -1.72778 0
M  V30 2849 C 278.714 4.38736 0.346194 0
M  V30 2850 H 275.833 0.732025 -0.0854878 0
M  V30 2851 H 278.475 1.67977 -0.887906 0
M  V30 2852 H 276.625 3.87582 0.26686 0
M  V30 2853 H 278.297 3.97486 -2.341 0
M  V30 2854 H 276.54 3.7022 -2.26096 0
M  V30 2855 H 277.211 5.24452 -1.72202 0
M  V30 2856 H 279.687 4.15897 -0.130035 0
M  V30 2857 H 278.563 5.48221 0.272932 0
M  V30 2858 H 278.824 4.18425 1.42734 0
M  V30 2859 N 277.883 0.443576 1.51229 0
M  V30 2860 C 279.131 -0.120557 2.0174 0
M  V30 2861 C 279.452 -1.42665 1.32935 0
M  V30 2862 O 278.722 -1.9028 0.465866 0
M  V30 2863 H 277.302 -0.0475426 0.745486 0
M  V30 2864 H 279.964 0.587711 1.85828 0
M  V30 2865 H 279.06 -0.291972 3.10731 0
M  V30 2866 N 279.361 -1.56624 0.175154 0
M  V30 2867 C 280.586 -2.01813 -0.478137 0
M  V30 2868 C 281.011 -1.05457 -1.55757 0
M  V30 2869 O 280.369 -0.0347439 -1.81267 0
M  V30 2870 C 280.417 -3.45581 -1.02987 0
M  V30 2871 O 279.521 -3.52305 -2.14371 0
M  V30 2872 H 278.862 -0.65413 -0.114059 0
M  V30 2873 H 281.392 -2.02673 0.280173 0
M  V30 2874 H 281.402 -3.84965 -1.35151 0
M  V30 2875 H 280.077 -4.1521 -0.239556 0
M  V30 2876 H 278.654 -3.24783 -1.83222 0
M  V30 2877 N 280.839 0.0985539 -1.57292 0
M  V30 2878 C 282.086 0.802678 -1.85912 0
M  V30 2879 C 282.414 1.78901 -0.763186 0
M  V30 2880 O 281.669 1.94178 0.243559 0
M  V30 2881 C 281.968 1.56927 -3.21105 0
M  V30 2882 C 281.634 0.725376 -4.45027 0
M  V30 2883 C 280.296 0.492726 -4.78671 0
M  V30 2884 C 282.648 0.138493 -5.21016 0
M  V30 2885 C 279.976 -0.336727 -5.85733 0
M  V30 2886 C 282.328 -0.678264 -6.28953 0
M  V30 2887 C 280.992 -0.921039 -6.61115 0
M  V30 2888 H 280.262 0.293721 -0.680301 0
M  V30 2889 H 282.909 0.0642841 -1.91392 0
M  V30 2890 H 281.214 2.37914 -3.11294 0
M  V30 2891 H 282.911 2.11841 -3.40477 0
M  V30 2892 H 279.501 0.916815 -4.18679 0
M  V30 2893 H 283.685 0.305404 -4.95359 0
M  V30 2894 H 278.941 -0.533836 -6.09065 0
M  V30 2895 H 283.115 -1.1399 -6.87007 0
M  V30 2896 H 280.742 -1.56556 -7.43905 0
M  V30 2897 N 282.317 1.53212 0.369288 0
M  V30 2898 C 283.594 1.59815 1.12776 0
M  V30 2899 C 283.974 0.403402 2.0721 0
M  V30 2900 O 283.322 -0.606667 2.20299 0
M  V30 2901 C 283.532 2.94664 1.87013 0
M  V30 2902 C 284.88 3.49109 2.41677 0
M  V30 2903 O 285.904 2.96669 1.97144 0
M  V30 2904 O 284.763 4.40775 3.23079 0
M  V30 2905 H 281.857 0.645376 0.517125 0
M  V30 2906 H 284.403 1.65553 0.37285 0
M  V30 2907 H 283.175 3.73061 1.18071 0
M  V30 2908 H 282.798 2.92401 2.69421 0
M  V30 2909 N 283.795 -0.628877 1.44509 0
M  V30 2910 C 285.043 -1.38565 1.4712 0
M  V30 2911 C 285.364 -1.94712 0.105899 0
M  V30 2912 O 284.634 -1.75912 -0.862079 0
M  V30 2913 H 283.214 -0.514333 0.541729 0
M  V30 2914 H 285.876 -0.740018 1.80305 0
M  V30 2915 H 284.972 -2.21583 2.19789 0
M  V30 2916 N 285.273 -1.31445 -0.869486 0
M  V30 2917 C 286.521 -1.20918 -1.61936 0
M  V30 2918 C 286.842 0.232683 -1.93607 0
M  V30 2919 O 286.112 1.15352 -1.58338 0
M  V30 2920 H 284.692 -0.44454 -0.600328 0
M  V30 2921 H 287.354 -1.64776 -1.0409 0
M  V30 2922 H 286.45 -1.78124 -2.56278 0
M  V30 2923 N 286.751 1.08385 -1.14413 0
M  V30 2924 C 287.981 1.8425 -0.934644 0
M  V30 2925 C 288.389 1.81907 0.520234 0
M  V30 2926 O 287.732 1.22126 1.37226 0
M  V30 2927 C 287.794 3.32853 -1.35828 0
M  V30 2928 C 287.458 3.5893 -2.82875 0
M  V30 2929 C 288.455 3.53756 -3.80989 0
M  V30 2930 C 286.14 3.86934 -3.20293 0
M  V30 2931 C 288.134 3.76216 -5.14529 0
M  V30 2932 C 285.821 4.09047 -4.54008 0
M  V30 2933 C 286.819 4.03682 -5.50936 0
M  V30 2934 O 286.507 4.25214 -6.82238 0
M  V30 2935 H 286.239 0.588502 -0.332628 0
M  V30 2936 H 288.793 1.37792 -1.52324 0
M  V30 2937 H 287.023 3.8007 -0.713019 0
M  V30 2938 H 288.712 3.90154 -1.11957 0
M  V30 2939 H 289.478 3.32135 -3.53428 0
M  V30 2940 H 285.357 3.9023 -2.45442 0
M  V30 2941 H 288.901 3.71943 -5.90173 0
M  V30 2942 H 284.798 4.30151 -4.8129 0
M  V30 2943 H 285.566 4.42619 -6.88499 0
M  V30 2944 N 288.23 0.939286 1.26551 0
M  V30 2945 C 289.478 0.58469 1.93457 0
M  V30 2946 C 289.799 -0.878774 1.74076 0
M  V30 2947 O 289.069 -1.62421 1.09528 0
M  V30 2948 H 287.649 0.21325 0.715914 0
M  V30 2949 H 290.311 1.1942 1.54029 0
M  V30 2950 H 289.407 0.800849 3.0165 0
M  V30 2951 N 289.708 -1.40897 0.706093 0
M  V30 2952 C 290.933 -2.05895 0.249435 0
M  V30 2953 C 291.358 -1.52823 -1.09666 0
M  V30 2954 O 290.716 -0.659589 -1.68876 0
M  V30 2955 C 290.764 -3.59872 0.22904 0
M  V30 2956 O 289.868 -4.04708 -0.792784 0
M  V30 2957 H 289.209 -0.653206 0.119241 0
M  V30 2958 H 291.739 -1.80471 0.96391 0
M  V30 2959 H 291.749 -4.07951 0.0634791 0
M  V30 2960 H 290.424 -3.97866 1.21141 0
M  V30 2961 H 289.001 -3.68111 -0.59572 0
M  V30 2962 N 291.186 -0.45159 -1.50991 0
M  V30 2963 C 292.149 0.341117 -2.26647 0
M  V30 2964 C 293.149 0.937422 -1.30649 0
M  V30 2965 O 294.339 0.809644 -1.54241 0
M  V30 2966 C 291.471 1.48398 -3.06905 0
M  V30 2967 H 292.664 -0.322117 -2.98165 0
M  V30 2968 H 290.217 -0.205122 -1.54948 0
M  V30 2969 H 290.952 2.18284 -2.39838 0
M  V30 2970 H 290.737 1.06241 -3.77432 0
M  V30 2971 H 292.227 2.04367 -3.64176 0
M  V30 2972 N 292.664 1.56529 -0.183458 0
M  V30 2973 C 293.894 2.01331 0.463612 0
M  V30 2974 C 294.302 1.06278 1.5653 0
M  V30 2975 O 293.645 0.0577976 1.83609 0
M  V30 2976 C 293.707 3.42547 1.09096 0
M  V30 2977 C 293.371 4.56817 0.129442 0
M  V30 2978 C 294.368 5.15734 -0.656807 0
M  V30 2979 C 292.053 5.02295 0.02174 0
M  V30 2980 C 294.047 6.1857 -1.53784 0
M  V30 2981 C 291.734 6.04978 -0.862864 0
M  V30 2982 C 292.732 6.62988 -1.64123 0
M  V30 2983 O 292.42 7.63677 -2.51103 0
M  V30 2984 H 292.152 0.664917 0.121907 0
M  V30 2985 H 294.706 2.034 -0.285954 0
M  V30 2986 H 292.936 3.37428 1.88889 0
M  V30 2987 H 294.625 3.71228 1.64148 0
M  V30 2988 H 295.391 4.81473 -0.583839 0
M  V30 2989 H 291.27 4.56847 0.617392 0
M  V30 2990 H 294.814 6.63777 -2.14583 0
M  V30 2991 H 290.711 6.38663 -0.93699 0
M  V30 2992 H 291.479 7.81049 -2.44753 0
M  V30 2993 N 294.142 -0.090211 1.57342 0
M  V30 2994 C 295.072 -1.10976 2.05443 0
M  V30 2995 C 296.053 -1.41482 0.944284 0
M  V30 2996 O 297.238 -1.51428 1.21586 0
M  V30 2997 C 294.368 -2.42831 2.48295 0
M  V30 2998 C 293.322 -2.26721 3.63018 0
M  V30 2999 C 292.648 -3.63796 3.91863 0
M  V30 3000 C 293.948 -1.7037 4.93732 0
M  V30 3001 H 295.642 -0.709564 2.9087 0
M  V30 3002 H 293.188 -0.339874 1.39932 0
M  V30 3003 H 295.141 -3.14431 2.80555 0
M  V30 3004 H 293.865 -2.84795 1.59873 0
M  V30 3005 H 292.524 -1.57565 3.31012 0
M  V30 3006 H 292.172 -4.03297 3.00601 0
M  V30 3007 H 291.872 -3.53861 4.69101 0
M  V30 3008 H 293.396 -4.36855 4.26603 0
M  V30 3009 H 294.81 -2.31816 5.24342 0
M  V30 3010 H 293.207 -1.71181 5.75167 0
M  V30 3011 H 294.277 -0.663542 4.80339 0
M  V30 3012 N 295.62 -1.53406 -0.361157 0
M  V30 3013 C 296.583 -1.79479 -1.42548 0
M  V30 3014 C 297.583 -0.665327 -1.4639 0
M  V30 3015 O 298.773 -0.933549 -1.47073 0
M  V30 3016 C 295.905 -1.92087 -2.8163 0
M  V30 3017 H 297.098 -2.74538 -1.20701 0
M  V30 3018 H 294.651 -1.4455 -0.594546 0
M  V30 3019 H 295.386 -0.991099 -3.08784 0
M  V30 3020 H 295.171 -2.74241 -2.80239 0
M  V30 3021 H 296.661 -2.13836 -3.58697 0
M  V30 3022 N 297.098 0.621204 -1.44841 0
M  V30 3023 C 298.514 0.94048 -1.28946 0
M  V30 3024 C 298.714 2.00154 -0.23249 0
M  V30 3025 O 297.77 2.49651 0.378237 0
M  V30 3026 C 299.083 1.39433 -2.66419 0
M  V30 3027 C 300.631 1.50927 -2.74208 0
M  V30 3028 C 301.106 1.99692 -4.12174 0
M  V30 3029 N 302.597 2.06947 -4.144 0
M  V30 3030 C 303.332 2.45871 -5.1801 0
M  V30 3031 N 302.828 2.83862 -6.31977 0
M  V30 3032 N 304.621 2.46092 -5.05366 0
M  V30 3033 H 296.772 -0.0803548 -2.12248 0
M  V30 3034 H 299.035 0.0266913 -0.947624 0
M  V30 3035 H 298.741 0.688925 -3.44887 0
M  V30 3036 H 298.615 2.36347 -2.93973 0
M  V30 3037 H 301.002 2.20561 -1.96053 0
M  V30 3038 H 301.083 0.523627 -2.50383 0
M  V30 3039 H 300.727 1.30649 -4.90809 0
M  V30 3040 H 300.657 2.99146 -4.33381 0
M  V30 3041 H 303.148 1.80232 -3.32152 0
M  V30 3042 H 303.461 3.12405 -7.0684 0
M  V30 3043 H 301.806 2.8159 -6.35399 0
M  V30 3044 H 304.997 2.1581 -4.15384 0
M  V30 3045 H 305.17 2.76102 -5.86235 0
M  V30 3046 N 298.576 1.31904 0.862503 0
M  V30 3047 C 299.508 1.16005 1.97675 0
M  V30 3048 C 300.521 0.0971234 1.6251 0
M  V30 3049 O 301.71 0.345337 1.75128 0
M  V30 3050 C 298.81 0.751791 3.30456 0
M  V30 3051 C 297.983 1.90133 3.93914 0
M  V30 3052 C 297.042 1.4779 5.05019 0
M  V30 3053 O 296.068 2.18872 5.25437 0
M  V30 3054 N 297.27 0.369491 5.79323 0
M  V30 3055 H 300.035 2.11982 2.11857 0
M  V30 3056 H 297.596 1.24337 1.03691 0
M  V30 3057 H 299.588 0.451084 4.02178 0
M  V30 3058 H 298.158 -0.116593 3.12382 0
M  V30 3059 H 297.378 2.36896 3.15078 0
M  V30 3060 H 298.666 2.67111 4.33047 0
M  V30 3061 H 298.064 -0.222299 5.65263 0
M  V30 3062 H 296.621 0.128354 6.51674 0
M  V30 3063 N 300.054 -1.07777 1.14986 0
M  V30 3064 C 301.3 -1.80557 0.923422 0
M  V30 3065 C 301.633 -1.86298 -0.548337 0
M  V30 3066 O 300.908 -1.34354 -1.40639 0
M  V30 3067 C 301.191 -3.25839 1.53299 0
M  V30 3068 C 301.044 -3.28269 3.07505 0
M  V30 3069 C 302.363 -4.22991 1.21518 0
M  V30 3070 H 299.482 -0.655493 0.336894 0
M  V30 3071 H 302.124 -1.26144 1.42083 0
M  V30 3072 H 300.274 -3.72306 1.10999 0
M  V30 3073 H 301.946 -2.90079 3.58681 0
M  V30 3074 H 300.189 -2.67355 3.4162 0
M  V30 3075 H 300.86 -4.30691 3.45266 0
M  V30 3076 H 303.336 -3.84894 1.581 0
M  V30 3077 H 302.212 -5.22945 1.66793 0
M  V30 3078 H 302.473 -4.41904 0.131505 0
M  V30 3079 N 301.532 -0.945985 -1.26051 0
M  V30 3080 C 302.78 -0.594941 -1.93145 0
M  V30 3081 C 303.101 0.86953 -1.7454 0
M  V30 3082 O 302.371 1.61838 -1.10387 0
M  V30 3083 H 300.951 -0.217044 -0.714773 0
M  V30 3084 H 303.613 -1.20235 -1.53393 0
M  V30 3085 H 302.709 -0.816835 -3.01221 0
M  V30 3086 N 303.011 1.40521 -0.713556 0
M  V30 3087 C 303.943 2.29191 -0.0203126 0
M  V30 3088 C 304.956 1.45723 0.725864 0
M  V30 3089 O 306.145 1.69033 0.573581 0
M  V30 3090 C 303.245 3.2395 0.995486 0
M  V30 3091 C 302.418 4.36262 0.315256 0
M  V30 3092 C 301.477 5.11474 1.23616 0
M  V30 3093 O 300.503 5.64606 0.721719 0
M  V30 3094 N 301.705 5.20638 2.56743 0
M  V30 3095 H 304.47 2.89327 -0.781652 0
M  V30 3096 H 302.031 1.51869 -0.561022 0
M  V30 3097 H 304.023 3.71137 1.61368 0
M  V30 3098 H 302.593 2.64995 1.6582 0
M  V30 3099 H 301.813 3.91228 -0.483106 0
M  V30 3100 H 303.101 5.08558 -0.157004 0
M  V30 3101 H 302.499 4.7895 3.01037 0
M  V30 3102 H 301.056 5.71339 3.13712 0
M  V30 3103 N 304.489 0.459591 1.5075 0
M  V30 3104 C 305.436 -0.340524 2.28274 0
M  V30 3105 C 306.406 -0.997371 1.32822 0
M  V30 3106 O 307.591 -1.01202 1.61749 0
M  V30 3107 C 304.731 -1.42317 3.14388 0
M  V30 3108 C 303.844 -0.782251 4.24859 0
M  V30 3109 C 302.979 -1.84182 4.98247 0
M  V30 3110 C 302.018 -1.18053 6.00608 0
M  V30 3111 N 301.155 -2.18244 6.67319 0
M  V30 3112 H 305.995 0.326899 2.96202 0
M  V30 3113 H 303.532 0.173057 1.46078 0
M  V30 3114 H 305.49 -2.06241 3.62658 0
M  V30 3115 H 304.12 -2.05992 2.4853 0
M  V30 3116 H 303.172 -0.0307404 3.80388 0
M  V30 3117 H 304.484 -0.259663 4.98124 0
M  V30 3118 H 303.638 -2.55714 5.50177 0
M  V30 3119 H 302.377 -2.39819 4.24662 0
M  V30 3120 H 301.382 -0.450776 5.47949 0
M  V30 3121 H 302.607 -0.631202 6.7616 0
M  V30 3122 H 300.553 -2.72919 5.96533 0
M  V30 3123 H 300.47 -1.70938 7.36421 0
M  V30 3124 H 301.738 -2.89191 7.23871 0
M  V30 3125 N 305.967 -1.56429 0.191757 0
M  V30 3126 C 307.214 -1.97485 -0.447891 0
M  V30 3127 C 307.542 -1.07852 -1.61859 0
M  V30 3128 O 306.797 -0.116903 -1.95351 0
M  V30 3129 C 307.096 -3.44449 -0.953384 0
M  V30 3130 C 306.762 -4.50781 0.103586 0
M  V30 3131 C 305.424 -4.79584 0.394023 0
M  V30 3132 C 307.776 -5.1471 0.819946 0
M  V30 3133 C 305.104 -5.69607 1.40585 0
M  V30 3134 C 307.456 -6.05827 1.8209 0
M  V30 3135 C 306.12 -6.32987 2.11857 0
M  V30 3136 H 305.39 -0.722648 -0.163895 0
M  V30 3137 H 308.037 -1.89322 0.28802 0
M  V30 3138 H 306.342 -3.49666 -1.76751 0
M  V30 3139 H 308.039 -3.73569 -1.45765 0
M  V30 3140 H 304.629 -4.28394 -0.132951 0
M  V30 3141 H 308.813 -4.92552 0.608789 0
M  V30 3142 H 304.069 -5.88926 1.64243 0
M  V30 3143 H 308.243 -6.54424 2.38123 0
M  V30 3144 H 305.87 -7.02544 2.90407 0
M  V30 3145 N 307.445 0.0818655 -1.57387 0
M  V30 3146 C 308.408 1.08265 -2.02018 0
M  V30 3147 C 309.408 1.32183 -0.915664 0
M  V30 3148 O 310.598 1.28073 -1.18081 0
M  V30 3149 C 307.73 2.42871 -2.39221 0
M  V30 3150 H 308.923 0.698204 -2.91659 0
M  V30 3151 H 306.476 0.327303 -1.52835 0
M  V30 3152 H 307.211 2.86167 -1.52575 0
M  V30 3153 H 306.996 2.26855 -3.19811 0
M  V30 3154 H 308.486 3.14826 -2.74362 0
M  V30 3155 N 308.923 1.53595 0.353017 0
M  V30 3156 C 310.339 1.43648 0.695516 0
M  V30 3157 C 310.539 0.585617 1.92802 0
M  V30 3158 O 309.595 0.0729223 2.52395 0
M  V30 3159 C 310.908 2.8701 0.896991 0
M  V30 3160 C 312.456 2.96723 0.996209 0
M  V30 3161 C 312.931 4.41173 1.23007 0
M  V30 3162 N 314.422 4.44657 1.29749 0
M  V30 3163 C 315.157 5.53547 1.49577 0
M  V30 3164 N 314.653 6.72461 1.66639 0
M  V30 3165 N 316.446 5.41145 1.52048 0
M  V30 3166 H 308.597 2.07415 -0.457481 0
M  V30 3167 H 310.86 0.9372 -0.142687 0
M  V30 3168 H 310.566 3.51644 0.0629938 0
M  V30 3169 H 310.44 3.31401 1.80148 0
M  V30 3170 H 312.827 2.32235 1.82074 0
M  V30 3171 H 312.908 2.55707 0.0688331 0
M  V30 3172 H 312.552 5.06238 0.410505 0
M  V30 3173 H 312.482 4.79772 2.17086 0
M  V30 3174 H 314.973 3.58963 1.18126 0
M  V30 3175 H 315.286 7.51214 1.81378 0
M  V30 3176 H 313.631 6.75423 1.63794 0
M  V30 3177 H 316.822 4.47205 1.38294 0
M  V30 3178 H 316.995 6.26068 1.67159 0
M  V30 3179 N 310.401 -0.613514 1.45168 0
M  V30 3180 C 311.311 -1.75296 1.55912 0
M  V30 3181 C 312.327 -1.68244 0.443856 0
M  V30 3182 O 313.503 -1.88706 0.70371 0
M  V30 3183 C 310.568 -3.1174 1.5172 0
M  V30 3184 C 309.629 -3.30291 2.74238 0
M  V30 3185 C 308.862 -4.60226 2.70236 0
M  V30 3186 O 309.085 -5.42168 1.77229 0
M  V30 3187 O 308.019 -4.81361 3.61352 0
M  V30 3188 H 311.845 -1.69183 2.52212 0
M  V30 3189 H 309.43 -0.776886 1.27612 0
M  V30 3190 H 311.312 -3.93044 1.51968 0
M  V30 3191 H 309.987 -3.18357 0.585697 0
M  V30 3192 H 308.894 -2.48598 2.79553 0
M  V30 3193 H 310.227 -3.28547 3.66494 0
M  V30 3194 N 311.879 -1.3236 -0.855495 0
M  V30 3195 C 313.128 -1.22226 -1.60448 0
M  V30 3196 C 313.441 0.214733 -1.94418 0
M  V30 3197 O 314.647 0.437917 -2.67945 0
M  V30 3198 C 313.103 -2.14063 -2.89318 0
M  V30 3199 C 312.711 -3.62839 -2.62777 0
M  V30 3200 C 314.455 -2.12764 -3.67331 0
M  V30 3201 C 312.362 -4.4664 -3.87643 0
M  V30 3202 H 311.292 -0.453904 -0.602069 0
M  V30 3203 H 313.943 -1.57314 -0.944698 0
M  V30 3204 H 312.325 -1.71889 -3.5675 0
M  V30 3205 H 313.499 -4.1335 -2.03662 0
M  V30 3206 H 311.814 -3.66261 -1.98096 0
M  V30 3207 H 314.411 -2.72611 -4.59987 0
M  V30 3208 H 314.754 -1.11841 -4.00995 0
M  V30 3209 H 315.287 -2.53214 -3.06802 0
M  V30 3210 H 312.026 -5.48373 -3.5912 0
M  V30 3211 H 311.546 -4.0088 -4.46156 0
M  V30 3212 H 313.225 -4.59597 -4.55389 0
M  V30 3213 N 313.357 1.07166 -1.15556 0
M  V30 3214 C 314.604 1.79798 -0.931604 0
M  V30 3215 C 314.932 1.8682 0.54115 0
M  V30 3216 O 314.187 1.34942 1.41736 0
M  V30 3217 C 314.486 3.24707 -1.49332 0
M  V30 3218 C 314.152 3.37781 -2.98688 0
M  V30 3219 C 312.814 3.41057 -3.39461 0
M  V30 3220 C 315.166 3.40424 -3.94665 0
M  V30 3221 C 312.494 3.4458 -4.74849 0
M  V30 3222 C 314.846 3.45485 -5.29927 0
M  V30 3223 C 313.51 3.47039 -5.70193 0
M  V30 3224 H 312.78 0.657928 -0.340898 0
M  V30 3225 H 315.427 1.26091 -1.44129 0
M  V30 3226 H 313.732 3.81208 -0.904859 0
M  V30 3227 H 315.429 3.79486 -1.29582 0
M  V30 3228 H 312.019 3.35932 -2.66172 0
M  V30 3229 H 316.203 3.37113 -3.64237 0
M  V30 3230 H 311.459 3.44083 -5.05388 0
M  V30 3231 H 315.633 3.46476 -6.04092 0
M  V30 3232 H 313.26 3.49522 -6.75084 0
M  V30 3233 N 314.835 0.952656 1.25548 0
M  V30 3234 C 316.082 0.606373 1.93208 0
M  V30 3235 C 316.41 -0.85631 1.74636 0
M  V30 3236 O 315.665 -1.62951 1.08376 0
M  V30 3237 C 315.964 0.908818 3.45652 0
M  V30 3238 C 315.63 2.35722 3.84378 0
M  V30 3239 C 314.292 2.75312 3.9466 0
M  V30 3240 C 316.644 3.29793 4.03591 0
M  V30 3241 C 313.972 4.08047 4.21562 0
M  V30 3242 C 316.324 4.62138 4.31985 0
M  V30 3243 C 314.988 5.01528 4.40484 0
M  V30 3244 H 314.258 0.221888 0.706998 0
M  V30 3245 H 316.905 1.20132 1.49133 0
M  V30 3246 H 315.21 0.231456 3.91116 0
M  V30 3247 H 316.907 0.619498 3.96186 0
M  V30 3248 H 313.497 2.04017 3.76928 0
M  V30 3249 H 317.681 3.00397 3.95064 0
M  V30 3250 H 312.937 4.38212 4.26357 0
M  V30 3251 H 317.111 5.35012 4.45797 0
M  V30 3252 H 314.738 6.04406 4.61083 0
M  V30 3253 N 316.313 -1.40141 0.720998 0
M  V30 3254 C 317.243 -2.33339 0.0867621 0
M  V30 3255 C 318.224 -1.53178 -0.739622 0
M  V30 3256 O 319.409 -1.81625 -0.687449 0
M  V30 3257 C 316.539 -3.37194 -0.831728 0
M  V30 3258 C 315.493 -4.27857 -0.110558 0
M  V30 3259 C 314.819 -5.22294 -1.14513 0
M  V30 3260 C 316.119 -5.11872 1.0385 0
M  V30 3261 H 317.813 -2.86626 0.865219 0
M  V30 3262 H 315.359 -1.37814 0.417516 0
M  V30 3263 H 317.312 -4.01335 -1.28485 0
M  V30 3264 H 316.036 -2.82314 -1.64214 0
M  V30 3265 H 314.695 -3.65176 0.322797 0
M  V30 3266 H 314.343 -4.63717 -1.94874 0
M  V30 3267 H 314.043 -5.83797 -0.667446 0
M  V30 3268 H 315.567 -5.89312 -1.59824 0
M  V30 3269 H 316.981 -5.69436 0.664482 0
M  V30 3270 H 315.378 -5.82445 1.4449 0
M  V30 3271 H 316.448 -4.4753 1.86668 0
M  V30 3272 N 317.792 -0.46758 -1.50504 0
M  V30 3273 C 319.04 0.0884469 -2.01906 0
M  V30 3274 C 319.361 1.40532 -1.35188 0
M  V30 3275 O 318.631 1.89515 -0.496079 0
M  V30 3276 H 317.211 0.0356765 -0.746148 0
M  V30 3277 H 319.873 -0.6172 -1.84869 0
M  V30 3278 H 318.969 0.2425 -3.11156 0
M  V30 3279 N 319.27 1.56325 -0.20005 0
M  V30 3280 C 320.686 1.58839 0.155716 0
M  V30 3281 C 320.886 1.21636 1.60645 0
M  V30 3282 O 319.942 0.941437 2.34293 0
M  V30 3283 C 321.255 3.0032 -0.151124 0
M  V30 3284 C 322.803 3.12866 -0.0916284 0
M  V30 3285 C 323.278 4.56488 -0.371845 0
M  V30 3286 N 324.769 4.62089 -0.320641 0
M  V30 3287 C 325.504 5.71116 -0.511243 0
M  V30 3288 N 325 6.88592 -0.762461 0
M  V30 3289 N 326.793 5.60335 -0.445157 0
M  V30 3290 H 318.944 1.78788 -1.14668 0
M  V30 3291 H 321.207 0.829996 -0.458051 0
M  V30 3292 H 320.913 3.32117 -1.15721 0
M  V30 3293 H 320.787 3.73257 0.543986 0
M  V30 3294 H 323.174 2.80878 0.905065 0
M  V30 3295 H 323.255 2.42304 -0.81989 0
M  V30 3296 H 322.899 4.89189 -1.36588 0
M  V30 3297 H 322.829 5.25246 0.377362 0
M  V30 3298 H 325.32 3.77665 -0.13329 0
M  V30 3299 H 325.633 7.67581 -0.896576 0
M  V30 3300 H 323.978 6.90387 -0.799412 0
M  V30 3301 H 327.169 4.67436 -0.249278 0
M  V30 3302 H 327.342 6.45243 -0.597116 0
M  V30 3303 N 320.748 -0.0735177 1.57428 0
M  V30 3304 C 321.976 -0.785969 1.9139 0
M  V30 3305 C 322.391 -1.71207 0.795847 0
M  V30 3306 O 321.748 -1.81033 -0.230915 0
M  V30 3307 C 321.799 -1.58107 3.25091 0
M  V30 3308 O 321.52 -0.6922 4.32597 0
M  V30 3309 C 323.021 -2.39467 3.73055 0
M  V30 3310 H 320.241 -0.223558 0.632663 0
M  V30 3311 H 322.785 -0.044302 2.04452 0
M  V30 3312 H 320.94 -2.27503 3.13562 0
M  V30 3313 H 321.354 -1.24504 5.09508 0
M  V30 3314 H 322.828 -2.90716 4.69242 0
M  V30 3315 H 323.305 -3.18913 3.01979 0
M  V30 3316 H 323.911 -1.7523 3.87523 0
M  V30 3317 N 322.226 -1.5378 -0.344866 0
M  V30 3318 C 323.456 -1.74646 -1.10374 0
M  V30 3319 C 323.864 -0.48491 -1.8288 0
M  V30 3320 O 323.207 0.553062 -1.75177 0
M  V30 3321 C 323.269 -2.87145 -2.16306 0
M  V30 3322 C 322.933 -4.26795 -1.63386 0
M  V30 3323 C 323.93 -5.08412 -1.08688 0
M  V30 3324 C 321.615 -4.73276 -1.68272 0
M  V30 3325 C 323.609 -6.34609 -0.595792 0
M  V30 3326 C 321.296 -5.99446 -1.18776 0
M  V30 3327 C 322.294 -6.79946 -0.645215 0
M  V30 3328 O 321.982 -8.03745 -0.157626 0
M  V30 3329 H 321.714 -0.587112 -0.335075 0
M  V30 3330 H 324.268 -2.01403 -0.403252 0
M  V30 3331 H 322.498 -2.55909 -2.89909 0
M  V30 3332 H 324.187 -2.95992 -2.77747 0
M  V30 3333 H 324.953 -4.73666 -1.04236 0
M  V30 3334 H 320.832 -4.10677 -2.09442 0
M  V30 3335 H 324.376 -6.97389 -0.171654 0
M  V30 3336 H 320.273 -6.33687 -1.22928 0
M  V30 3337 H 321.041 -8.18038 -0.275037 0
M  V30 3338 N 323.704 0.605807 -1.45491 0
M  V30 3339 C 324.932 1.39136 -1.5313 0
M  V30 3340 C 325.347 1.88082 -0.164507 0
M  V30 3341 O 324.704 1.62316 0.834247 0
M  V30 3342 C 324.755 2.59463 -2.51716 0
M  V30 3343 O 324.476 2.12551 -3.83084 0
M  V30 3344 C 325.977 3.52301 -2.6907 0
M  V30 3345 H 323.197 0.425849 -0.51855 0
M  V30 3346 H 325.741 0.73865 -1.90694 0
M  V30 3347 H 323.896 3.20772 -2.17219 0
M  V30 3348 H 324.31 2.90744 -4.36541 0
M  V30 3349 H 325.784 4.33271 -3.42024 0
M  V30 3350 H 326.261 4.02757 -1.75167 0
M  V30 3351 H 326.867 2.96845 -3.04571 0
M  V30 3352 N 325.182 1.32811 0.848464 0
M  V30 3353 C 326.145 1.22194 1.9391 0
M  V30 3354 C 327.145 0.143404 1.60159 0
M  V30 3355 O 328.335 0.394253 1.6968 0
M  V30 3356 C 325.467 0.88067 3.29328 0
M  V30 3357 H 326.66 2.19127 2.04752 0
M  V30 3358 H 324.213 1.16731 1.0394 0
M  V30 3359 H 324.948 -0.0865776 3.24184 0
M  V30 3360 H 324.733 1.66052 3.55203 0
M  V30 3361 H 326.223 0.830871 4.09251 0
M  V30 3362 N 326.66 -1.06551 1.16123 0
M  V30 3363 C 327.57 -2.17484 0.879662 0
M  V30 3364 C 328.586 -1.73377 -0.147104 0
M  V30 3365 O 329.762 -2.01379 0.0289128 0
M  V30 3366 C 326.827 -3.44591 0.381829 0
M  V30 3367 C 325.888 -4.0322 1.4735 0
M  V30 3368 C 325.121 -5.24261 0.999324 0
M  V30 3369 O 325.344 -5.70198 -0.151957 0
M  V30 3370 O 324.278 -5.74775 1.78653 0
M  V30 3371 H 328.104 -2.44075 1.80724 0
M  V30 3372 H 325.689 -1.16042 0.940992 0
M  V30 3373 H 327.571 -4.21254 0.111053 0
M  V30 3374 H 326.246 -3.19532 -0.51777 0
M  V30 3375 H 325.153 -3.2806 1.79798 0
M  V30 3376 H 326.486 -4.32568 2.34831 0
M  V30 3377 N 328.138 -0.959301 -1.25041 0
M  V30 3378 C 329.07 -0.440543 -2.24926 0
M  V30 3379 C 330.083 0.446131 -1.56568 0
M  V30 3380 O 331.272 0.253657 -1.76689 0
M  V30 3381 C 328.372 0.38412 -3.36716 0
M  V30 3382 C 327.545 -0.490658 -4.34639 0
M  V30 3383 C 326.604 0.276587 -5.25473 0
M  V30 3384 O 325.63 -0.326614 -5.68262 0
M  V30 3385 N 326.832 1.56844 -5.5891 0
M  V30 3386 H 329.597 -1.29931 -2.70071 0
M  V30 3387 H 327.158 -0.830181 -1.38995 0
M  V30 3388 H 329.15 0.905228 -3.94446 0
M  V30 3389 H 327.72 1.14377 -2.90924 0
M  V30 3390 H 326.94 -1.19282 -3.7572 0
M  V30 3391 H 328.228 -1.08756 -4.97041 0
M  V30 3392 H 327.626 2.08036 -5.26059 0
M  V30 3393 H 326.183 2.03541 -6.19205 0
M  V30 3394 N 329.616 1.39756 -0.72842 0
M  V30 3395 C 330.549 2.28176 -0.0330172 0
M  V30 3396 C 331.527 1.44035 0.754501 0
M  V30 3397 O 332.711 1.73434 0.738445 0
M  V30 3398 C 329.838 3.24795 0.960504 0
M  V30 3399 C 328.884 4.25693 0.262264 0
M  V30 3400 S 329.717 5.25714 -1.01906 0
M  V30 3401 C 330.873 6.25894 -0.0279717 0
M  V30 3402 H 331.106 2.86807 -0.78287 0
M  V30 3403 H 328.639 1.45382 -0.519951 0
M  V30 3404 H 330.597 3.80983 1.52846 0
M  V30 3405 H 329.258 2.65196 1.68315 0
M  V30 3406 H 328.451 4.93699 1.01379 0
M  V30 3407 H 328.053 3.7327 -0.233482 0
M  V30 3408 H 330.345 6.72585 0.814621 0
M  V30 3409 H 331.288 7.04876 -0.67499 0
M  V30 3410 H 331.696 5.63466 0.341489 0
M  V30 3411 N 331.094 0.475555 1.50254 0
M  V30 3412 C 332.044 -0.335025 2.25525 0
M  V30 3413 C 333.028 -0.957625 1.29299 0
M  V30 3414 O 334.22 -0.869436 1.54175 0
M  V30 3415 C 331.349 -1.41385 3.12834 0
M  V30 3416 C 330.435 -0.798762 4.1651 0
M  V30 3417 N 330.826 0.0835815 5.05731 0
M  V30 3418 C 329.124 -1.06221 4.33166 0
M  V30 3419 C 329.825 0.433113 5.80085 0
M  V30 3420 N 328.801 -0.1928 5.43258 0
M  V30 3421 H 332.603 0.344612 2.91873 0
M  V30 3422 H 330.117 0.289986 1.5979 0
M  V30 3423 H 332.114 -2.00777 3.65368 0
M  V30 3424 H 330.774 -2.09543 2.48036 0
M  V30 3425 H 331.785 0.452715 5.15918 0
M  V30 3426 H 328.462 -1.73844 3.79585 0
M  V30 3427 H 329.852 1.15346 6.61925 0
M  V30 3428 N 332.573 -1.56217 0.208337 0
M  V30 3429 C 333.505 -2.1695 -0.739276 0
M  V30 3430 C 334.518 -1.13492 -1.1672 0
M  V30 3431 O 335.707 -1.40529 -1.10063 0
M  V30 3432 C 332.807 -2.72755 -2.01142 0
M  V30 3433 C 331.98 -4.0125 -1.74118 0
M  V30 3434 C 331.039 -4.41749 -2.85909 0
M  V30 3435 O 330.065 -5.08912 -2.54946 0
M  V30 3436 N 331.267 -4.06342 -4.14568 0
M  V30 3437 H 334.032 -2.98893 -0.219837 0
M  V30 3438 H 331.593 -1.61878 0.0268445 0
M  V30 3439 H 333.585 -2.96826 -2.75094 0
M  V30 3440 H 332.155 -1.95191 -2.4417 0
M  V30 3441 H 331.375 -3.85173 -0.838775 0
M  V30 3442 H 332.663 -4.851 -1.53477 0
M  V30 3443 H 332.061 -3.52345 -4.42571 0
M  V30 3444 H 330.618 -4.35335 -4.85105 0
M  V30 3445 N 334.051 0.0651679 -1.57465 0
M  V30 3446 C 334.984 1.10876 -1.99453 0
M  V30 3447 C 335.962 1.37205 -0.872555 0
M  V30 3448 O 337.146 1.50468 -1.13542 0
M  V30 3449 C 334.273 2.45167 -2.3369 0
M  V30 3450 C 333.319 2.3493 -3.55964 0
M  V30 3451 S 334.152 1.73708 -5.06543 0
M  V30 3452 C 335.308 3.09563 -5.43987 0
M  V30 3453 H 335.541 0.750967 -2.87659 0
M  V30 3454 H 333.074 0.273933 -1.51951 0
M  V30 3455 H 335.032 3.22412 -2.54088 0
M  V30 3456 H 333.693 2.78105 -1.46001 0
M  V30 3457 H 332.886 3.3398 -3.77457 0
M  V30 3458 H 332.488 1.65823 -3.3523 0
M  V30 3459 H 334.78 4.05882 -5.42463 0
M  V30 3460 H 335.723 2.92843 -6.44708 0
M  V30 3461 H 336.131 3.10474 -4.71451 0
M  V30 3462 N 335.529 1.53961 0.336706 0
M  V30 3463 C 336.777 1.71197 1.07405 0
M  V30 3464 C 337.098 0.481475 1.88962 0
M  V30 3465 O 336.368 -0.504585 1.8929 0
M  V30 3466 H 334.948 0.631185 0.399517 0
M  V30 3467 H 337.61 1.91232 0.376323 0
M  V30 3468 H 336.706 2.58587 1.74755 0
M  V30 3469 N 337.007 -0.598083 1.45811 0
M  V30 3470 C 337.97 -1.69018 1.54808 0
M  V30 3471 C 338.97 -1.55037 0.426652 0
M  V30 3472 O 340.16 -1.59932 0.690456 0
M  V30 3473 C 337.292 -3.0835 1.45371 0
M  V30 3474 H 338.485 -1.62403 2.52121 0
M  V30 3475 H 336.038 -0.814626 1.33392 0
M  V30 3476 H 336.773 -3.20534 0.492793 0
M  V30 3477 H 336.558 -3.19907 2.26721 0
M  V30 3478 H 338.048 -3.8788 1.54721 0
M  V30 3479 N 338.485 -1.33259 -0.841409 0
M  V30 3480 C 339.731 -1.24757 -1.59886 0
M  V30 3481 C 340.064 0.186913 -1.93298 0
M  V30 3482 O 339.339 1.12757 -1.5848 0
M  V30 3483 C 339.622 -2.12036 -2.91055 0
M  V30 3484 C 339.475 -3.63929 -2.6434 0
M  V30 3485 C 340.794 -1.9916 -3.92458 0
M  V30 3486 H 337.913 -0.454542 -0.580138 0
M  V30 3487 H 340.555 -1.63335 -0.970647 0
M  V30 3488 H 338.705 -1.79265 -3.44669 0
M  V30 3489 H 340.377 -4.06978 -2.17178 0
M  V30 3490 H 338.62 -3.85935 -1.98082 0
M  V30 3491 H 339.291 -4.20341 -3.57796 0
M  V30 3492 H 341.767 -2.27895 -3.48143 0
M  V30 3493 H 340.643 -2.62484 -4.82072 0
M  V30 3494 H 340.904 -0.963082 -4.31482 0
M  V30 3495 N 339.963 1.05934 -1.16686 0
M  V30 3496 C 340.911 2.15603 -0.872817 0
M  V30 3497 C 341.905 1.68647 0.159576 0
M  V30 3498 O 343.111 1.79995 0.0132125 0
M  V30 3499 H 339.486 0.703885 -0.264671 0
M  V30 3500 H 341.457 2.37613 -1.80507 0
M  V30 3501 C 340.206 3.45457 -0.394344 0
M  V30 3502 H 339.529 3.81984 -1.18019 0
M  V30 3503 H 340.969 4.2339 -0.227408 0
M  V30 3504 C 339.428 3.25021 0.88673 0
M  V30 3505 O 339.958 3.50906 1.95519 0
M  V30 3506 N 338.164 2.78437 0.831925 0
M  V30 3507 H 337.711 2.57572 -0.0377619 0
M  V30 3508 H 337.669 2.65144 1.68956 0
M  V30 3509 N 341.441 0.965919 1.2453 0
M  V30 3510 C 342.404 0.499547 2.2369 0
M  V30 3511 C 343.404 -0.40294 1.5567 0
M  V30 3512 O 344.594 -0.19865 1.73064 0
M  V30 3513 C 341.726 -0.276792 3.39774 0
M  V30 3514 H 342.919 1.37613 2.66463 0
M  V30 3515 H 340.472 0.750324 1.37112 0
M  V30 3516 H 341.207 -1.17055 3.02438 0
M  V30 3517 H 340.992 0.370826 3.90343 0
M  V30 3518 H 342.482 -0.592175 4.1338 0
M  V30 3519 N 342.919 -1.39368 0.735821 0
M  V30 3520 C 344.165 -2.00794 0.284544 0
M  V30 3521 C 344.498 -1.58255 -1.12557 0
M  V30 3522 O 343.773 -0.811819 -1.76748 0
M  V30 3523 C 344.056 -3.58011 0.387337 0
M  V30 3524 C 343.909 -4.10566 1.83728 0
M  V30 3525 C 345.228 -4.395 -0.22975 0
M  V30 3526 H 342.347 -0.729501 0.104866 0
M  V30 3527 H 344.989 -1.65564 0.93213 0
M  V30 3528 H 343.139 -3.88154 -0.164006 0
M  V30 3529 H 344.811 -3.91139 2.44556 0
M  V30 3530 H 343.054 -3.64095 2.35833 0
M  V30 3531 H 343.725 -5.19702 1.86047 0
M  V30 3532 H 346.201 -4.15406 0.240257 0
M  V30 3533 H 345.077 -5.48752 -0.127485 0
M  V30 3534 H 345.338 -4.22062 -1.3159 0
M  V30 3535 N 344.397 -0.483516 -1.5 0
M  V30 3536 C 345.36 0.292965 -2.2732 0
M  V30 3537 C 346.36 0.909499 -1.32608 0
M  V30 3538 O 347.55 0.776745 -1.55924 0
M  V30 3539 C 344.682 1.41854 -3.09984 0
M  V30 3540 H 345.875 -0.385289 -2.97415 0
M  V30 3541 H 343.428 -0.237942 -1.54478 0
M  V30 3542 H 344.163 2.13148 -2.44414 0
M  V30 3543 H 343.948 0.982114 -3.79601 0
M  V30 3544 H 345.438 1.96597 -3.68429 0
M  V30 3545 N 345.875 1.56104 -0.216619 0
M  V30 3546 C 346.785 2.23694 0.706982 0
M  V30 3547 C 347.801 1.24295 1.21765 0
M  V30 3548 O 348.977 1.57094 1.2603 0
M  V30 3549 C 346.042 2.8998 1.90033 0
M  V30 3550 C 345.103 4.04708 1.43213 0
M  V30 3551 C 344.336 4.67824 2.56859 0
M  V30 3552 O 344.559 4.29913 3.74874 0
M  V30 3553 O 343.493 5.56905 2.28343 0
M  V30 3554 H 347.319 3.03272 0.161235 0
M  V30 3555 H 344.904 1.49394 0.0136177 0
M  V30 3556 H 346.786 3.31837 2.59735 0
M  V30 3557 H 345.461 2.13365 2.43428 0
M  V30 3558 H 344.368 3.6743 0.70327 0
M  V30 3559 H 345.701 4.83051 0.944615 0
M  V30 3560 N 347.353 -0.0568162 1.57498 0
M  V30 3561 C 348.303 -1.07315 2.01166 0
M  V30 3562 C 349.287 -1.33632 0.896171 0
M  V30 3563 O 350.479 -1.33682 1.16009 0
M  V30 3564 C 347.608 -2.38257 2.47161 0
M  V30 3565 C 346.694 -2.1515 3.65474 0
M  V30 3566 N 347.085 -1.62014 4.7915 0
M  V30 3567 C 345.383 -2.45559 3.72313 0
M  V30 3568 C 346.084 -1.54069 5.60926 0
M  V30 3569 N 345.06 -2.00652 5.05213 0
M  V30 3570 H 348.862 -0.655878 2.86488 0
M  V30 3571 H 346.376 -0.263635 1.60246 0
M  V30 3572 H 348.373 -3.11845 2.76691 0
M  V30 3573 H 347.033 -2.80687 1.63232 0
M  V30 3574 H 348.044 -1.30667 5.01145 0
M  V30 3575 H 344.721 -2.91253 2.99129 0
M  V30 3576 H 346.111 -1.13712 6.62208 0
M  V30 3577 N 348.832 -1.54138 -0.328536 0
M  V30 3578 C 349.795 -1.82462 -1.38709 0
M  V30 3579 C 350.795 -0.696229 -1.44946 0
M  V30 3580 O 351.985 -0.964535 -1.4506 0
M  V30 3581 C 349.117 -1.98018 -2.77492 0
M  V30 3582 H 350.31 -2.77037 -1.14851 0
M  V30 3583 H 347.863 -1.45779 -0.563751 0
M  V30 3584 H 348.598 -1.05637 -3.06613 0
M  V30 3585 H 348.383 -2.80124 -2.74359 0
M  V30 3586 H 349.873 -2.21396 -3.54081 0
M  V30 3587 N 350.31 0.590341 -1.46126 0
M  V30 3588 C 351.22 1.72793 -1.58681 0
M  V30 3589 C 352.236 1.67516 -0.470566 0
M  V30 3590 O 353.412 1.87562 -0.733642 0
M  V30 3591 C 350.477 3.09287 -1.5666 0
M  V30 3592 C 349.538 3.25886 -2.79458 0
M  V30 3593 C 348.771 4.55869 -2.77524 0
M  V30 3594 O 348.994 5.3928 -1.85832 0
M  V30 3595 O 347.928 4.75552 -3.68964 0
M  V30 3596 H 351.754 1.65149 -2.54872 0
M  V30 3597 H 349.339 0.756486 -1.28832 0
M  V30 3598 H 351.221 3.90577 -1.58202 0
M  V30 3599 H 349.896 3.17385 -0.636271 0
M  V30 3600 H 348.803 2.44119 -2.83472 0
M  V30 3601 H 350.136 3.22675 -3.71674 0
M  V30 3602 N 351.788 1.33704 0.83433 0
M  V30 3603 C 352.718 1.26967 1.95963 0
M  V30 3604 C 353.699 0.149337 1.69443 0
M  V30 3605 O 354.884 0.339852 1.91203 0
M  V30 3606 C 352.014 1.01275 3.32206 0
M  V30 3607 C 350.968 2.09652 3.73136 0
M  V30 3608 C 350.294 1.69166 5.07235 0
M  V30 3609 C 351.594 3.51372 3.86439 0
M  V30 3610 H 353.288 2.2112 2.01857 0
M  V30 3611 H 350.834 1.06447 0.969793 0
M  V30 3612 H 352.787 0.952106 4.10503 0
M  V30 3613 H 351.511 0.0356203 3.26581 0
M  V30 3614 H 350.17 2.14766 2.97104 0
M  V30 3615 H 349.818 0.701437 4.98085 0
M  V30 3616 H 349.518 2.41694 5.35591 0
M  V30 3617 H 351.042 1.64576 5.88003 0
M  V30 3618 H 352.456 3.48734 4.55036 0
M  V30 3619 H 350.853 4.22425 4.26236 0
M  V30 3620 H 351.923 3.89546 2.88759 0
M  V30 3621 N 353.266 -1.05314 1.17247 0
M  V30 3622 C 354.176 -2.16538 0.90268 0
M  V30 3623 C 355.192 -1.73523 -0.128707 0
M  V30 3624 O 356.368 -2.01337 0.0502701 0
M  V30 3625 C 353.433 -3.44167 0.418356 0
M  V30 3626 C 352.494 -4.01635 1.51618 0
M  V30 3627 C 351.727 -5.23171 1.05487 0
M  V30 3628 O 351.95 -5.70327 -0.0914715 0
M  V30 3629 O 350.884 -5.72848 1.8474 0
M  V30 3630 H 354.71 -2.42145 1.83302 0
M  V30 3631 H 352.295 -1.15037 0.953246 0
M  V30 3632 H 354.177 -4.21112 0.155726 0
M  V30 3633 H 352.852 -3.20063 -0.48385 0
M  V30 3634 H 351.759 -3.26135 1.83268 0
M  V30 3635 H 353.092 -4.30053 2.39405 0
M  V30 3636 N 354.744 -0.972509 -1.24016 0
M  V30 3637 C 355.972 -0.654803 -1.96265 0
M  V30 3638 C 356.387 0.776708 -1.72083 0
M  V30 3639 O 355.744 1.52171 -1.00748 0
M  V30 3640 C 355.795 -0.92592 -3.49441 0
M  V30 3641 O 355.516 -2.30116 -3.72798 0
M  V30 3642 C 357.017 -0.623068 -4.38899 0
M  V30 3643 H 354.237 -0.243907 -0.6251 0
M  V30 3644 H 356.781 -1.30175 -1.57717 0
M  V30 3645 H 354.936 -0.325108 -3.86033 0
M  V30 3646 H 355.35 -2.38483 -4.67147 0
M  V30 3647 H 356.824 -0.863189 -5.45209 0
M  V30 3648 H 357.301 0.442754 -4.36963 0
M  V30 3649 H 357.907 -1.204 -4.07902 0
M  V30 3650 N 356.222 1.38976 -0.743202 0
M  V30 3651 C 357.468 2.0064 -0.295189 0
M  V30 3652 C 357.801 1.5885 1.11716 0
M  V30 3653 O 357.076 0.821181 1.76315 0
M  V30 3654 C 357.359 3.578 -0.406318 0
M  V30 3655 C 357.212 4.09586 -1.85903 0
M  V30 3656 C 358.531 4.39616 0.206439 0
M  V30 3657 H 355.65 0.728935 -0.108733 0
M  V30 3658 H 358.292 1.65067 -0.940897 0
M  V30 3659 H 356.442 3.88235 0.143419 0
M  V30 3660 H 358.114 3.89837 -2.46627 0
M  V30 3661 H 356.357 3.6284 -2.3776 0
M  V30 3662 H 357.028 5.18708 -1.888 0
M  V30 3663 H 359.504 4.15273 -0.262283 0
M  V30 3664 H 358.38 5.48812 0.0983819 0
M  V30 3665 H 358.641 4.22754 1.2935 0
M  V30 3666 N 357.7 0.491464 1.49741 0
M  V30 3667 C 358.948 -0.0563141 2.02022 0
M  V30 3668 C 359.269 -1.38363 1.37407 0
M  V30 3669 O 358.539 -1.88702 0.526166 0
M  V30 3670 H 357.119 -0.0238014 0.746621 0
M  V30 3671 H 359.781 0.646533 1.83864 0
M  V30 3672 H 358.877 -0.192967 3.11503 0
M  V30 3673 N 359.178 -1.55987 0.224894 0
M  V30 3674 C 360.108 -2.23426 -0.678457 0
M  V30 3675 C 361.089 -1.20709 -1.19847 0
M  V30 3676 O 362.274 -1.49304 -1.24186 0
M  V30 3677 C 359.404 -2.91676 -1.88527 0
M  V30 3678 C 358.358 -4.00893 -1.49896 0
M  V30 3679 C 357.684 -4.56455 -2.78483 0
M  V30 3680 C 358.984 -5.17769 -0.686461 0
M  V30 3681 H 360.678 -2.99175 -0.116173 0
M  V30 3682 H 358.224 -1.43897 -0.054436 0
M  V30 3683 H 360.177 -3.37547 -2.5227 0
M  V30 3684 H 358.901 -2.1338 -2.47258 0
M  V30 3685 H 357.56 -3.55758 -0.884985 0
M  V30 3686 H 357.208 -3.74886 -3.35365 0
M  V30 3687 H 356.908 -5.30169 -2.53368 0
M  V30 3688 H 358.432 -5.05047 -3.43162 0
M  V30 3689 H 359.846 -5.60001 -1.22767 0
M  V30 3690 H 358.243 -5.97735 -0.532259 0
M  V30 3691 H 359.313 -4.83932 0.306196 0
M  V30 3692 N 360.656 0.0484629 -1.57525 0
M  V30 3693 C 361.588 1.08222 -2.02041 0
M  V30 3694 C 362.601 1.33621 -0.930012 0
M  V30 3695 O 363.79 1.3145 -1.20761 0
M  V30 3696 C 360.89 2.42818 -2.36416 0
M  V30 3697 C 360.063 2.37049 -3.67596 0
M  V30 3698 C 359.122 3.53937 -3.89378 0
M  V30 3699 O 358.148 3.34308 -4.60681 0
M  V30 3700 N 359.35 4.75126 -3.3352 0
M  V30 3701 H 362.115 0.702946 -2.9134 0
M  V30 3702 H 359.676 0.236745 -1.6016 0
M  V30 3703 H 361.668 3.197 -2.48141 0
M  V30 3704 H 360.238 2.72661 -1.52888 0
M  V30 3705 H 359.458 1.45395 -3.66407 0
M  V30 3706 H 360.746 2.30318 -4.53686 0
M  V30 3707 H 360.144 4.93976 -2.75688 0
M  V30 3708 H 358.701 5.49439 -3.50656 0
M  V30 3709 N 362.134 1.5431 0.320358 0
M  V30 3710 C 363.38 1.73859 1.05568 0
M  V30 3711 C 363.735 0.507807 1.85578 0
M  V30 3712 O 363.028 -0.499789 1.84967 0
M  V30 3713 C 363.222 2.95639 2.00828 0
M  V30 3714 C 363.051 4.30444 1.30186 0
M  V30 3715 C 361.821 4.94544 1.03703 0
M  V30 3716 C 364.019 5.0929 0.716138 0
M  V30 3717 N 362.001 6.13172 0.298846 0
M  V30 3718 C 363.372 6.19903 0.109729 0
M  V30 3719 C 365.427 4.94034 0.619269 0
M  V30 3720 C 364.13 7.16924 -0.584153 0
M  V30 3721 C 366.156 5.91369 -0.0609184 0
M  V30 3722 C 365.518 7.01336 -0.656258 0
M  V30 3723 H 361.617 0.688988 0.36989 0
M  V30 3724 H 364.201 1.9177 0.336494 0
M  V30 3725 H 362.372 2.79188 2.70016 0
M  V30 3726 H 364.104 3.03802 2.6737 0
M  V30 3727 H 360.859 4.54536 1.33019 0
M  V30 3728 H 361.283 6.76977 -0.0561964 0
M  V30 3729 H 365.925 4.0916 1.06526 0
M  V30 3730 H 363.643 8.01354 -1.04197 0
M  V30 3731 H 367.229 5.81642 -0.135552 0
M  V30 3732 H 366.109 7.75359 -1.17423 0
M  V30 3733 N 363.613 -0.582584 1.46437 0
M  V30 3734 C 364.576 -1.67366 1.56592 0
M  V30 3735 C 365.576 -1.54575 0.443072 0
M  V30 3736 O 366.766 -1.59191 0.707381 0
M  V30 3737 C 363.898 -3.06791 1.48634 0
M  V30 3738 H 365.091 -1.5972 2.5383 0
M  V30 3739 H 362.644 -0.800432 1.34249 0
M  V30 3740 H 363.379 -3.19993 0.526763 0
M  V30 3741 H 363.164 -3.17484 2.30101 0
M  V30 3742 H 364.654 -3.86218 1.58826 0
M  V30 3743 N 365.091 -1.34144 -0.827227 0
M  V30 3744 C 366.054 -1.25264 -1.91942 0
M  V30 3745 C 367.054 -0.168866 -1.59911 0
M  V30 3746 O 368.244 -0.421198 -1.69031 0
M  V30 3747 C 365.376 -0.932952 -3.27885 0
M  V30 3748 H 366.569 -2.22357 -2.0124 0
M  V30 3749 H 364.122 -1.1837 -1.0207 0
M  V30 3750 H 364.857 0.0349917 -3.24281 0
M  V30 3751 H 364.642 -1.71682 -3.52516 0
M  V30 3752 H 366.132 -0.895874 -4.07877 0
M  V30 3753 N 366.569 1.04691 -1.17803 0
M  V30 3754 C 367.479 2.16057 -0.914151 0
M  V30 3755 C 368.495 1.73589 0.119503 0
M  V30 3756 O 369.671 2.01308 -0.0609468 0
M  V30 3757 C 366.736 3.4394 -0.436603 0
M  V30 3758 C 365.797 4.00825 -1.53746 0
M  V30 3759 C 365.03 5.22604 -1.0826 0
M  V30 3760 O 365.253 5.70367 0.0612244 0
M  V30 3761 O 364.187 5.7186 -1.87775 0
M  V30 3762 H 368.013 2.41169 -1.84584 0
M  V30 3763 H 365.598 1.1453 -0.959334 0
M  V30 3764 H 367.48 4.21024 -0.178057 0
M  V30 3765 H 366.155 3.20316 0.466869 0
M  V30 3766 H 365.062 3.25158 -1.84995 0
M  V30 3767 H 366.395 4.28778 -2.41683 0
M  V30 3768 N 368.047 0.979072 1.23499 0
M  V30 3769 C 369.296 0.642751 1.91185 0
M  V30 3770 C 369.609 -0.827253 1.77245 0
M  V30 3771 O 370.815 -1.27458 2.39722 0
M  V30 3772 C 369.271 1.09901 3.42709 0
M  V30 3773 C 368.879 2.59327 3.65313 0
M  V30 3774 C 370.623 0.836371 4.16179 0
M  V30 3775 C 368.53 2.98627 5.10467 0
M  V30 3776 H 367.46 0.236698 0.715884 0
M  V30 3777 H 370.111 1.1868 1.39955 0
M  V30 3778 H 368.493 0.48319 3.93041 0
M  V30 3779 H 369.667 3.26136 3.25533 0
M  V30 3780 H 367.982 2.83323 3.05151 0
M  V30 3781 H 370.579 1.10586 5.23139 0
M  V30 3782 H 370.922 -0.227509 4.15678 0
M  V30 3783 H 371.455 1.41371 3.71832 0
M  V30 3784 H 368.194 4.04133 5.16098 0
M  V30 3785 H 367.714 2.3651 5.51201 0
M  V30 3786 H 369.393 2.89159 5.78788 0
M  V30 3787 N 369.525 -1.3858 0.750561 0
M  V30 3788 C 370.473 -2.32339 0.110162 0
M  V30 3789 C 371.467 -1.53864 -0.708674 0
M  V30 3790 O 372.673 -1.69417 -0.608112 0
M  V30 3791 H 369.048 -0.751812 0.0168275 0
M  V30 3792 H 371.019 -2.83959 0.917053 0
M  V30 3793 C 369.768 -3.39043 -0.771067 0
M  V30 3794 H 369.091 -3.99517 -0.150374 0
M  V30 3795 H 370.531 -4.07061 -1.1865 0
M  V30 3796 C 368.99 -2.77365 -1.91234 0
M  V30 3797 O 369.52 -2.66434 -3.00626 0
M  V30 3798 N 367.726 -2.35219 -1.70646 0
M  V30 3799 H 367.273 -2.4431 -0.81673 0
M  V30 3800 H 367.231 -1.94294 -2.47178 0
M  V30 3801 N 371.003 -0.499398 -1.49478 0
M  V30 3802 C 371.966 0.268838 -2.27618 0
M  V30 3803 C 372.966 0.895383 -1.33565 0
M  V30 3804 O 374.156 0.760164 -1.56739 0
M  V30 3805 C 371.288 1.38559 -3.11471 0
M  V30 3806 H 372.481 -0.416812 -2.96989 0
M  V30 3807 H 370.034 -0.254313 -1.54217 0
M  V30 3808 H 370.769 2.10544 -2.46661 0
M  V30 3809 H 370.554 0.941797 -3.80621 0
M  V30 3810 H 372.044 1.92678 -3.70493 0
M  V30 3811 N 372.481 1.55866 -0.233164 0
M  V30 3812 C 373.428 2.20796 0.67215 0
M  V30 3813 C 374.398 1.16731 1.18166 0
M  V30 3814 O 375.583 1.45129 1.23864 0
M  V30 3815 C 372.723 2.90072 1.86955 0
M  V30 3816 C 371.836 4.08759 1.39786 0
M  V30 3817 C 370.971 4.65787 2.55374 0
M  V30 3818 C 370.01 5.76752 2.04998 0
M  V30 3819 N 369.147 6.28021 3.13901 0
M  V30 3820 H 373.987 2.9779 0.111749 0
M  V30 3821 H 371.524 1.47036 0.0434007 0
M  V30 3822 H 373.482 3.28428 2.57276 0
M  V30 3823 H 372.112 2.15575 2.40265 0
M  V30 3824 H 371.164 3.7581 0.589173 0
M  V30 3825 H 372.476 4.88906 0.98856 0
M  V30 3826 H 371.63 5.06646 3.33758 0
M  V30 3827 H 370.369 3.84828 2.99598 0
M  V30 3828 H 369.374 5.35383 1.25079 0
M  V30 3829 H 370.599 6.59553 1.61759 0
M  V30 3830 H 368.545 5.49971 3.57586 0
M  V30 3831 H 368.462 7.03323 2.7726 0
M  V30 3832 H 369.73 6.73538 3.92386 0
M  V30 3833 N 373.959 -0.0401083 1.57549 0
M  V30 3834 C 375.184 -0.748931 1.93406 0
M  V30 3835 C 375.609 -1.68686 0.832274 0
M  V30 3836 O 374.967 -1.80047 -0.212818 0
M  V30 3837 C 375.015 -1.4916 3.28304 0
M  V30 3838 O 374.119 -2.6042 3.19774 0
M  V30 3839 H 373.46 -0.202212 0.63246 0
M  V30 3840 H 375.99 0.00112086 2.046 0
M  V30 3841 H 376 -1.86395 3.62934 0
M  V30 3842 H 374.675 -0.80364 4.08062 0
M  V30 3843 H 373.252 -2.25808 2.96758 0
M  V30 3844 N 375.437 -1.54477 -0.31217 0
M  V30 3845 C 376.848 -1.64344 -0.885891 0
M  V30 3846 C 377.199 -0.54485 -1.88483 0
M  V30 3847 O 376.324 0.320387 -2.14015 0
M  V30 3848 C 376.919 -2.97908 -1.61357 0
M  V30 3849 C 375.478 -3.09933 -2.13585 0
M  V30 3850 C 374.625 -2.59971 -0.964897 0
M  V30 3851 H 377.576 -1.58448 -0.0894528 0
M  V30 3852 H 377.597 -2.88706 -2.47848 0
M  V30 3853 H 377.109 -3.77845 -0.886277 0
M  V30 3854 H 375.21 -2.34694 -2.89395 0
M  V30 3855 H 375.323 -4.15916 -2.37804 0
M  V30 3856 H 373.687 -2.16147 -1.34731 0
M  V30 3857 H 374.47 -3.42376 -0.251742 0
M  V30 3858 N 376.915 0.57481 -1.46744 0
M  V30 3859 C 377.847 1.69804 -1.53946 0
M  V30 3860 C 378.86 1.57098 -0.427106 0
M  V30 3861 O 380.049 1.64378 -0.695863 0
M  V30 3862 C 377.149 3.08125 -1.4111 0
M  V30 3863 C 376.322 3.46757 -2.66605 0
M  V30 3864 C 375.381 4.6417 -2.47855 0
M  V30 3865 O 374.407 4.69634 -3.21609 0
M  V30 3866 N 375.609 5.59553 -1.54534 0
M  V30 3867 H 378.374 1.64077 -2.50796 0
M  V30 3868 H 375.935 0.761 -1.429 0
M  V30 3869 H 377.927 3.84478 -1.26328 0
M  V30 3870 H 376.497 3.08175 -0.524109 0
M  V30 3871 H 375.717 2.6003 -2.96274 0
M  V30 3872 H 377.005 3.69337 -3.49954 0
M  V30 3873 H 376.403 5.57881 -0.937304 0
M  V30 3874 H 374.96 6.35304 -1.45711 0
M  V30 3875 N 378.394 1.34581 0.820102 0
M  V30 3876 C 379.357 1.2628 1.91275 0
M  V30 3877 C 380.357 0.177344 1.59819 0
M  V30 3878 O 381.547 0.430156 1.68806 0
M  V30 3879 C 378.679 0.950327 3.27386 0
M  V30 3880 H 379.872 2.23421 2.00057 0
M  V30 3881 H 377.425 1.1891 1.0144 0
M  V30 3882 H 378.16 -0.0177938 3.24295 0
M  V30 3883 H 377.945 1.73549 3.51601 0
M  V30 3884 H 379.435 0.917492 4.07396 0
M  V30 3885 N 379.872 -1.04064 1.18357 0
M  V30 3886 C 380.804 -2.12114 0.868358 0
M  V30 3887 C 381.817 -1.62247 -0.134045 0
M  V30 3888 O 383.006 -1.78253 0.0937933 0
M  V30 3889 C 380.106 -3.37773 0.276132 0
M  V30 3890 C 379.279 -4.16874 1.3242 0
M  V30 3891 C 378.338 -5.20861 0.747662 0
M  V30 3892 O 377.364 -5.51141 1.42239 0
M  V30 3893 N 378.566 -5.78715 -0.454823 0
M  V30 3894 H 381.331 -2.39748 1.79836 0
M  V30 3895 H 378.892 -1.20258 1.08396 0
M  V30 3896 H 380.884 -4.04513 -0.123133 0
M  V30 3897 H 379.454 -3.07581 -0.557895 0
M  V30 3898 H 378.674 -3.45456 1.89878 0
M  V30 3899 H 379.962 -4.66516 2.03078 0
M  V30 3900 H 379.36 -5.56415 -1.02073 0
M  V30 3901 H 377.917 -6.46921 -0.79601 0
M  V30 3902 N 381.35 -0.985608 -1.22978 0
M  V30 3903 C 382.766 -0.695104 -1.43668 0
M  V30 3904 C 382.966 0.736866 -1.87543 0
M  V30 3905 O 382.022 1.50868 -2.02473 0
M  V30 3906 C 383.335 -1.69447 -2.48412 0
M  V30 3907 C 384.883 -1.70909 -2.62219 0
M  V30 3908 C 385.358 -2.6969 -3.70178 0
M  V30 3909 N 386.849 -2.6824 -3.77626 0
M  V30 3910 C 387.584 -3.41339 -4.60733 0
M  V30 3911 N 387.08 -4.24015 -5.4789 0
M  V30 3912 N 388.873 -3.30079 -4.54977 0
M  V30 3913 H 381.024 -1.91054 -0.928016 0
M  V30 3914 H 383.287 -0.823553 -0.469536 0
M  V30 3915 H 382.993 -2.7188 -2.23102 0
M  V30 3916 H 382.867 -1.48147 -3.46889 0
M  V30 3917 H 385.254 -0.691785 -2.86877 0
M  V30 3918 H 385.335 -1.96276 -1.6404 0
M  V30 3919 H 384.979 -3.71566 -3.46268 0
M  V30 3920 H 384.909 -2.41595 -4.67909 0
M  V30 3921 H 387.4 -2.08243 -3.15346 0
M  V30 3922 H 387.713 -4.76636 -6.08308 0
M  V30 3923 H 386.058 -4.28104 -5.47496 0
M  V30 3924 H 389.249 -2.64937 -3.85909 0
M  V30 3925 H 389.422 -3.87308 -5.19516 0
M  V30 3926 N 382.828 1.3818 -0.7579 0
M  V30 3927 C 383.761 2.28055 -0.0814093 0
M  V30 3928 C 384.739 1.45603 0.723779 0
M  V30 3929 O 385.923 1.74961 0.701491 0
M  V30 3930 C 383.05 3.2676 0.891394 0
M  V30 3931 C 382.096 4.26153 0.171909 0
M  V30 3932 S 382.929 5.23434 -1.13035 0
M  V30 3933 C 384.085 6.25694 -0.160727 0
M  V30 3934 H 384.318 2.85082 -0.84353 0
M  V30 3935 H 381.851 1.44246 -0.550671 0
M  V30 3936 H 383.809 3.8414 1.44731 0
M  V30 3937 H 382.47 2.68706 1.62652 0
M  V30 3938 H 381.663 4.95738 0.908843 0
M  V30 3939 H 381.265 3.72691 -0.312606 0
M  V30 3940 H 383.557 6.74161 0.671773 0
M  V30 3941 H 384.5 7.03285 -0.824353 0
M  V30 3942 H 384.908 5.64064 0.221892 0
M  V30 3943 N 384.306 0.507319 1.49211 0
M  V30 3944 C 385.236 -0.256939 2.32082 0
M  V30 3945 C 386.217 -0.956609 1.40652 0
M  V30 3946 O 387.402 -0.946788 1.69557 0
M  V30 3947 C 384.532 -1.31802 3.21318 0
M  V30 3948 C 383.486 -0.737855 4.21592 0
M  V30 3949 C 382.812 -1.89992 4.99807 0
M  V30 3950 C 384.112 0.275325 5.21574 0
M  V30 3951 H 385.806 0.434798 2.96226 0
M  V30 3952 H 383.352 0.210546 1.42452 0
M  V30 3953 H 385.305 -1.86045 3.78107 0
M  V30 3954 H 384.029 -2.03903 2.5513 0
M  V30 3955 H 382.688 -0.217126 3.65956 0
M  V30 3956 H 382.336 -2.60877 4.30061 0
M  V30 3957 H 382.036 -1.51777 5.6766 0
M  V30 3958 H 383.56 -2.44657 5.59442 0
M  V30 3959 H 384.974 -0.179193 5.7302 0
M  V30 3960 H 383.371 0.573649 5.97352 0
M  V30 3961 H 384.441 1.18903 4.70096 0
M  V30 3962 N 385.784 -1.5574 0.241426 0
M  V30 3963 C 386.731 -2.21149 -0.660432 0
M  V30 3964 C 387.701 -1.17356 -1.17545 0
M  V30 3965 O 388.886 -1.45784 -1.23093 0
M  V30 3966 C 386.026 -2.91059 -1.85414 0
M  V30 3967 C 385.139 -4.09495 -1.37616 0
M  V30 3968 C 384.274 -4.67135 -2.529 0
M  V30 3969 C 383.313 -5.77831 -2.01936 0
M  V30 3970 N 382.45 -6.29677 -3.10566 0
M  V30 3971 H 387.29 -2.97845 -0.095955 0
M  V30 3972 H 384.827 -1.47057 -0.0356024 0
M  V30 3973 H 386.785 -3.29788 -2.5553 0
M  V30 3974 H 385.415 -2.16846 -2.39118 0
M  V30 3975 H 384.467 -3.76117 -0.569235 0
M  V30 3976 H 385.779 -4.89423 -0.962618 0
M  V30 3977 H 384.933 -5.08409 -3.31067 0
M  V30 3978 H 383.672 -3.86411 -2.97553 0
M  V30 3979 H 382.677 -5.36039 -1.22238 0
M  V30 3980 H 383.902 -6.60402 -1.58259 0
M  V30 3981 H 381.848 -5.5186 -3.54664 0
M  V30 3982 H 381.765 -7.04783 -2.73526 0
M  V30 3983 H 383.033 -6.75609 -3.88809 0
M  V30 3984 N 387.262 0.0317525 -1.57568 0
M  V30 3985 C 388.509 0.723104 -1.89149 0
M  V30 3986 C 388.837 1.75504 -0.838377 0
M  V30 3987 O 388.092 1.95037 0.160982 0
M  V30 3988 C 388.391 1.43167 -3.27472 0
M  V30 3989 C 388.057 0.535972 -4.47703 0
M  V30 3990 C 386.719 0.289262 -4.8033 0
M  V30 3991 C 389.071 -0.0826125 -5.21135 0
M  V30 3992 C 386.399 -0.584853 -5.83778 0
M  V30 3993 C 388.751 -0.944414 -6.25511 0
M  V30 3994 C 387.415 -1.20061 -6.56614 0
M  V30 3995 H 386.685 0.264602 -0.692146 0
M  V30 3996 H 389.332 -0.0169496 -1.91492 0
M  V30 3997 H 387.637 2.24497 -3.21105 0
M  V30 3998 H 389.334 1.97209 -3.49155 0
M  V30 3999 H 385.924 0.738414 -4.22191 0
M  V30 4000 H 390.108 0.0950302 -4.96209 0
M  V30 4001 H 385.364 -0.79168 -6.06253 0
M  V30 4002 H 389.538 -1.43026 -6.81554 0
M  V30 4003 H 387.165 -1.87967 -7.36595 0
M  V30 4004 N 388.74 1.54641 0.303973 0
M  V30 4005 C 389.703 1.84646 1.35789 0
M  V30 4006 C 390.703 0.7192 1.4382 0
M  V30 4007 O 391.893 0.987491 1.43507 0
M  V30 4008 C 389.025 2.02407 2.74307 0
M  V30 4009 H 390.218 2.78829 1.10429 0
M  V30 4010 H 387.771 1.46658 0.540487 0
M  V30 4011 H 388.506 1.10502 3.04893 0
M  V30 4012 H 388.291 2.84453 2.69868 0
M  V30 4013 H 389.781 2.27002 3.50514 0
M  V30 4014 N 390.218 -0.567019 1.47046 0
M  V30 4015 C 391.465 -1.32462 1.53167 0
M  V30 4016 C 391.793 -1.93571 0.189841 0
M  V30 4017 O 391.048 -1.77865 -0.816243 0
M  V30 4018 C 391.347 -2.4623 2.59047 0
M  V30 4019 C 391.013 -2.03014 4.02612 0
M  V30 4020 C 389.675 -1.90944 4.41694 0
M  V30 4021 C 392.027 -1.69895 4.92732 0
M  V30 4022 C 389.355 -1.44035 5.68745 0
M  V30 4023 C 391.707 -1.2446 6.20236 0
M  V30 4024 C 390.371 -1.10979 6.5821 0
M  V30 4025 H 389.641 -0.484713 0.560477 0
M  V30 4026 H 392.288 -0.636888 1.80599 0
M  V30 4027 H 390.593 -3.20517 2.25335 0
M  V30 4028 H 392.29 -3.04427 2.61008 0
M  V30 4029 H 388.88 -2.13348 3.71726 0
M  V30 4030 H 393.064 -1.78098 4.63244 0
M  V30 4031 H 388.32 -1.32254 5.96925 0
M  V30 4032 H 392.494 -0.978924 6.89485 0
M  V30 4033 H 390.121 -0.744078 7.5655 0
M  V30 4034 N 391.696 -1.35014 -0.812953 0
M  V30 4035 C 392.644 -1.27435 -1.94585 0
M  V30 4036 C 393.638 -0.170494 -1.6854 0
M  V30 4037 O 394.844 -0.336085 -1.76835 0
M  V30 4038 H 391.219 -0.396144 -0.639198 0
M  V30 4039 H 393.19 -2.23158 -1.98098 0
M  V30 4040 C 391.939 -1.05677 -3.31252 0
M  V30 4041 H 391.262 -1.89853 -3.51846 0
M  V30 4042 H 392.702 -1.04413 -4.10943 0
M  V30 4043 C 391.161 0.239615 -3.36047 0
M  V30 4044 O 391.691 1.23759 -3.8216 0
M  V30 4045 N 389.897 0.276186 -2.89285 0
M  V30 4046 H 389.444 -0.53653 -2.51951 0
M  V30 4047 H 389.402 1.14332 -2.92875 0
M  V30 4048 N 393.175 1.03435 -1.18907 0
M  V30 4049 C 394.105 2.13503 -0.945448 0
M  V30 4050 C 395.086 1.69682 0.119189 0
M  V30 4051 O 396.271 1.94169 -0.034707 0
M  V30 4052 C 393.401 3.44004 -0.477316 0
M  V30 4053 C 392.355 4.0148 -1.48316 0
M  V30 4054 C 391.681 5.27537 -0.872311 0
M  V30 4055 C 392.981 4.36921 -2.86177 0
M  V30 4056 H 394.675 2.34141 -1.86597 0
M  V30 4057 H 392.221 1.12523 -0.898584 0
M  V30 4058 H 394.174 4.20372 -0.294204 0
M  V30 4059 H 392.898 3.23072 0.478786 0
M  V30 4060 H 391.557 3.27201 -1.65332 0
M  V30 4061 H 391.205 5.02917 0.0911752 0
M  V30 4062 H 390.905 5.66954 -1.54393 0
M  V30 4063 H 392.429 6.06576 -0.699871 0
M  V30 4064 H 393.843 5.04248 -2.72776 0
M  V30 4065 H 392.24 4.87405 -3.50081 0
M  V30 4066 H 393.31 3.46466 -3.39248 0
M  V30 4067 N 394.653 0.992116 1.22453 0
M  V30 4068 C 395.583 0.561677 2.26644 0
M  V30 4069 C 396.564 -0.411055 1.65059 0
M  V30 4070 O 397.749 -0.301861 1.9184 0
M  V30 4071 C 394.879 -0.125247 3.47074 0
M  V30 4072 C 393.833 0.765948 4.21091 0
M  V30 4073 C 393.159 -0.0538484 5.34673 0
M  V30 4074 C 394.459 2.06242 4.79856 0
M  V30 4075 H 396.153 1.43259 2.62902 0
M  V30 4076 H 393.699 0.690283 1.26377 0
M  V30 4077 H 395.652 -0.437764 4.1912 0
M  V30 4078 H 394.376 -1.03069 3.0991 0
M  V30 4079 H 393.035 1.0621 3.50878 0
M  V30 4080 H 392.683 -0.960188 4.9375 0
M  V30 4081 H 392.383 0.539415 5.85119 0
M  V30 4082 H 393.907 -0.360477 6.09535 0
M  V30 4083 H 395.321 1.8139 5.43848 0
M  V30 4084 H 393.718 2.60444 5.40638 0
M  V30 4085 H 394.788 2.74167 3.99951 0
M  V30 4086 N 396.131 -1.37776 0.765217 0
M  V30 4087 C 397.408 -1.93975 0.251596 0
M  V30 4088 C 397.788 -1.69949 -1.25222 0
M  V30 4089 O 397.136 -1.04457 -2.03226 0
M  V30 4090 C 397.346 -3.43487 0.617895 0
M  V30 4091 C 398.694 -4.20564 0.584029 0
M  V30 4092 O 399.718 -3.5182 0.556888 0
M  V30 4093 O 398.577 -5.43138 0.605291 0
M  V30 4094 H 395.671 -0.82509 0.0561806 0
M  V30 4095 H 398.217 -1.47101 0.846128 0
M  V30 4096 H 396.989 -3.5453 1.65602 0
M  V30 4097 H 396.612 -3.976 -0.00403411 0
M  V30 4098 N 397.609 -0.515225 -1.4894 0
M  V30 4099 C 398.886 0.0879088 -1.95402 0
M  V30 4100 C 399.266 1.52745 -1.45712 0
M  V30 4101 O 398.614 2.18238 -0.677093 0
M  V30 4102 C 398.824 -0.0141055 -3.48997 0
M  V30 4103 C 400.172 0.152646 -4.24326 0
M  V30 4104 O 401.196 0.0604025 -3.56149 0
M  V30 4105 O 400.055 0.34384 -5.45417 0
M  V30 4106 H 397.149 0.0874636 -0.822362 0
M  V30 4107 H 399.695 -0.578775 -1.59525 0
M  V30 4108 H 398.467 -1.01745 -3.77841 0
M  V30 4109 H 398.09 0.692091 -3.9153 0
M  V30 4110 N 399.087 1.5561 -0.249682 0
M  V30 4111 C 400.335 1.98618 0.373548 0
M  V30 4112 C 400.656 1.13919 1.58264 0
M  V30 4113 O 399.926 0.222637 1.94631 0
M  V30 4114 H 398.506 0.733571 0.141006 0
M  V30 4115 H 401.168 1.91748 -0.349117 0
M  V30 4116 H 400.264 3.04584 0.680796 0
M  V30 4117 N 400.565 -0.0233959 1.57583 0
M  V30 4118 C 401.495 -1.02162 2.09965 0
M  V30 4119 C 402.476 -1.3735 1.00344 0
M  V30 4120 O 403.661 -1.46135 1.27899 0
M  V30 4121 C 400.791 -2.32081 2.58371 0
M  V30 4122 C 399.745 -2.1112 3.72307 0
M  V30 4123 C 399.071 -3.46848 4.06941 0
M  V30 4124 C 400.371 -1.49276 5.00514 0
M  V30 4125 H 402.065 -0.585557 2.93618 0
M  V30 4126 H 399.611 -0.280218 1.41247 0
M  V30 4127 H 401.564 -3.02249 2.93639 0
M  V30 4128 H 400.288 -2.77758 1.71808 0
M  V30 4129 H 398.947 -1.43384 3.37397 0
M  V30 4130 H 398.595 -3.90184 3.17436 0
M  V30 4131 H 398.295 -3.33646 4.83688 0
M  V30 4132 H 399.819 -4.18369 4.44747 0
M  V30 4133 H 401.233 -2.09368 5.33702 0
M  V30 4134 H 399.63 -1.46632 5.8191 0
M  V30 4135 H 400.7 -0.459217 4.82721 0
M  V30 4136 N 402.043 -1.548 -0.295768 0
M  V30 4137 C 403.289 -1.74588 -1.03184 0
M  V30 4138 C 403.622 -0.532962 -1.86744 0
M  V30 4139 O 402.897 0.469872 -1.88739 0
M  V30 4140 C 403.18 -3.03791 -1.93347 0
M  V30 4141 C 403.033 -4.35392 -1.12933 0
M  V30 4142 C 404.352 -3.28892 -2.92435 0
M  V30 4143 H 401.471 -0.635221 -0.373715 0
M  V30 4144 H 404.113 -1.87519 -0.30606 0
M  V30 4145 H 402.263 -2.92898 -2.55232 0
M  V30 4146 H 403.935 -4.58211 -0.532943 0
M  V30 4147 H 402.178 -4.31642 -0.432168 0
M  V30 4148 H 402.849 -5.22074 -1.79284 0
M  V30 4149 H 405.325 -3.39429 -2.4068 0
M  V30 4150 H 404.201 -4.20603 -3.52682 0
M  V30 4151 H 404.462 -2.47437 -3.6637 0
M  V30 4152 N 403.521 0.559213 -1.47345 0
M  V30 4153 C 404.769 1.31388 -1.53563 0
M  V30 4154 C 405.09 1.93985 -0.198678 0
M  V30 4155 O 404.36 1.79825 0.777167 0
M  V30 4156 H 402.94 0.487901 -0.565652 0
M  V30 4157 H 405.602 0.65315 -1.8363 0
M  V30 4158 H 404.698 2.10844 -2.30111 0
M  V30 4159 N 404.999 1.35443 0.805782 0
M  V30 4160 C 405.931 1.24285 1.92577 0
M  V30 4161 C 406.944 0.165962 1.61952 0
M  V30 4162 O 408.133 0.419303 1.73505 0
M  V30 4163 C 405.233 0.891272 3.2697 0
M  V30 4164 C 404.406 2.06669 3.85495 0
M  V30 4165 C 403.465 1.69077 4.98297 0
M  V30 4166 O 402.491 2.4096 5.15681 0
M  V30 4167 N 403.693 0.614869 5.77234 0
M  V30 4168 H 406.458 2.20777 2.02676 0
M  V30 4169 H 404.019 1.28623 0.983243 0
M  V30 4170 H 406.011 0.621256 3.99903 0
M  V30 4171 H 404.581 0.016004 3.12596 0
M  V30 4172 H 403.801 2.50046 3.04747 0
M  V30 4173 H 405.089 2.85237 4.21328 0
M  V30 4174 H 404.487 0.017648 5.65697 0
M  V30 4175 H 403.044 0.404636 6.50543 0
M  V30 4176 N 406.477 -1.02803 1.19454 0
M  V30 4177 C 407.409 -2.11181 0.890807 0
M  V30 4178 C 408.422 -1.6238 -0.116829 0
M  V30 4179 O 409.611 -1.78144 0.112694 0
M  V30 4180 C 406.711 -3.37461 0.311942 0
M  V30 4181 C 405.884 -4.15446 1.36834 0
M  V30 4182 C 404.943 -5.20039 0.802864 0
M  V30 4183 O 403.969 -5.49602 1.48077 0
M  V30 4184 N 405.171 -5.79165 -0.393417 0
M  V30 4185 H 407.936 -2.37827 1.82369 0
M  V30 4186 H 405.497 -1.19101 1.09666 0
M  V30 4187 H 407.489 -4.0462 -0.0802225 0
M  V30 4188 H 406.059 -3.08156 -0.52524 0
M  V30 4189 H 405.279 -3.43423 1.93531 0
M  V30 4190 H 406.567 -4.64335 2.08015 0
M  V30 4191 H 405.965 -5.57466 -0.961658 0
M  V30 4192 H 404.522 -6.47729 -0.727351 0
M  V30 4193 N 407.956 -0.998596 -1.21925 0
M  V30 4194 C 408.886 -0.573688 -2.26343 0
M  V30 4195 C 409.867 0.402296 -1.65274 0
M  V30 4196 O 411.052 0.291683 -1.91997 0
M  V30 4197 C 408.182 0.106839 -3.47136 0
M  V30 4198 C 407.136 -0.788269 -4.20678 0
M  V30 4199 C 406.462 0.0254927 -5.34694 0
M  V30 4200 C 407.762 -2.08784 -4.78755 0
M  V30 4201 H 409.456 -1.44651 -2.62138 0
M  V30 4202 H 407.002 -0.696975 -1.26009 0
M  V30 4203 H 408.955 0.415531 -4.19346 0
M  V30 4204 H 407.679 1.01424 -3.10452 0
M  V30 4205 H 406.338 -1.08069 -3.50309 0
M  V30 4206 H 405.986 0.933989 -4.94253 0
M  V30 4207 H 405.686 -0.570437 -5.84825 0
M  V30 4208 H 407.21 0.328147 -6.09718 0
M  V30 4209 H 408.624 -1.84272 -5.42878 0
M  V30 4210 H 407.021 -2.63307 -5.39249 0
M  V30 4211 H 408.091 -2.76284 -3.98491 0
M  V30 4212 N 409.434 1.37368 -0.772513 0
M  V30 4213 C 410.681 1.99673 -0.337182 0
M  V30 4214 C 411.009 1.61324 1.0865 0
M  V30 4215 O 410.264 0.851377 1.7621 0
M  V30 4216 C 410.563 3.54817 -0.428876 0
M  V30 4217 C 410.229 4.12936 -1.81092 0
M  V30 4218 C 408.891 4.28523 -2.1891 0
M  V30 4219 C 411.243 4.44801 -2.71664 0
M  V30 4220 C 408.571 4.73277 -3.46735 0
M  V30 4221 C 410.923 4.90981 -3.98899 0
M  V30 4222 C 409.587 5.04773 -4.36761 0
M  V30 4223 H 408.857 0.730656 -0.123384 0
M  V30 4224 H 411.504 1.64124 -0.986686 0
M  V30 4225 H 409.809 3.90618 0.304167 0
M  V30 4226 H 411.506 4.00933 -0.0733334 0
M  V30 4227 H 408.096 4.01233 -1.50699 0
M  V30 4228 H 412.28 4.32344 -2.43706 0
M  V30 4229 H 407.536 4.82142 -3.75964 0
M  V30 4230 H 411.71 5.14603 -4.69208 0
M  V30 4231 H 409.337 5.39211 -5.35868 0
M  V30 4232 N 410.912 0.523116 1.48665 0
M  V30 4233 C 411.875 -0.232592 2.28017 0
M  V30 4234 C 412.875 -0.874021 1.34972 0
M  V30 4235 O 414.065 -0.735132 1.57929 0
M  V30 4236 C 411.197 -1.33586 3.13636 0
M  V30 4237 H 412.39 0.464008 2.96289 0
M  V30 4238 H 409.943 0.278816 1.53793 0
M  V30 4239 H 410.678 -2.06593 2.4998 0
M  V30 4240 H 410.463 -0.881125 3.82071 0
M  V30 4241 H 411.953 -1.86759 3.73511 0
M  V30 4242 N 412.39 -1.55475 0.257931 0
M  V30 4243 C 413.638 -1.98813 -0.363009 0
M  V30 4244 C 413.959 -1.14757 -1.57657 0
M  V30 4245 O 413.229 -0.232956 -1.9451 0
M  V30 4246 H 411.809 -0.734308 -0.137113 0
M  V30 4247 H 414.471 -1.9156 0.359281 0
M  V30 4248 H 413.567 -3.04941 -0.664634 0
M  V30 4249 N 413.868 0.0150385 -1.57593 0
M  V30 4250 C 414.778 1.02791 -2.10882 0
M  V30 4251 C 415.794 1.38702 -1.0506 0
M  V30 4252 O 416.97 1.47739 -1.36877 0
M  V30 4253 C 414.035 2.30568 -2.58919 0
M  V30 4254 C 413.096 2.01108 -3.79281 0
M  V30 4255 C 412.329 3.22794 -4.25018 0
M  V30 4256 O 412.552 4.33959 -3.70183 0
M  V30 4257 O 411.486 3.07672 -5.17322 0
M  V30 4258 H 415.312 0.604973 -2.97613 0
M  V30 4259 H 412.897 0.23292 -1.47573 0
M  V30 4260 H 414.779 3.05662 -2.90084 0
M  V30 4261 H 413.454 2.72129 -1.75293 0
M  V30 4262 H 412.361 1.23537 -3.53114 0
M  V30 4263 H 413.694 1.64394 -4.63935 0
M  V30 4264 N 415.346 1.54954 0.287554 0
M  V30 4265 C 416.309 1.86076 1.33823 0
M  V30 4266 C 417.309 0.734414 1.43049 0
M  V30 4267 O 418.499 1.00266 1.42452 0
M  V30 4268 C 415.631 2.05305 2.72144 0
M  V30 4269 H 416.824 2.79984 1.07465 0
M  V30 4270 H 414.377 1.47223 0.524902 0
M  V30 4271 H 415.112 1.1373 3.03704 0
M  V30 4272 H 414.897 2.873 2.66836 0
M  V30 4273 H 416.387 2.30706 3.48087 0
M  V30 4274 N 416.824 -0.551391 1.4764 0
M  V30 4275 C 418.052 -1.33357 1.58189 0
M  V30 4276 C 418.467 -1.87342 0.234199 0
M  V30 4277 O 417.824 -1.65301 -0.77343 0
M  V30 4278 C 417.875 -2.49942 2.61173 0
M  V30 4279 O 417.596 -1.98187 3.90709 0
M  V30 4280 C 419.097 -3.42072 2.8196 0
M  V30 4281 H 416.317 -0.40631 0.533998 0
M  V30 4282 H 418.861 -0.667367 1.93304 0
M  V30 4283 H 417.016 -3.12489 2.28975 0
M  V30 4284 H 417.43 -2.74342 4.47031 0
M  V30 4285 H 418.904 -4.20278 3.57869 0
M  V30 4286 H 419.381 -3.95978 1.89995 0
M  V30 4287 H 419.987 -2.85336 3.15378 0
M  V30 4288 N 418.302 -1.35869 -0.798587 0
M  V30 4289 C 419.718 -1.16082 -1.09532 0
M  V30 4290 C 419.918 0.0213124 -2.01489 0
M  V30 4291 O 418.974 0.689488 -2.42904 0
M  V30 4292 C 420.287 -2.46748 -1.7186 0
M  V30 4293 C 421.835 -2.53028 -1.84244 0
M  V30 4294 C 422.31 -3.83758 -2.49988 0
M  V30 4295 N 423.801 -3.85053 -2.57465 0
M  V30 4296 C 424.536 -4.8294 -3.09122 0
M  V30 4297 N 424.032 -5.91217 -3.61157 0
M  V30 4298 N 425.825 -4.70369 -3.0775 0
M  V30 4299 H 417.976 -2.11571 -0.187461 0
M  V30 4300 H 420.239 -0.936726 -0.145765 0
M  V30 4301 H 419.945 -3.33471 -1.11759 0
M  V30 4302 H 419.819 -2.61883 -2.71472 0
M  V30 4303 H 422.206 -1.66729 -2.43486 0
M  V30 4304 H 422.287 -2.418 -0.834643 0
M  V30 4305 H 421.931 -4.70459 -1.91393 0
M  V30 4306 H 421.861 -3.92278 -3.5132 0
M  V30 4307 H 424.352 -3.06822 -2.20609 0
M  V30 4308 H 424.665 -6.61892 -3.98896 0
M  V30 4309 H 423.01 -5.94899 -3.59333 0
M  V30 4310 H 426.201 -3.84914 -2.66381 0
M  V30 4311 H 426.374 -5.46816 -3.47701 0
M  V30 4312 N 419.78 1.02168 -1.19998 0
M  V30 4313 C 420.71 2.12488 -0.96804 0
M  V30 4314 C 421.691 1.69799 0.101185 0
M  V30 4315 O 422.876 1.94121 -0.0552993 0
M  V30 4316 C 420.006 3.43479 -0.513776 0
M  V30 4317 C 418.96 3.99884 -1.52566 0
M  V30 4318 C 418.286 5.26582 -0.928214 0
M  V30 4319 C 419.586 4.33861 -2.90795 0
M  V30 4320 H 421.28 2.32149 -1.89069 0
M  V30 4321 H 418.826 1.11564 -0.910468 0
M  V30 4322 H 420.779 4.20036 -0.338774 0
M  V30 4323 H 419.503 3.23561 0.444493 0
M  V30 4324 H 418.162 3.25429 -1.68794 0
M  V30 4325 H 417.81 5.02986 0.0378289 0
M  V30 4326 H 417.51 5.65284 -1.60397 0
M  V30 4327 H 419.034 6.05799 -0.764167 0
M  V30 4328 H 420.448 5.01327 -2.78109 0
M  V30 4329 H 418.845 4.83664 -3.55231 0
M  V30 4330 H 419.915 3.42848 -3.42904 0
M  V30 4331 N 421.258 1.00505 1.21394 0
M  V30 4332 C 422.221 0.570459 2.21987 0
M  V30 4333 C 423.221 -0.353211 1.56873 0
M  V30 4334 O 424.411 -0.14349 1.73608 0
M  V30 4335 C 421.543 -0.168555 3.40483 0
M  V30 4336 H 422.736 1.46021 2.6195 0
M  V30 4337 H 420.289 0.793565 1.34656 0
M  V30 4338 H 421.024 -1.07374 3.06009 0
M  V30 4339 H 420.809 0.494823 3.88965 0
M  V30 4340 H 422.299 -0.460362 4.15055 0
M  V30 4341 N 422.737 -1.36956 0.779787 0
M  V30 4342 C 423.967 -2.03459 0.358877 0
M  V30 4343 C 424.375 -1.58939 -1.02641 0
M  V30 4344 O 423.718 -0.769777 -1.66794 0
M  V30 4345 C 423.78 -3.5796 0.332393 0
M  V30 4346 C 423.444 -4.25644 1.66362 0
M  V30 4347 C 424.441 -4.49205 2.61746 0
M  V30 4348 C 422.126 -4.63313 1.94027 0
M  V30 4349 C 424.12 -5.09503 3.82996 0
M  V30 4350 C 421.807 -5.2333 3.15546 0
M  V30 4351 C 422.805 -5.46363 4.0985 0
M  V30 4352 O 422.493 -6.05122 5.29228 0
M  V30 4353 H 422.225 -0.659767 0.147254 0
M  V30 4354 H 424.779 -1.76111 1.05708 0
M  V30 4355 H 423.009 -3.84388 -0.422237 0
M  V30 4356 H 424.698 -4.05852 -0.0625389 0
M  V30 4357 H 425.464 -4.20508 2.41657 0
M  V30 4358 H 421.343 -4.44715 1.21448 0
M  V30 4359 H 424.887 -5.27397 4.56617 0
M  V30 4360 H 420.784 -5.51451 3.35517 0
M  V30 4361 H 421.552 -6.23595 5.30161 0
M  V30 4362 N 424.215 -0.530993 -1.48385 0
M  V30 4363 C 425.148 0.278511 -2.26494 0
M  V30 4364 C 426.126 0.943905 -1.32398 0
M  V30 4365 O 427.31 0.968098 -1.61741 0
M  V30 4366 C 424.437 1.39453 -3.08659 0
M  V30 4367 C 423.483 0.840434 -4.18137 0
M  V30 4368 S 424.316 -0.292496 -5.34701 0
M  V30 4369 C 425.472 0.825973 -6.20426 0
M  V30 4370 H 425.705 -0.384365 -2.94805 0
M  V30 4371 H 423.238 -0.316799 -1.51115 0
M  V30 4372 H 425.196 2.03382 -3.56575 0
M  V30 4373 H 423.857 2.02913 -2.3976 0
M  V30 4374 H 423.05 1.67769 -4.75257 0
M  V30 4375 H 422.652 0.277819 -3.72967 0
M  V30 4376 H 424.944 1.72438 -6.55188 0
M  V30 4377 H 425.887 0.292728 -7.07495 0
M  V30 4378 H 426.295 1.10683 -5.53543 0
M  V30 4379 N 425.693 1.55336 -0.266172 0
M  V30 4380 C 426.921 2.03801 0.356756 0
M  V30 4381 C 427.336 1.14485 1.50129 0
M  V30 4382 O 426.693 0.163121 1.8177 0
M  V30 4383 C 426.744 3.51455 0.846281 0
M  V30 4384 O 426.465 4.37371 -0.252663 0
M  V30 4385 C 427.966 4.15767 1.53794 0
M  V30 4386 H 425.186 0.665906 0.0825218 0
M  V30 4387 H 427.73 2.00636 -0.39566 0
M  V30 4388 H 425.885 3.55092 1.54881 0
M  V30 4389 H 426.299 5.24358 0.122173 0
M  V30 4390 H 427.773 5.20714 1.83198 0
M  V30 4391 H 428.25 3.63404 2.46646 0
M  V30 4392 H 428.856 4.16107 0.879488 0
M  V30 4393 N 427.171 -0.0066808 1.57599 0
M  V30 4394 C 428.448 -0.729586 1.81484 0
M  V30 4395 C 428.828 -1.92359 0.869558 0
M  V30 4396 O 428.176 -2.28348 -0.0832533 0
M  V30 4397 C 428.386 -1.1416 3.29801 0
M  V30 4398 C 429.734 -1.54823 3.95367 0
M  V30 4399 O 430.758 -1.23558 3.34084 0
M  V30 4400 O 429.617 -2.12937 5.03309 0
M  V30 4401 H 426.711 -0.354674 0.747085 0
M  V30 4402 H 429.257 0.0182609 1.6969 0
M  V30 4403 H 428.029 -0.290231 3.90222 0
M  V30 4404 H 427.652 -1.94876 3.46568 0
M  V30 4405 N 428.649 -1.55105 -0.279332 0
M  V30 4406 C 429.559 -1.90638 -1.36727 0
M  V30 4407 C 430.575 -0.802899 -1.54368 0
M  V30 4408 O 431.751 -1.10138 -1.68616 0
M  V30 4409 C 428.816 -2.16547 -2.70755 0
M  V30 4410 C 427.877 -3.40146 -2.61915 0
M  V30 4411 C 427.11 -3.6481 -3.8955 0
M  V30 4412 O 427.333 -2.92095 -4.89935 0
M  V30 4413 O 426.267 -4.58343 -3.90135 0
M  V30 4414 H 430.093 -2.83237 -1.09591 0
M  V30 4415 H 427.678 -1.4157 -0.477306 0
M  V30 4416 H 429.56 -2.34665 -3.50014 0
M  V30 4417 H 428.235 -1.27131 -2.9769 0
M  V30 4418 H 427.142 -3.2737 -1.81052 0
M  V30 4419 H 428.475 -4.29761 -2.3993 0
M  V30 4420 N 430.127 0.543554 -1.4793 0
M  V30 4421 C 431.09 1.63156 -1.60975 0
M  V30 4422 C 432.09 1.53346 -0.483899 0
M  V30 4423 O 433.28 1.5726 -0.749339 0
M  V30 4424 C 430.412 3.02743 -1.56716 0
M  V30 4425 H 431.605 1.52934 -2.57975 0
M  V30 4426 H 429.158 0.764557 -1.36324 0
M  V30 4427 H 429.893 3.18484 -0.611418 0
M  V30 4428 H 429.678 3.11272 -2.38438 0
M  V30 4429 H 431.168 3.81871 -1.6901 0
M  V30 4430 N 431.605 1.3629 0.791371 0
M  V30 4431 C 432.851 1.30605 1.55146 0
M  V30 4432 C 433.184 -0.115042 1.93859 0
M  V30 4433 O 432.459 -1.06798 1.62556 0
M  V30 4434 C 432.742 2.22692 2.82985 0
M  V30 4435 C 432.595 3.73489 2.50651 0
M  V30 4436 C 433.914 2.13588 3.84796 0
M  V30 4437 H 431.033 0.475761 0.562868 0
M  V30 4438 H 433.675 1.66825 0.909358 0
M  V30 4439 H 431.825 1.91933 3.37778 0
M  V30 4440 H 433.497 4.14758 2.01924 0
M  V30 4441 H 431.74 3.93021 1.83622 0
M  V30 4442 H 432.411 4.3333 3.41949 0
M  V30 4443 H 434.887 2.40659 3.39445 0
M  V30 4444 H 433.763 2.80195 4.71998 0
M  V30 4445 H 434.024 1.12256 4.27611 0
M  V30 4446 N 433.083 -1.0153 1.20538 0
M  V30 4447 C 433.993 -2.13557 0.971113 0
M  V30 4448 C 435.009 -1.73845 -0.0734366 0
M  V30 4449 O 436.185 -2.01075 0.114299 0
M  V30 4450 C 433.25 -3.42661 0.527639 0
M  V30 4451 C 432.311 -3.96608 1.64319 0
M  V30 4452 C 431.544 -5.1955 1.22078 0
M  V30 4453 O 431.767 -5.70329 0.0900198 0
M  V30 4454 O 430.701 -5.66681 2.02871 0
M  V30 4455 H 434.527 -2.3619 1.90913 0
M  V30 4456 H 432.112 -1.11946 0.989362 0
M  V30 4457 H 433.994 -4.20404 0.289621 0
M  V30 4458 H 432.669 -3.21441 -0.381779 0
M  V30 4459 H 431.576 -3.20139 1.93551 0
M  V30 4460 H 432.909 -4.22219 2.52966 0
M  V30 4461 N 434.561 -1.01147 -1.20859 0
M  V30 4462 C 435.809 -0.696486 -1.89719 0
M  V30 4463 C 436.13 0.775788 -1.78904 0
M  V30 4464 O 435.4 1.55759 -1.18811 0
M  V30 4465 H 433.98 -0.254628 -0.702263 0
M  V30 4466 H 436.642 -1.28197 -1.46804 0
M  V30 4467 H 435.738 -0.975357 -2.96468 0
M  V30 4468 N 436.039 1.36541 -0.78704 0
M  V30 4469 C 437.455 1.52571 -0.46844 0
M  V30 4470 C 437.655 1.7415 1.01361 0
M  V30 4471 O 436.711 1.77163 1.79915 0
M  V30 4472 C 438.024 2.71299 -1.29682 0
M  V30 4473 C 439.572 2.85169 -1.29027 0
M  V30 4474 C 440.047 4.06898 -2.10233 0
M  V30 4475 N 441.538 4.1404 -2.07666 0
M  V30 4476 C 442.273 5.07301 -2.67271 0
M  V30 4477 N 441.769 6.06021 -3.35724 0
M  V30 4478 N 443.562 4.99898 -2.57018 0
M  V30 4479 H 435.713 1.20788 -1.74711 0
M  V30 4480 H 437.976 0.589364 -0.742532 0
M  V30 4481 H 437.682 2.61868 -2.34773 0
M  V30 4482 H 437.556 3.6539 -0.936479 0
M  V30 4483 H 439.943 2.94062 -0.247284 0
M  V30 4484 H 440.024 1.91992 -1.69035 0
M  V30 4485 H 439.668 3.98766 -3.1456 0
M  V30 4486 H 439.598 4.99218 -1.67597 0
M  V30 4487 H 442.089 3.43357 -1.57843 0
M  V30 4488 H 442.402 6.73741 -3.78541 0
M  V30 4489 H 440.747 6.06253 -3.39826 0
M  V30 4490 H 443.938 4.21724 -2.03142 0
M  V30 4491 H 444.111 5.72392 -3.03761 0
M  V30 4492 N 437.518 0.538854 1.48102 0
M  V30 4493 C 438.795 -0.0568108 1.95517 0
M  V30 4494 C 439.175 -1.50408 1.48124 0
M  V30 4495 O 438.523 -2.17133 0.711727 0
M  V30 4496 C 438.733 0.0696262 3.48931 0
M  V30 4497 C 440.081 -0.0851202 4.24515 0
M  V30 4498 O 441.105 -0.0037347 3.562 0
M  V30 4499 O 439.964 -0.257025 5.45895 0
M  V30 4500 H 437.058 -0.0743695 0.823649 0
M  V30 4501 H 439.604 0.604081 1.58584 0
M  V30 4502 H 438.376 1.07744 3.76174 0
M  V30 4503 H 437.999 -0.629714 3.92582 0
M  V30 4504 N 438.996 -1.55193 0.274407 0
M  V30 4505 C 439.959 -2.212 -0.600279 0
M  V30 4506 C 440.959 -1.18963 -1.08187 0
M  V30 4507 O 442.149 -1.43873 -0.982158 0
M  V30 4508 C 439.281 -2.87739 -1.82809 0
M  V30 4509 H 440.474 -2.9989 -0.0239682 0
M  V30 4510 H 438.027 -1.5628 0.0250192 0
M  V30 4511 H 438.762 -2.13058 -2.44493 0
M  V30 4512 H 438.547 -3.62658 -1.49069 0
M  V30 4513 H 440.037 -3.38171 -2.45011 0
M  V30 4514 N 440.474 -0.00167713 -1.576 0
M  V30 4515 C 441.721 0.68282 -1.90641 0
M  V30 4516 C 442.049 1.73686 -0.875415 0
M  V30 4517 O 441.304 1.95334 0.119575 0
M  V30 4518 C 441.603 1.36189 -3.30435 0
M  V30 4519 C 441.269 0.440887 -4.48739 0
M  V30 4520 C 439.931 0.187312 -4.80835 0
M  V30 4521 C 442.283 -0.193134 -5.20842 0
M  V30 4522 C 439.611 -0.70855 -5.82406 0
M  V30 4523 C 441.963 -1.07688 -6.23367 0
M  V30 4524 C 440.627 -1.33962 -6.53919 0
M  V30 4525 H 439.897 0.249862 -0.697603 0
M  V30 4526 H 442.544 -0.0575642 -1.91413 0
M  V30 4527 H 440.849 2.17636 -3.25794 0
M  V30 4528 H 442.546 1.89759 -3.5326 0
M  V30 4529 H 439.136 0.648694 -4.23663 0
M  V30 4530 H 443.32 -0.0102445 -4.96299 0
M  V30 4531 H 438.576 -0.920097 -6.04437 0
M  V30 4532 H 442.75 -1.57451 -6.78367 0
M  V30 4533 H 440.377 -2.03549 -7.32442 0
M  V30 4534 N 441.952 1.55251 0.271103 0
M  V30 4535 C 442.882 1.9127 1.33933 0
M  V30 4536 C 443.863 0.77478 1.5143 0
M  V30 4537 O 445.048 1.03307 1.64442 0
M  V30 4538 C 442.178 2.18627 2.69851 0
M  V30 4539 C 441.132 3.34442 2.67081 0
M  V30 4540 C 440.458 3.47284 4.06569 0
M  V30 4541 C 441.758 4.70784 2.26185 0
M  V30 4542 H 443.452 2.80744 1.04035 0
M  V30 4543 H 440.998 1.35077 0.499017 0
M  V30 4544 H 442.951 2.42413 3.44694 0
M  V30 4545 H 441.675 1.25955 3.01335 0
M  V30 4546 H 440.334 3.10627 1.94695 0
M  V30 4547 H 439.982 2.52074 4.35279 0
M  V30 4548 H 439.682 4.25152 4.0561 0
M  V30 4549 H 441.206 3.73363 4.83148 0
M  V30 4550 H 442.62 4.94102 2.90751 0
M  V30 4551 H 441.017 5.51582 2.36384 0
M  V30 4552 H 442.087 4.69478 1.21319 0
M  V30 4553 N 443.43 -0.535701 1.48216 0
M  V30 4554 C 444.362 -1.65662 1.58394 0
M  V30 4555 C 445.375 -1.5591 0.468607 0
M  V30 4556 O 446.564 -1.62475 0.7392 0
M  V30 4557 C 443.664 -3.04276 1.4923 0
M  V30 4558 C 442.837 -3.39567 2.75705 0
M  V30 4559 C 441.896 -4.57436 2.60075 0
M  V30 4560 O 440.922 -4.60942 3.33948 0
M  V30 4561 N 442.124 -5.55259 1.69315 0
M  V30 4562 H 444.889 -1.5737 2.55058 0
M  V30 4563 H 442.45 -0.722845 1.44867 0
M  V30 4564 H 444.442 -3.80994 1.36477 0
M  V30 4565 H 443.012 -3.06677 0.605632 0
M  V30 4566 H 442.232 -2.52083 3.03064 0
M  V30 4567 H 443.52 -3.59929 3.59623 0
M  V30 4568 H 442.918 -5.552 1.08489 0
M  V30 4569 H 441.475 -6.31218 1.62504 0
M  V30 4570 N 444.908 -1.36708 -0.784132 0
M  V30 4571 C 445.855 -1.31466 -1.89698 0
M  V30 4572 C 446.825 -0.18239 -1.65096 0
M  V30 4573 O 448.01 -0.369762 -1.87183 0
M  V30 4574 C 445.15 -1.1151 -3.26588 0
M  V30 4575 C 444.263 -2.33859 -3.63227 0
M  V30 4576 C 443.398 -2.06873 -4.89262 0
M  V30 4577 C 442.437 -3.25154 -5.18595 0
M  V30 4578 N 441.574 -2.978 -6.35814 0
M  V30 4579 H 446.414 -2.26619 -1.93515 0
M  V30 4580 H 443.951 -1.12625 -0.946256 0
M  V30 4581 H 445.909 -0.979653 -4.05535 0
M  V30 4582 H 444.539 -0.200103 -3.22179 0
M  V30 4583 H 443.591 -2.58188 -2.79362 0
M  V30 4584 H 444.903 -3.22109 -3.8085 0
M  V30 4585 H 444.057 -1.90289 -5.76086 0
M  V30 4586 H 442.796 -1.15942 -4.73718 0
M  V30 4587 H 441.801 -3.42292 -4.30251 0
M  V30 4588 H 443.026 -4.1692 -5.36055 0
M  V30 4589 H 440.972 -2.09485 -6.21653 0
M  V30 4590 H 440.889 -3.7959 -6.53794 0
M  V30 4591 H 442.157 -2.84805 -7.25607 0
M  V30 4592 N 446.386 1.0089 -1.21074 0
M  V30 4593 C 447.802 1.2695 -0.967257 0
M  V30 4594 C 448.002 1.9846 0.348673 0
M  V30 4595 O 447.058 2.28459 1.0753 0
M  V30 4596 C 448.371 2.09697 -2.15517 0
M  V30 4597 C 449.919 2.22937 -2.197 0
M  V30 4598 C 450.394 3.09064 -3.37999 0
M  V30 4599 N 451.885 3.16653 -3.38061 0
M  V30 4600 C 452.62 3.8354 -4.26245 0
M  V30 4601 N 452.116 4.52488 -5.2462 0
M  V30 4602 N 453.909 3.80141 -4.14064 0
M  V30 4603 H 446.06 0.529005 -2.05707 0
M  V30 4604 H 448.323 0.296148 -0.900556 0
M  V30 4605 H 448.029 1.64497 -3.10859 0
M  V30 4606 H 447.903 3.10444 -2.14253 0
M  V30 4607 H 450.29 2.67357 -1.24916 0
M  V30 4608 H 450.371 1.21673 -2.2501 0
M  V30 4609 H 450.015 2.65347 -4.33074 0
M  V30 4610 H 449.945 4.10433 -3.29928 0
M  V30 4611 H 452.436 2.67566 -2.66865 0
M  V30 4612 H 452.749 5.01219 -5.88217 0
M  V30 4613 H 451.094 4.51288 -5.28549 0
M  V30 4614 H 454.285 3.25427 -3.36474 0
M  V30 4615 H 454.458 4.31992 -4.82998 0
M  V30 4616 N 447.864 1.01787 1.20321 0
M  V30 4617 C 449.275 0.739307 1.71438 0
M  V30 4618 C 449.626 -0.742041 1.81627 0
M  V30 4619 O 448.751 -1.57903 1.47971 0
M  V30 4620 C 449.346 1.33538 3.11373 0
M  V30 4621 C 447.905 1.10566 3.59795 0
M  V30 4622 C 447.052 1.44028 2.36962 0
M  V30 4623 H 450.003 1.18718 1.05317 0
M  V30 4624 H 450.024 0.726611 3.73498 0
M  V30 4625 H 449.536 2.41352 3.03926 0
M  V30 4626 H 447.637 0.0452405 3.72573 0
M  V30 4627 H 447.75 1.78661 4.44542 0
M  V30 4628 H 446.114 0.85933 2.39766 0
M  V30 4629 H 446.897 2.52901 2.32155 0
M  V30 4630 N 449.342 -1.36122 0.79427 0
M  V30 4631 C 450.753 -1.81646 0.431446 0
M  V30 4632 C 451.104 -1.66043 -1.04518 0
M  V30 4633 O 450.229 -1.1841 -1.8113 0
M  V30 4634 C 450.824 -3.29785 0.776341 0
M  V30 4635 C 449.383 -3.73501 0.466282 0
M  V30 4636 C 448.53 -2.58313 1.00844 0
M  V30 4637 H 451.481 -1.24274 0.986995 0
M  V30 4638 H 451.502 -3.80437 0.0692413 0
M  V30 4639 H 451.014 -3.4111 1.8511 0
M  V30 4640 H 449.115 -3.67733 -0.600245 0
M  V30 4641 H 449.228 -4.68754 0.990288 0
M  V30 4642 H 447.592 -2.5102 0.431406 0
M  V30 4643 H 448.375 -2.72421 2.08906 0
M  V30 4644 N 450.82 -0.546701 -1.47814 0
M  V30 4645 C 452.097 0.0464413 -1.95545 0
M  V30 4646 C 452.477 1.4962 -1.48919 0
M  V30 4647 O 451.825 2.16752 -0.723232 0
M  V30 4648 C 452.035 -0.0881298 -3.48889 0
M  V30 4649 C 453.383 0.0626059 -4.24554 0
M  V30 4650 O 454.407 -0.0151555 -3.56197 0
M  V30 4651 O 453.266 0.228071 -5.46024 0
M  V30 4652 H 450.36 0.0700004 -0.824032 0
M  V30 4653 H 452.906 -0.612482 -1.58262 0
M  V30 4654 H 451.678 -1.09737 -3.75597 0
M  V30 4655 H 451.301 0.608886 -3.9291 0
M  V30 4656 N 452.299 1.55045 -0.282633 0
M  V30 4657 C 453.545 2.0078 0.325436 0
M  V30 4658 C 453.9 1.1676 1.52921 0
M  V30 4659 O 453.193 0.231475 1.90197 0
M  V30 4660 C 453.387 3.49422 0.750938 0
M  V30 4661 C 453.216 4.47827 -0.410056 0
M  V30 4662 C 451.986 4.97288 -0.896239 0
M  V30 4663 C 454.184 4.98903 -1.24902 0
M  V30 4664 N 452.166 5.79508 -2.02591 0
M  V30 4665 C 453.537 5.78644 -2.22646 0
M  V30 4666 C 455.592 4.81126 -1.2815 0
M  V30 4667 C 454.295 6.42502 -3.23393 0
M  V30 4668 C 456.321 5.45789 -2.27745 0
M  V30 4669 C 455.683 6.25348 -3.24222 0
M  V30 4670 H 451.782 0.77747 0.08405 0
M  V30 4671 H 454.366 1.90369 -0.408368 0
M  V30 4672 H 452.537 3.60159 1.45395 0
M  V30 4673 H 454.269 3.81978 1.33698 0
M  V30 4674 H 451.024 4.71219 -0.474277 0
M  V30 4675 H 451.448 6.25308 -2.59459 0
M  V30 4676 H 456.09 4.19215 -0.549397 0
M  V30 4677 H 453.808 7.03558 -3.97533 0
M  V30 4678 H 457.394 5.33972 -2.31009 0
M  V30 4679 H 456.274 6.74498 -4.00027 0
M  V30 4680 N 453.777 0.010035 1.57597 0
M  V30 4681 C 455.002 -0.687021 1.95691 0
M  V30 4682 C 455.427 -1.65952 0.885519 0
M  V30 4683 O 454.785 -1.80633 -0.15543 0
M  V30 4684 C 454.833 -1.3864 3.32884 0
M  V30 4685 O 453.937 -2.50115 3.27897 0
M  V30 4686 H 453.278 -0.181989 0.638573 0
M  V30 4687 H 455.808 0.0662122 2.04493 0
M  V30 4688 H 455.818 -1.74754 3.6868 0
M  V30 4689 H 454.493 -0.673411 4.10412 0
M  V30 4690 H 453.07 -2.16253 3.03791 0
M  V30 4691 N 455.255 -1.55392 -0.262866 0
M  V30 4692 C 456.666 -1.67079 -0.833158 0
M  V30 4693 C 457.017 -0.604539 -1.86654 0
M  V30 4694 O 456.142 0.252138 -2.14926 0
M  V30 4695 C 456.737 -3.02891 -1.51797 0
M  V30 4696 C 455.296 -3.16571 -2.03617 0
M  V30 4697 C 454.443 -2.62909 -0.881701 0
M  V30 4698 H 457.394 -1.58652 -0.0389986 0
M  V30 4699 H 457.415 -2.96445 -2.38538 0
M  V30 4700 H 456.927 -3.80473 -0.765619 0
M  V30 4701 H 455.028 -2.43782 -2.81782 0
M  V30 4702 H 455.141 -4.23271 -2.24452 0
M  V30 4703 H 453.505 -2.20324 -1.27786 0
M  V30 4704 H 454.288 -3.43003 -0.14269 0
M  V30 4705 N 456.733 0.527833 -1.48498 0
M  V30 4706 C 457.98 1.28354 -1.56625 0
M  V30 4707 C 458.308 1.93 -0.241096 0
M  V30 4708 O 457.563 1.79967 0.768798 0
M  V30 4709 C 457.862 2.39275 -2.65485 0
M  V30 4710 C 457.528 1.92268 -4.07853 0
M  V30 4711 C 456.19 1.79166 -4.46602 0
M  V30 4712 C 458.542 1.56771 -4.97064 0
M  V30 4713 C 455.87 1.28905 -5.72364 0
M  V30 4714 C 458.222 1.07972 -6.23318 0
M  V30 4715 C 456.886 0.934887 -6.60921 0
M  V30 4716 H 456.156 0.469682 -0.573131 0
M  V30 4717 H 458.803 0.588781 -1.82224 0
M  V30 4718 H 457.108 3.1443 -2.33754 0
M  V30 4719 H 458.805 2.974 -2.68988 0
M  V30 4720 H 455.395 2.03417 -3.77252 0
M  V30 4721 H 459.579 1.65753 -4.67803 0
M  V30 4722 H 454.835 1.16381 -6.00221 0
M  V30 4723 H 459.009 0.795775 -6.91838 0
M  V30 4724 H 456.636 0.543231 -7.58257 0
M  V30 4725 N 458.211 1.37122 0.776871 0
M  V30 4726 C 459.622 1.28667 1.35284 0
M  V30 4727 C 459.973 -0.0680035 1.96082 0
M  V30 4728 O 459.098 -0.969743 1.93455 0
M  V30 4729 C 459.693 2.32997 2.45963 0
M  V30 4730 C 458.252 2.28191 2.99342 0
M  V30 4731 C 457.399 2.17101 1.72517 0
M  V30 4732 H 460.35 1.47819 0.577527 0
M  V30 4733 H 460.371 1.97366 3.2531 0
M  V30 4734 H 459.883 3.3158 2.01684 0
M  V30 4735 H 457.984 1.33115 3.4801 0
M  V30 4736 H 458.097 3.21397 3.55304 0
M  V30 4737 H 456.461 1.63562 1.95242 0
M  V30 4738 H 457.244 3.17591 1.30348 0
M  V30 4739 N 459.689 -1.00246 1.21608 0
M  V30 4740 C 461.105 -1.26435 0.973975 0
M  V30 4741 C 461.305 -1.98642 -0.338143 0
M  V30 4742 O 460.361 -2.29026 -1.06317 0
M  V30 4743 C 461.674 -2.08551 2.16626 0
M  V30 4744 C 463.222 -2.21769 2.20879 0
M  V30 4745 C 463.697 -3.07267 3.39633 0
M  V30 4746 N 465.188 -3.14855 3.39736 0
M  V30 4747 C 465.923 -3.81274 4.28273 0
M  V30 4748 N 465.419 -4.497 5.27012 0
M  V30 4749 N 467.212 -3.7794 4.16074 0
M  V30 4750 H 459.363 -0.518089 2.05984 0
M  V30 4751 H 461.626 -0.291368 0.902113 0
M  V30 4752 H 461.332 -1.62847 3.11727 0
M  V30 4753 H 461.206 -3.09303 2.15897 0
M  V30 4754 H 463.593 -2.66691 1.26332 0
M  V30 4755 H 463.674 -1.20478 2.25652 0
M  V30 4756 H 463.318 -2.63047 4.34475 0
M  V30 4757 H 463.248 -4.08678 3.321 0
M  V30 4758 H 465.739 -2.66147 2.6828 0
M  V30 4759 H 466.052 -4.98092 5.90867 0
M  V30 4760 H 464.397 -4.48479 5.30935 0
M  V30 4761 H 467.588 -3.23638 3.38195 0
M  V30 4762 H 467.761 -4.29424 4.85282 0
M  V30 4763 N 461.167 -1.02423 -1.1978 0
M  V30 4764 C 462.397 -0.736387 -1.93031 0
M  V30 4765 C 462.805 0.708023 -1.75453 0
M  V30 4766 O 462.148 1.4927 -1.07071 0
M  V30 4767 C 462.21 -1.00194 -3.45255 0
M  V30 4768 C 461.874 -2.43698 -3.86601 0
M  V30 4769 C 462.871 -3.41814 -3.91738 0
M  V30 4770 C 460.556 -2.77975 -4.18372 0
M  V30 4771 C 462.55 -4.72265 -4.28071 0
M  V30 4772 C 460.237 -4.08636 -4.54378 0
M  V30 4773 C 461.235 -5.05592 -4.59201 0
M  V30 4774 O 460.923 -6.33914 -4.94376 0
M  V30 4775 H 460.655 -0.269116 -0.620123 0
M  V30 4776 H 463.209 -1.37043 -1.52998 0
M  V30 4777 H 461.439 -0.310747 -3.85449 0
M  V30 4778 H 463.128 -0.704488 -3.9974 0
M  V30 4779 H 463.894 -3.16671 -3.67348 0
M  V30 4780 H 459.773 -2.0319 -4.13805 0
M  V30 4781 H 463.317 -5.4794 -4.3175 0
M  V30 4782 H 459.214 -4.33556 -4.78226 0
M  V30 4783 H 459.982 -6.38317 -5.12341 0
M  V30 4784 N 462.645 1.35699 -0.801477 0
M  V30 4785 C 463.892 1.98913 -0.379459 0
M  V30 4786 C 464.22 1.63592 1.05204 0
M  V30 4787 O 463.475 0.888563 1.74365 0
M  V30 4788 C 463.774 3.53828 -0.504041 0
M  V30 4789 C 463.44 4.09002 -1.8981 0
M  V30 4790 C 462.102 4.23783 -2.27951 0
M  V30 4791 C 464.454 4.38939 -2.81038 0
M  V30 4792 C 461.782 4.65816 -3.56696 0
M  V30 4793 C 464.134 4.82409 -4.09224 0
M  V30 4794 C 462.798 4.95395 -4.4737 0
M  V30 4795 H 462.068 0.727874 -0.138854 0
M  V30 4796 H 464.715 1.61994 -1.02128 0
M  V30 4797 H 463.02 3.91175 0.221242 0
M  V30 4798 H 464.717 4.00687 -0.158361 0
M  V30 4799 H 461.307 3.97946 -1.59176 0
M  V30 4800 H 465.491 4.27077 -2.52821 0
M  V30 4801 H 460.747 4.74059 -3.86106 0
M  V30 4802 H 464.921 5.04535 -4.80018 0
M  V30 4803 H 462.548 5.27724 -5.47185 0
M  V30 4804 O 464.162 0.695624 1.45751 0
M  V30 4805 H 464.853 0.234379 1.92277 0
M  V30 END ATOM
M  V30 BEGIN BOND
M  V30 END BOND
M  V30 END CTAB
M  END
$$$$
