drugbank_target|P9WNW7 Iron-dependent extradiol dioxygenase (DB08542)
 OpenBabel12092120513D

  0  0  0     0  0            999 V3000
M  V30 BEGIN CTAB
M  V30 COUNTS 4653 4709 0 0 0
M  V30 BEGIN ATOM
M  V30 1 H -0.908 1.98254 -0.117106 0
M  V30 2 N 0 1.576 0 0
M  V30 3 C 0.933 2.03868 1.02534 0
M  V30 4 C 1.911 0.928543 1.3348 0
M  V30 5 O 3.095 1.19667 1.45644 0
M  V30 6 C 0.222 2.43627 2.35294 0
M  V30 7 C -0.732 3.65373 2.2001 0
M  V30 8 S 0.101 5.13292 1.52614 0
M  V30 9 C 1.257 5.56322 2.86805 0
M  V30 10 H 1.49 2.90518 0.631377 0
M  V30 11 H -0.977 1.52953 0.210867 0
M  V30 12 H 0.981 2.67203 3.11629 0
M  V30 13 H -0.358 1.57376 2.7183 0
M  V30 14 H -1.165 3.90944 3.18086 0
M  V30 15 H -1.563 3.418 1.51819 0
M  V30 16 H 0.729 5.58782 3.83104 0
M  V30 17 H 1.672 6.56266 2.65933 0
M  V30 18 H 2.08 4.83886 2.90714 0
M  V30 19 N 1.4781 -0.272755 1.55222 0
M  V30 20 C 2.7031 -1.02683 1.80197 0
M  V30 21 C 3.1281 -1.79142 0.573551 0
M  V30 22 O 2.4861 -1.74917 -0.476849 0
M  V30 23 C 2.5341 -1.9609 3.02624 0
M  V30 24 O 1.6381 -3.04863 2.77727 0
M  V30 25 H 0.9791 -0.293557 0.595584 0
M  V30 26 H 3.5091 -0.30159 2.02365 0
M  V30 27 H 3.5191 -2.38039 3.31363 0
M  V30 28 H 2.1941 -1.39851 3.91682 0
M  V30 29 H 0.7711 -2.67228 2.60084 0
M  V30 30 N 2.9562 -1.48159 -0.537278 0
M  V30 31 C 4.2052 -1.5506 -1.28993 0
M  V30 32 C 4.5182 -0.226211 -1.94288 0
M  V30 33 O 5.7242 -0.173395 -2.70946 0
M  V30 34 C 4.1802 -2.73429 -2.34018 0
M  V30 35 C 3.7882 -4.1248 -1.74825 0
M  V30 36 C 5.5322 -2.89638 -3.10339 0
M  V30 37 C 3.4392 -5.22121 -2.77747 0
M  V30 38 H 2.3692 -0.577231 -0.485098 0
M  V30 39 H 5.0202 -1.74478 -0.568317 0
M  V30 40 H 3.4022 -2.47431 -3.09182 0
M  V30 41 H 4.5762 -4.48466 -1.05899 0
M  V30 42 H 2.8912 -4.01327 -1.11022 0
M  V30 43 H 5.4882 -3.68718 -3.87235 0
M  V30 44 H 5.8312 -1.9882 -3.65754 0
M  V30 45 H 6.3642 -3.15502 -2.42288 0
M  V30 46 H 3.1032 -6.1488 -2.27161 0
M  V30 47 H 2.6232 -4.90631 -3.45024 0
M  V30 48 H 4.3022 -5.49924 -3.4087 0
M  V30 49 N 4.4343 0.785586 -1.36625 0
M  V30 50 C 5.8503 1.08419 -1.17122 0
M  V30 51 C 6.0503 2.015 0.00208491 0
M  V30 52 O 5.1063 2.43551 0.666278 0
M  V30 53 C 6.4193 1.69498 -2.48377 0
M  V30 54 C 7.9673 1.81821 -2.54775 0
M  V30 55 C 8.4423 2.46315 -3.86126 0
M  V30 56 N 9.9333 2.53779 -3.87492 0
M  V30 57 C 10.6683 3.045 -4.85868 0
M  V30 58 N 10.1643 3.55499 -5.94637 0
M  V30 59 N 11.9573 3.03247 -4.73284 0
M  V30 60 H 4.1083 0.167264 -2.1174 0
M  V30 61 H 6.3713 0.13682 -0.938075 0
M  V30 62 H 6.0773 1.08571 -3.34522 0
M  V30 63 H 5.9513 2.6896 -2.64462 0
M  V30 64 H 8.3383 2.41884 -1.69045 0
M  V30 65 H 8.4193 0.811532 -2.42586 0
M  V30 66 H 8.0633 1.86895 -4.72263 0
M  V30 67 H 7.9933 3.47561 -3.95612 0
M  V30 68 H 10.4843 2.17672 -3.08913 0
M  V30 69 H 10.7973 3.92562 -6.65669 0
M  V30 70 H 9.1423 3.5364 -5.98301 0
M  V30 71 H 12.3333 2.62696 -3.87438 0
M  V30 72 H 12.5063 3.42467 -5.50109 0
M  V30 73 N 5.9124 1.20967 1.01018 0
M  V30 74 C 7.1374 1.0503 1.78839 0
M  V30 75 C 7.5624 -0.395752 1.8389 0
M  V30 76 O 6.9204 -1.28529 1.27867 0
M  V30 77 C 6.9684 1.64602 3.2084 0
M  V30 78 O 6.0724 0.887988 4.02726 0
M  V30 79 H 5.4134 0.369987 0.551367 0
M  V30 80 H 7.9434 1.60399 1.27018 0
M  V30 81 H 7.9534 1.68607 3.71532 0
M  V30 82 H 6.6284 2.69841 3.16479 0
M  V30 83 H 5.2054 0.922648 3.61305 0
M  V30 84 N 7.3905 -1.2043 1.01659 0
M  V30 85 C 8.3205 -2.25466 0.607226 0
M  V30 86 C 9.3015 -1.65853 -0.377716 0
M  V30 87 O 10.4865 -1.92409 -0.263149 0
M  V30 88 C 7.6165 -3.47256 -0.0552949 0
M  V30 89 C 6.5705 -4.19462 0.850632 0
M  V30 90 C 5.8965 -5.34673 0.0538859 0
M  V30 91 C 7.1965 -4.75603 2.15868 0
M  V30 92 H 8.8905 -2.59962 1.48526 0
M  V30 93 H 6.4365 -1.2496 0.715605 0
M  V30 94 H 8.3895 -4.19917 -0.353233 0
M  V30 95 H 7.1135 -3.11924 -0.968045 0
M  V30 96 H 5.7725 -3.48667 1.13257 0
M  V30 97 H 5.4205 -4.95585 -0.860514 0
M  V30 98 H 5.1205 -5.83913 0.657192 0
M  V30 99 H 6.6445 -6.10138 -0.237598 0
M  V30 100 H 8.0585 -5.40083 1.92311 0
M  V30 101 H 6.4555 -5.3528 2.71284 0
M  V30 102 H 7.5255 -3.94346 2.82169 0
M  V30 103 N 8.8686 -0.792821 -1.36206 0
M  V30 104 C 10.1166 -0.366062 -1.98757 0
M  V30 105 C 10.4376 1.0668 -1.63231 0
M  V30 106 O 9.7076 1.73587 -0.907978 0
M  V30 107 H 8.2876 -0.132364 -0.735179 0
M  V30 108 H 10.9496 -1.01562 -1.66347 0
M  V30 109 H 10.0456 -0.460638 -3.08682 0
M  V30 110 N 10.3467 1.47872 -0.545128 0
M  V30 111 C 11.5767 2.06589 -0.0210534 0
M  V30 112 C 11.9847 1.39997 1.27269 0
M  V30 113 O 11.3277 0.486421 1.77143 0
M  V30 114 C 11.3897 3.58574 0.257933 0
M  V30 115 C 11.0537 4.47132 -0.944573 0
M  V30 116 C 12.0507 4.85986 -1.84699 0
M  V30 117 C 9.7357 4.88821 -1.15584 0
M  V30 118 C 11.7297 5.65314 -2.94446 0
M  V30 119 C 9.4167 5.67916 -2.25642 0
M  V30 120 C 10.4147 6.06073 -3.14905 0
M  V30 121 O 10.1027 6.83578 -4.23057 0
M  V30 122 H 9.8347 0.674971 -0.0372899 0
M  V30 123 H 12.3887 1.91037 -0.754599 0
M  V30 124 H 10.6187 3.72295 1.04564 0
M  V30 125 H 12.3077 3.99356 0.72592 0
M  V30 126 H 13.0737 4.54388 -1.69577 0
M  V30 127 H 8.9527 4.58595 -0.470279 0
M  V30 128 H 12.4967 5.95016 -3.64145 0
M  V30 129 H 8.3937 5.98927 -2.40742 0
M  V30 130 H 9.1617 7.01954 -4.20954 0
M  V30 131 N 11.8248 0.280983 1.55075 0
M  V30 132 C 12.7548 -0.597469 2.25727 0
M  V30 133 C 13.7358 -1.15417 1.24952 0
M  V30 134 O 14.9208 -1.18722 1.53684 0
M  V30 135 C 12.0508 -1.7789 2.98283 0
M  V30 136 C 11.0048 -1.35347 4.06036 0
M  V30 137 C 10.3308 -2.61846 4.66198 0
M  V30 138 C 11.6308 -0.499354 5.19907 0
M  V30 139 H 13.3248 -0.00824265 2.99399 0
M  V30 140 H 10.8708 -0.0025244 1.44 0
M  V30 141 H 12.8238 -2.39937 3.46422 0
M  V30 142 H 11.5478 -2.39405 2.22155 0
M  V30 143 H 10.2068 -0.756156 3.58717 0
M  V30 144 H 9.8548 -3.21632 3.86732 0
M  V30 145 H 9.5548 -2.3409 5.38958 0
M  V30 146 H 11.0788 -3.24732 5.1709 0
M  V30 147 H 12.4928 -1.02498 5.64063 0
M  V30 148 H 10.8898 -0.316424 5.99265 0
M  V30 149 H 11.9598 0.480459 4.82514 0
M  V30 150 N 13.3029 -1.57598 0.00835791 0
M  V30 151 C 14.7189 -1.55764 -0.347822 0
M  V30 152 C 14.9189 -1.01186 -1.74252 0
M  V30 153 O 13.9749 -0.649371 -2.44007 0
M  V30 154 C 15.2879 -2.99927 -0.215407 0
M  V30 155 C 16.8359 -3.11656 -0.289725 0
M  V30 156 C 17.3109 -4.57621 -0.18634 0
M  V30 157 N 18.8019 -4.62557 -0.243978 0
M  V30 158 C 19.5369 -5.73094 -0.18745 0
M  V30 159 N 19.0329 -6.92753 -0.0810331 0
M  V30 160 N 20.8259 -5.61588 -0.239925 0
M  V30 161 H 12.9769 -1.91411 0.92062 0
M  V30 162 H 15.2399 -0.879562 0.353659 0
M  V30 163 H 14.9459 -3.43729 0.744512 0
M  V30 164 H 14.8199 -3.63865 -0.994097 0
M  V30 165 H 17.2069 -2.67779 -1.24009 0
M  V30 166 H 17.2879 -2.5048 0.51898 0
M  V30 167 H 16.9319 -5.02174 0.760519 0
M  V30 168 H 16.8619 -5.16752 -1.01364 0
M  V30 169 H 19.3529 -3.76481 -0.327217 0
M  V30 170 H 19.6659 -7.72787 -0.0440241 0
M  V30 171 H 18.0109 -6.94984 -0.0465419 0
M  V30 172 H 21.2019 -4.66996 -0.321317 0
M  V30 173 H 21.3749 -6.47714 -0.192407 0
M  V30 174 N 14.781 0.264519 -1.55364 0
M  V30 175 C 16.03 0.992812 -1.75574 0
M  V30 176 C 16.343 1.87142 -0.568979 0
M  V30 177 O 17.549 2.63513 -0.653682 0
M  V30 178 C 16.005 1.81519 -3.10771 0
M  V30 179 C 15.613 0.984839 -4.37041 0
M  V30 180 C 17.357 2.53727 -3.40327 0
M  V30 181 C 15.264 1.80209 -5.63275 0
M  V30 182 H 14.194 0.374412 -0.65447 0
M  V30 183 H 16.845 0.248138 -1.81815 0
M  V30 184 H 15.227 2.60115 -2.98591 0
M  V30 185 H 16.401 0.242455 -4.60162 0
M  V30 186 H 14.716 0.37691 -4.14691 0
M  V30 187 H 17.313 3.15292 -4.3185 0
M  V30 188 H 17.656 3.24447 -2.60845 0
M  V30 189 H 18.189 1.82156 -3.53644 0
M  V30 190 H 14.928 1.13896 -6.45529 0
M  V30 191 H 14.448 2.52022 -5.44284 0
M  V30 192 H 16.127 2.37364 -6.01887 0
M  V30 193 N 16.2591 1.48442 0.529413 0
M  V30 194 C 17.1691 1.6569 1.66084 0
M  V30 195 C 18.1851 0.539432 1.65427 0
M  V30 196 O 19.3611 0.810572 1.84368 0
M  V30 197 C 16.4261 1.69315 3.02545 0
M  V30 198 C 15.4871 2.92694 3.14052 0
M  V30 199 C 14.7201 2.96137 4.44003 0
M  V30 200 O 14.9431 2.07973 5.31134 0
M  V30 201 O 13.8771 3.88312 4.59888 0
M  V30 202 H 17.7031 2.61483 1.54469 0
M  V30 203 H 15.2881 1.3185 0.702567 0
M  V30 204 H 17.1701 1.74217 3.83701 0
M  V30 205 H 15.8451 0.766966 3.14483 0
M  V30 206 H 14.7521 2.93324 2.32189 0
M  V30 207 H 16.0851 3.84699 3.0703 0
M  V30 208 N 17.7372 -0.778329 1.37039 0
M  V30 209 C 18.7002 -1.87301 1.32102 0
M  V30 210 C 19.7002 -1.59198 0.226405 0
M  V30 211 O 20.8902 -1.67403 0.481861 0
M  V30 212 C 18.0222 -3.24309 1.05055 0
M  V30 213 H 19.2152 -1.93093 2.29467 0
M  V30 214 H 16.7682 -0.977358 1.21973 0
M  V30 215 H 17.5032 -3.24196 0.0819373 0
M  V30 216 H 17.2882 -3.46098 1.84279 0
M  V30 217 H 18.7782 -4.04382 1.04234 0
M  V30 218 N 19.2153 -1.21501 -1.00376 0
M  V30 219 C 20.4433 -1.059 -1.77744 0
M  V30 220 C 20.8583 0.391125 -1.84704 0
M  V30 221 O 20.2153 1.27133 -1.30933 0
M  V30 222 C 20.2663 -1.65111 -3.21591 0
M  V30 223 O 19.9873 -3.0445 -3.15027 0
M  V30 224 C 21.4883 -1.54637 -4.15454 0
M  V30 225 H 18.7083 -0.371825 -0.558558 0
M  V30 226 H 21.2523 -1.60865 -1.26264 0
M  V30 227 H 19.4073 -1.14235 -3.70175 0
M  V30 228 H 19.8213 -3.3278 -4.0541 0
M  V30 229 H 21.2953 -2.00808 -5.14179 0
M  V30 230 H 21.7723 -0.501022 -4.36333 0
M  V30 231 H 22.3783 -2.04767 -3.72761 0
M  V30 232 N 20.6934 1.19889 -1.02296 0
M  V30 233 C 21.9704 1.85148 -0.630832 0
M  V30 234 C 22.3504 1.91385 0.890782 0
M  V30 235 O 21.6984 1.42642 1.78509 0
M  V30 236 C 21.9084 3.24442 -1.28602 0
M  V30 237 C 23.2564 4.00663 -1.4055 0
M  V30 238 O 24.2804 3.33818 -1.24273 0
M  V30 239 O 23.1394 5.20387 -1.66913 0
M  V30 240 H 20.2334 0.797613 -0.218499 0
M  V30 241 H 22.7794 1.27427 -1.12074 0
M  V30 242 H 21.5514 3.14704 -2.32545 0
M  V30 243 H 21.1744 3.89802 -0.7836 0
M  V30 244 N 22.1715 0.800033 1.35784 0
M  V30 245 C 23.1045 0.151499 2.27697 0
M  V30 246 C 24.0825 -0.678663 1.4776 0
M  V30 247 O 25.2665 -0.647358 1.77035 0
M  V30 248 C 22.3935 -0.790492 3.29346 0
M  V30 249 C 21.4395 -0.0407832 4.26481 0
M  V30 250 S 22.2725 1.29077 5.19711 0
M  V30 251 C 23.4285 0.353055 6.24903 0
M  V30 252 H 23.6615 0.930796 2.82353 0
M  V30 253 H 21.1945 0.594767 1.42485 0
M  V30 254 H 23.1525 -1.3285 3.88409 0
M  V30 255 H 21.8135 -1.54312 2.73581 0
M  V30 256 H 21.0065 -0.755971 4.98298 0
M  V30 257 H 20.6085 0.427063 3.71554 0
M  V30 258 H 22.9005 -0.464147 6.75908 0
M  V30 259 H 23.8435 1.04023 7.00418 0
M  V30 260 H 24.2515 -0.0483344 5.64479 0
M  V30 261 N 23.6496 -1.47581 0.552962 0
M  V30 262 C 24.6126 -2.28439 -0.186605 0
M  V30 263 C 25.6126 -1.36706 -0.84665 0
M  V30 264 O 26.8026 -1.59378 -0.703164 0
M  V30 265 C 23.9346 -3.16264 -1.2724 0
M  V30 266 H 25.1276 -2.95294 0.523609 0
M  V30 267 H 22.6806 -1.532 0.309745 0
M  V30 268 H 23.4156 -2.54091 -2.01514 0
M  V30 269 H 23.2006 -3.83769 -0.803968 0
M  V30 270 H 24.6906 -3.77198 -1.79196 0
M  V30 271 N 25.1277 -0.289203 -1.54924 0
M  V30 272 C 26.0907 0.579144 -2.21762 0
M  V30 273 C 27.0907 1.07047 -1.1999 0
M  V30 274 O 28.2807 0.968384 -1.44803 0
M  V30 275 C 25.4127 1.80055 -2.8947 0
M  V30 276 H 26.6057 -0.00464908 -2.999 0
M  V30 277 H 24.1587 -0.0399306 -1.56249 0
M  V30 278 H 24.8937 2.42449 -2.15381 0
M  V30 279 H 24.6787 1.45602 -3.64064 0
M  V30 280 H 26.1687 2.41773 -3.40493 0
M  V30 281 N 26.6058 1.57591 -0.0167156 0
M  V30 282 C 27.8518 1.92399 0.659861 0
M  V30 283 C 28.2068 0.892561 1.70444 0
M  V30 284 O 27.4998 -0.0930755 1.91374 0
M  V30 285 C 27.6938 3.3172 1.33029 0
M  V30 286 C 27.5228 4.48319 0.352174 0
M  V30 287 C 26.2928 5.05281 -0.0434883 0
M  V30 288 C 28.4908 5.12831 -0.388474 0
M  V30 289 N 26.4728 6.05399 -1.01807 0
M  V30 290 C 27.8438 6.07934 -1.2172 0
M  V30 291 C 29.8988 4.95858 -0.450513 0
M  V30 292 C 28.6018 6.87891 -2.10235 0
M  V30 293 C 30.6278 5.76413 -1.32295 0
M  V30 294 C 29.9898 6.71123 -2.13948 0
M  V30 295 H 26.0888 0.752106 0.21415 0
M  V30 296 H 28.6728 1.94532 -0.0809846 0
M  V30 297 H 26.8438 3.3043 2.04134 0
M  V30 298 H 28.5758 3.5391 1.9629 0
M  V30 299 H 25.3308 4.7246 0.328384 0
M  V30 300 H 25.7548 6.60145 -1.50123 0
M  V30 301 H 30.3968 4.22472 0.166512 0
M  V30 302 H 28.1148 7.60591 -2.72997 0
M  V30 303 H 31.7008 5.65317 -1.37508 0
M  V30 304 H 30.5808 7.3237 -2.80364 0
M  V30 305 N 28.0839 -0.256276 1.55502 0
M  V30 306 C 29.4999 -0.604325 1.47716 0
M  V30 307 C 29.6999 -1.88763 0.705039 0
M  V30 308 O 28.7559 -2.51445 0.230613 0
M  V30 309 C 30.0689 -0.715756 2.92057 0
M  V30 310 C 31.6169 -0.808706 3.02372 0
M  V30 311 C 32.0919 -0.951777 4.48001 0
M  V30 312 N 33.5829 -1.01688 4.519 0
M  V30 313 C 34.3179 -1.14668 5.61817 0
M  V30 314 N 33.8139 -1.24261 6.81565 0
M  V30 315 N 35.6069 -1.1791 5.49594 0
M  V30 316 H 27.7579 0.586291 2.04148 0
M  V30 317 H 30.0209 0.201015 0.926443 0
M  V30 318 H 29.7269 0.157027 3.51349 0
M  V30 319 H 29.6009 -1.59071 3.42018 0
M  V30 320 H 31.9879 -1.67195 2.43166 0
M  V30 321 H 32.0689 0.0912063 2.55637 0
M  V30 322 H 31.7129 -0.0931291 5.07815 0
M  V30 323 H 31.6429 -1.86659 4.92408 0
M  V30 324 H 34.1339 -0.954468 3.65648 0
M  V30 325 H 34.4469 -1.34046 7.61086 0
M  V30 326 H 32.7919 -1.21236 6.84344 0
M  V30 327 H 35.9829 -1.10057 4.54978 0
M  V30 328 H 36.1559 -1.27681 6.35296 0
M  V30 329 N 29.562 -1.4872 -0.521534 0
M  V30 330 C 30.472 -1.66569 -1.65203 0
M  V30 331 C 31.488 -0.548197 -1.65139 0
M  V30 332 O 32.664 -0.820339 -1.83936 0
M  V30 333 C 29.729 -1.70917 -3.01642 0
M  V30 334 C 28.79 -2.94356 -3.12495 0
M  V30 335 C 28.023 -2.98487 -4.42426 0
M  V30 336 O 28.246 -2.10786 -5.30024 0
M  V30 337 O 27.18 -3.90746 -4.57822 0
M  V30 338 H 31.006 -2.62298 -1.5308 0
M  V30 339 H 28.591 -1.3222 -0.695565 0
M  V30 340 H 30.473 -1.7625 -3.82771 0
M  V30 341 H 29.148 -0.783633 -3.14071 0
M  V30 342 H 28.055 -2.94552 -2.3063 0
M  V30 343 H 29.388 -3.86322 -3.04986 0
M  V30 344 N 31.0401 0.771051 -1.3745 0
M  V30 345 C 32.2701 1.55789 -1.35696 0
M  V30 346 C 32.6781 1.89107 0.0594523 0
M  V30 347 O 32.0211 1.51984 1.03183 0
M  V30 348 C 32.0831 2.89515 -2.13123 0
M  V30 349 C 31.7471 2.78829 -3.62082 0
M  V30 350 C 32.7441 2.49812 -4.5595 0
M  V30 351 C 30.4291 2.9683 -4.05213 0
M  V30 352 C 32.4231 2.38923 -5.90927 0
M  V30 353 C 30.1101 2.85562 -5.40276 0
M  V30 354 C 31.1081 2.56649 -6.32946 0
M  V30 355 O 30.7961 2.45408 -7.65526 0
M  V30 356 H 30.5281 0.489257 -0.466481 0
M  V30 357 H 33.0821 0.963446 -1.81403 0
M  V30 358 H 31.3121 3.51081 -1.62107 0
M  V30 359 H 33.0011 3.50915 -2.03994 0
M  V30 360 H 33.7671 2.3559 -4.23937 0
M  V30 361 H 29.6461 3.18335 -3.33442 0
M  V30 362 H 33.1901 2.16277 -6.63227 0
M  V30 363 H 29.0871 2.99351 -5.71891 0
M  V30 364 H 29.8551 2.60753 -7.75855 0
M  V30 365 N 32.5182 1.22032 0.997298 0
M  V30 366 C 33.7662 1.04016 1.73278 0
M  V30 367 C 34.0872 -0.426255 1.90284 0
M  V30 368 O 33.3572 -1.30694 1.45931 0
M  V30 369 H 31.9372 0.381897 0.642 0
M  V30 370 H 34.5992 1.5347 1.20137 0
M  V30 371 H 33.6952 1.51441 2.72896 0
M  V30 372 N 33.9963 -1.19345 1.0293 0
M  V30 373 C 34.9263 -2.2481 0.631105 0
M  V30 374 C 35.9073 -1.66245 -0.360104 0
M  V30 375 O 37.0923 -1.92677 -0.242726 0
M  V30 376 C 34.2223 -3.47295 -0.0184607 0
M  V30 377 C 33.1763 -4.18536 0.895073 0
M  V30 378 C 32.5023 -5.34586 0.110592 0
M  V30 379 C 33.8023 -4.73287 2.209 0
M  V30 380 H 35.4963 -2.58372 1.51275 0
M  V30 381 H 33.0423 -1.24194 0.728818 0
M  V30 382 H 34.9953 -4.20268 -0.308675 0
M  V30 383 H 33.7193 -3.12933 -0.934907 0
M  V30 384 H 32.3783 -3.47446 1.16949 0
M  V30 385 H 32.0263 -4.96469 -0.807902 0
M  V30 386 H 31.7263 -5.83183 0.719087 0
M  V30 387 H 33.2503 -6.10355 -0.172871 0
M  V30 388 H 34.6643 -5.38013 1.98028 0
M  V30 389 H 33.0613 -5.32373 2.76946 0
M  V30 390 H 34.1313 -3.91331 2.86336 0
M  V30 391 N 35.4744 -0.807222 -1.35358 0
M  V30 392 C 36.4214 -0.216037 -2.29787 0
M  V30 393 C 37.3914 0.650278 -1.52842 0
M  V30 394 O 38.5764 0.595227 -1.81278 0
M  V30 395 C 35.7164 0.628893 -3.39321 0
M  V30 396 C 34.8294 -0.257927 -4.31229 0
M  V30 397 C 33.9644 0.595069 -5.27856 0
M  V30 398 C 33.0034 -0.292111 -6.11403 0
M  V30 399 N 32.1404 0.520895 -7.00165 0
M  V30 400 H 36.9804 -1.02671 -2.79755 0
M  V30 401 H 34.5174 -0.517839 -1.37684 0
M  V30 402 H 36.4754 1.13393 -4.01494 0
M  V30 403 H 35.1054 1.40482 -2.90628 0
M  V30 404 H 34.1574 -0.881076 -3.70056 0
M  V30 405 H 35.4694 -0.940759 -4.89848 0
M  V30 406 H 34.6234 1.16522 -5.95405 0
M  V30 407 H 33.3624 1.31146 -4.69736 0
M  V30 408 H 32.3674 -0.874525 -5.428 0
M  V30 409 H 33.5924 -1.00638 -6.71602 0
M  V30 410 H 31.5384 1.22125 -6.44532 0
M  V30 411 H 31.4554 -0.103877 -7.55929 0
M  V30 412 H 32.7234 1.0743 -7.72062 0
M  V30 413 N 36.9525 1.47285 -0.560781 0
M  V30 414 C 38.1985 2.02764 -0.0381184 0
M  V30 415 C 38.5315 1.43384 1.30976 0
M  V30 416 O 37.8065 0.590733 1.85312 0
M  V30 417 C 38.0895 3.60064 0.0511427 0
M  V30 418 C 37.9425 4.2987 -1.32408 0
M  V30 419 C 39.2615 4.33439 0.762795 0
M  V30 420 H 36.3805 0.736841 -0.0153264 0
M  V30 421 H 39.0225 1.75675 -0.723759 0
M  V30 422 H 37.1725 3.83274 0.635065 0
M  V30 423 H 38.8445 4.17989 -1.95148 0
M  V30 424 H 37.0875 3.90085 -1.8978 0
M  V30 425 H 37.7585 5.38478 -1.21431 0
M  V30 426 H 40.2345 4.15243 0.266965 0
M  V30 427 H 39.1105 5.43124 0.794221 0
M  V30 428 H 39.3715 4.02915 1.81966 0
M  V30 429 N 38.4306 0.297415 1.54768 0
M  V30 430 C 39.3606 -0.573494 2.26348 0
M  V30 431 C 40.3416 -1.14085 1.26169 0
M  V30 432 O 41.5266 -1.17086 1.54934 0
M  V30 433 C 38.6566 -1.74716 3.00153 0
M  V30 434 C 37.6106 -1.31032 4.07449 0
M  V30 435 C 36.9366 -2.56887 4.68949 0
M  V30 436 C 38.2366 -0.444183 5.20408 0
M  V30 437 H 39.9306 0.0235131 2.99391 0
M  V30 438 H 37.4766 0.0127488 1.43994 0
M  V30 439 H 39.4296 -2.3625 3.48947 0
M  V30 440 H 38.1536 -2.37035 2.24682 0
M  V30 441 H 36.8126 -0.718066 3.59499 0
M  V30 442 H 36.4606 -3.17512 3.90122 0
M  V30 443 H 36.1606 -2.2836 5.41411 0
M  V30 444 H 37.6846 -3.19229 5.20505 0
M  V30 445 H 39.0986 -0.9651 5.65118 0
M  V30 446 H 37.4956 -0.252846 5.99567 0
M  V30 447 H 38.5656 0.531609 4.81977 0
M  V30 448 N 39.9087 -1.5758 0.0250728 0
M  V30 449 C 41.1567 -1.91255 -0.653151 0
M  V30 450 C 41.4777 -0.901691 -1.729 0
M  V30 451 O 40.7477 0.0573785 -1.95816 0
M  V30 452 H 39.3277 -0.705942 -0.244243 0
M  V30 453 H 41.9897 -1.94767 0.0719209 0
M  V30 454 H 41.0857 -2.91752 -1.10847 0
M  V30 455 N 41.3868 0.248026 -1.55636 0
M  V30 456 C 42.3198 1.3334 -1.85191 0
M  V30 457 C 43.2978 1.46429 -0.706906 0
M  V30 458 O 44.4818 1.62662 -0.952544 0
M  V30 459 C 41.6088 2.70703 -2.03562 0
M  V30 460 C 40.6548 2.7477 -3.26196 0
M  V30 461 S 41.4878 2.31493 -4.82878 0
M  V30 462 C 42.6438 3.70783 -5.04253 0
M  V30 463 H 42.8768 1.08072 -2.76962 0
M  V30 464 H 40.4098 0.448952 -1.47729 0
M  V30 465 H 42.3678 3.49798 -2.1483 0
M  V30 466 H 41.0288 2.9321 -1.12635 0
M  V30 467 H 40.2218 3.75648 -3.36013 0
M  V30 468 H 39.8238 2.03719 -3.13647 0
M  V30 469 H 42.1158 4.6627 -4.91527 0
M  V30 470 H 43.0588 3.65901 -6.06236 0
M  V30 471 H 43.4668 3.63244 -4.32105 0
M  V30 472 N 42.8649 1.48995 0.513639 0
M  V30 473 C 44.1109 1.58076 1.27042 0
M  V30 474 C 44.4439 0.261026 1.92438 0
M  V30 475 O 43.7189 -0.734393 1.80103 0
M  V30 476 C 44.0019 2.73091 2.34719 0
M  V30 477 C 43.8549 4.14821 1.73907 0
M  V30 478 C 45.1739 2.83796 3.36375 0
M  V30 479 H 42.2929 0.575391 0.460536 0
M  V30 480 H 44.9349 1.81232 0.570516 0
M  V30 481 H 43.0849 2.53479 2.94416 0
M  V30 482 H 44.7569 4.45917 1.18135 0
M  V30 483 H 42.9999 4.21058 1.0437 0
M  V30 484 H 43.6709 4.91147 2.51949 0
M  V30 485 H 46.1469 3.01611 2.86653 0
M  V30 486 H 45.0229 3.65971 4.09093 0
M  V30 487 H 45.2839 1.92624 3.9793 0
M  V30 488 N 44.343 -0.763751 1.37857 0
M  V30 489 C 45.253 -1.90817 1.36478 0
M  V30 490 C 46.269 -1.71997 0.263248 0
M  V30 491 O 47.445 -1.95095 0.499979 0
M  V30 492 C 44.51 -3.2605 1.17864 0
M  V30 493 C 43.571 -3.57467 2.3773 0
M  V30 494 C 42.804 -4.86249 2.19995 0
M  V30 495 O 43.027 -5.57884 1.18836 0
M  V30 496 O 41.961 -5.16911 3.08361 0
M  V30 497 H 45.787 -1.94933 2.32884 0
M  V30 498 H 43.372 -0.907619 1.1867 0
M  V30 499 H 45.254 -4.06924 1.09504 0
M  V30 500 H 43.929 -3.22769 0.245372 0
M  V30 501 H 42.836 -2.76796 2.51664 0
M  V30 502 H 44.169 -3.655 3.29652 0
M  V30 503 N 45.8211 -1.22559 -0.990812 0
M  V30 504 C 47.0691 -1.04933 -1.72724 0
M  V30 505 C 47.3901 0.416158 -1.90508 0
M  V30 506 O 46.6601 1.29918 -1.46622 0
M  V30 507 H 45.2401 -0.385296 -0.639965 0
M  V30 508 H 47.9021 -1.54105 -1.19322 0
M  V30 509 H 46.9981 -1.52886 -2.72089 0
M  V30 510 N 47.2992 1.18797 -1.03562 0
M  V30 511 C 48.2462 2.22253 -0.622259 0
M  V30 512 C 49.2162 1.61987 0.36736 0
M  V30 513 O 50.4012 1.88986 0.262492 0
M  V30 514 C 47.5412 3.45097 0.0138462 0
M  V30 515 C 46.6542 4.19722 -1.02263 0
M  V30 516 C 45.7892 5.30009 -0.355573 0
M  V30 517 C 44.8282 5.96399 -1.37749 0
M  V30 518 N 43.9652 6.98234 -0.735766 0
M  V30 519 H 48.8052 2.56968 -1.50903 0
M  V30 520 H 46.3422 1.26245 -0.755017 0
M  V30 521 H 48.3002 4.15279 0.399948 0
M  V30 522 H 46.9302 3.11018 0.864158 0
M  V30 523 H 45.9822 3.48418 -1.52673 0
M  V30 524 H 47.2942 4.65227 -1.79903 0
M  V30 525 H 46.4482 6.0664 0.0850095 0
M  V30 526 H 45.1872 4.85592 0.452967 0
M  V30 527 H 44.1922 5.18512 -1.82826 0
M  V30 528 H 45.4172 6.42899 -2.18764 0
M  V30 529 H 43.3632 6.55979 0.0525597 0
M  V30 530 H 43.2802 7.41965 -1.44995 0
M  V30 531 H 44.5482 7.78845 -0.31941 0
M  V30 532 N 48.7773 0.814389 1.34928 0
M  V30 533 C 50.0253 0.397636 1.9815 0
M  V30 534 C 50.3463 -1.04069 1.64908 0
M  V30 535 O 49.6163 -1.72121 0.93548 0
M  V30 536 H 48.1963 0.144043 0.732981 0
M  V30 537 H 50.8583 1.04195 1.6471 0
M  V30 538 H 49.9543 0.509688 3.0791 0
M  V30 539 N 50.2554 -1.46986 0.568584 0
M  V30 540 C 51.2184 -2.28624 -0.162366 0
M  V30 541 C 52.2184 -1.37596 -0.832103 0
M  V30 542 O 53.4084 -1.60115 -0.68622 0
M  V30 543 C 50.5404 -3.17596 -1.23878 0
M  V30 544 H 51.7334 -2.94722 0.554899 0
M  V30 545 H 49.2864 -1.52863 0.325976 0
M  V30 546 H 50.0214 -2.56214 -1.98808 0
M  V30 547 H 49.8064 -3.846 -0.763219 0
M  V30 548 H 51.2964 -3.79078 -1.75185 0
M  V30 549 N 51.7335 -0.305618 -1.54608 0
M  V30 550 C 53.1445 0.186098 -1.8577 0
M  V30 551 C 53.4955 1.53058 -1.22751 0
M  V30 552 O 52.6205 2.09888 -0.526893 0
M  V30 553 C 53.2155 0.344449 -3.37044 0
M  V30 554 C 51.7745 0.780384 -3.68221 0
M  V30 555 C 50.9215 -0.108554 -2.77087 0
M  V30 556 H 53.8725 -0.526485 -1.49712 0
M  V30 557 H 53.8935 1.17828 -3.61796 0
M  V30 558 H 53.4055 -0.634235 -3.82883 0
M  V30 559 H 51.5065 1.76945 -3.27904 0
M  V30 560 H 51.6195 0.596572 -4.75371 0
M  V30 561 H 49.9835 0.412931 -2.5133 0
M  V30 562 H 50.7665 -1.08368 -3.25747 0
M  V30 563 N 53.2116 1.57565 -0.0334293 0
M  V30 564 C 54.1216 2.13943 0.962572 0
M  V30 565 C 55.1376 1.09276 1.35406 0
M  V30 566 O 56.3136 1.41355 1.4346 0
M  V30 567 C 53.3786 2.65887 2.22497 0
M  V30 568 C 52.4396 3.85286 1.8935 0
M  V30 569 C 51.6726 4.34743 3.09571 0
M  V30 570 O 51.8956 3.83352 4.22371 0
M  V30 571 O 50.8296 5.26538 2.91618 0
M  V30 572 H 54.6556 2.99333 0.513169 0
M  V30 573 H 52.2406 1.4822 0.18743 0
M  V30 574 H 54.1226 2.99346 2.96598 0
M  V30 575 H 52.7976 1.83578 2.6661 0
M  V30 576 H 51.7046 3.56746 1.1262 0
M  V30 577 H 53.0376 4.68771 1.5005 0
M  V30 578 N 54.6897 -0.239769 1.55765 0
M  V30 579 C 55.9377 -0.964892 1.77579 0
M  V30 580 C 56.2587 -1.85582 0.598699 0
M  V30 581 O 55.5287 -1.92075 -0.385226 0
M  V30 582 H 54.1087 -0.359265 0.654933 0
M  V30 583 H 56.7707 -0.256001 1.93211 0
M  V30 584 H 55.8667 -1.58243 2.69009 0
M  V30 585 N 56.1678 -1.49265 -0.50573 0
M  V30 586 C 57.1308 -1.65075 -1.59006 0
M  V30 587 C 58.1308 -0.522768 -1.52065 0
M  V30 588 O 59.3208 -0.789117 -1.55302 0
M  V30 589 C 56.4528 -1.64369 -2.98656 0
M  V30 590 H 57.6458 -2.61784 -1.46319 0
M  V30 591 H 55.1988 -1.38226 -0.729616 0
M  V30 592 H 55.9338 -0.692272 -3.16825 0
M  V30 593 H 55.7188 -2.46282 -3.05103 0
M  V30 594 H 57.2088 -1.78674 -3.77446 0
M  V30 595 N 57.6459 0.756429 -1.3826 0
M  V30 596 C 58.5759 1.88374 -1.37976 0
M  V30 597 C 59.5569 1.68311 -0.246082 0
M  V30 598 O 60.7419 1.88944 -0.44874 0
M  V30 599 C 57.8719 3.25864 -1.20125 0
M  V30 600 C 56.8259 3.60523 -2.30666 0
M  V30 601 C 56.1519 4.9672 -1.97923 0
M  V30 602 C 57.4519 3.65692 -3.72916 0
M  V30 603 H 59.1459 1.88869 -2.32312 0
M  V30 604 H 56.6919 0.907272 -1.11824 0
M  V30 605 H 58.6449 4.0438 -1.18552 0
M  V30 606 H 57.3689 3.25841 -0.222498 0
M  V30 607 H 56.0279 2.84324 -2.3142 0
M  V30 608 H 55.6759 4.93253 -0.985393 0
M  V30 609 H 55.3759 5.20878 -2.71955 0
M  V30 610 H 56.8999 5.77618 -1.97964 0
M  V30 611 H 58.3139 4.34328 -3.74208 0
M  V30 612 H 56.7109 4.01358 -4.4613 0
M  V30 613 H 57.7809 2.65987 -4.05436 0
M  V30 614 N 59.124 1.23083 0.984299 0
M  V30 615 C 60.354 1.08556 1.75781 0
M  V30 616 C 60.762 -0.366171 1.85623 0
M  V30 617 O 60.105 -1.26524 1.33182 0
M  V30 618 C 60.167 1.63208 3.20318 0
M  V30 619 C 59.831 3.11922 3.33997 0
M  V30 620 C 60.828 4.09259 3.2063 0
M  V30 621 C 58.513 3.51552 3.58771 0
M  V30 622 C 60.507 5.4421 3.31835 0
M  V30 623 C 58.194 4.86649 3.69616 0
M  V30 624 C 59.192 5.82787 3.56157 0
M  V30 625 O 58.88 7.15431 3.66626 0
M  V30 626 H 58.612 0.380713 0.5586 0
M  V30 627 H 61.166 1.63321 1.2456 0
M  V30 628 H 59.396 1.0286 3.72769 0
M  V30 629 H 61.085 1.44216 3.79416 0
M  V30 630 H 61.851 3.79984 3.01392 0
M  V30 631 H 57.73 2.77239 3.6832 0
M  V30 632 H 61.274 6.1923 3.21247 0
M  V30 633 H 57.171 5.15601 3.88363 0
M  V30 634 H 57.939 7.23127 3.83445 0
M  V30 635 N 60.6021 -1.18246 1.0419 0
M  V30 636 C 61.5321 -2.24127 0.654914 0
M  V30 637 C 62.5131 -1.66617 -0.342451 0
M  V30 638 O 63.6981 -1.92924 -0.222277 0
M  V30 639 C 60.8281 -3.47295 0.0183757 0
M  V30 640 C 59.7821 -4.17563 0.939414 0
M  V30 641 C 59.1081 -5.34438 0.167286 0
M  V30 642 C 60.4081 -4.70917 2.25908 0
M  V30 643 H 62.1021 -2.56753 1.54007 0
M  V30 644 H 59.6481 -1.23414 0.74195 0
M  V30 645 H 61.6011 -4.20572 -0.264082 0
M  V30 646 H 60.3251 -3.13907 -0.901664 0
M  V30 647 H 58.9841 -3.46186 1.20628 0
M  V30 648 H 58.6321 -4.97298 -0.7552 0
M  V30 649 H 58.3321 -5.82388 0.780901 0
M  V30 650 H 59.8561 -6.10504 -0.108125 0
M  V30 651 H 61.2701 -5.35882 2.03724 0
M  V30 652 H 59.6671 -5.29406 2.82577 0
M  V30 653 H 60.7371 -3.88272 2.9047 0
M  V30 654 N 62.0802 -0.821533 -1.34494 0
M  V30 655 C 63.4962 -0.507117 -1.51329 0
M  V30 656 C 63.6962 0.968964 -1.76673 0
M  V30 657 O 62.7522 1.75348 -1.81685 0
M  V30 658 C 64.0652 -1.36544 -2.67911 0
M  V30 659 C 65.6132 -1.36242 -2.81793 0
M  V30 660 C 66.0882 -2.2052 -4.01416 0
M  V30 661 N 67.5792 -2.18136 -4.08621 0
M  V30 662 C 68.3142 -2.80095 -5.00334 0
M  V30 663 N 67.8102 -3.51039 -5.9728 0
M  V30 664 N 69.6032 -2.69656 -4.93196 0
M  V30 665 H 61.7542 -1.77729 -1.16302 0
M  V30 666 H 64.0172 -0.757291 -0.570276 0
M  V30 667 H 63.7232 -2.41361 -2.55808 0
M  V30 668 H 63.5972 -1.02917 -3.62888 0
M  V30 669 H 65.9842 -0.322041 -2.93338 0
M  V30 670 H 66.0652 -1.73866 -1.87628 0
M  V30 671 H 65.7092 -3.24607 -3.90631 0
M  V30 672 H 65.6392 -1.80247 -4.94791 0
M  V30 673 H 68.1302 -1.6653 -3.39229 0
M  V30 674 H 68.4432 -3.95565 -6.63889 0
M  V30 675 H 66.7882 -3.55145 -5.97409 0
M  V30 676 H 69.9792 -2.13808 -4.16418 0
M  V30 677 H 70.1522 -3.1823 -5.64476 0
M  V30 678 N 63.5583 1.46682 -0.576371 0
M  V30 679 C 64.4913 2.27243 0.208731 0
M  V30 680 C 65.4693 1.35238 0.902746 0
M  V30 681 O 66.6533 1.64641 0.917904 0
M  V30 682 C 63.7803 3.12802 1.29896 0
M  V30 683 C 62.8263 4.20524 0.711457 0
M  V30 684 S 63.6593 5.33548 -0.456781 0
M  V30 685 C 64.8153 6.22673 0.634798 0
M  V30 686 H 65.0483 2.93484 -0.474838 0
M  V30 687 H 62.5813 1.50069 -0.363118 0
M  V30 688 H 64.5393 3.62661 1.92321 0
M  V30 689 H 63.2003 2.45887 1.95444 0
M  V30 690 H 62.3933 4.80191 1.53076 0
M  V30 691 H 61.9953 3.73645 0.162999 0
M  V30 692 H 64.2873 6.60181 1.52209 0
M  V30 693 H 65.2303 7.0806 0.0750311 0
M  V30 694 H 65.6383 5.56684 0.936092 0
M  V30 695 N 65.0364 0.313813 1.54444 0
M  V30 696 C 66.3134 -0.345447 1.92525 0
M  V30 697 C 66.6934 -1.70667 1.24242 0
M  V30 698 O 66.0414 -2.25273 0.382654 0
M  V30 699 C 66.2514 -0.44737 3.46121 0
M  V30 700 C 67.5994 -0.712238 4.18584 0
M  V30 701 O 68.6234 -0.530678 3.52225 0
M  V30 702 O 67.4824 -1.06183 5.36085 0
M  V30 703 H 64.5764 -0.195407 0.803583 0
M  V30 704 H 67.1224 0.362813 1.65776 0
M  V30 705 H 65.8944 0.509043 3.87975 0
M  V30 706 H 65.5174 -1.20359 3.78945 0
M  V30 707 N 66.5145 -1.57545 0.0417849 0
M  V30 708 C 67.7915 -1.83642 -0.673433 0
M  V30 709 C 68.1715 -0.928298 -1.89594 0
M  V30 710 O 67.5195 0.0129955 -2.28496 0
M  V30 711 C 67.7295 -3.33155 -1.03964 0
M  V30 712 C 69.0775 -3.99941 -1.42592 0
M  V30 713 O 70.1015 -3.37725 -1.13226 0
M  V30 714 O 68.9605 -5.09619 -1.9736 0
M  V30 715 H 66.0545 -0.757638 -0.331533 0
M  V30 716 H 68.6005 -1.69554 0.070433 0
M  V30 717 H 67.3725 -3.9093 -0.170098 0
M  V30 718 H 66.9955 -3.52396 -1.84126 0
M  V30 719 N 67.9926 0.231505 -1.5589 0
M  V30 720 C 69.2396 0.957352 -1.78441 0
M  V30 721 C 69.5676 1.84726 -0.60882 0
M  V30 722 O 68.8226 1.91416 0.40725 0
M  V30 723 C 69.1216 1.83577 -3.0665 0
M  V30 724 C 68.7876 1.09993 -4.37278 0
M  V30 725 C 67.4496 0.896629 -4.72773 0
M  V30 726 C 69.8016 0.579558 -5.17968 0
M  V30 727 C 67.1296 0.160896 -5.86479 0
M  V30 728 C 69.4816 -0.142783 -6.32439 0
M  V30 729 C 68.1456 -0.357427 -6.66542 0
M  V30 730 H 67.4156 0.35032 -0.65296 0
M  V30 731 H 70.0626 0.226259 -1.90159 0
M  V30 732 H 68.3676 2.63441 -2.90011 0
M  V30 733 H 70.0646 2.39934 -3.21298 0
M  V30 734 H 66.6546 1.26835 -4.09403 0
M  V30 735 H 70.8386 0.724125 -4.90989 0
M  V30 736 H 66.0946 -0.0157293 -6.11398 0
M  V30 737 H 70.2686 -0.553559 -6.94196 0
M  V30 738 H 67.8956 -0.929466 -7.54497 0
M  V30 739 N 69.4707 1.49531 0.497807 0
M  V30 740 C 70.8817 1.52344 1.07927 0
M  V30 741 C 71.2327 0.311469 1.93712 0
M  V30 742 O 70.3577 -0.578405 2.08527 0
M  V30 743 C 70.9527 2.76062 1.96405 0
M  V30 744 C 69.5117 2.81643 2.49709 0
M  V30 745 C 68.6587 2.46299 1.27404 0
M  V30 746 H 71.6097 1.56182 0.281576 0
M  V30 747 H 71.6307 2.56405 2.81135 0
M  V30 748 H 71.1427 3.64254 1.33943 0
M  V30 749 H 69.2437 1.97739 3.15801 0
M  V30 750 H 69.3567 3.83891 2.86643 0
M  V30 751 H 67.7207 1.98148 1.60029 0
M  V30 752 H 68.5037 3.36769 0.66645 0
M  V30 753 N 70.9488 -0.749086 1.3866 0
M  V30 754 C 71.9118 -1.84457 1.36045 0
M  V30 755 C 72.9118 -1.58682 0.260122 0
M  V30 756 O 74.1018 -1.66343 0.517261 0
M  V30 757 C 71.2338 -3.22008 1.11911 0
M  V30 758 H 72.4268 -1.88182 2.33512 0
M  V30 759 H 69.9798 -0.951266 1.24019 0
M  V30 760 H 70.7148 -3.2395 0.150686 0
M  V30 761 H 70.4998 -3.42111 1.91579 0
M  V30 762 H 71.9898 -4.0208 1.12788 0
M  V30 763 N 72.4269 -1.23603 -0.977757 0
M  V30 764 C 73.8429 -0.999251 -1.24447 0
M  V30 765 C 74.0429 0.298053 -1.99283 0
M  V30 766 O 73.0989 1.01681 -2.31122 0
M  V30 767 C 74.4119 -2.20784 -2.04144 0
M  V30 768 C 75.9599 -2.25303 -2.17273 0
M  V30 769 C 76.4349 -3.45755 -3.00362 0
M  V30 770 N 77.9259 -3.4601 -3.07947 0
M  V30 771 C 78.6609 -4.35868 -3.72568 0
M  V30 772 N 78.1569 -5.35966 -4.38991 0
M  V30 773 N 79.9499 -4.23605 -3.6948 0
M  V30 774 H 72.1009 -2.06986 -0.476483 0
M  V30 775 H 74.3639 -0.907801 -0.273134 0
M  V30 776 H 74.0699 -3.14945 -1.56533 0
M  V30 777 H 73.9439 -2.22085 -3.04891 0
M  V30 778 H 76.3309 -1.3168 -2.64092 0
M  V30 779 H 76.4119 -2.28033 -1.15907 0
M  V30 780 H 76.0559 -4.39687 -2.5424 0
M  V30 781 H 75.9859 -3.40266 -4.01904 0
M  V30 782 H 78.4769 -2.73588 -2.60688 0
M  V30 783 H 78.7899 -6.00783 -4.86086 0
M  V30 784 H 77.1349 -5.39863 -4.37691 0
M  V30 785 H 80.3259 -3.44647 -3.16759 0
M  V30 786 H 80.4989 -4.93836 -4.1956 0
M  V30 787 N 73.905 1.17692 -1.04816 0
M  V30 788 C 74.835 2.23777 -0.666791 0
M  V30 789 C 75.816 1.66796 0.33361 0
M  V30 790 O 77.001 1.93039 0.212042 0
M  V30 791 C 74.131 3.47281 -0.0367933 0
M  V30 792 C 73.085 4.17059 -0.961546 0
M  V30 793 C 72.411 5.34342 -0.195626 0
M  V30 794 C 73.711 4.69713 -2.28402 0
M  V30 795 H 75.405 2.55933 -1.55367 0
M  V30 796 H 72.951 1.23019 -0.748484 0
M  V30 797 H 74.904 4.20706 0.241775 0
M  V30 798 H 73.628 3.14381 0.885004 0
M  V30 799 H 72.287 3.45541 -1.22462 0
M  V30 800 H 71.935 4.97692 0.728816 0
M  V30 801 H 71.635 5.81966 -0.811775 0
M  V30 802 H 73.159 6.10553 0.0757473 0
M  V30 803 H 74.573 5.34794 -2.06563 0
M  V30 804 H 72.97 5.279 -2.8538 0
M  V30 805 H 74.04 3.86726 -2.92525 0
M  V30 806 N 75.3831 0.828654 1.34056 0
M  V30 807 C 76.6291 0.42008 1.98402 0
M  V30 808 C 76.9621 -1.01564 1.65525 0
M  V30 809 O 76.2371 -1.70834 0.929831 0
M  V30 810 C 76.5201 0.62927 3.54559 0
M  V30 811 C 76.3731 2.11152 3.97159 0
M  V30 812 C 77.6921 0.0688756 4.40046 0
M  V30 813 H 74.8111 0.154104 0.720709 0
M  V30 814 H 77.4531 1.04228 1.5886 0
M  V30 815 H 75.6031 0.0996418 3.88372 0
M  V30 816 H 77.2751 2.70522 3.73651 0
M  V30 817 H 75.5181 2.59985 3.47261 0
M  V30 818 H 76.1891 2.20868 5.05887 0
M  V30 819 H 78.6651 0.521458 4.1282 0
M  V30 820 H 77.5411 0.245006 5.48353 0
M  V30 821 H 77.8021 -1.0266 4.30015 0
M  V30 822 N 76.8612 -1.46375 0.584142 0
M  V30 823 C 78.1072 -2.02678 0.0703716 0
M  V30 824 C 78.4402 -1.4545 -1.28678 0
M  V30 825 O 77.7152 -0.62014 -1.84349 0
M  V30 826 C 77.9982 -3.60099 0.00614674 0
M  V30 827 C 77.8512 -4.27709 1.3923 0
M  V30 828 C 79.1702 -4.34598 -0.693742 0
M  V30 829 H 76.2892 -0.736504 0.027047 0
M  V30 830 H 78.9312 -1.74501 0.751615 0
M  V30 831 H 77.0812 -3.84236 -0.574009 0
M  V30 832 H 78.7532 -4.14832 2.01773 0
M  V30 833 H 76.9962 -3.87016 1.95962 0
M  V30 834 H 77.6672 -5.36478 1.29982 0
M  V30 835 H 80.1432 -4.15615 -0.200869 0
M  V30 836 H 79.0192 -5.44318 -0.707714 0
M  V30 837 H 79.2802 -4.05759 -1.75533 0
M  V30 838 N 78.3393 -0.321999 -1.54275 0
M  V30 839 C 79.5853 0.281461 -2.00837 0
M  V30 840 C 79.9183 1.51909 -1.20985 0
M  V30 841 O 79.1933 1.923 -0.291733 0
M  V30 842 C 79.4763 0.617162 -3.54772 0
M  V30 843 C 79.3293 -0.631064 -4.45351 0
M  V30 844 C 80.6483 1.43542 -4.16033 0
M  V30 845 H 77.7673 0.100826 -0.730071 0
M  V30 846 H 80.4093 -0.438268 -1.84876 0
M  V30 847 H 78.5593 1.23034 -3.68504 0
M  V30 848 H 80.2313 -1.26934 -4.43492 0
M  V30 849 H 78.4743 -1.26025 -4.15091 0
M  V30 850 H 79.1453 -0.351735 -5.50878 0
M  V30 851 H 81.6213 0.917134 -4.05867 0
M  V30 852 H 80.4973 1.63907 -5.23856 0
M  V30 853 H 80.7583 2.43108 -3.69257 0
M  V30 854 N 79.8174 1.5752 -0.0501392 0
M  V30 855 C 81.2284 1.80271 0.485705 0
M  V30 856 C 81.5794 0.96228 1.70981 0
M  V30 857 O 80.7044 0.178578 2.15662 0
M  V30 858 C 81.2994 3.26957 0.887938 0
M  V30 859 C 79.8584 3.5063 1.36877 0
M  V30 860 C 79.0054 2.75165 0.343468 0
M  V30 861 H 81.9564 1.56281 -0.276028 0
M  V30 862 H 81.9774 3.37821 1.75093 0
M  V30 863 H 81.4894 3.881 -0.0031809 0
M  V30 864 H 79.5904 2.94766 2.27911 0
M  V30 865 H 79.7034 4.59343 1.36164 0
M  V30 866 H 78.0674 2.4127 0.816128 0
M  V30 867 H 78.8504 3.39034 -0.539548 0
M  V30 868 N 81.2955 -0.223234 1.56011 0
M  V30 869 C 82.5435 -0.946003 1.78592 0
M  V30 870 C 82.8645 -1.84936 0.618349 0
M  V30 871 O 82.1345 -1.92473 -0.364833 0
M  V30 872 H 80.7145 -0.352298 0.658707 0
M  V30 873 H 83.3765 -0.235494 1.93472 0
M  V30 874 H 82.4725 -1.55381 2.70672 0
M  V30 875 N 82.7736 -1.49793 -0.48987 0
M  V30 876 C 83.6836 -1.70036 -1.61632 0
M  V30 877 C 84.6996 -0.583102 -1.63939 0
M  V30 878 O 85.8756 -0.859169 -1.82154 0
M  V30 879 C 82.9406 -1.77277 -2.97949 0
M  V30 880 C 82.0016 -3.00918 -3.06181 0
M  V30 881 C 81.2346 -3.07804 -4.35996 0
M  V30 882 O 81.4576 -2.21982 -5.25433 0
M  V30 883 O 80.3916 -4.00369 -4.49431 0
M  V30 884 H 84.2176 -2.65486 -1.47482 0
M  V30 885 H 81.8026 -1.33666 -0.667362 0
M  V30 886 H 83.6846 -1.84329 -3.78947 0
M  V30 887 H 82.3596 -0.850076 -3.12339 0
M  V30 888 H 81.2666 -2.99377 -2.2433 0
M  V30 889 H 82.5996 -3.92704 -2.96723 0
M  V30 890 N 84.2517 0.741722 -1.39055 0
M  V30 891 C 85.2017 1.84661 -1.33732 0
M  V30 892 C 86.1857 1.59397 -0.219401 0
M  V30 893 O 87.3777 1.71015 -0.456375 0
M  V30 894 C 84.5067 3.22512 -1.17647 0
M  V30 895 C 83.5927 3.53628 -2.34112 0
M  V30 896 N 83.9837 3.55723 -3.59576 0
M  V30 897 C 82.2817 3.83956 -2.26923 0
M  V30 898 C 82.9827 3.84443 -4.36553 0
M  V30 899 N 81.9587 4.01877 -3.66055 0
M  V30 900 H 85.7607 1.84576 -2.28711 0
M  V30 901 H 83.2747 0.939647 -1.32455 0
M  V30 902 H 85.2717 4.01597 -1.11917 0
M  V30 903 H 83.9317 3.2384 -0.236124 0
M  V30 904 H 84.9427 3.37196 -3.93089 0
M  V30 905 H 81.6197 3.92929 -1.41113 0
M  V30 906 H 83.0097 3.92588 -5.45274 0
M  V30 907 N 85.7298 1.2412 0.971189 0
M  V30 908 C 87.0068 0.986867 1.6888 0
M  V30 909 C 87.3868 -0.491857 2.0529 0
M  V30 910 O 86.7348 -1.46531 1.75331 0
M  V30 911 C 86.9448 1.9063 2.92338 0
M  V30 912 C 88.2928 2.17515 3.64654 0
M  V30 913 O 89.3168 1.88254 3.02388 0
M  V30 914 O 88.1758 2.6719 4.7673 0
M  V30 915 H 85.2698 0.372944 0.738134 0
M  V30 916 H 87.8158 1.35203 1.02559 0
M  V30 917 H 86.5878 2.90552 2.62097 0
M  V30 918 H 86.2108 1.54408 3.66393 0
M  V30 919 N 87.2079 -1.17134 1.05439 0
M  V30 920 C 88.6239 -1.39454 0.776201 0
M  V30 921 C 88.8239 -1.91454 -0.628307 0
M  V30 922 O 87.8799 -2.10777 -1.39031 0
M  V30 923 C 89.1929 -2.38305 1.83388 0
M  V30 924 C 90.7409 -2.52006 1.85639 0
M  V30 925 C 91.2159 -3.54133 2.90437 0
M  V30 926 N 92.7069 -3.61653 2.89415 0
M  V30 927 C 93.4419 -4.4044 3.67152 0
M  V30 928 N 92.9379 -5.22721 4.54681 0
M  V30 929 N 94.7309 -4.35337 3.55581 0
M  V30 930 H 86.8819 -0.817134 1.96053 0
M  V30 931 H 89.1449 -0.421626 0.849079 0
M  V30 932 H 88.8509 -2.07173 2.84204 0
M  V30 933 H 88.7249 -3.37841 1.67761 0
M  V30 934 H 91.1119 -2.82447 0.85486 0
M  V30 935 H 91.1929 -1.52537 2.05344 0
M  V30 936 H 90.8369 -3.24431 3.90777 0
M  V30 937 H 90.7669 -4.53313 2.67983 0
M  V30 938 H 93.2579 -3.02909 2.25952 0
M  V30 939 H 93.5709 -5.80027 5.10674 0
M  V30 940 H 91.9159 -5.22093 4.58741 0
M  V30 941 H 95.1069 -3.70112 2.86592 0
M  V30 942 H 95.2799 -4.96494 4.1641 0
M  V30 943 N 88.686 -0.835752 -1.33615 0
M  V30 944 C 89.616 -0.281739 -2.31794 0
M  V30 945 C 90.597 0.608833 -1.58831 0
M  V30 946 O 91.782 0.533035 -1.86741 0
M  V30 947 C 88.912 0.546612 -3.42971 0
M  V30 948 C 87.866 -0.247904 -4.27281 0
M  V30 949 C 87.192 0.704001 -5.30045 0
M  V30 950 C 88.492 -1.46324 -5.01385 0
M  V30 951 H 90.186 -1.10206 -2.78379 0
M  V30 952 H 87.732 -0.531388 -1.33837 0
M  V30 953 H 89.685 0.944467 -4.1068 0
M  V30 954 H 88.409 1.40011 -2.95067 0
M  V30 955 H 87.068 -0.627281 -3.61194 0
M  V30 956 H 86.716 1.55381 -4.78399 0
M  V30 957 H 86.416 0.176524 -5.87335 0
M  V30 958 H 87.94 1.09944 -6.0062 0
M  V30 959 H 89.354 -1.13871 -5.61877 0
M  V30 960 H 87.751 -1.92728 -5.6831 0
M  V30 961 H 88.821 -2.23467 -4.30338 0
M  V30 962 N 90.1641 1.46063 -0.591896 0
M  V30 963 C 91.0941 2.33172 0.123673 0
M  V30 964 C 92.0751 1.45897 0.87453 0
M  V30 965 O 93.2601 1.74698 0.848181 0
M  V30 966 C 90.3901 3.28336 1.13194 0
M  V30 967 C 89.3441 4.25124 0.495324 0
M  V30 968 C 88.6701 5.09863 1.61071 0
M  V30 969 C 89.9701 5.19143 -0.573425 0
M  V30 970 H 91.6641 2.93252 -0.603646 0
M  V30 971 H 89.2101 1.41014 -0.291741 0
M  V30 972 H 91.1631 3.88137 1.64097 0
M  V30 973 H 89.8871 2.66383 1.88965 0
M  V30 974 H 88.5461 3.66599 0.00729452 0
M  V30 975 H 88.1941 4.44288 2.35832 0
M  V30 976 H 87.8941 5.75417 1.19035 0
M  V30 977 H 89.4181 5.72529 2.12233 0
M  V30 978 H 90.8321 5.73106 -0.1491 0
M  V30 979 H 89.2291 5.93089 -0.914636 0
M  V30 980 H 90.2991 4.62519 -1.45617 0
M  V30 981 N 91.6422 0.330177 1.54103 0
M  V30 982 C 92.5522 -0.541534 2.28264 0
M  V30 983 C 93.5682 -1.12351 1.32866 0
M  V30 984 O 94.7442 -1.14206 1.65888 0
M  V30 985 C 91.8092 -1.68322 3.03098 0
M  V30 986 C 90.8702 -1.13238 4.14096 0
M  V30 987 C 90.1032 -2.21966 4.85352 0
M  V30 988 O 90.3262 -3.42437 4.56172 0
M  V30 989 O 89.2602 -1.87013 5.7211 0
M  V30 990 H 93.0862 0.060938 3.03639 0
M  V30 991 H 90.6712 0.09565 1.49093 0
M  V30 992 H 92.5532 -2.34777 3.49939 0
M  V30 993 H 91.2282 -2.27176 2.30593 0
M  V30 994 H 90.1352 -0.432736 3.71589 0
M  V30 995 H 91.4682 -0.588898 4.88664 0
M  V30 996 N 93.1203 -1.57491 0.0584922 0
M  V30 997 C 94.0833 -2.1085 -0.898617 0
M  V30 998 C 95.0833 -1.02964 -1.23511 0
M  V30 999 O 96.2733 -1.29007 -1.17059 0
M  V30 1000 C 93.4053 -2.59881 -2.20623 0
M  V30 1001 H 94.5983 -2.96715 -0.435936 0
M  V30 1002 H 92.1513 -1.55141 -0.190023 0
M  V30 1003 H 92.8863 -1.77431 -2.71457 0
M  V30 1004 H 92.6713 -3.38727 -1.97501 0
M  V30 1005 H 94.1613 -3.01285 -2.89166 0
M  V30 1006 N 94.5984 0.214957 -1.56127 0
M  V30 1007 C 95.8464 0.936518 -1.79091 0
M  V30 1008 C 96.1674 1.84606 -0.628148 0
M  V30 1009 O 95.4374 1.92664 0.35462 0
M  V30 1010 H 94.0174 0.3488 -0.660566 0
M  V30 1011 H 96.6794 0.22523 -1.93594 0
M  V30 1012 H 95.7754 1.53943 -2.71492 0
M  V30 1013 N 96.0765 1.50051 0.48192 0
M  V30 1014 C 97.3225 1.61706 1.2338 0
M  V30 1015 C 97.6775 0.308488 1.89911 0
M  V30 1016 O 96.9705 -0.692798 1.78636 0
M  V30 1017 C 97.1645 2.72717 2.30998 0
M  V30 1018 C 96.9935 4.14242 1.75024 0
M  V30 1019 C 95.7635 4.80786 1.55476 0
M  V30 1020 C 97.9615 4.98846 1.25128 0
M  V30 1021 N 95.9435 6.06563 0.946311 0
M  V30 1022 C 97.3145 6.15258 0.765382 0
M  V30 1023 C 99.3695 4.84702 1.13881 0
M  V30 1024 C 98.0725 7.19079 0.178113 0
M  V30 1025 C 100.098 5.8869 0.565486 0
M  V30 1026 C 99.4605 7.04343 0.0899105 0
M  V30 1027 H 95.5595 0.645958 0.440753 0
M  V30 1028 H 98.1435 1.8713 0.537624 0
M  V30 1029 H 96.3145 2.49033 2.98055 0
M  V30 1030 H 98.0465 2.73789 2.9803 0
M  V30 1031 H 94.8015 4.37899 1.80392 0
M  V30 1032 H 95.2255 6.73767 0.660812 0
M  V30 1033 H 99.8675 3.95583 1.49244 0
M  V30 1034 H 97.5855 8.07882 -0.187749 0
M  V30 1035 H 101.171 5.79808 0.480974 0
M  V30 1036 H 100.051 7.83433 -0.346782 0
M  V30 1037 N 97.5546 -0.734337 1.39446 0
M  V30 1038 C 98.4646 -1.87879 1.40495 0
M  V30 1039 C 99.4806 -1.714 0.299672 0
M  V30 1040 O 100.657 -1.93991 0.541249 0
M  V30 1041 C 97.7216 -3.23477 1.24754 0
M  V30 1042 C 96.7826 -3.52344 2.45259 0
M  V30 1043 C 96.0156 -4.81473 2.30259 0
M  V30 1044 O 96.2386 -5.55237 1.30643 0
M  V30 1045 O 95.1726 -5.10254 3.19256 0
M  V30 1046 H 98.9986 -1.89949 2.36966 0
M  V30 1047 H 96.5836 -0.882243 1.20569 0
M  V30 1048 H 98.4656 -4.04509 1.18111 0
M  V30 1049 H 97.1406 -3.22176 0.313781 0
M  V30 1050 H 96.0476 -2.71396 2.57478 0
M  V30 1051 H 97.3806 -3.58426 3.37331 0
M  V30 1052 N 99.0327 -1.24633 -0.964593 0
M  V30 1053 C 100.273 -1.09981 -1.72289 0
M  V30 1054 C 100.637 0.354792 -1.88693 0
M  V30 1055 O 101.838 0.62289 -2.61483 0
M  V30 1056 C 100.109 -1.82262 -3.07434 0
M  V30 1057 S 101.668 -1.83379 -3.98645 0
M  V30 1058 H 98.4857 -0.393292 -0.59232 0
M  V30 1059 H 101.088 -1.58009 -1.15123 0
M  V30 1060 H 99.7917 -2.87206 -2.93157 0
M  V30 1061 H 99.3227 -1.3458 -3.69664 0
M  V30 1062 H 101.338 -0.903691 -4.87901 0
M  V30 1063 N 100.511 1.16574 -1.06058 0
M  V30 1064 C 101.474 2.19085 -0.673392 0
M  V30 1065 C 102.474 1.5835 0.279648 0
M  V30 1066 O 103.664 1.74088 0.0623488 0
M  V30 1067 C 100.796 3.40899 0.00954234 0
M  V30 1068 H 101.989 2.54853 -1.58081 0
M  V30 1069 H 99.5418 1.30808 -0.855516 0
M  V30 1070 H 100.277 3.10684 0.929826 0
M  V30 1071 H 100.062 3.86233 -0.67573 0
M  V30 1072 H 101.552 4.1675 0.266245 0
M  V30 1073 N 101.989 0.842826 1.3317 0
M  V30 1074 C 102.937 0.267495 2.31057 0
M  V30 1075 C 103.931 -0.602682 1.58316 0
M  V30 1076 O 105.137 -0.491803 1.73151 0
M  V30 1077 H 101.512 0.0677813 0.748939 0
M  V30 1078 H 103.483 1.10754 2.77085 0
M  V30 1079 C 102.232 -0.539331 3.43492 0
M  V30 1080 H 101.555 0.12095 3.99617 0
M  V30 1081 H 102.995 -0.90767 4.14171 0
M  V30 1082 C 101.454 -1.71981 2.89697 0
M  V30 1083 O 101.984 -2.81862 2.86211 0
M  V30 1084 N 100.19 -1.54299 2.46252 0
M  V30 1085 H 99.7369 -0.649143 2.49287 0
M  V30 1086 H 99.6949 -2.33431 2.10612 0
M  V30 1087 N 103.467 -1.45747 0.599634 0
M  V30 1088 C 104.43 -2.28917 -0.113835 0
M  V30 1089 C 105.43 -1.3933 -0.802729 0
M  V30 1090 O 106.62 -1.61534 -0.652103 0
M  V30 1091 C 103.752 -3.20152 -1.17114 0
M  V30 1092 H 104.945 -2.93478 0.617289 0
M  V30 1093 H 102.498 -1.52137 0.358327 0
M  V30 1094 H 103.233 -2.60374 -1.93329 0
M  V30 1095 H 103.018 -3.86133 -0.681468 0
M  V30 1096 H 104.508 -3.82708 -1.67105 0
M  V30 1097 N 104.945 -0.338344 -1.53925 0
M  V30 1098 C 105.855 0.529421 -2.28548 0
M  V30 1099 C 106.871 1.11645 -1.3346 0
M  V30 1100 O 108.047 1.13325 -1.66492 0
M  V30 1101 C 105.112 1.66713 -3.03987 0
M  V30 1102 C 104.173 1.11041 -4.14691 0
M  V30 1103 C 103.406 2.19389 -4.86522 0
M  V30 1104 O 103.629 3.40013 -4.57982 0
M  V30 1105 O 102.563 1.83976 -5.73094 0
M  V30 1106 H 106.389 -0.0770399 -3.03602 0
M  V30 1107 H 103.974 -0.103555 -1.49041 0
M  V30 1108 H 105.856 2.32918 -3.5118 0
M  V30 1109 H 104.531 2.25949 -2.31794 0
M  V30 1110 H 103.438 0.413024 -3.71813 0
M  V30 1111 H 104.771 0.562975 -4.8897 0
M  V30 1112 N 106.423 1.57458 -0.0668435 0
M  V30 1113 C 107.671 1.92919 0.602214 0
M  V30 1114 C 107.992 0.947215 1.70449 0
M  V30 1115 O 107.262 -0.00544117 1.95899 0
M  V30 1116 H 105.842 0.71217 0.22544 0
M  V30 1117 H 108.504 1.94508 -0.123535 0
M  V30 1118 H 107.6 2.94589 1.03073 0
M  V30 1119 N 107.901 -0.206675 1.56239 0
M  V30 1120 C 108.831 -1.25909 1.96645 0
M  V30 1121 C 109.812 -1.48097 0.836734 0
M  V30 1122 O 110.997 -1.6003 1.10019 0
M  V30 1123 C 108.127 -2.6058 2.29599 0
M  V30 1124 C 107.081 -2.53024 3.452 0
M  V30 1125 C 106.407 -3.91861 3.63798 0
M  V30 1126 C 107.707 -2.06524 4.79734 0
M  V30 1127 H 109.401 -0.923369 2.84806 0
M  V30 1128 H 106.947 -0.442735 1.37025 0
M  V30 1129 H 108.9 -3.34375 2.56459 0
M  V30 1130 H 107.624 -2.95869 1.38307 0
M  V30 1131 H 106.283 -1.81684 3.18412 0
M  V30 1132 H 105.931 -4.24483 2.69857 0
M  V30 1133 H 105.631 -3.87683 4.4156 0
M  V30 1134 H 107.155 -4.67296 3.93022 0
M  V30 1135 H 108.569 -2.70072 5.05702 0
M  V30 1136 H 106.966 -2.13374 5.60885 0
M  V30 1137 H 108.036 -1.01802 4.74093 0
M  V30 1138 N 109.379 -1.50304 -0.473955 0
M  V30 1139 C 110.311 -1.65109 -1.58971 0
M  V30 1140 C 111.324 -0.532676 -1.53839 0
M  V30 1141 O 112.513 -0.805751 -1.59279 0
M  V30 1142 C 109.613 -1.61684 -2.97845 0
M  V30 1143 C 108.786 -2.8951 -3.27876 0
M  V30 1144 C 107.845 -2.78768 -4.4629 0
M  V30 1145 O 106.871 -3.52722 -4.46739 0
M  V30 1146 N 108.073 -1.9213 -5.47783 0
M  V30 1147 H 110.838 -2.61347 -1.46689 0
M  V30 1148 H 108.399 -1.47732 -0.662324 0
M  V30 1149 H 110.391 -1.52114 -3.75024 0
M  V30 1150 H 108.961 -0.731925 -3.03911 0
M  V30 1151 H 108.181 -3.13228 -2.39336 0
M  V30 1152 H 109.469 -3.74199 -3.4475 0
M  V30 1153 H 108.867 -1.31353 -5.50239 0
M  V30 1154 H 107.424 -1.88466 -6.23958 0
M  V30 1155 N 110.857 0.726932 -1.39834 0
M  V30 1156 C 111.767 1.87131 -1.41489 0
M  V30 1157 C 112.783 1.71239 -0.308757 0
M  V30 1158 O 113.959 1.93701 -0.551529 0
M  V30 1159 C 111.024 3.22811 -1.26468 0
M  V30 1160 C 110.085 3.51039 -2.47124 0
M  V30 1161 C 109.318 4.80245 -2.3281 0
M  V30 1162 O 109.541 5.54537 -1.33585 0
M  V30 1163 O 108.475 5.08554 -3.21957 0
M  V30 1164 H 112.301 1.8869 -2.3797 0
M  V30 1165 H 109.886 0.875837 -1.21035 0
M  V30 1166 H 111.768 4.03877 -1.20255 0
M  V30 1167 H 110.443 3.22005 -0.330862 0
M  V30 1168 H 109.35 2.70027 -2.58914 0
M  V30 1169 H 110.683 3.56632 -3.39227 0
M  V30 1170 N 112.336 1.25143 0.95797 0
M  V30 1171 C 113.585 1.0909 1.69654 0
M  V30 1172 C 113.898 -0.368548 1.92097 0
M  V30 1173 O 115.104 -0.649455 2.63618 0
M  V30 1174 C 113.56 1.90395 3.05414 0
M  V30 1175 C 113.168 3.4081 2.90779 0
M  V30 1176 C 114.912 1.82901 3.83076 0
M  V30 1177 C 112.819 4.14423 4.21909 0
M  V30 1178 H 111.749 0.404625 0.636235 0
M  V30 1179 H 114.4 1.4931 1.06672 0
M  V30 1180 H 112.782 1.42996 3.69281 0
M  V30 1181 H 113.956 3.95859 2.35865 0
M  V30 1182 H 112.271 3.49361 2.26575 0
M  V30 1183 H 114.868 2.35196 4.80195 0
M  V30 1184 H 115.211 0.796224 4.08615 0
M  V30 1185 H 115.744 2.28033 3.25954 0
M  V30 1186 H 112.483 5.18102 4.01561 0
M  V30 1187 H 112.003 3.64159 4.76601 0
M  V30 1188 H 113.682 4.21956 4.90471 0
M  V30 1189 N 113.814 -1.1601 1.06675 0
M  V30 1190 C 115.23 -1.38622 0.790948 0
M  V30 1191 C 115.43 -1.92109 -0.607965 0
M  V30 1192 O 114.486 -2.12239 -1.36787 0
M  V30 1193 C 115.799 -2.36347 1.85905 0
M  V30 1194 C 117.347 -2.50023 1.88301 0
M  V30 1195 C 117.822 -3.51033 2.94176 0
M  V30 1196 N 119.313 -3.58563 2.93235 0
M  V30 1197 C 120.048 -4.36521 3.71803 0
M  V30 1198 N 119.544 -5.17869 4.602 0
M  V30 1199 N 121.337 -4.31541 3.60178 0
M  V30 1200 H 113.488 -0.796294 1.96908 0
M  V30 1201 H 115.751 -0.412597 0.853503 0
M  V30 1202 H 115.457 -2.04147 2.86386 0
M  V30 1203 H 115.331 -3.36042 1.71334 0
M  V30 1204 H 117.718 -2.81524 0.884769 0
M  V30 1205 H 117.799 -1.5035 2.06951 0
M  V30 1206 H 117.443 -3.20268 3.94196 0
M  V30 1207 H 117.373 -4.50445 2.72776 0
M  V30 1208 H 119.864 -3.00496 2.29152 0
M  V30 1209 H 120.177 -5.74578 5.16797 0
M  V30 1210 H 118.522 -5.17199 4.64253 0
M  V30 1211 H 121.713 -3.67051 2.90502 0
M  V30 1212 H 121.886 -4.9205 4.21653 0
M  V30 1213 N 115.292 -0.849877 -1.32721 0
M  V30 1214 C 116.24 -0.279745 -2.30912 0
M  V30 1215 C 117.234 0.594278 -1.58634 0
M  V30 1216 O 118.44 0.482613 -1.73409 0
M  V30 1217 H 114.815 -0.0717521 -0.748569 0
M  V30 1218 H 116.786 -1.12222 -2.76494 0
M  V30 1219 C 115.535 0.521108 -3.43773 0
M  V30 1220 H 114.858 -0.142141 -3.99547 0
M  V30 1221 H 116.298 0.885693 -4.14646 0
M  V30 1222 C 114.757 1.70442 -2.90605 0
M  V30 1223 O 115.287 2.8034 -2.87702 0
M  V30 1224 N 113.493 1.52991 -2.47067 0
M  V30 1225 H 113.04 0.635914 -2.49628 0
M  V30 1226 H 112.998 2.32311 -2.11847 0
M  V30 1227 N 116.77 1.45427 -0.607355 0
M  V30 1228 C 118.186 1.57283 -0.270985 0
M  V30 1229 C 118.386 1.59875 1.22647 0
M  V30 1230 O 117.442 1.52893 2.00948 0
M  V30 1231 C 118.755 2.85566 -0.941952 0
M  V30 1232 C 120.303 2.9924 -0.917849 0
M  V30 1233 C 120.778 4.30293 -1.56882 0
M  V30 1234 N 122.269 4.37051 -1.5343 0
M  V30 1235 C 123.004 5.37123 -2.00715 0
M  V30 1236 N 122.5 6.43734 -2.56084 0
M  V30 1237 N 124.293 5.28479 -1.91484 0
M  V30 1238 H 116.444 1.41988 -1.57966 0
M  V30 1239 H 118.707 0.67885 -0.661715 0
M  V30 1240 H 118.413 2.8955 -1.99633 0
M  V30 1241 H 118.287 3.74322 -0.465096 0
M  V30 1242 H 120.674 2.94822 0.127984 0
M  V30 1243 H 120.755 2.11895 -1.43297 0
M  V30 1244 H 120.399 4.35469 -2.61398 0
M  V30 1245 H 120.329 5.16454 -1.02873 0
M  V30 1246 H 122.82 3.60615 -1.12982 0
M  V30 1247 H 123.133 7.16341 -2.89958 0
M  V30 1248 H 121.478 6.44485 -2.60122 0
M  V30 1249 H 124.669 4.44098 -1.47967 0
M  V30 1250 H 124.842 6.0632 -2.28648 0
M  V30 1251 N 118.248 0.346503 1.53744 0
M  V30 1252 C 119.178 -0.501193 2.28058 0
M  V30 1253 C 120.159 -1.10014 1.29734 0
M  V30 1254 O 121.344 -1.12097 1.58581 0
M  V30 1255 C 118.474 -1.65078 3.05559 0
M  V30 1256 C 117.428 -1.18003 4.11411 0
M  V30 1257 C 116.754 -2.41837 4.76884 0
M  V30 1258 C 118.054 -0.278394 5.21558 0
M  V30 1259 H 119.748 0.11875 2.99164 0
M  V30 1260 H 117.294 0.0585531 1.43881 0
M  V30 1261 H 119.247 -2.25028 3.56287 0
M  V30 1262 H 117.971 -2.29767 2.32109 0
M  V30 1263 H 116.63 -0.603331 3.61601 0
M  V30 1264 H 116.278 -3.0494 4.00026 0
M  V30 1265 H 115.978 -2.1102 5.48402 0
M  V30 1266 H 117.502 -3.02508 5.30397 0
M  V30 1267 H 118.916 -0.784823 5.67903 0
M  V30 1268 H 117.313 -0.0619707 6.00068 0
M  V30 1269 H 118.383 0.684677 4.80042 0
M  V30 1270 N 119.726 -1.57421 0.075193 0
M  V30 1271 C 121.003 -1.85029 -0.634329 0
M  V30 1272 C 121.383 -0.968305 -1.87582 0
M  V30 1273 O 120.731 -0.0354749 -2.28472 0
M  V30 1274 C 120.941 -3.35286 -0.968742 0
M  V30 1275 C 122.289 -4.02875 -1.34077 0
M  V30 1276 O 123.313 -3.40051 -1.06037 0
M  V30 1277 O 122.172 -5.13691 -1.86506 0
M  V30 1278 H 119.266 -0.7645 -0.315387 0
M  V30 1279 H 121.812 -1.69366 0.106382 0
M  V30 1280 H 120.584 -3.91203 -0.0871376 0
M  V30 1281 H 120.207 -3.56223 -1.7661 0
M  V30 1282 N 121.204 0.198386 -1.56346 0
M  V30 1283 C 122.134 1.24865 -1.9731 0
M  V30 1284 C 123.115 1.47651 -0.844576 0
M  V30 1285 O 124.3 1.59444 -1.10866 0
M  V30 1286 C 121.43 2.59358 -2.30977 0
M  V30 1287 C 120.384 2.5119 -3.46537 0
M  V30 1288 C 119.71 3.89926 -3.65871 0
M  V30 1289 C 121.01 2.03977 -4.80823 0
M  V30 1290 H 122.704 0.908252 -2.85291 0
M  V30 1291 H 120.25 0.435462 -1.37258 0
M  V30 1292 H 122.203 3.33011 -2.58228 0
M  V30 1293 H 120.927 2.95132 -1.39874 0
M  V30 1294 H 119.586 1.79993 -3.19371 0
M  V30 1295 H 119.234 4.23046 -2.72105 0
M  V30 1296 H 118.934 3.85336 -4.4361 0
M  V30 1297 H 120.458 4.65205 -3.95495 0
M  V30 1298 H 121.872 2.67386 -5.07127 0
M  V30 1299 H 120.269 2.10397 -5.62008 0
M  V30 1300 H 121.339 0.992861 -4.74626 0
M  V30 1301 N 122.682 1.50554 0.465978 0
M  V30 1302 C 123.592 1.72585 1.58907 0
M  V30 1303 C 124.608 0.60911 1.6299 0
M  V30 1304 O 125.784 0.88804 1.80765 0
M  V30 1305 C 122.849 1.81995 2.95091 0
M  V30 1306 C 121.91 3.05751 3.01355 0
M  V30 1307 C 121.143 3.14702 4.31043 0
M  V30 1308 O 121.366 2.30313 5.21835 0
M  V30 1309 O 120.3 4.07468 4.43005 0
M  V30 1310 H 124.126 2.67799 1.43239 0
M  V30 1311 H 121.711 1.34711 0.646013 0
M  V30 1312 H 123.593 1.90335 3.75966 0
M  V30 1313 H 122.268 0.899659 3.10947 0
M  V30 1314 H 121.175 3.02908 2.19539 0
M  V30 1315 H 122.508 3.97375 2.90437 0
M  V30 1316 N 124.16 -0.719506 1.40217 0
M  V30 1317 C 125.408 -1.47641 1.3801 0
M  V30 1318 C 125.729 -1.94992 -0.018145 0
M  V30 1319 O 124.999 -1.70073 -0.972207 0
M  V30 1320 H 123.579 -0.547744 0.507923 0
M  V30 1321 H 126.241 -0.853187 1.75233 0
M  V30 1322 H 125.337 -2.35112 2.05253 0
M  V30 1323 N 125.638 -1.25649 -0.95132 0
M  V30 1324 C 126.866 -1.13343 -1.73092 0
M  V30 1325 C 127.281 0.312434 -1.86197 0
M  V30 1326 O 126.638 1.21465 -1.36207 0
M  V30 1327 C 126.689 -1.78602 -3.14299 0
M  V30 1328 O 126.41 -3.17537 -3.01831 0
M  V30 1329 C 127.911 -1.72119 -4.08522 0
M  V30 1330 H 125.131 -0.395181 -0.542285 0
M  V30 1331 H 127.675 -1.66076 -1.19328 0
M  V30 1332 H 125.83 -1.29832 -3.64996 0
M  V30 1333 H 126.244 -3.49676 -3.90931 0
M  V30 1334 H 127.718 -2.22435 -5.052 0
M  V30 1335 H 128.195 -0.685635 -4.33815 0
M  V30 1336 H 128.801 -2.20393 -3.63741 0
M  V30 1337 N 127.117 1.15442 -1.07289 0
M  V30 1338 C 128.528 1.67803 -0.818475 0
M  V30 1339 C 128.879 1.8489 0.656507 0
M  V30 1340 O 128.004 1.55176 1.50829 0
M  V30 1341 C 128.599 3.04805 -1.47917 0
M  V30 1342 C 127.158 3.54245 -1.27229 0
M  V30 1343 C 126.305 2.29986 -1.54925 0
M  V30 1344 H 129.256 0.996646 -1.23502 0
M  V30 1345 H 129.277 3.69702 -0.90005 0
M  V30 1346 H 128.789 2.92336 -2.55267 0
M  V30 1347 H 126.89 3.71956 -0.21899 0
M  V30 1348 H 127.003 4.35723 -1.99203 0
M  V30 1349 H 125.367 2.35496 -0.970242 0
M  V30 1350 H 126.15 2.20105 -2.63455 0
M  V30 1351 N 128.595 0.856903 1.32268 0
M  V30 1352 C 129.825 0.47475 2.01071 0
M  V30 1353 C 130.233 -0.933746 1.64553 0
M  V30 1354 O 129.576 -1.62114 0.863989 0
M  V30 1355 C 129.638 0.536746 3.55471 0
M  V30 1356 C 129.302 1.90453 4.15423 0
M  V30 1357 C 130.299 2.87029 4.33486 0
M  V30 1358 C 127.984 2.20229 4.51447 0
M  V30 1359 C 129.978 4.11532 4.86744 0
M  V30 1360 C 127.665 3.44984 5.0441 0
M  V30 1361 C 128.663 4.40452 5.22007 0
M  V30 1362 O 128.351 5.62998 5.73837 0
M  V30 1363 H 128.083 0.184778 0.650256 0
M  V30 1364 H 130.637 1.15615 1.69771 0
M  V30 1365 H 128.867 -0.20152 3.86175 0
M  V30 1366 H 130.556 0.169875 4.05544 0
M  V30 1367 H 131.322 2.6533 4.05986 0
M  V30 1368 H 127.201 1.46705 4.37034 0
M  V30 1369 H 130.745 4.86056 5.00395 0
M  V30 1370 H 126.642 3.66532 5.31342 0
M  V30 1371 H 127.41 5.64987 5.92226 0
M  V30 1372 N 130.073 -1.45103 0.615059 0
M  V30 1373 C 131.02 -2.30586 -0.0993978 0
M  V30 1374 C 131.99 -1.42544 -0.852669 0
M  V30 1375 O 133.175 -1.71465 -0.836917 0
M  V30 1376 C 130.315 -3.27572 -1.08583 0
M  V30 1377 C 129.428 -4.30717 -0.332656 0
M  V30 1378 C 128.563 -5.14807 -1.30947 0
M  V30 1379 C 127.602 -6.09673 -0.544538 0
M  V30 1380 N 126.739 -6.86517 -1.47101 0
M  V30 1381 H 131.579 -2.91144 0.635542 0
M  V30 1382 H 129.116 -1.4346 0.325206 0
M  V30 1383 H 131.074 -3.82276 -1.67095 0
M  V30 1384 H 129.704 -2.68751 -1.78809 0
M  V30 1385 H 128.756 -3.78615 0.368107 0
M  V30 1386 H 130.068 -4.98102 0.263842 0
M  V30 1387 H 129.222 -5.73948 -1.96643 0
M  V30 1388 H 127.961 -4.47458 -1.9399 0
M  V30 1389 H 126.966 -5.49656 0.126003 0
M  V30 1390 H 128.191 -6.79052 0.080947 0
M  V30 1391 H 126.137 -6.21851 -2.08895 0
M  V30 1392 H 126.054 -7.50281 -0.928137 0
M  V30 1393 H 127.322 -7.50194 -2.11731 0
M  V30 1394 N 131.551 -0.354651 -1.53558 0
M  V30 1395 C 132.461 0.50515 -2.29097 0
M  V30 1396 C 133.477 1.10223 -1.34636 0
M  V30 1397 O 134.653 1.11553 -1.67684 0
M  V30 1398 C 131.718 1.63479 -3.05738 0
M  V30 1399 C 130.779 1.06636 -4.15845 0
M  V30 1400 C 130.012 2.14217 -4.88822 0
M  V30 1401 O 130.235 3.35137 -4.61562 0
M  V30 1402 O 129.169 1.77887 -5.75013 0
M  V30 1403 H 132.995 -0.109237 -3.03503 0
M  V30 1404 H 130.58 -0.119357 -1.48922 0
M  V30 1405 H 132.462 2.2918 -3.5363 0
M  V30 1406 H 131.137 2.23478 -2.34178 0
M  V30 1407 H 130.044 0.373565 -3.7223 0
M  V30 1408 H 131.377 0.511081 -4.89539 0
M  V30 1409 N 133.029 1.57378 -0.0835403 0
M  V30 1410 C 133.992 2.12252 0.864959 0
M  V30 1411 C 134.992 1.04916 1.21858 0
M  V30 1412 O 136.182 1.30853 1.14991 0
M  V30 1413 C 133.314 2.63358 2.16461 0
M  V30 1414 H 134.507 2.97371 0.388676 0
M  V30 1415 H 132.06 1.55423 0.165317 0
M  V30 1416 H 132.795 1.81727 2.686 0
M  V30 1417 H 132.58 3.41826 1.92087 0
M  V30 1418 H 134.07 3.05847 2.84337 0
M  V30 1419 N 134.507 -0.190092 1.56449 0
M  V30 1420 C 135.735 -0.925772 1.85033 0
M  V30 1421 C 136.15 -1.76638 0.666658 0
M  V30 1422 O 135.507 -1.78822 -0.364565 0
M  V30 1423 C 135.558 -1.81786 3.12468 0
M  V30 1424 O 135.279 -1.01118 4.26271 0
M  V30 1425 C 136.78 -2.6648 3.54265 0
M  V30 1426 H 134 -0.269872 0.614337 0
M  V30 1427 H 136.544 -0.195837 2.0356 0
M  V30 1428 H 134.699 -2.50136 2.95822 0
M  V30 1429 H 135.113 -1.61956 4.98869 0
M  V30 1430 H 136.587 -3.24722 4.46385 0
M  V30 1431 H 137.064 -3.40434 2.77491 0
M  V30 1432 H 137.67 -2.03493 3.73458 0
M  V30 1433 N 135.985 -1.50799 -0.457987 0
M  V30 1434 C 136.948 -1.7005 -1.53674 0
M  V30 1435 C 137.948 -0.570881 -1.50325 0
M  V30 1436 O 139.138 -0.838126 -1.52712 0
M  V30 1437 C 136.27 -1.73788 -2.93276 0
M  V30 1438 H 137.463 -2.66306 -1.37917 0
M  V30 1439 H 135.016 -1.40477 -0.685271 0
M  V30 1440 H 135.751 -0.792717 -3.14462 0
M  V30 1441 H 135.536 -2.55864 -2.97113 0
M  V30 1442 H 137.026 -1.90591 -3.71571 0
M  V30 1443 N 137.463 0.71206 -1.40597 0
M  V30 1444 C 138.426 1.80785 -1.40888 0
M  V30 1445 C 139.426 1.57937 -0.302103 0
M  V30 1446 O 140.616 1.64913 -0.561182 0
M  V30 1447 C 137.748 3.18927 -1.20409 0
M  V30 1448 H 138.941 1.81924 -2.38419 0
M  V30 1449 H 136.494 0.91805 -1.26497 0
M  V30 1450 H 137.229 3.23436 -0.236522 0
M  V30 1451 H 137.014 3.36911 -2.00582 0
M  V30 1452 H 138.504 3.98949 -1.23408 0
M  V30 1453 N 138.941 1.26152 0.944643 0
M  V30 1454 C 139.851 1.09176 2.07648 0
M  V30 1455 C 140.867 0.0261935 1.7398 0
M  V30 1456 O 142.043 0.229208 2.00091 0
M  V30 1457 C 139.108 0.722915 3.39079 0
M  V30 1458 C 138.169 1.86752 3.86552 0
M  V30 1459 C 137.402 1.51617 5.11711 0
M  V30 1460 O 137.625 0.416331 5.68879 0
M  V30 1461 O 136.559 2.34975 5.54139 0
M  V30 1462 H 140.385 2.0412 2.24875 0
M  V30 1463 H 137.97 1.05182 1.061 0
M  V30 1464 H 139.852 0.529787 4.18056 0
M  V30 1465 H 138.527 -0.197159 3.23099 0
M  V30 1466 H 137.434 2.11558 3.08535 0
M  V30 1467 H 138.767 2.76719 4.07047 0
M  V30 1468 N 140.419 -1.14872 1.07899 0
M  V30 1469 C 141.349 -2.2193 0.725887 0
M  V30 1470 C 142.33 -1.67622 -0.28927 0
M  V30 1471 O 143.515 -1.93533 -0.160787 0
M  V30 1472 C 140.645 -3.47061 0.128856 0
M  V30 1473 C 139.599 -4.14363 1.07178 0
M  V30 1474 C 138.925 -5.33636 0.337229 0
M  V30 1475 C 140.225 -4.63492 2.40775 0
M  V30 1476 H 141.919 -2.51724 1.62097 0
M  V30 1477 H 139.465 -1.20991 0.780838 0
M  V30 1478 H 141.418 -4.21199 -0.130147 0
M  V30 1479 H 140.142 -3.16617 -0.80134 0
M  V30 1480 H 138.801 -3.42173 1.3158 0
M  V30 1481 H 138.449 -4.99449 -0.596606 0
M  V30 1482 H 138.149 -5.79609 0.965788 0
M  V30 1483 H 139.673 -6.10539 0.0861567 0
M  V30 1484 H 141.087 -5.2913 2.20669 0
M  V30 1485 H 139.484 -5.20148 2.99276 0
M  V30 1486 H 140.554 -3.78834 3.02676 0
M  V30 1487 N 141.898 -0.863906 -1.31812 0
M  V30 1488 C 142.861 -0.320212 -2.26952 0
M  V30 1489 C 143.861 0.525369 -1.51975 0
M  V30 1490 O 145.051 0.335547 -1.70938 0
M  V30 1491 C 142.183 0.545919 -3.365 0
M  V30 1492 H 143.376 -1.16004 -2.76556 0
M  V30 1493 H 140.929 -0.638995 -1.42641 0
M  V30 1494 H 141.664 1.40718 -2.92179 0
M  V30 1495 H 141.449 -0.0594674 -3.92055 0
M  V30 1496 H 142.939 0.918796 -4.07367 0
M  V30 1497 N 143.376 1.44774 -0.622745 0
M  V30 1498 C 144.653 1.95522 -0.0551974 0
M  V30 1499 C 145.033 1.5649 1.41683 0
M  V30 1500 O 144.381 0.834848 2.12703 0
M  V30 1501 C 144.591 3.4796 -0.269242 0
M  V30 1502 C 145.939 4.24306 -0.158014 0
M  V30 1503 O 146.963 3.55637 -0.200162 0
M  V30 1504 O 145.822 5.46471 -0.0558693 0
M  V30 1505 H 142.916 0.826556 0.0271015 0
M  V30 1506 H 145.462 1.54866 -0.693864 0
M  V30 1507 H 144.234 3.6939 -1.29099 0
M  V30 1508 H 143.857 3.95543 0.403966 0
M  V30 1509 N 144.854 0.36279 1.53368 0
M  V30 1510 C 146.27 0.0116182 1.59596 0
M  V30 1511 C 146.47 -1.47012 1.37803 0
M  V30 1512 O 145.526 -2.23136 1.18181 0
M  V30 1513 C 146.839 0.465052 2.97082 0
M  V30 1514 C 148.387 0.419033 3.10182 0
M  V30 1515 C 148.862 0.848235 4.50077 0
M  V30 1516 N 150.353 0.803183 4.56183 0
M  V30 1517 C 151.088 1.107 5.62613 0
M  V30 1518 N 150.584 1.47996 6.76808 0
M  V30 1519 N 152.377 1.02998 5.52583 0
M  V30 1520 H 144.528 1.32775 1.65785 0
M  V30 1521 H 146.791 0.542518 0.777417 0
M  V30 1522 H 146.497 1.49892 3.18159 0
M  V30 1523 H 146.371 -0.149786 3.76902 0
M  V30 1524 H 148.758 -0.605696 2.88817 0
M  V30 1525 H 148.839 1.06933 2.32377 0
M  V30 1526 H 148.483 1.87107 4.7218 0
M  V30 1527 H 148.413 0.175218 5.26308 0
M  V30 1528 H 150.904 0.52838 3.74188 0
M  V30 1529 H 151.217 1.69613 7.53957 0
M  V30 1530 H 149.562 1.51859 6.78206 0
M  V30 1531 H 152.753 0.737817 4.62249 0
M  V30 1532 H 152.926 1.2701 6.35431 0
M  V30 1533 N 146.332 -1.57332 0.0918853 0
M  V30 1534 C 147.748 -1.57389 -0.264766 0
M  V30 1535 C 147.948 -1.10281 -1.68643 0
M  V30 1536 O 147.004 -0.777801 -2.40222 0
M  V30 1537 C 148.317 -3.00648 -0.0561195 0
M  V30 1538 C 149.865 -3.12754 -0.124116 0
M  V30 1539 C 150.34 -4.57965 0.0564972 0
M  V30 1540 N 151.831 -4.632 0.00155611 0
M  V30 1541 C 152.566 -5.73281 0.116598 0
M  V30 1542 N 152.062 -6.92208 0.286294 0
M  V30 1543 N 153.855 -5.6207 0.0580973 0
M  V30 1544 H 146.006 -1.86262 1.02079 0
M  V30 1545 H 148.269 -0.859579 0.399786 0
M  V30 1546 H 147.975 -3.393 0.925669 0
M  V30 1547 H 147.849 -3.68623 -0.799823 0
M  V30 1548 H 150.236 -2.73976 -1.09641 0
M  V30 1549 H 150.317 -2.47377 0.651024 0
M  V30 1550 H 149.961 -4.97436 1.02564 0
M  V30 1551 H 149.891 -5.21399 -0.738297 0
M  V30 1552 H 152.382 -3.77686 -0.127192 0
M  V30 1553 H 152.695 -7.71934 0.365676 0
M  V30 1554 H 151.04 -6.94254 0.32192 0
M  V30 1555 H 154.231 -4.68043 -0.0733204 0
M  V30 1556 H 154.404 -6.47824 0.151203 0
M  V30 1557 N 147.81 0.181792 -1.56548 0
M  V30 1558 C 149.056 0.901431 -1.81665 0
M  V30 1559 C 149.389 1.82347 -0.668075 0
M  V30 1560 O 148.664 1.91669 0.330615 0
M  V30 1561 C 148.947 1.70618 -3.17115 0
M  V30 1562 C 148.8 0.807964 -4.42484 0
M  V30 1563 C 150.119 2.67605 -3.49393 0
M  V30 1564 H 147.238 0.32627 -0.660846 0
M  V30 1565 H 149.88 0.168134 -1.89255 0
M  V30 1566 H 148.03 2.33133 -3.10775 0
M  V30 1567 H 149.702 0.19649 -4.60881 0
M  V30 1568 H 147.945 0.115411 -4.33646 0
M  V30 1569 H 148.616 1.40632 -5.33785 0
M  V30 1570 H 151.092 2.15218 -3.56118 0
M  V30 1571 H 149.968 3.20985 -4.45264 0
M  V30 1572 H 150.229 3.47298 -2.73563 0
M  V30 1573 N 149.288 1.51039 0.449983 0
M  V30 1574 C 150.565 1.53612 1.21089 0
M  V30 1575 C 150.945 0.292997 2.09057 0
M  V30 1576 O 150.293 -0.72259 2.16774 0
M  V30 1577 C 150.503 2.84337 2.0237 0
M  V30 1578 C 151.851 3.35807 2.59843 0
M  V30 1579 O 152.875 2.85802 2.12593 0
M  V30 1580 O 151.734 4.23029 3.45989 0
M  V30 1581 H 148.828 0.617057 0.550608 0
M  V30 1582 H 151.374 1.63344 0.460082 0
M  V30 1583 H 150.146 3.66278 1.37681 0
M  V30 1584 H 149.769 2.77708 2.84542 0
M  V30 1585 N 150.766 -0.704594 1.40972 0
M  V30 1586 C 151.676 -1.84856 1.44448 0
M  V30 1587 C 152.692 -1.70726 0.335961 0
M  V30 1588 O 153.868 -1.92799 0.582276 0
M  V30 1589 C 150.933 -3.20758 1.31587 0
M  V30 1590 C 149.994 -3.47063 2.52677 0
M  V30 1591 C 149.227 -4.76481 2.4042 0
M  V30 1592 O 149.45 -5.52341 1.42391 0
M  V30 1593 O 148.384 -5.03367 3.30007 0
M  V30 1594 H 152.21 -1.8488 2.40942 0
M  V30 1595 H 149.795 -0.85647 1.22413 0
M  V30 1596 H 151.677 -4.01913 1.26665 0
M  V30 1597 H 150.352 -3.21438 0.382049 0
M  V30 1598 H 149.259 -2.65873 2.63177 0
M  V30 1599 H 150.592 -3.5119 3.44858 0
M  V30 1600 N 152.244 -1.26651 -0.937939 0
M  V30 1601 C 153.177 -1.02811 -2.03728 0
M  V30 1602 C 154.155 0.0481915 -1.62529 0
M  V30 1603 O 155.339 -0.0948839 -1.88261 0
M  V30 1604 C 152.466 -0.557517 -3.3408 0
M  V30 1605 C 151.512 -1.62686 -3.94253 0
M  V30 1606 S 152.345 -3.21667 -4.28125 0
M  V30 1607 C 153.501 -2.76384 -5.61572 0
M  V30 1608 H 153.734 -1.95891 -2.23638 0
M  V30 1609 H 151.267 -1.10367 -1.07974 0
M  V30 1610 H 153.225 -0.292674 -4.09455 0
M  V30 1611 H 151.886 0.353062 -3.12109 0
M  V30 1612 H 151.079 -1.24866 -4.88287 0
M  V30 1613 H 150.681 -1.84324 -3.25424 0
M  V30 1614 H 152.973 -2.2105 -6.40424 0
M  V30 1615 H 153.916 -3.69123 -6.0428 0
M  V30 1616 H 154.324 -2.15847 -5.21604 0
M  V30 1617 N 153.722 1.14298 -1.08507 0
M  V30 1618 C 154.971 1.84708 -0.810305 0
M  V30 1619 C 155.284 1.83903 0.666271 0
M  V30 1620 O 156.49 2.50112 1.05624 0
M  V30 1621 C 154.946 3.31572 -1.39957 0
M  V30 1622 C 154.554 3.40791 -2.90801 0
M  V30 1623 C 156.298 4.07087 -1.20334 0
M  V30 1624 C 154.205 4.81872 -3.4286 0
M  V30 1625 H 153.135 0.691985 -0.299454 0
M  V30 1626 H 155.786 1.28841 -1.30661 0
M  V30 1627 H 154.168 3.87183 -0.830976 0
M  V30 1628 H 155.342 2.95225 -3.53806 0
M  V30 1629 H 153.657 2.78732 -3.0935 0
M  V30 1630 H 156.254 5.11225 -1.56693 0
M  V30 1631 H 156.597 4.16054 -0.143237 0
M  V30 1632 H 157.13 3.57779 -1.73893 0
M  V30 1633 H 153.869 4.78094 -4.48449 0
M  V30 1634 H 153.389 5.27972 -2.84615 0
M  V30 1635 H 155.068 5.50765 -3.39509 0
M  V30 1636 N 155.201 0.870884 1.31352 0
M  V30 1637 C 156.617 0.562932 1.49343 0
M  V30 1638 C 156.817 -0.902725 1.80148 0
M  V30 1639 O 155.873 -1.68484 1.88067 0
M  V30 1640 C 157.186 1.46393 2.62659 0
M  V30 1641 C 158.734 1.46607 2.76542 0
M  V30 1642 C 159.209 2.35266 3.92955 0
M  V30 1643 N 160.7 2.33151 4.00243 0
M  V30 1644 C 161.435 2.98471 4.89594 0
M  V30 1645 N 160.931 3.72964 5.8384 0
M  V30 1646 N 162.724 2.87775 4.82848 0
M  V30 1647 H 154.875 1.81923 1.09626 0
M  V30 1648 H 157.138 0.777934 0.541777 0
M  V30 1649 H 156.844 2.50689 2.46674 0
M  V30 1650 H 156.718 1.16314 3.58819 0
M  V30 1651 H 159.105 0.43069 2.9194 0
M  V30 1652 H 159.186 1.8071 1.81046 0
M  V30 1653 H 158.83 3.38881 3.78315 0
M  V30 1654 H 158.76 1.98487 4.87761 0
M  V30 1655 H 161.251 1.79006 3.32814 0
M  V30 1656 H 161.564 4.19932 6.4875 0
M  V30 1657 H 159.909 3.77073 5.83816 0
M  V30 1658 H 163.1 2.29116 4.08195 0
M  V30 1659 H 163.273 3.38961 5.52277 0
M  V30 1660 N 156.679 -1.44442 0.630414 0
M  V30 1661 C 157.926 -2.02052 0.134617 0
M  V30 1662 C 158.254 -1.49576 -1.24327 0
M  V30 1663 O 157.509 -0.669806 -1.83881 0
M  V30 1664 C 157.808 -3.57332 0.0697835 0
M  V30 1665 C 157.474 -4.29058 1.38635 0
M  V30 1666 C 156.136 -4.4837 1.74694 0
M  V30 1667 C 158.488 -4.69872 2.25543 0
M  V30 1668 C 155.816 -5.05756 2.97369 0
M  V30 1669 C 158.168 -5.28616 3.47487 0
M  V30 1670 C 156.832 -5.46147 3.8377 0
M  V30 1671 H 156.102 -0.739361 0.0492598 0
M  V30 1672 H 158.749 -1.73217 0.816586 0
M  V30 1673 H 157.054 -3.85577 -0.695553 0
M  V30 1674 H 158.751 -3.99637 -0.330344 0
M  V30 1675 H 155.341 -4.14357 1.09574 0
M  V30 1676 H 159.525 -4.54666 1.98979 0
M  V30 1677 H 154.781 -5.17515 3.25558 0
M  V30 1678 H 158.955 -5.59192 4.15063 0
M  V30 1679 H 156.582 -5.9038 4.7891 0
M  V30 1680 N 158.157 -0.370918 -1.53173 0
M  V30 1681 C 159.12 0.460778 -2.24521 0
M  V30 1682 C 160.12 1.00536 -1.25496 0
M  V30 1683 O 161.31 0.890266 -1.49733 0
M  V30 1684 C 158.442 1.64457 -2.98608 0
M  V30 1685 H 159.635 -0.163613 -2.99453 0
M  V30 1686 H 157.188 -0.122699 -1.55818 0
M  V30 1687 H 157.923 2.30691 -2.2793 0
M  V30 1688 H 157.708 1.26099 -3.7127 0
M  V30 1689 H 159.198 2.23384 -3.5283 0
M  V30 1690 N 159.635 1.57281 -0.100228 0
M  V30 1691 C 160.912 1.86014 0.604812 0
M  V30 1692 C 161.292 0.998025 1.86018 0
M  V30 1693 O 160.64 0.0718184 2.28387 0
M  V30 1694 C 160.85 3.36784 0.915278 0
M  V30 1695 C 162.198 4.04957 1.27651 0
M  V30 1696 O 163.222 3.41695 1.00613 0
M  V30 1697 O 162.081 5.16593 1.7831 0
M  V30 1698 H 159.175 0.76942 0.303185 0
M  V30 1699 H 161.721 1.69176 -0.133313 0
M  V30 1700 H 160.493 3.91292 0.0248896 0
M  V30 1701 H 160.116 3.58987 1.70921 0
M  V30 1702 N 161.113 -0.173488 1.56642 0
M  V30 1703 C 162.524 -0.736155 1.71574 0
M  V30 1704 C 162.875 -1.82888 0.710389 0
M  V30 1705 O 162 -2.16017 -0.1287 0
M  V30 1706 C 162.595 -1.34211 3.11083 0
M  V30 1707 C 161.154 -1.85162 3.27707 0
M  V30 1708 C 160.301 -0.729765 2.67525 0
M  V30 1709 H 163.252 0.0518786 1.58615 0
M  V30 1710 H 163.273 -2.21178 3.09613 0
M  V30 1711 H 162.785 -0.546579 3.84232 0
M  V30 1712 H 160.886 -2.67366 2.59512 0
M  V30 1713 H 160.999 -1.99855 4.35425 0
M  V30 1714 H 159.363 -1.14965 2.27278 0
M  V30 1715 H 160.146 0.0538806 3.43258 0
M  V30 1716 N 162.591 -1.51276 -0.441967 0
M  V30 1717 C 163.816 -1.67799 -1.21895 0
M  V30 1718 C 164.241 -0.372864 -1.84367 0
M  V30 1719 O 163.599 0.666501 -1.68604 0
M  V30 1720 C 163.647 -2.79199 -2.28211 0
M  V30 1721 O 162.751 -2.42479 -3.33583 0
M  V30 1722 H 162.092 -0.559649 -0.357336 0
M  V30 1723 H 164.622 -1.97815 -0.522522 0
M  V30 1724 H 164.632 -3.03146 -2.73069 0
M  V30 1725 H 163.307 -3.73906 -1.82118 0
M  V30 1726 H 161.884 -2.29087 -2.94234 0
M  V30 1727 N 164.069 0.697108 -1.41344 0
M  V30 1728 C 165.317 1.45426 -1.40341 0
M  V30 1729 C 165.638 1.94996 -0.0128787 0
M  V30 1730 O 164.908 1.71599 0.945027 0
M  V30 1731 H 163.488 0.539594 -0.516573 0
M  V30 1732 H 166.15 0.825201 -1.76569 0
M  V30 1733 H 165.246 2.31817 -2.08967 0
M  V30 1734 N 165.547 1.27147 0.931209 0
M  V30 1735 C 166.495 1.09398 2.05268 0
M  V30 1736 C 167.489 0.0180591 1.6939 0
M  V30 1737 O 168.695 0.17551 1.79142 0
M  V30 1738 H 165.07 0.336986 0.672268 0
M  V30 1739 H 167.041 2.04416 2.17386 0
M  V30 1740 C 165.79 0.75424 3.39421 0
M  V30 1741 H 165.113 1.57404 3.67511 0
M  V30 1742 H 166.553 0.669903 4.18674 0
M  V30 1743 C 165.012 -0.541197 3.32525 0
M  V30 1744 O 165.542 -1.57664 3.69466 0
M  V30 1745 N 163.748 -0.535517 2.85623 0
M  V30 1746 H 163.295 0.307511 2.55758 0
M  V30 1747 H 163.253 -1.40236 2.81392 0
M  V30 1748 N 167.025 -1.13721 1.09112 0
M  V30 1749 C 168.265 -1.86576 0.834801 0
M  V30 1750 C 168.629 -1.81435 -0.628122 0
M  V30 1751 O 169.83 -2.49497 -1.00024 0
M  V30 1752 C 168.101 -3.30872 1.35124 0
M  V30 1753 S 169.66 -4.21257 1.22832 0
M  V30 1754 H 166.478 -0.643666 0.302017 0
M  V30 1755 H 169.08 -1.37085 1.39385 0
M  V30 1756 H 167.784 -3.32166 2.41027 0
M  V30 1757 H 167.315 -3.85423 0.788185 0
M  V30 1758 H 169.33 -4.95884 0.177191 0
M  V30 1759 N 168.503 -0.877838 -1.30888 0
M  V30 1760 C 169.433 -0.35534 -2.3078 0
M  V30 1761 C 170.414 0.557994 -1.60687 0
M  V30 1762 O 171.599 0.473355 -1.88343 0
M  V30 1763 C 168.729 0.437221 -3.44537 0
M  V30 1764 C 167.683 -0.383715 -4.26276 0
M  V30 1765 C 167.009 0.535014 -5.32017 0
M  V30 1766 C 168.309 -1.62201 -4.96476 0
M  V30 1767 H 170.003 -1.19007 -2.74732 0
M  V30 1768 H 167.549 -0.573698 -1.32078 0
M  V30 1769 H 169.502 0.813334 -4.13477 0
M  V30 1770 H 168.226 1.30553 -2.99372 0
M  V30 1771 H 166.885 -0.741874 -3.59015 0
M  V30 1772 H 166.533 1.40083 -4.831 0
M  V30 1773 H 166.233 -0.0104211 -5.87599 0
M  V30 1774 H 167.757 0.907799 -6.03814 0
M  V30 1775 H 169.171 -1.31689 -5.5797 0
M  V30 1776 H 167.568 -2.10711 -5.61891 0
M  V30 1777 H 168.638 -2.37044 -4.23011 0
M  V30 1778 N 169.982 1.44106 -0.638065 0
M  V30 1779 C 170.892 2.34513 0.0637334 0
M  V30 1780 C 171.908 1.53018 0.828346 0
M  V30 1781 O 173.084 1.85723 0.779036 0
M  V30 1782 C 170.149 3.31095 1.02844 0
M  V30 1783 C 169.21 4.28497 0.26244 0
M  V30 1784 C 168.443 5.20465 1.1812 0
M  V30 1785 O 168.666 5.16514 2.42011 0
M  V30 1786 O 167.6 5.98251 0.661774 0
M  V30 1787 H 171.426 2.95989 -0.68003 0
M  V30 1788 H 169.011 1.43994 -0.398252 0
M  V30 1789 H 170.893 3.90526 1.58327 0
M  V30 1790 H 169.568 2.72144 1.7527 0
M  V30 1791 H 168.475 3.72592 -0.335602 0
M  V30 1792 H 169.808 4.90388 -0.421936 0
M  V30 1793 N 171.46 0.379036 1.52974 0
M  V30 1794 C 172.706 -0.206727 2.01744 0
M  V30 1795 C 173.039 -1.47314 1.26539 0
M  V30 1796 O 172.314 -1.91084 0.362903 0
M  V30 1797 C 172.597 -0.485066 3.56818 0
M  V30 1798 C 172.45 0.795919 4.42702 0
M  V30 1799 C 173.769 -1.28003 4.21074 0
M  V30 1800 H 170.888 -0.0736607 0.73331 0
M  V30 1801 H 173.53 0.506581 1.83122 0
M  V30 1802 H 171.68 -1.09272 3.72816 0
M  V30 1803 H 173.352 1.43307 4.38476 0
M  V30 1804 H 171.595 1.41344 4.10127 0
M  V30 1805 H 172.266 0.555947 5.49193 0
M  V30 1806 H 174.742 -0.765867 4.08991 0
M  V30 1807 H 173.618 -1.44352 5.29579 0
M  V30 1808 H 173.879 -2.29236 3.78026 0
M  V30 1809 N 172.938 -1.57226 0.108567 0
M  V30 1810 C 174.185 -1.94833 -0.551943 0
M  V30 1811 C 174.513 -0.991204 -1.67348 0
M  V30 1812 O 173.768 -0.0131878 -1.95696 0
M  V30 1813 C 174.067 -3.38911 -1.13463 0
M  V30 1814 C 173.733 -4.50696 -0.135509 0
M  V30 1815 C 172.395 -4.80998 0.139252 0
M  V30 1816 C 174.747 -5.18333 0.545957 0
M  V30 1817 C 172.075 -5.76259 1.10194 0
M  V30 1818 C 174.427 -6.14627 1.49721 0
M  V30 1819 C 173.091 -6.43327 1.78006 0
M  V30 1820 H 172.361 -0.712944 -0.20197 0
M  V30 1821 H 175.008 -1.90582 0.18726 0
M  V30 1822 H 173.313 -3.39805 -1.95037 0
M  V30 1823 H 175.01 -3.65317 -1.65362 0
M  V30 1824 H 171.6 -4.27087 -0.359846 0
M  V30 1825 H 175.784 -4.95087 0.346842 0
M  V30 1826 H 171.04 -5.96804 1.32795 0
M  V30 1827 H 175.214 -6.66126 2.03099 0
M  V30 1828 H 172.841 -7.1695 2.52759 0
M  V30 1829 N 174.416 0.165178 -1.56732 0
M  V30 1830 C 175.366 1.20917 -1.93295 0
M  V30 1831 C 176.35 1.39488 -0.801985 0
M  V30 1832 O 177.542 1.41356 -1.06525 0
M  V30 1833 C 174.671 2.54718 -2.3016 0
M  V30 1834 C 173.757 2.39815 -3.49785 0
M  V30 1835 N 174.148 1.94637 -4.66851 0
M  V30 1836 C 172.446 2.70623 -3.54513 0
M  V30 1837 C 173.147 1.92344 -5.4898 0
M  V30 1838 N 172.123 2.34978 -4.9019 0
M  V30 1839 H 175.925 0.851675 -2.81289 0
M  V30 1840 H 173.439 0.373399 -1.58049 0
M  V30 1841 H 175.436 3.30165 -2.54552 0
M  V30 1842 H 174.096 2.91265 -1.43508 0
M  V30 1843 H 175.107 1.6488 -4.90953 0
M  V30 1844 H 171.784 3.11167 -2.78354 0
M  V30 1845 H 173.174 1.5906 -6.52801 0
M  V30 1846 N 175.894 1.51508 0.433938 0
M  V30 1847 C 177.142 1.6402 1.18075 0
M  V30 1848 C 177.463 0.360328 1.91642 0
M  V30 1849 O 176.733 -0.623945 1.85698 0
M  V30 1850 H 175.313 0.6045 0.43885 0
M  V30 1851 H 177.975 1.88452 0.497178 0
M  V30 1852 H 177.071 2.46949 1.90847 0
M  V30 1853 N 177.372 -0.689602 1.41712 0
M  V30 1854 C 178.6 -1.47827 1.44758 0
M  V30 1855 C 179.015 -1.88721 0.0545703 0
M  V30 1856 O 178.372 -1.57176 -0.927463 0
M  V30 1857 C 178.423 -2.73698 2.3616 0
M  V30 1858 O 178.144 -2.34524 3.7004 0
M  V30 1859 C 179.645 -3.67389 2.48072 0
M  V30 1860 H 176.865 -0.455357 0.49284 0
M  V30 1861 H 179.409 -0.848574 1.86063 0
M  V30 1862 H 177.564 -3.32891 1.98148 0
M  V30 1863 H 177.978 -3.15701 4.18847 0
M  V30 1864 H 179.452 -4.52475 3.16181 0
M  V30 1865 H 179.929 -4.12284 1.51388 0
M  V30 1866 H 180.535 -3.14097 2.86746 0
M  V30 1867 N 178.85 -1.27639 -0.924453 0
M  V30 1868 C 179.813 -1.10681 -2.00705 0
M  V30 1869 C 180.813 -0.0497823 -1.60723 0
M  V30 1870 O 182.003 -0.294654 -1.7169 0
M  V30 1871 C 179.135 -0.687164 -3.33902 0
M  V30 1872 H 180.328 -2.06817 -2.17179 0
M  V30 1873 H 177.881 -1.10473 -1.10569 0
M  V30 1874 H 178.616 0.275439 -3.23128 0
M  V30 1875 H 178.401 -1.45061 -3.6428 0
M  V30 1876 H 179.891 -0.590853 -4.13399 0
M  V30 1877 N 180.328 1.1314 -1.09713 0
M  V30 1878 C 181.258 2.20748 -0.761102 0
M  V30 1879 C 182.239 1.68061 0.262566 0
M  V30 1880 O 183.424 1.93765 0.129977 0
M  V30 1881 C 180.554 3.46812 -0.184054 0
M  V30 1882 C 179.508 4.12606 -1.13757 0
M  V30 1883 C 178.834 5.33031 -0.422083 0
M  V30 1884 C 180.134 4.59603 -2.48118 0
M  V30 1885 H 181.828 2.49113 -1.66082 0
M  V30 1886 H 179.374 1.19734 -0.799987 0
M  V30 1887 H 181.327 4.21353 0.0631215 0
M  V30 1888 H 180.051 3.17851 0.750868 0
M  V30 1889 H 178.71 3.40036 -1.37007 0
M  V30 1890 H 178.358 5.00335 0.517072 0
M  V30 1891 H 178.058 5.77999 -1.05788 0
M  V30 1892 H 179.582 6.10325 -0.183277 0
M  V30 1893 H 180.996 5.25552 -2.29059 0
M  V30 1894 H 179.393 5.15321 -3.07514 0
M  V30 1895 H 180.463 3.73971 -3.08665 0
M  V30 1896 N 181.806 0.884767 1.30421 0
M  V30 1897 C 182.716 0.355398 2.31892 0
M  V30 1898 C 183.732 -0.542261 1.65335 0
M  V30 1899 O 184.908 -0.435432 1.96637 0
M  V30 1900 C 181.973 -0.421661 3.44126 0
M  V30 1901 C 181.034 0.505727 4.26311 0
M  V30 1902 C 180.267 -0.234343 5.33185 0
M  V30 1903 O 180.49 -1.46045 5.51386 0
M  V30 1904 O 179.424 0.415443 6.00465 0
M  V30 1905 H 183.25 1.19685 2.79122 0
M  V30 1906 H 180.835 0.648596 1.34587 0
M  V30 1907 H 182.717 -0.861641 4.12497 0
M  V30 1908 H 181.392 -1.23942 2.99032 0
M  V30 1909 H 180.299 0.994513 3.60639 0
M  V30 1910 H 181.632 1.28948 4.75009 0
M  V30 1911 N 183.284 -1.43765 0.645699 0
M  V30 1912 C 184.234 -2.27884 -0.0726442 0
M  V30 1913 C 185.218 -1.39483 -0.802086 0
M  V30 1914 O 186.41 -1.63174 -0.685791 0
M  V30 1915 C 183.539 -3.27055 -1.04356 0
M  V30 1916 C 182.625 -4.22944 -0.312985 0
M  V30 1917 N 183.016 -5.01391 0.666386 0
M  V30 1918 C 181.314 -4.42528 -0.55546 0
M  V30 1919 C 182.015 -5.71217 1.09935 0
M  V30 1920 N 180.991 -5.41856 0.435137 0
M  V30 1921 H 184.793 -2.85949 0.678988 0
M  V30 1922 H 182.307 -1.55378 0.472368 0
M  V30 1923 H 184.304 -3.86089 -1.57292 0
M  V30 1924 H 182.964 -2.70551 -1.79534 0
M  V30 1925 H 183.975 -5.07252 1.04481 0
M  V30 1926 H 180.652 -3.97104 -1.28899 0
M  V30 1927 H 182.042 -6.44202 1.90929 0
M  V30 1928 N 184.763 -0.387143 -1.52771 0
M  V30 1929 C 186.179 -0.037007 -1.59557 0
M  V30 1930 C 186.379 1.44801 -1.40124 0
M  V30 1931 O 185.435 2.21227 -1.21716 0
M  V30 1932 C 186.748 -0.512256 -2.96305 0
M  V30 1933 C 188.296 -0.468328 -3.09476 0
M  V30 1934 C 188.771 -0.919731 -4.4867 0
M  V30 1935 N 190.262 -0.875656 -4.54848 0
M  V30 1936 C 190.997 -1.19637 -5.6078 0
M  V30 1937 N 190.493 -1.58745 -6.74368 0
M  V30 1938 N 192.286 -1.11776 -5.50874 0
M  V30 1939 H 184.437 -1.35395 -1.63652 0
M  V30 1940 H 186.7 -0.554818 -0.768688 0
M  V30 1941 H 186.406 -1.54935 -3.15734 0
M  V30 1942 H 186.28 0.089805 -3.77093 0
M  V30 1943 H 188.667 0.559671 -2.89744 0
M  V30 1944 H 188.748 -1.10616 -2.30646 0
M  V30 1945 H 188.392 -1.94595 -4.69143 0
M  V30 1946 H 188.322 -0.258927 -5.25963 0
M  V30 1947 H 190.813 -0.587843 -3.733 0
M  V30 1948 H 191.126 -1.81586 -7.51163 0
M  V30 1949 H 189.471 -1.6263 -6.75705 0
M  V30 1950 H 192.662 -0.811264 -4.61016 0
M  V30 1951 H 192.835 -1.37103 -6.3333 0
M  V30 1952 N 186.241 1.57166 -0.116904 0
M  V30 1953 C 187.657 1.5779 0.239693 0
M  V30 1954 C 187.857 1.1295 1.66867 0
M  V30 1955 O 186.913 0.81592 2.38954 0
M  V30 1956 C 188.226 3.00699 0.00828202 0
M  V30 1957 C 189.774 3.12912 0.0743438 0
M  V30 1958 C 190.249 4.57817 -0.129348 0
M  V30 1959 N 191.74 4.63139 -0.075247 0
M  V30 1960 C 192.475 5.73023 -0.207788 0
M  V30 1961 N 191.971 6.91665 -0.396382 0
M  V30 1962 N 193.764 5.61906 -0.14751 0
M  V30 1963 H 185.915 1.84615 -1.05029 0
M  V30 1964 H 188.178 0.85311 -0.41341 0
M  V30 1965 H 187.884 3.37784 -0.979531 0
M  V30 1966 H 187.758 3.69848 0.741077 0
M  V30 1967 H 190.145 2.75686 1.05268 0
M  V30 1968 H 190.226 2.4631 -0.690297 0
M  V30 1969 H 189.87 4.95742 -1.10465 0
M  V30 1970 H 189.8 5.22507 0.655253 0
M  V30 1971 H 192.291 3.7784 0.0670898 0
M  V30 1972 H 192.604 7.71255 -0.488437 0
M  V30 1973 H 190.949 6.93654 -0.432329 0
M  V30 1974 H 194.14 4.681 -0.00115036 0
M  V30 1975 H 194.313 6.47501 -0.254247 0
M  V30 1976 N 187.719 -0.156864 1.56817 0
M  V30 1977 C 188.965 -0.872416 1.83076 0
M  V30 1978 C 189.298 -1.81261 0.697001 0
M  V30 1979 O 188.573 -1.92171 -0.30008 0
M  V30 1980 C 188.856 -1.65551 3.19789 0
M  V30 1981 C 188.709 -0.737467 4.43713 0
M  V30 1982 C 190.028 -2.62012 3.53606 0
M  V30 1983 H 187.147 -0.315715 0.665953 0
M  V30 1984 H 189.789 -0.138004 1.89498 0
M  V30 1985 H 187.939 -2.28159 3.14445 0
M  V30 1986 H 189.611 -0.123143 4.61136 0
M  V30 1987 H 187.854 -0.0464067 4.33775 0
M  V30 1988 H 188.525 -1.32122 5.35955 0
M  V30 1989 H 191.001 -2.09525 3.59497 0
M  V30 1990 H 189.877 -3.13861 4.50314 0
M  V30 1991 H 190.138 -3.42902 2.79053 0
M  V30 1992 N 189.197 -1.51736 -0.425897 0
M  V30 1993 C 190.443 -1.65214 -1.1761 0
M  V30 1994 C 190.776 -0.372778 -1.90589 0
M  V30 1995 O 190.051 0.628139 -1.84078 0
M  V30 1996 C 190.334 -2.86312 -2.18398 0
M  V30 1997 C 190.187 -4.24254 -1.49426 0
M  V30 1998 C 191.506 -3.02925 -3.19256 0
M  V30 1999 H 188.625 -0.601263 -0.426206 0
M  V30 2000 H 191.267 -1.8425 -0.463882 0
M  V30 2001 H 189.417 -2.70213 -2.79137 0
M  V30 2002 H 191.089 -4.52046 -0.919362 0
M  V30 2003 H 189.332 -4.26426 -0.796432 0
M  V30 2004 H 190.003 -5.05001 -2.22885 0
M  V30 2005 H 192.479 -3.1781 -2.68581 0
M  V30 2006 H 191.355 -3.89199 -3.8706 0
M  V30 2007 H 191.616 -2.15497 -3.86023 0
M  V30 2008 N 190.675 0.682077 -1.42076 0
M  V30 2009 C 191.9 1.47558 -1.45744 0
M  V30 2010 C 192.325 1.87977 -0.0680981 0
M  V30 2011 O 191.683 1.55522 0.9318 0
M  V30 2012 C 191.731 2.70575 -2.38373 0
M  V30 2013 O 190.835 3.68573 -1.85007 0
M  V30 2014 H 190.176 0.443585 -0.494093 0
M  V30 2015 H 192.706 0.837238 -1.86686 0
M  V30 2016 H 192.716 3.18729 -2.54707 0
M  V30 2017 H 191.391 2.40495 -3.39315 0
M  V30 2018 H 189.968 3.2757 -1.78192 0
M  V30 2019 N 192.153 1.28127 0.917671 0
M  V30 2020 C 193.564 1.13622 1.48145 0
M  V30 2021 C 193.915 -0.275207 1.9426 0
M  V30 2022 O 193.04 -1.1691 1.82102 0
M  V30 2023 C 193.635 2.05648 2.69248 0
M  V30 2024 C 192.194 1.95219 3.21818 0
M  V30 2025 C 191.341 1.97618 1.94532 0
M  V30 2026 H 194.292 1.40874 0.730772 0
M  V30 2027 H 194.313 1.61818 3.44377 0
M  V30 2028 H 193.825 3.08365 2.35653 0
M  V30 2029 H 191.926 0.955244 3.60147 0
M  V30 2030 H 192.039 2.81976 3.87333 0
M  V30 2031 H 190.403 1.41973 2.11461 0
M  V30 2032 H 191.186 3.02007 1.63238 0
M  V30 2033 N 193.631 -1.12557 1.10312 0
M  V30 2034 C 194.861 -1.87592 0.865617 0
M  V30 2035 C 195.269 -1.79851 -0.587389 0
M  V30 2036 O 194.612 -1.16949 -1.41664 0
M  V30 2037 C 194.674 -3.37665 1.23381 0
M  V30 2038 C 194.338 -3.69181 2.69359 0
M  V30 2039 C 195.335 -3.67652 3.67597 0
M  V30 2040 C 193.02 -3.98555 3.05711 0
M  V30 2041 C 195.014 -3.95053 5.00212 0
M  V30 2042 C 192.701 -4.25616 4.38514 0
M  V30 2043 C 193.699 -4.23851 5.35574 0
M  V30 2044 O 193.387 -4.50242 6.65986 0
M  V30 2045 H 193.119 -0.600442 0.310557 0
M  V30 2046 H 195.673 -1.4335 1.47105 0
M  V30 2047 H 193.903 -3.82454 0.571467 0
M  V30 2048 H 195.592 -3.94041 0.973994 0
M  V30 2049 H 196.358 -3.45024 3.40857 0
M  V30 2050 H 192.237 -3.99071 2.30789 0
M  V30 2051 H 195.781 -3.93591 5.75962 0
M  V30 2052 H 191.678 -4.47718 4.64994 0
M  V30 2053 H 192.446 -4.67867 6.71597 0
M  V30 2054 N 195.109 -0.891671 -1.2995 0
M  V30 2055 C 196.357 -0.512486 -1.95494 0
M  V30 2056 C 196.678 0.942776 -1.70695 0
M  V30 2057 O 195.948 1.66374 -1.03424 0
M  V30 2058 H 194.528 -0.186533 -0.723336 0
M  V30 2059 H 197.19 -1.13621 -1.58355 0
M  V30 2060 H 196.286 -0.688342 -3.04415 0
M  V30 2061 N 196.587 1.43421 -0.653314 0
M  V30 2062 C 197.537 2.2792 0.060558 0
M  V30 2063 C 198.521 1.39906 0.794677 0
M  V30 2064 O 199.713 1.63536 0.677128 0
M  V30 2065 C 196.842 3.27603 1.0262 0
M  V30 2066 C 195.928 4.23104 0.290551 0
M  V30 2067 N 196.319 5.01031 -0.692967 0
M  V30 2068 C 194.617 4.42816 0.531984 0
M  V30 2069 C 195.318 5.70626 -1.12963 0
M  V30 2070 N 194.294 5.41617 -0.463867 0
M  V30 2071 H 198.096 2.85585 -0.694143 0
M  V30 2072 H 195.61 1.55126 -0.480602 0
M  V30 2073 H 197.607 3.86918 1.55242 0
M  V30 2074 H 196.267 2.71499 1.78096 0
M  V30 2075 H 197.278 5.0669 -1.07169 0
M  V30 2076 H 193.955 3.97782 1.26791 0
M  V30 2077 H 195.345 6.4318 -1.94343 0
M  V30 2078 N 198.065 0.39524 1.52563 0
M  V30 2079 C 199.481 0.0454682 1.59535 0
M  V30 2080 C 199.681 -1.44056 1.4089 0
M  V30 2081 O 198.737 -2.20579 1.22888 0
M  V30 2082 C 200.05 0.527963 2.96029 0
M  V30 2083 C 201.598 0.484733 3.09224 0
M  V30 2084 C 202.073 0.943512 4.48176 0
M  V30 2085 N 203.564 0.899765 4.54377 0
M  V30 2086 C 204.299 1.22609 5.60138 0
M  V30 2087 N 203.795 1.62319 6.73516 0
M  V30 2088 N 205.588 1.14696 5.50274 0
M  V30 2089 H 197.739 1.36261 1.62931 0
M  V30 2090 H 200.002 0.558887 0.765735 0
M  V30 2091 H 199.708 1.56607 3.14908 0
M  V30 2092 H 199.582 -0.0698056 3.77135 0
M  V30 2093 H 201.969 -0.544298 2.90037 0
M  V30 2094 H 202.05 1.11838 2.30056 0
M  V30 2095 H 201.694 1.9708 4.68104 0
M  V30 2096 H 201.624 0.286817 5.25818 0
M  V30 2097 H 204.115 0.607632 3.72983 0
M  V30 2098 H 204.428 1.85567 7.5019 0
M  V30 2099 H 202.773 1.66211 6.74833 0
M  V30 2100 H 205.964 0.835701 4.6058 0
M  V30 2101 H 206.137 1.40459 6.32594 0
M  V30 2102 N 199.544 -1.57102 0.125237 0
M  V30 2103 C 200.791 -1.95407 -0.531248 0
M  V30 2104 C 201.119 -1.0089 -1.66287 0
M  V30 2105 O 200.374 -0.0339431 -1.95671 0
M  V30 2106 C 200.673 -3.40096 -1.09862 0
M  V30 2107 C 200.339 -4.50815 -0.0876989 0
M  V30 2108 C 199.001 -4.80824 0.19026 0
M  V30 2109 C 201.353 -5.17724 0.600902 0
M  V30 2110 C 198.681 -5.75058 1.163 0
M  V30 2111 C 201.033 -6.13005 1.56231 0
M  V30 2112 C 199.697 -6.41403 1.8482 0
M  V30 2113 H 198.967 -0.715046 -0.194397 0
M  V30 2114 H 201.614 -1.90373 0.207463 0
M  V30 2115 H 199.919 -3.41855 -1.91422 0
M  V30 2116 H 201.616 -3.6705 -1.61478 0
M  V30 2117 H 198.206 -4.27444 -0.314528 0
M  V30 2118 H 202.39 -4.94691 0.399333 0
M  V30 2119 H 197.646 -5.95362 1.39117 0
M  V30 2120 H 201.82 -6.63934 2.10153 0
M  V30 2121 H 199.447 -7.14229 2.60349 0
M  V30 2122 N 201.022 0.148545 -1.56898 0
M  V30 2123 C 202.268 0.862694 -1.83536 0
M  V30 2124 C 202.601 1.80889 -0.706604 0
M  V30 2125 O 201.876 1.92328 0.289885 0
M  V30 2126 C 202.159 1.63853 -3.20662 0
M  V30 2127 C 202.012 0.713925 -4.44098 0
M  V30 2128 C 203.331 2.60133 -3.54991 0
M  V30 2129 H 200.45 0.312179 -0.667618 0
M  V30 2130 H 203.092 0.127953 -1.89569 0
M  V30 2131 H 201.242 2.26489 -3.1565 0
M  V30 2132 H 202.914 0.098686 -4.61194 0
M  V30 2133 H 201.157 0.0234019 -4.33794 0
M  V30 2134 H 201.828 1.29278 -5.36648 0
M  V30 2135 H 204.304 2.07616 -3.60603 0
M  V30 2136 H 203.18 3.11468 -4.51972 0
M  V30 2137 H 203.441 3.41417 -2.80868 0
M  V30 2138 N 202.5 1.5196 0.417844 0
M  V30 2139 C 203.728 1.69426 1.18753 0
M  V30 2140 C 204.143 0.399955 1.84515 0
M  V30 2141 O 203.5 -0.623288 1.71527 0
M  V30 2142 C 203.551 2.82375 2.25714 0
M  V30 2143 O 203.272 4.06793 1.62638 0
M  V30 2144 C 204.773 3.11277 3.15628 0
M  V30 2145 H 201.993 0.568031 0.357186 0
M  V30 2146 H 204.537 1.98475 0.49273 0
M  V30 2147 H 202.692 2.5587 2.90877 0
M  V30 2148 H 203.106 4.69667 2.3348 0
M  V30 2149 H 204.58 3.93843 3.86771 0
M  V30 2150 H 205.057 2.24473 3.77503 0
M  V30 2151 H 205.663 3.39515 2.56144 0
M  V30 2152 N 203.978 -0.674533 1.42435 0
M  V30 2153 C 205.226 -1.43175 1.42637 0
M  V30 2154 C 205.547 -1.94951 0.0438992 0
M  V30 2155 O 204.817 -1.7308 -0.917607 0
M  V30 2156 H 203.397 -0.531307 0.525092 0
M  V30 2157 H 206.059 -0.797006 1.77859 0
M  V30 2158 H 205.155 -2.28463 2.12629 0
M  V30 2159 N 205.456 -1.28612 -0.910864 0
M  V30 2160 C 206.366 -1.14643 -2.0468 0
M  V30 2161 C 207.382 -0.0723121 -1.7385 0
M  V30 2162 O 208.558 -0.282178 -1.99413 0
M  V30 2163 C 205.623 -0.812561 -3.37044 0
M  V30 2164 C 204.684 -1.96935 -3.81465 0
M  V30 2165 C 203.917 -1.65131 -5.07511 0
M  V30 2166 O 204.14 -0.567013 -5.67575 0
M  V30 2167 O 203.074 -2.49585 -5.47714 0
M  V30 2168 H 206.9 -2.1001 -2.19384 0
M  V30 2169 H 204.485 -1.07958 -1.03274 0
M  V30 2170 H 206.367 -0.640441 -4.16505 0
M  V30 2171 H 205.042 0.111426 -3.23508 0
M  V30 2172 H 203.949 -2.19664 -3.02818 0
M  V30 2173 H 205.282 -2.87414 -3.99567 0
M  V30 2174 N 206.934 1.1197 -1.10907 0
M  V30 2175 C 207.866 2.17592 -0.720175 0
M  V30 2176 C 208.879 1.60938 0.245495 0
M  V30 2177 O 210.068 1.78476 0.0292245 0
M  V30 2178 C 207.168 3.38873 -0.0427917 0
M  V30 2179 C 206.341 4.25006 -1.03388 0
M  V30 2180 C 205.4 5.24774 -0.387075 0
M  V30 2181 O 204.426 5.59631 -1.03934 0
M  V30 2182 N 205.628 5.74208 0.852407 0
M  V30 2183 H 208.393 2.51567 -1.62893 0
M  V30 2184 H 205.954 1.27439 -0.998543 0
M  V30 2185 H 207.946 4.02703 0.401501 0
M  V30 2186 H 206.516 3.03007 0.768456 0
M  V30 2187 H 205.736 3.57716 -1.65629 0
M  V30 2188 H 207.024 4.79397 -1.70458 0
M  V30 2189 H 206.422 5.48062 1.40161 0
M  V30 2190 H 204.979 6.39901 1.23977 0
M  V30 2191 N 208.412 0.89855 1.29475 0
M  V30 2192 C 209.66 0.522847 1.9522 0
M  V30 2193 C 209.981 -0.93371 1.71192 0
M  V30 2194 O 209.251 -1.65823 1.04305 0
M  V30 2195 H 207.831 0.190366 0.722336 0
M  V30 2196 H 210.493 1.14459 1.5775 0
M  V30 2197 H 209.589 0.704476 3.04045 0
M  V30 2198 N 209.89 -1.43072 0.660911 0
M  V30 2199 C 210.823 -2.28074 -0.0758862 0
M  V30 2200 C 211.801 -1.40271 -0.822362 0
M  V30 2201 O 212.985 -1.69713 -0.820352 0
M  V30 2202 C 210.112 -3.19843 -1.11437 0
M  V30 2203 C 209.158 -4.23957 -0.465069 0
M  V30 2204 S 209.991 -5.29978 0.767078 0
M  V30 2205 C 211.147 -6.25314 -0.270682 0
M  V30 2206 H 211.38 -2.90216 0.645139 0
M  V30 2207 H 208.913 -1.47697 0.449995 0
M  V30 2208 H 210.871 -3.73257 -1.70849 0
M  V30 2209 H 209.532 -2.56863 -1.80776 0
M  V30 2210 H 208.725 -4.88299 -1.24819 0
M  V30 2211 H 208.327 -3.73959 0.0551242 0
M  V30 2212 H 210.619 -6.67932 -1.13459 0
M  V30 2213 H 211.562 -7.07293 0.337916 0
M  V30 2214 H 211.97 -5.61195 -0.609937 0
M  V30 2215 N 211.368 -0.403325 -1.52352 0
M  V30 2216 C 212.616 0.174003 -2.0135 0
M  V30 2217 C 212.937 1.46139 -1.29106 0
M  V30 2218 O 212.207 1.91448 -0.415253 0
M  V30 2219 H 210.787 0.0672911 -0.743963 0
M  V30 2220 H 213.449 -0.538235 -1.87321 0
M  V30 2221 H 212.545 0.374254 -3.09848 0
M  V30 2222 N 212.846 1.57033 -0.133567 0
M  V30 2223 C 213.796 2.12641 0.822671 0
M  V30 2224 C 214.78 1.05081 1.21847 0
M  V30 2225 O 215.972 1.31287 1.18713 0
M  V30 2226 C 213.101 2.74094 2.06706 0
M  V30 2227 C 212.187 3.88757 1.69497 0
M  V30 2228 N 212.578 4.95194 1.03037 0
M  V30 2229 C 210.876 3.99213 1.98859 0
M  V30 2230 C 211.577 5.75414 0.852873 0
M  V30 2231 N 210.553 5.25726 1.3825 0
M  V30 2232 H 214.355 2.92308 0.305537 0
M  V30 2233 H 211.869 1.62256 0.0684276 0
M  V30 2234 H 213.866 3.12285 2.76195 0
M  V30 2235 H 212.526 1.95896 2.5895 0
M  V30 2236 H 213.537 5.13247 0.692669 0
M  V30 2237 H 210.214 3.32075 2.53047 0
M  V30 2238 H 211.604 6.71089 0.330091 0
M  V30 2239 N 214.325 -0.140222 1.56975 0
M  V30 2240 C 215.571 -0.852949 1.83991 0
M  V30 2241 C 215.904 -1.80512 0.716187 0
M  V30 2242 O 215.179 -1.92479 -0.279681 0
M  V30 2243 C 215.462 -1.6215 3.21527 0
M  V30 2244 C 215.315 -0.690363 4.4447 0
M  V30 2245 C 216.634 -2.58247 3.56366 0
M  V30 2246 H 213.753 -0.308634 0.669264 0
M  V30 2247 H 216.395 -0.117898 1.89634 0
M  V30 2248 H 214.545 -2.24812 3.16847 0
M  V30 2249 H 216.217 -0.0742264 4.6124 0
M  V30 2250 H 214.46 -0.000396433 4.338 0
M  V30 2251 H 215.131 -1.2643 5.37326 0
M  V30 2252 H 217.607 -2.05701 3.61699 0
M  V30 2253 H 216.483 -3.09067 4.53617 0
M  V30 2254 H 216.744 -3.39923 2.82674 0
M  V30 2255 N 215.803 -1.52179 -0.40978 0
M  V30 2256 C 217.049 -1.66453 -1.15851 0
M  V30 2257 C 217.382 -0.392972 -1.90182 0
M  V30 2258 O 216.657 0.608579 -1.84734 0
M  V30 2259 C 216.94 -2.88612 -2.15349 0
M  V30 2260 C 216.793 -4.25815 -1.44918 0
M  V30 2261 C 218.112 -3.06294 -3.16026 0
M  V30 2262 H 215.231 -0.60575 -0.419805 0
M  V30 2263 H 217.873 -1.84732 -0.444314 0
M  V30 2264 H 216.023 -2.73158 -2.76255 0
M  V30 2265 H 217.695 -4.52995 -0.871365 0
M  V30 2266 H 215.938 -4.27247 -0.751159 0
M  V30 2267 H 216.609 -5.07337 -2.17516 0
M  V30 2268 H 219.085 -3.20641 -2.65195 0
M  V30 2269 H 217.961 -3.93283 -3.8291 0
M  V30 2270 H 218.222 -2.19579 -3.83715 0
M  V30 2271 N 217.281 0.66697 -1.42791 0
M  V30 2272 C 218.211 1.79218 -1.49677 0
M  V30 2273 C 219.192 1.66405 -0.352623 0
M  V30 2274 O 220.377 1.85708 -0.567993 0
M  V30 2275 C 217.507 3.17565 -1.40605 0
M  V30 2276 C 216.461 3.45124 -2.53127 0
M  V30 2277 C 215.787 4.83127 -2.29112 0
M  V30 2278 C 217.087 3.41236 -3.95418 0
M  V30 2279 H 218.781 1.73713 -2.43853 0
M  V30 2280 H 216.327 0.83432 -1.17367 0
M  V30 2281 H 218.28 3.96022 -1.44029 0
M  V30 2282 H 217.004 3.23767 -0.429271 0
M  V30 2283 H 215.663 2.69031 -2.49034 0
M  V30 2284 H 215.311 4.85988 -1.29709 0
M  V30 2285 H 215.011 5.02528 -3.04531 0
M  V30 2286 H 216.535 5.63859 -2.34297 0
M  V30 2287 H 217.949 4.09651 -4.01073 0
M  V30 2288 H 216.346 3.72173 -4.70752 0
M  V30 2289 H 217.416 2.39665 -4.21532 0
M  V30 2290 N 218.759 1.29093 0.90403 0
M  V30 2291 C 219.984 1.19809 1.69294 0
M  V30 2292 C 220.409 -0.238481 1.86582 0
M  V30 2293 O 219.767 -1.1723 1.383 0
M  V30 2294 C 219.815 1.91202 3.05736 0
M  V30 2295 O 218.919 1.22611 3.93752 0
M  V30 2296 H 218.26 0.415385 0.518027 0
M  V30 2297 H 220.79 1.70586 1.12967 0
M  V30 2298 H 220.8 1.99487 3.55906 0
M  V30 2299 H 219.475 2.95692 2.92471 0
M  V30 2300 H 218.052 1.22554 3.52186 0
M  V30 2301 N 220.237 -1.11381 1.11499 0
M  V30 2302 C 221.465 -1.86934 0.88675 0
M  V30 2303 C 221.88 -1.80195 -0.563476 0
M  V30 2304 O 221.237 -1.18367 -1.38908 0
M  V30 2305 C 221.288 -3.35722 1.34064 0
M  V30 2306 O 221.009 -3.4232 2.73401 0
M  V30 2307 C 222.51 -4.2818 1.14791 0
M  V30 2308 H 219.73 -0.591117 0.317523 0
M  V30 2309 H 222.274 -1.40865 1.48248 0
M  V30 2310 H 220.429 -3.79294 0.788355 0
M  V30 2311 H 220.843 -4.34971 2.93087 0
M  V30 2312 H 222.317 -5.30817 1.5145 0
M  V30 2313 H 222.794 -4.39113 0.0875279 0
M  V30 2314 H 223.4 -3.90402 1.68721 0
M  V30 2315 N 221.715 -0.905404 -1.28997 0
M  V30 2316 C 223.131 -0.60233 -1.47798 0
M  V30 2317 C 223.331 0.854645 -1.82478 0
M  V30 2318 O 222.387 1.63439 -1.92468 0
M  V30 2319 C 223.7 -1.53306 -2.58685 0
M  V30 2320 C 225.248 -1.53887 -2.72558 0
M  V30 2321 C 225.723 -2.45602 -3.86579 0
M  V30 2322 N 227.214 -2.43681 -3.93921 0
M  V30 2323 C 227.949 -3.11347 -4.81509 0
M  V30 2324 N 227.445 -3.88313 -5.73746 0
M  V30 2325 N 229.238 -3.00476 -4.75048 0
M  V30 2326 H 221.389 -1.84765 -1.04764 0
M  V30 2327 H 223.652 -0.792025 -0.520961 0
M  V30 2328 H 223.358 -2.57141 -2.39941 0
M  V30 2329 H 223.232 -1.25787 -3.55609 0
M  V30 2330 H 225.619 -0.507941 -2.90696 0
M  V30 2331 H 225.7 -1.85447 -1.76191 0
M  V30 2332 H 225.344 -3.48792 -3.69197 0
M  V30 2333 H 225.274 -2.11349 -4.82327 0
M  V30 2334 H 227.765 -1.87767 -3.27951 0
M  V30 2335 H 228.078 -4.36985 -6.37389 0
M  V30 2336 H 226.423 -3.92419 -5.73614 0
M  V30 2337 H 229.614 -2.39858 -4.01977 0
M  V30 2338 H 229.787 -3.53485 -5.43095 0
M  V30 2339 N 223.193 1.4272 -0.668489 0
M  V30 2340 C 224.47 1.95248 -0.117373 0
M  V30 2341 C 224.85 1.60919 1.36632 0
M  V30 2342 O 224.198 0.902095 2.09939 0
M  V30 2343 C 224.408 3.46927 -0.379806 0
M  V30 2344 C 225.756 4.23588 -0.292923 0
M  V30 2345 O 226.78 3.5482 -0.313204 0
M  V30 2346 O 225.639 5.46017 -0.229697 0
M  V30 2347 H 222.733 0.827 0.00079152 0
M  V30 2348 H 225.279 1.52581 -0.742783 0
M  V30 2349 H 224.051 3.65096 -1.40786 0
M  V30 2350 H 223.674 3.96627 0.277923 0
M  V30 2351 N 224.671 0.411399 1.52136 0
M  V30 2352 C 225.948 -0.222308 1.94333 0
M  V30 2353 C 226.328 -1.6242 1.34844 0
M  V30 2354 O 225.676 -2.22384 0.525145 0
M  V30 2355 C 225.886 -0.226345 3.48265 0
M  V30 2356 C 227.234 -0.444592 4.22266 0
M  V30 2357 O 228.258 -0.305602 3.54887 0
M  V30 2358 O 227.117 -0.718749 5.41753 0
M  V30 2359 H 224.211 -0.143907 0.814383 0
M  V30 2360 H 226.757 0.467506 1.63133 0
M  V30 2361 H 225.529 0.75475 3.83952 0
M  V30 2362 H 225.152 -0.960163 3.85832 0
M  V30 2363 N 226.149 -1.5696 0.141893 0
M  V30 2364 C 227.112 -2.15316 -0.785587 0
M  V30 2365 C 228.112 -1.09366 -1.1788 0
M  V30 2366 O 229.302 -1.35031 -1.10056 0
M  V30 2367 C 226.434 -2.71211 -2.06537 0
M  V30 2368 H 227.627 -2.98608 -0.278041 0
M  V30 2369 H 225.18 -1.5593 -0.107519 0
M  V30 2370 H 225.915 -1.91571 -2.6167 0
M  V30 2371 H 225.7 -3.4872 -1.79268 0
M  V30 2372 H 227.19 -3.16189 -2.72789 0
M  V30 2373 N 227.627 0.131896 -1.57047 0
M  V30 2374 C 228.537 1.1815 -2.02676 0
M  V30 2375 C 229.553 1.46113 -0.944824 0
M  V30 2376 O 230.729 1.57485 -1.25541 0
M  V30 2377 C 227.794 2.49139 -2.41103 0
M  V30 2378 C 226.855 2.28688 -3.63318 0
M  V30 2379 C 226.088 3.53431 -3.99903 0
M  V30 2380 O 226.311 4.60223 -3.36973 0
M  V30 2381 O 225.245 3.45198 -4.93074 0
M  V30 2382 H 229.071 0.824069 -2.92306 0
M  V30 2383 H 226.656 0.341745 -1.45439 0
M  V30 2384 H 228.538 3.26338 -2.66611 0
M  V30 2385 H 227.213 2.84382 -1.54624 0
M  V30 2386 H 226.12 1.4939 -3.42977 0
M  V30 2387 H 227.453 1.98355 -4.50462 0
M  V30 2388 N 229.106 1.52395 0.401703 0
M  V30 2389 C 230.069 1.75636 1.47257 0
M  V30 2390 C 231.069 0.62628 1.48103 0
M  V30 2391 O 232.259 0.894227 1.49497 0
M  V30 2392 C 229.391 1.84553 2.86624 0
M  V30 2393 H 230.584 2.71241 1.27938 0
M  V30 2394 H 228.137 1.42923 0.632662 0
M  V30 2395 H 228.872 0.908882 3.11303 0
M  V30 2396 H 228.657 2.66715 2.87412 0
M  V30 2397 H 230.147 2.04251 3.64241 0
M  V30 2398 N 230.584 -0.659388 1.43143 0
M  V30 2399 C 231.514 -1.78422 1.50625 0
M  V30 2400 C 232.495 -1.66216 0.361443 0
M  V30 2401 O 233.68 -1.85404 0.577834 0
M  V30 2402 C 230.81 -3.16815 1.42287 0
M  V30 2403 C 229.764 -3.43777 2.54954 0
M  V30 2404 C 229.09 -4.81905 2.31671 0
M  V30 2405 C 230.39 -3.39134 3.97222 0
M  V30 2406 H 232.084 -1.72417 2.44771 0
M  V30 2407 H 229.63 -0.828084 1.17808 0
M  V30 2408 H 231.583 -3.95253 1.46127 0
M  V30 2409 H 230.307 -3.23534 0.446435 0
M  V30 2410 H 228.966 -2.67707 2.50457 0
M  V30 2411 H 228.614 -4.85294 1.32284 0
M  V30 2412 H 228.314 -5.00906 3.07192 0
M  V30 2413 H 229.838 -5.62609 2.37284 0
M  V30 2414 H 231.252 -4.07518 4.03239 0
M  V30 2415 H 229.649 -3.69671 4.72719 0
M  V30 2416 H 230.719 -2.37426 4.22797 0
M  V30 2417 N 232.062 -1.29571 -0.897171 0
M  V30 2418 C 233.012 -1.11539 -1.98855 0
M  V30 2419 C 233.996 -0.0340716 -1.60864 0
M  V30 2420 O 235.188 -0.256062 -1.75138 0
M  V30 2421 C 232.317 -0.796603 -3.3393 0
M  V30 2422 C 231.403 -1.91758 -3.78272 0
M  V30 2423 N 231.794 -3.16143 -3.94826 0
M  V30 2424 C 230.092 -1.81119 -4.07568 0
M  V30 2425 C 230.793 -3.89293 -4.32233 0
M  V30 2426 N 229.769 -3.17255 -4.41419 0
M  V30 2427 H 233.571 -2.05894 -2.09726 0
M  V30 2428 H 231.085 -1.20732 -1.08616 0
M  V30 2429 H 233.082 -0.648459 -4.11826 0
M  V30 2430 H 231.742 0.139003 -3.24402 0
M  V30 2431 H 232.753 -3.5157 -3.80288 0
M  V30 2432 H 229.43 -0.948461 -4.06584 0
M  V30 2433 H 230.82 -4.9635 -4.52865 0
M  V30 2434 N 233.54 1.10788 -1.12088 0
M  V30 2435 C 234.787 1.82671 -0.873931 0
M  V30 2436 C 235.115 1.85004 0.600311 0
M  V30 2437 O 234.37 1.30365 1.45957 0
M  V30 2438 C 234.669 3.29294 -1.38926 0
M  V30 2439 C 234.335 3.47113 -2.87791 0
M  V30 2440 C 232.997 3.51684 -3.28439 0
M  V30 2441 C 235.349 3.52808 -3.83635 0
M  V30 2442 C 232.677 3.59513 -4.63646 0
M  V30 2443 C 235.029 3.62169 -5.18668 0
M  V30 2444 C 233.693 3.65003 -5.58864 0
M  V30 2445 H 232.963 0.668441 -0.319794 0
M  V30 2446 H 235.61 1.30613 -1.40045 0
M  V30 2447 H 233.915 3.83894 -0.783122 0
M  V30 2448 H 235.612 3.83416 -1.17443 0
M  V30 2449 H 232.202 3.4423 -2.5535 0
M  V30 2450 H 236.386 3.4853 -3.53328 0
M  V30 2451 H 231.642 3.59987 -4.94185 0
M  V30 2452 H 235.816 3.6552 -5.92763 0
M  V30 2453 H 233.443 3.70822 -6.63623 0
M  V30 2454 N 235.018 0.912232 1.28515 0
M  V30 2455 C 236.248 0.559604 1.98877 0
M  V30 2456 C 236.656 -0.863113 1.68366 0
M  V30 2457 O 235.999 -1.58304 0.931969 0
M  V30 2458 C 236.061 0.68703 3.52874 0
M  V30 2459 C 235.725 2.07901 4.06972 0
M  V30 2460 C 236.722 3.05157 4.20922 0
M  V30 2461 C 234.407 2.39178 4.417 0
M  V30 2462 C 236.401 4.31806 4.68852 0
M  V30 2463 C 234.088 3.66068 4.89324 0
M  V30 2464 C 235.086 4.62195 5.02856 0
M  V30 2465 O 234.774 5.86829 5.49442 0
M  V30 2466 H 234.506 0.212191 0.641834 0
M  V30 2467 H 237.06 1.22712 1.64715 0
M  V30 2468 H 235.29 -0.0375486 3.86682 0
M  V30 2469 H 236.979 0.341727 4.04459 0
M  V30 2470 H 237.745 2.82311 3.94367 0
M  V30 2471 H 233.624 1.65109 4.30418 0
M  V30 2472 H 237.168 5.06842 4.79329 0
M  V30 2473 H 233.065 3.88739 5.15318 0
M  V30 2474 H 233.833 5.89597 5.6773 0
M  V30 2475 N 236.496 -1.42363 0.676048 0
M  V30 2476 C 237.912 -1.55811 0.345718 0
M  V30 2477 C 238.112 -1.65544 -1.14879 0
M  V30 2478 O 237.168 -1.62306 -1.93424 0
M  V30 2479 C 238.481 -2.80746 1.07713 0
M  V30 2480 C 240.029 -2.9452 1.05958 0
M  V30 2481 C 240.504 -4.22318 1.77233 0
M  V30 2482 N 241.995 -4.29233 1.74108 0
M  V30 2483 C 242.73 -5.26935 2.26113 0
M  V30 2484 N 242.226 -6.30783 2.86505 0
M  V30 2485 N 244.019 -5.18741 2.1648 0
M  V30 2486 H 236.17 -1.34289 1.6456 0
M  V30 2487 H 238.433 -0.646506 0.69335 0
M  V30 2488 H 238.139 -2.79696 2.13221 0
M  V30 2489 H 238.013 -3.71676 0.64316 0
M  V30 2490 H 240.4 -2.95097 0.0128255 0
M  V30 2491 H 240.481 -2.04817 1.53244 0
M  V30 2492 H 240.125 -4.22502 2.81877 0
M  V30 2493 H 240.055 -5.10958 1.27396 0
M  V30 2494 H 242.546 -3.54814 1.30059 0
M  V30 2495 H 242.859 -7.01691 3.23805 0
M  V30 2496 H 241.204 -6.31341 2.90575 0
M  V30 2497 H 244.395 -4.36533 1.68987 0
M  V30 2498 H 244.568 -5.94721 2.57316 0
M  V30 2499 N 237.974 -0.419461 -1.51915 0
M  V30 2500 C 239.251 0.211999 -1.94448 0
M  V30 2501 C 239.631 1.61703 -1.35703 0
M  V30 2502 O 238.979 2.22102 -0.536931 0
M  V30 2503 C 239.189 0.207872 -3.4838 0
M  V30 2504 C 240.537 0.422192 -4.22496 0
M  V30 2505 O 241.561 0.286778 -3.55044 0
M  V30 2506 O 240.42 0.690009 -5.42126 0
M  V30 2507 H 237.514 0.139586 -0.815135 0
M  V30 2508 H 240.06 -0.476151 -1.62883 0
M  V30 2509 H 238.832 -0.775102 -3.83546 0
M  V30 2510 H 238.455 0.939688 -3.86336 0
M  V30 2511 N 239.452 1.56882 -0.150215 0
M  V30 2512 C 240.698 1.96518 0.500834 0
M  V30 2513 C 241.031 1.03527 1.64304 0
M  V30 2514 O 240.306 0.0782751 1.94342 0
M  V30 2515 C 240.589 3.45822 1.00395 0
M  V30 2516 C 240.442 4.49591 -0.136983 0
M  V30 2517 C 241.761 3.97704 1.88467 0
M  V30 2518 H 238.88 0.714535 0.18058 0
M  V30 2519 H 241.522 1.88577 -0.232091 0
M  V30 2520 H 239.672 3.5272 1.62851 0
M  V30 2521 H 241.344 4.5477 -0.77343 0
M  V30 2522 H 239.587 4.26441 -0.795652 0
M  V30 2523 H 240.258 5.51402 0.256815 0
M  V30 2524 H 242.734 3.93304 1.35834 0
M  V30 2525 H 241.61 5.0263 2.20578 0
M  V30 2526 H 241.871 3.40252 2.82279 0
M  V30 2527 N 240.93 -0.123565 1.57115 0
M  V30 2528 C 241.86 -1.15309 2.03042 0
M  V30 2529 C 242.841 -1.43454 0.914061 0
M  V30 2530 O 244.026 -1.53973 1.18347 0
M  V30 2531 C 241.156 -2.48043 2.43089 0
M  V30 2532 C 240.11 -2.3437 3.58127 0
M  V30 2533 C 239.436 -3.72026 3.84059 0
M  V30 2534 C 240.736 -1.80804 4.90007 0
M  V30 2535 H 242.43 -0.771102 2.893 0
M  V30 2536 H 239.976 -0.369479 1.39179 0
M  V30 2537 H 241.929 -3.20311 2.73823 0
M  V30 2538 H 240.653 -2.88122 1.53796 0
M  V30 2539 H 239.312 -1.64551 3.27595 0
M  V30 2540 H 238.96 -4.09582 2.91979 0
M  V30 2541 H 238.66 -3.63732 4.6149 0
M  V30 2542 H 240.184 -4.45806 4.1724 0
M  V30 2543 H 241.598 -2.42886 5.19307 0
M  V30 2544 H 239.995 -1.83343 5.71407 0
M  V30 2545 H 241.065 -0.76528 4.78823 0
M  V30 2546 N 242.408 -1.52605 -0.393616 0
M  V30 2547 C 243.656 -1.67093 -1.13685 0
M  V30 2548 C 243.977 -0.411011 -1.90619 0
M  V30 2549 O 243.247 0.574491 -1.87287 0
M  V30 2550 H 241.827 -0.615923 -0.422668 0
M  V30 2551 H 244.489 -1.89704 -0.447039 0
M  V30 2552 H 243.585 -2.51922 -1.84232 0
M  V30 2553 N 243.887 0.651787 -1.4349 0
M  V30 2554 C 245.134 1.41167 -1.45183 0
M  V30 2555 C 245.462 1.94349 -0.0766601 0
M  V30 2556 O 244.717 1.72804 0.918555 0
M  V30 2557 C 245.016 2.60914 -2.44251 0
M  V30 2558 C 244.682 2.26142 -3.9009 0
M  V30 2559 C 243.344 2.16371 -4.2981 0
M  V30 2560 C 245.696 1.98334 -4.81989 0
M  V30 2561 C 243.024 1.7695 -5.5938 0
M  V30 2562 C 245.376 1.6041 -6.11924 0
M  V30 2563 C 244.04 1.49166 -6.5062 0
M  V30 2564 H 243.31 0.516566 -0.531263 0
M  V30 2565 H 245.957 0.741099 -1.76579 0
M  V30 2566 H 244.262 3.3311 -2.06265 0
M  V30 2567 H 245.959 3.19127 -2.42815 0
M  V30 2568 H 242.549 2.34658 -3.58655 0
M  V30 2569 H 246.733 2.04803 -4.52072 0
M  V30 2570 H 241.989 1.66831 -5.88198 0
M  V30 2571 H 246.163 1.37925 -6.82605 0
M  V30 2572 H 243.79 1.1839 -7.50925 0
M  V30 2573 N 245.365 1.30045 0.890287 0
M  V30 2574 C 246.781 1.08261 1.17268 0
M  V30 2575 C 246.981 -0.160063 2.00863 0
M  V30 2576 O 246.037 -0.855181 2.37577 0
M  V30 2577 C 247.35 2.34323 1.8845 0
M  V30 2578 C 248.898 2.39735 2.01237 0
M  V30 2579 C 249.373 3.65625 2.7583 0
M  V30 2580 N 250.864 3.66402 2.83379 0
M  V30 2581 C 251.599 4.60498 3.41657 0
M  V30 2582 N 251.095 5.64933 4.01026 0
M  V30 2583 N 252.888 4.48051 3.39421 0
M  V30 2584 H 245.039 2.09777 0.332762 0
M  V30 2585 H 247.302 0.92446 0.209948 0
M  V30 2586 H 247.008 3.2498 1.34465 0
M  V30 2587 H 246.882 2.4256 2.88867 0
M  V30 2588 H 249.269 1.4956 2.54393 0
M  V30 2589 H 249.35 2.35476 0.999232 0
M  V30 2590 H 248.994 4.56156 2.23347 0
M  V30 2591 H 248.924 3.67144 3.77509 0
M  V30 2592 H 251.415 2.90896 2.41222 0
M  V30 2593 H 251.728 6.32841 4.43545 0
M  V30 2594 H 250.073 5.68732 3.99461 0
M  V30 2595 H 253.264 3.65649 2.92264 0
M  V30 2596 H 253.437 5.21565 3.84544 0
M  V30 2597 N 246.843 -1.10192 1.12674 0
M  V30 2598 C 247.773 -2.18652 0.819362 0
M  V30 2599 C 248.754 -1.68698 -0.217915 0
M  V30 2600 O 249.939 -1.94041 -0.0785581 0
M  V30 2601 C 247.069 -3.46202 0.27594 0
M  V30 2602 C 246.023 -4.09444 1.24656 0
M  V30 2603 C 245.349 -5.31725 0.563258 0
M  V30 2604 C 246.649 -4.52863 2.60217 0
M  V30 2605 H 248.343 -2.44622 1.72628 0
M  V30 2606 H 245.889 -1.17571 0.831451 0
M  V30 2607 H 247.842 -4.21372 0.0486149 0
M  V30 2608 H 246.566 -3.1973 -0.666331 0
M  V30 2609 H 245.225 -3.36284 1.45974 0
M  V30 2610 H 244.873 -5.0153 -0.384235 0
M  V30 2611 H 244.573 -5.74991 1.21075 0
M  V30 2612 H 246.097 -6.09624 0.34503 0
M  V30 2613 H 247.511 -5.19294 2.42913 0
M  V30 2614 H 245.908 -5.06986 3.21068 0
M  V30 2615 H 246.978 -3.65656 3.18471 0
M  V30 2616 N 248.321 -0.919034 -1.28029 0
M  V30 2617 C 249.737 -0.617972 -1.4715 0
M  V30 2618 C 249.937 0.835242 -1.83374 0
M  V30 2619 O 248.993 1.61388 -1.94191 0
M  V30 2620 C 250.306 -1.56041 -2.57044 0
M  V30 2621 C 251.854 -1.56769 -2.7091 0
M  V30 2622 C 252.329 -2.49688 -3.83953 0
M  V30 2623 N 253.82 -2.47845 -3.91314 0
M  V30 2624 C 254.555 -3.16437 -4.78179 0
M  V30 2625 N 254.051 -3.94376 -5.69596 0
M  V30 2626 N 255.844 -3.05498 -4.71834 0
M  V30 2627 H 247.995 -1.85866 -1.02798 0
M  V30 2628 H 250.258 -0.797506 -0.512531 0
M  V30 2629 H 249.964 -2.59671 -2.372 0
M  V30 2630 H 249.838 -1.29551 -3.54255 0
M  V30 2631 H 252.225 -0.538745 -2.90141 0
M  V30 2632 H 252.306 -1.87305 -1.74214 0
M  V30 2633 H 251.95 -3.52688 -3.65477 0
M  V30 2634 H 251.88 -2.16453 -4.80058 0
M  V30 2635 H 254.371 -1.91234 -3.25941 0
M  V30 2636 H 254.684 -4.43721 -6.32718 0
M  V30 2637 H 253.029 -3.98481 -5.69419 0
M  V30 2638 H 256.22 -2.44108 -3.99411 0
M  V30 2639 H 256.393 -3.59225 -5.39316 0
M  V30 2640 N 249.799 1.42003 -0.683588 0
M  V30 2641 C 251.076 1.95112 -0.138075 0
M  V30 2642 C 251.456 1.62359 1.34918 0
M  V30 2643 O 250.804 0.924311 2.08971 0
M  V30 2644 C 251.014 3.46505 -0.416581 0
M  V30 2645 C 252.362 4.23254 -0.337834 0
M  V30 2646 O 253.386 3.54468 -0.35082 0
M  V30 2647 O 252.245 5.45743 -0.287596 0
M  V30 2648 H 249.339 0.826961 -0.00797996 0
M  V30 2649 H 251.885 1.51784 -0.758924 0
M  V30 2650 H 250.657 3.63582 -1.4465 0
M  V30 2651 H 250.28 3.969 0.235839 0
M  V30 2652 N 251.277 0.427512 1.51691 0
M  V30 2653 C 252.502 -0.143601 2.06902 0
M  V30 2654 C 252.927 -1.36536 1.29382 0
M  V30 2655 O 252.285 -1.78289 0.329043 0
M  V30 2656 C 252.333 -0.454207 3.57728 0
M  V30 2657 O 251.437 -1.54228 3.82475 0
M  V30 2658 H 250.778 -0.00617128 0.663971 0
M  V30 2659 H 253.308 0.606014 1.95419 0
M  V30 2660 H 253.318 -0.707525 4.01818 0
M  V30 2661 H 251.993 0.438812 4.13579 0
M  V30 2662 H 250.57 -1.2797 3.50254 0
M  V30 2663 N 252.755 -1.56801 0.158532 0
M  V30 2664 C 253.688 -2.13148 -0.815065 0
M  V30 2665 C 254.666 -1.0581 -1.23462 0
M  V30 2666 O 255.85 -1.3371 -1.32868 0
M  V30 2667 C 252.977 -2.6606 -2.09594 0
M  V30 2668 C 252.023 -3.85651 -1.82141 0
M  V30 2669 S 252.856 -5.26041 -1.00207 0
M  V30 2670 C 254.012 -5.8235 -2.29389 0
M  V30 2671 H 254.245 -2.95396 -0.335937 0
M  V30 2672 H 251.778 -1.54299 -0.0559391 0
M  V30 2673 H 253.736 -2.97195 -2.8317 0
M  V30 2674 H 252.397 -1.83921 -2.54621 0
M  V30 2675 H 251.59 -4.20958 -2.77147 0
M  V30 2676 H 251.192 -3.55338 -1.16667 0
M  V30 2677 H 253.484 -5.94485 -3.24952 0
M  V30 2678 H 254.427 -6.79688 -1.9857 0
M  V30 2679 H 254.835 -5.10675 -2.40564 0
M  V30 2680 N 254.233 0.115231 -1.57178 0
M  V30 2681 C 255.649 0.468877 -1.52557 0
M  V30 2682 C 255.849 1.81649 -0.872125 0
M  V30 2683 O 254.905 2.48347 -0.45606 0
M  V30 2684 C 256.218 0.4499 -2.97315 0
M  V30 2685 C 257.766 0.533185 -3.08425 0
M  V30 2686 C 258.241 0.54456 -4.54751 0
M  V30 2687 N 259.732 0.605892 -4.5922 0
M  V30 2688 C 260.467 0.636203 -5.6986 0
M  V30 2689 N 259.963 0.623931 -6.89985 0
M  V30 2690 N 261.756 0.679496 -5.57978 0
M  V30 2691 H 253.907 -0.767712 -1.9804 0
M  V30 2692 H 256.17 -0.283609 -0.904583 0
M  V30 2693 H 255.876 -0.472721 -3.48509 0
M  V30 2694 H 255.75 1.27632 -3.5495 0
M  V30 2695 H 258.137 1.44623 -2.57232 0
M  V30 2696 H 258.218 -0.320995 -2.53778 0
M  V30 2697 H 257.862 -0.364452 -5.06591 0
M  V30 2698 H 257.792 1.41568 -5.07214 0
M  V30 2699 H 260.283 0.621386 -3.72756 0
M  V30 2700 H 260.596 0.649787 -7.70063 0
M  V30 2701 H 258.941 0.591296 -6.9248 0
M  V30 2702 H 262.132 0.686472 -4.63039 0
M  V30 2703 H 262.305 0.69965 -6.44212 0
M  V30 2704 N 255.711 1.52812 0.385517 0
M  V30 2705 C 256.641 1.80808 1.47752 0
M  V30 2706 C 257.622 0.660318 1.5676 0
M  V30 2707 O 258.807 0.908246 1.71652 0
M  V30 2708 C 255.937 1.98008 2.85324 0
M  V30 2709 C 254.891 3.13709 2.91154 0
M  V30 2710 C 254.217 3.16169 4.31209 0
M  V30 2711 C 255.517 4.52709 2.60483 0
M  V30 2712 H 257.211 2.72253 1.24573 0
M  V30 2713 H 254.757 1.31003 0.597839 0
M  V30 2714 H 256.71 2.16176 3.61726 0
M  V30 2715 H 255.434 1.03255 3.09848 0
M  V30 2716 H 254.093 2.95329 2.17201 0
M  V30 2717 H 253.741 2.19092 4.52778 0
M  V30 2718 H 253.441 3.93894 4.36029 0
M  V30 2719 H 254.965 3.36496 5.09512 0
M  V30 2720 H 256.379 4.71173 3.26602 0
M  V30 2721 H 254.776 5.32528 2.76648 0
M  V30 2722 H 255.846 4.59186 1.55809 0
M  V30 2723 N 257.189 -0.644168 1.43834 0
M  V30 2724 C 258.6 -1.22554 1.40845 0
M  V30 2725 C 258.951 -1.9585 0.117115 0
M  V30 2726 O 258.076 -2.01734 -0.783086 0
M  V30 2727 C 258.671 -2.22907 2.55143 0
M  V30 2728 C 257.23 -2.76501 2.5539 0
M  V30 2729 C 256.377 -1.51287 2.32396 0
M  V30 2730 H 259.328 -0.43563 1.52604 0
M  V30 2731 H 259.349 -3.05259 2.2715 0
M  V30 2732 H 258.861 -1.69533 3.49114 0
M  V30 2733 H 256.962 -3.33914 1.65324 0
M  V30 2734 H 257.075 -3.23429 3.53455 0
M  V30 2735 H 255.439 -1.78957 1.81236 0
M  V30 2736 H 256.222 -0.998336 3.28463 0
M  V30 2737 N 258.668 -1.30515 -0.883378 0
M  V30 2738 C 260.079 -1.17509 -1.45081 0
M  V30 2739 C 260.43 0.223605 -1.94922 0
M  V30 2740 O 259.555 1.12041 -1.85137 0
M  V30 2741 C 260.15 -2.12715 -2.63701 0
M  V30 2742 C 258.709 -2.03682 -3.16529 0
M  V30 2743 C 257.856 -2.02706 -1.89224 0
M  V30 2744 H 260.807 -1.42762 -0.693165 0
M  V30 2745 H 260.828 -1.70891 -3.39965 0
M  V30 2746 H 260.34 -3.14505 -2.27395 0
M  V30 2747 H 258.441 -1.05039 -3.57488 0
M  V30 2748 H 258.554 -2.92146 -3.7972 0
M  V30 2749 H 256.918 -1.4753 -2.07622 0
M  V30 2750 H 257.701 -3.06229 -1.55174 0
M  V30 2751 N 260.146 1.09593 -1.13257 0
M  V30 2752 C 261.078 2.16015 -0.766167 0
M  V30 2753 C 262.091 1.61423 0.211303 0
M  V30 2754 O 263.28 1.78498 -0.00863946 0
M  V30 2755 C 260.38 3.38706 -0.114662 0
M  V30 2756 C 259.553 4.22717 -1.12379 0
M  V30 2757 C 258.612 5.23835 -0.498301 0
M  V30 2758 O 257.638 5.573 -1.15781 0
M  V30 2759 N 258.84 5.75886 0.730417 0
M  V30 2760 H 261.605 2.48055 -1.68193 0
M  V30 2761 H 259.166 1.25292 -1.02535 0
M  V30 2762 H 261.158 4.03464 0.315991 0
M  V30 2763 H 259.728 3.04569 0.704011 0
M  V30 2764 H 258.948 3.54122 -1.73179 0
M  V30 2765 H 260.236 4.75673 -1.80589 0
M  V30 2766 H 259.634 5.50911 1.28504 0
M  V30 2767 H 258.191 6.42387 1.10376 0
M  V30 2768 N 261.624 0.925811 1.2754 0
M  V30 2769 C 262.557 0.367836 2.25216 0
M  V30 2770 C 263.535 -0.534738 1.53556 0
M  V30 2771 O 264.719 -0.475672 1.824 0
M  V30 2772 C 261.846 -0.47298 3.35381 0
M  V30 2773 C 260.892 0.365898 4.24928 0
M  V30 2774 S 261.725 1.78025 5.05042 0
M  V30 2775 C 262.881 0.947068 6.18693 0
M  V30 2776 H 263.114 1.19568 2.72196 0
M  V30 2777 H 260.647 0.727867 1.36167 0
M  V30 2778 H 262.605 -0.952242 3.99303 0
M  V30 2779 H 261.266 -1.27533 2.87044 0
M  V30 2780 H 260.459 -0.277582 5.03235 0
M  V30 2781 H 260.061 0.779261 3.65792 0
M  V30 2782 H 262.353 0.182201 6.77255 0
M  V30 2783 H 263.296 1.70309 6.87314 0
M  V30 2784 H 263.704 0.489913 5.6237 0
M  V30 2785 N 263.102 -1.41638 0.69111 0
M  V30 2786 C 264.348 -2.01598 0.220519 0
M  V30 2787 C 264.681 -1.54594 -1.17535 0
M  V30 2788 O 263.956 -0.755177 -1.79241 0
M  V30 2789 C 264.239 -3.59062 0.273243 0
M  V30 2790 C 264.092 -4.16203 1.70573 0
M  V30 2791 C 265.411 -4.38546 -0.369457 0
M  V30 2792 H 262.53 -0.732468 0.0816045 0
M  V30 2793 H 265.172 -1.68445 0.878986 0
M  V30 2794 H 263.322 -3.87435 -0.287411 0
M  V30 2795 H 264.994 -3.98722 2.31989 0
M  V30 2796 H 263.237 -3.71414 2.2413 0
M  V30 2797 H 263.908 -5.25358 1.69419 0
M  V30 2798 H 266.384 -4.1596 0.107977 0
M  V30 2799 H 265.26 -5.48069 -0.302002 0
M  V30 2800 H 265.521 -4.17662 -1.44951 0
M  V30 2801 N 264.58 -0.43555 -1.51462 0
M  V30 2802 C 265.828 0.131254 -2.01673 0
M  V30 2803 C 266.149 1.43368 -1.32177 0
M  V30 2804 O 265.419 1.90524 -0.455769 0
M  V30 2805 H 263.999 0.0514954 -0.745223 0
M  V30 2806 H 266.661 -0.577847 -1.86137 0
M  V30 2807 H 265.757 0.308446 -3.10572 0
M  V30 2808 N 266.058 1.56714 -0.166846 0
M  V30 2809 C 267.474 1.58473 0.189372 0
M  V30 2810 C 267.674 1.18201 1.63189 0
M  V30 2811 O 266.73 0.891528 2.36237 0
M  V30 2812 C 268.043 3.00573 -0.0873872 0
M  V30 2813 C 269.591 3.1299 -0.0252443 0
M  V30 2814 C 270.066 4.57174 -0.274934 0
M  V30 2815 N 271.557 4.62665 -0.222553 0
M  V30 2816 C 272.292 5.72072 -0.389985 0
M  V30 2817 N 271.788 6.90054 -0.616229 0
M  V30 2818 N 273.581 5.61153 -0.326202 0
M  V30 2819 H 265.732 1.8118 -1.10849 0
M  V30 2820 H 267.995 0.839525 -0.440342 0
M  V30 2821 H 267.701 3.34497 -1.0865 0
M  V30 2822 H 267.575 3.72019 0.623037 0
M  V30 2823 H 269.962 2.78895 0.96444 0
M  V30 2824 H 270.043 2.43989 -0.768309 0
M  V30 2825 H 269.687 4.91976 -1.26181 0
M  V30 2826 H 269.617 5.24328 0.48869 0
M  V30 2827 H 272.108 3.77863 -0.0531512 0
M  V30 2828 H 272.421 7.69311 -0.733559 0
M  V30 2829 H 270.766 6.91927 -0.652791 0
M  V30 2830 H 273.957 4.67859 -0.150072 0
M  V30 2831 H 274.13 6.46364 -0.460116 0
M  V30 2832 N 267.536 -0.106894 1.57237 0
M  V30 2833 C 268.947 -0.662723 1.74542 0
M  V30 2834 C 269.298 -1.7971 0.787319 0
M  V30 2835 O 268.423 -2.16368 -0.0369636 0
M  V30 2836 C 269.018 -1.20896 3.16496 0
M  V30 2837 C 267.577 -1.71096 3.35266 0
M  V30 2838 C 266.724 -0.615642 2.7038 0
M  V30 2839 H 269.675 0.119106 1.58252 0
M  V30 2840 H 269.696 -2.07847 3.18716 0
M  V30 2841 H 269.208 -0.383122 3.86204 0
M  V30 2842 H 267.309 -2.56119 2.70618 0
M  V30 2843 H 267.422 -1.81208 4.43509 0
M  V30 2844 H 265.786 -1.05222 2.31949 0
M  V30 2845 H 266.569 0.199419 3.4272 0
M  V30 2846 N 269.014 -1.53014 -0.377408 0
M  V30 2847 C 269.977 -1.77957 -1.44444 0
M  V30 2848 C 270.977 -0.649763 -1.47087 0
M  V30 2849 O 272.167 -0.917897 -1.48055 0
M  V30 2850 C 269.299 -1.89089 -2.83651 0
M  V30 2851 H 270.492 -2.73243 -1.23606 0
M  V30 2852 H 268.045 -1.43912 -0.609844 0
M  V30 2853 H 268.78 -0.958293 -3.09818 0
M  V30 2854 H 268.565 -2.71254 -2.83132 0
M  V30 2855 H 270.055 -2.1002 -3.60945 0
M  V30 2856 N 270.492 0.636531 -1.44174 0
M  V30 2857 C 271.769 1.39463 -1.37148 0
M  V30 2858 C 272.149 2.11082 -0.027507 0
M  V30 2859 O 271.497 2.05954 0.989716 0
M  V30 2860 C 271.707 2.36552 -2.56601 0
M  V30 2861 C 273.055 3.00048 -3.00427 0
M  V30 2862 O 274.079 2.46878 -2.56767 0
M  V30 2863 O 272.938 3.96488 -3.76111 0
M  V30 2864 H 270.032 0.623903 -0.542839 0
M  V30 2865 H 272.578 0.662039 -1.56253 0
M  V30 2866 H 271.35 1.82692 -3.46034 0
M  V30 2867 H 270.973 3.17236 -2.39681 0
M  V30 2868 N 271.97 1.30982 0.876444 0
M  V30 2869 C 273.218 1.20058 1.62575 0
M  V30 2870 C 273.539 -0.242947 1.93481 0
M  V30 2871 O 272.809 -1.1619 1.57724 0
M  V30 2872 H 271.389 0.44135 0.602677 0
M  V30 2873 H 274.051 1.64222 1.04962 0
M  V30 2874 H 273.147 1.76762 2.57219 0
M  V30 2875 N 273.449 -1.08991 1.13837 0
M  V30 2876 C 274.86 -1.62746 0.914917 0
M  V30 2877 C 275.211 -1.88403 -0.547594 0
M  V30 2878 O 274.336 -1.63706 -1.41525 0
M  V30 2879 C 274.931 -2.95662 1.65437 0
M  V30 2880 C 273.49 -3.46225 1.47666 0
M  V30 2881 C 272.637 -2.20562 1.6807 0
M  V30 2882 H 275.588 -0.922946 1.29102 0
M  V30 2883 H 275.609 -3.63825 1.11407 0
M  V30 2884 H 275.121 -2.76956 2.71877 0
M  V30 2885 H 273.222 -3.70046 0.435478 0
M  V30 2886 H 273.335 -4.23368 2.24268 0
M  V30 2887 H 271.699 -2.29439 1.10589 0
M  V30 2888 H 272.482 -2.0437 2.7584 0
M  V30 2889 N 274.927 -0.932562 -1.27047 0
M  V30 2890 C 276.338 -0.619451 -1.76124 0
M  V30 2891 C 276.689 0.865397 -1.76083 0
M  V30 2892 O 275.814 1.67722 -1.36742 0
M  V30 2893 C 276.409 -1.11771 -3.19832 0
M  V30 2894 C 274.968 -0.855174 -3.66557 0
M  V30 2895 C 274.115 -1.27362 -2.46321 0
M  V30 2896 H 277.066 -1.11181 -1.13245 0
M  V30 2897 H 277.087 -0.46759 -3.77616 0
M  V30 2898 H 276.599 -2.19842 -3.1983 0
M  V30 2899 H 274.7 0.211524 -3.71999 0
M  V30 2900 H 274.813 -1.47613 -4.55793 0
M  V30 2901 H 273.177 -0.692119 -2.45116 0
M  V30 2902 H 273.96 -2.36307 -2.49025 0
M  V30 2903 N 276.405 1.4127 -0.698611 0
M  V30 2904 C 277.368 2.29158 -0.044132 0
M  V30 2905 C 278.368 1.44529 0.704841 0
M  V30 2906 O 279.558 1.65643 0.539276 0
M  V30 2907 C 276.69 3.27459 0.947809 0
M  V30 2908 H 277.883 2.88529 -0.817994 0
M  V30 2909 H 275.436 1.49307 -0.46228 0
M  V30 2910 H 276.171 2.73073 1.74933 0
M  V30 2911 H 275.956 3.8991 0.41385 0
M  V30 2912 H 277.446 3.93311 1.40344 0
M  V30 2913 N 277.883 0.443576 1.51229 0
M  V30 2914 C 279.129 -0.11321 2.03085 0
M  V30 2915 C 279.484 -1.39841 1.32145 0
M  V30 2916 O 278.777 -1.86723 0.429542 0
M  V30 2917 C 278.971 -0.380579 3.55368 0
M  V30 2918 C 278.8 0.877157 4.41062 0
M  V30 2919 C 277.57 1.4125 4.85156 0
M  V30 2920 C 279.768 1.76503 4.83064 0
M  V30 2921 N 277.75 2.62213 5.55083 0
M  V30 2922 C 279.121 2.82067 5.52122 0
M  V30 2923 C 281.176 1.7787 4.65045 0
M  V30 2924 C 279.879 3.88952 6.05069 0
M  V30 2925 C 281.905 2.83694 5.18914 0
M  V30 2926 C 281.267 3.87978 5.87922 0
M  V30 2927 H 277.366 -0.00210178 0.781997 0
M  V30 2928 H 279.95 0.605641 1.85041 0
M  V30 2929 H 278.121 -1.06847 3.73414 0
M  V30 2930 H 279.853 -0.929274 3.93887 0
M  V30 2931 H 276.608 0.965542 4.63653 0
M  V30 2932 H 277.032 3.23568 5.9467 0
M  V30 2933 H 281.674 0.985744 4.11148 0
M  V30 2934 H 279.392 4.69082 6.58018 0
M  V30 2935 H 282.978 2.85702 5.06819 0
M  V30 2936 H 281.858 4.68517 6.28857 0
M  V30 2937 N 279.361 -1.56624 0.175154 0
M  V30 2938 C 280.291 -2.21155 -0.749195 0
M  V30 2939 C 281.272 -1.16836 -1.23626 0
M  V30 2940 O 282.457 -1.45277 -1.28873 0
M  V30 2941 C 279.587 -2.8553 -1.97711 0
M  V30 2942 C 278.541 -3.95921 -1.62575 0
M  V30 2943 C 277.867 -4.47365 -2.92864 0
M  V30 2944 C 279.167 -5.15323 -0.850838 0
M  V30 2945 H 280.861 -2.98653 -0.211295 0
M  V30 2946 H 278.407 -1.43651 -0.100188 0
M  V30 2947 H 280.36 -3.2935 -2.62881 0
M  V30 2948 H 279.084 -2.05406 -2.53921 0
M  V30 2949 H 277.743 -3.52762 -0.997719 0
M  V30 2950 H 277.391 -3.64027 -3.47122 0
M  V30 2951 H 277.091 -5.21839 -2.70106 0
M  V30 2952 H 278.615 -4.93873 -3.59056 0
M  V30 2953 H 280.029 -5.55812 -1.40521 0
M  V30 2954 H 278.426 -5.95739 -0.722154 0
M  V30 2955 H 279.496 -4.84661 0.152082 0
M  V30 2956 N 280.839 0.0985539 -1.57292 0
M  V30 2957 C 282.255 0.45267 -1.53046 0
M  V30 2958 C 282.455 1.80713 -0.891342 0
M  V30 2959 O 281.511 2.4785 -0.482375 0
M  V30 2960 C 282.824 0.418341 -2.97776 0
M  V30 2961 C 284.372 0.500443 -3.08973 0
M  V30 2962 C 284.847 0.496297 -4.55303 0
M  V30 2963 N 286.338 0.557151 -4.59837 0
M  V30 2964 C 287.073 0.575726 -5.70502 0
M  V30 2965 N 286.569 0.550714 -6.90608 0
M  V30 2966 N 288.362 0.620277 -5.58667 0
M  V30 2967 H 280.513 -0.788673 -1.97215 0
M  V30 2968 H 282.776 -0.293188 -0.901524 0
M  V30 2969 H 282.482 -0.509659 -3.47988 0
M  V30 2970 H 282.356 1.2386 -3.56284 0
M  V30 2971 H 284.743 1.41886 -2.58751 0
M  V30 2972 H 284.824 -0.347894 -2.53423 0
M  V30 2973 H 284.468 -0.418162 -5.06176 0
M  V30 2974 H 284.398 1.3618 -5.08687 0
M  V30 2975 H 286.889 0.581816 -3.73394 0
M  V30 2976 H 287.202 0.568075 -7.70709 0
M  V30 2977 H 285.547 0.517816 -6.93068 0
M  V30 2978 H 288.738 0.637322 -4.63741 0
M  V30 2979 H 288.911 0.631283 -6.44918 0
M  V30 2980 N 282.317 1.53212 0.369288 0
M  V30 2981 C 283.564 1.69215 1.11232 0
M  V30 2982 C 283.892 0.442048 1.8941 0
M  V30 2983 O 283.147 -0.575944 1.87033 0
M  V30 2984 C 283.446 2.89101 2.10132 0
M  V30 2985 C 283.112 4.25758 1.48463 0
M  V30 2986 C 281.774 4.6292 1.31372 0
M  V30 2987 C 284.126 5.10757 1.03811 0
M  V30 2988 C 281.454 5.82722 0.68207 0
M  V30 2989 C 283.806 6.31201 0.420487 0
M  V30 2990 C 282.47 6.67079 0.237038 0
M  V30 2991 H 281.74 0.619201 0.407027 0
M  V30 2992 H 284.387 1.87391 0.394552 0
M  V30 2993 H 282.692 2.65421 2.88199 0
M  V30 2994 H 284.389 2.98676 2.6757 0
M  V30 2995 H 280.979 3.96494 1.62758 0
M  V30 2996 H 285.163 4.82599 1.1581 0
M  V30 2997 H 280.419 6.09113 0.528316 0
M  V30 2998 H 284.593 6.96368 0.0662874 0
M  V30 2999 H 282.22 7.59774 -0.254477 0
M  V30 3000 N 283.795 -0.628877 1.44509 0
M  V30 3001 C 285.042 -1.38839 1.47411 0
M  V30 3002 C 285.37 -1.94202 0.10757 0
M  V30 3003 O 284.625 -1.74243 -0.890947 0
M  V30 3004 C 284.924 -2.56995 2.48371 0
M  V30 3005 C 284.59 -2.19908 3.93639 0
M  V30 3006 C 283.252 -2.09506 4.33198 0
M  V30 3007 C 285.604 -1.9064 4.85083 0
M  V30 3008 C 282.932 -1.68028 5.62124 0
M  V30 3009 C 285.284 -1.50655 6.14399 0
M  V30 3010 C 283.948 -1.38796 6.5291 0
M  V30 3011 H 283.218 -0.508048 0.539414 0
M  V30 3012 H 285.865 -0.712913 1.77735 0
M  V30 3013 H 284.17 -3.29786 2.11538 0
M  V30 3014 H 285.867 -3.15223 2.47861 0
M  V30 3015 H 282.457 -2.28922 3.62343 0
M  V30 3016 H 286.641 -1.97585 4.55273 0
M  V30 3017 H 281.897 -1.57452 5.90778 0
M  V30 3018 H 286.071 -1.27048 6.84713 0
M  V30 3019 H 283.698 -1.06429 7.52713 0
M  V30 3020 N 285.273 -1.31445 -0.869486 0
M  V30 3021 C 286.521 -1.20918 -1.61936 0
M  V30 3022 C 286.842 0.232683 -1.93607 0
M  V30 3023 O 286.112 1.15352 -1.58338 0
M  V30 3024 H 284.692 -0.44454 -0.600328 0
M  V30 3025 H 287.354 -1.64776 -1.0409 0
M  V30 3026 H 286.45 -1.78124 -2.56278 0
M  V30 3027 N 286.751 1.08385 -1.14413 0
M  V30 3028 C 287.991 1.8238 -0.922868 0
M  V30 3029 C 288.355 1.84225 0.540842 0
M  V30 3030 O 289.556 2.53985 0.880058 0
M  V30 3031 C 287.827 3.24048 -1.50757 0
M  V30 3032 S 289.386 4.14917 -1.4279 0
M  V30 3033 H 286.204 0.628524 -0.332384 0
M  V30 3034 H 288.806 1.30278 -1.45766 0
M  V30 3035 H 287.51 3.20288 -2.56601 0
M  V30 3036 H 287.041 3.81224 -0.971178 0
M  V30 3037 H 289.056 4.94473 -0.413582 0
M  V30 3038 N 288.23 0.939286 1.26551 0
M  V30 3039 C 289.178 0.43815 2.28436 0
M  V30 3040 C 290.172 -0.483587 1.62351 0
M  V30 3041 O 291.378 -0.362009 1.76322 0
M  V30 3042 H 287.753 0.123149 0.741848 0
M  V30 3043 H 289.724 1.31002 2.68106 0
M  V30 3044 C 288.473 -0.283052 3.46546 0
M  V30 3045 H 287.796 0.417043 3.97619 0
M  V30 3046 H 289.236 -0.597948 4.19763 0
M  V30 3047 C 287.695 -1.50018 3.01656 0
M  V30 3048 O 288.225 -2.59855 3.0633 0
M  V30 3049 N 286.431 -1.35608 2.57019 0
M  V30 3050 H 285.978 -0.46244 2.53415 0
M  V30 3051 H 285.936 -2.17165 2.27347 0
M  V30 3052 N 289.708 -1.40897 0.706093 0
M  V30 3053 C 291.119 -1.84023 0.315052 0
M  V30 3054 C 291.47 -1.5906 -1.14866 0
M  V30 3055 O 290.595 -1.06651 -1.88293 0
M  V30 3056 C 291.19 -3.34055 0.565038 0
M  V30 3057 C 289.749 -3.7571 0.227806 0
M  V30 3058 C 288.896 -2.64204 0.842122 0
M  V30 3059 H 291.847 -1.303 0.905963 0
M  V30 3060 H 291.868 -3.80107 -0.172843 0
M  V30 3061 H 291.38 -3.52192 1.63042 0
M  V30 3062 H 289.481 -3.63172 -0.832895 0
M  V30 3063 H 289.594 -4.74103 0.690174 0
M  V30 3064 H 287.958 -2.53255 0.270893 0
M  V30 3065 H 288.741 -2.85155 1.91158 0
M  V30 3066 N 291.186 -0.45159 -1.50991 0
M  V30 3067 C 292.602 -0.104647 -1.59257 0
M  V30 3068 C 292.802 1.38728 -1.4614 0
M  V30 3069 O 291.858 2.15866 -1.30989 0
M  V30 3070 C 293.171 -0.637468 -2.93865 0
M  V30 3071 C 294.719 -0.599166 -3.07212 0
M  V30 3072 C 295.194 -1.1092 -4.44366 0
M  V30 3073 N 296.685 -1.06778 -4.50725 0
M  V30 3074 C 297.42 -1.43314 -5.55201 0
M  V30 3075 N 296.916 -1.87204 -6.67028 0
M  V30 3076 N 298.709 -1.3504 -5.45638 0
M  V30 3077 H 290.86 -1.42214 -1.57762 0
M  V30 3078 H 293.123 -0.586921 -0.744465 0
M  V30 3079 H 292.829 -1.68187 -3.08879 0
M  V30 3080 H 292.703 -0.0702139 -3.77135 0
M  V30 3081 H 295.09 0.436277 -2.91857 0
M  V30 3082 H 295.171 -1.20299 -2.25747 0
M  V30 3083 H 294.815 -2.14318 -4.60467 0
M  V30 3084 H 294.745 -0.481773 -5.24392 0
M  V30 3085 H 297.236 -0.745643 -3.70471 0
M  V30 3086 H 297.549 -2.13282 -7.42786 0
M  V30 3087 H 295.894 -1.91142 -6.68199 0
M  V30 3088 H 299.085 -1.00607 -4.57161 0
M  V30 3089 H 299.258 -1.63841 -6.26945 0
M  V30 3090 N 292.664 1.56529 -0.183458 0
M  V30 3091 C 293.614 2.1515 0.754605 0
M  V30 3092 C 294.598 1.08904 1.18443 0
M  V30 3093 O 295.79 1.34997 1.14476 0
M  V30 3094 C 292.919 2.80531 1.97881 0
M  V30 3095 C 292.005 3.93952 1.57043 0
M  V30 3096 N 292.396 4.98221 0.87231 0
M  V30 3097 C 290.694 4.05338 1.86057 0
M  V30 3098 C 291.395 5.77836 0.669377 0
M  V30 3099 N 290.371 5.29858 1.21454 0
M  V30 3100 H 294.173 2.93132 0.212387 0
M  V30 3101 H 291.687 1.62391 0.0167725 0
M  V30 3102 H 293.684 3.20914 2.6612 0
M  V30 3103 H 292.344 2.04035 2.52586 0
M  V30 3104 H 293.355 5.15191 0.529033 0
M  V30 3105 H 290.032 3.39957 2.42354 0
M  V30 3106 H 291.422 6.71799 0.116422 0
M  V30 3107 N 294.142 -0.090211 1.57342 0
M  V30 3108 C 295.092 -1.11557 1.98844 0
M  V30 3109 C 296.076 -1.35503 0.867624 0
M  V30 3110 O 297.268 -1.36113 1.13148 0
M  V30 3111 C 294.397 -2.43446 2.42051 0
M  V30 3112 C 293.483 -2.22853 3.60828 0
M  V30 3113 N 293.874 -1.72141 4.75606 0
M  V30 3114 C 292.172 -2.53401 3.67021 0
M  V30 3115 C 292.873 -1.65932 5.57531 0
M  V30 3116 N 291.849 -2.11323 5.00843 0
M  V30 3117 H 295.651 -0.716499 2.85032 0
M  V30 3118 H 293.165 -0.297567 1.59651 0
M  V30 3119 H 295.162 -3.17644 2.70014 0
M  V30 3120 H 293.822 -2.84087 1.57241 0
M  V30 3121 H 294.833 -1.41268 4.98261 0
M  V30 3122 H 291.51 -2.97532 2.92884 0
M  V30 3123 H 292.9 -1.27733 6.59647 0
M  V30 3124 N 295.62 -1.53406 -0.361157 0
M  V30 3125 C 296.845 -1.74024 -1.12829 0
M  V30 3126 C 297.27 -0.470069 -1.82132 0
M  V30 3127 O 296.628 0.57619 -1.719 0
M  V30 3128 C 296.676 -2.90903 -2.13091 0
M  V30 3129 O 295.78 -2.59821 -3.20261 0
M  V30 3130 H 295.121 -0.577804 -0.327168 0
M  V30 3131 H 297.651 -2.00307 -0.41693 0
M  V30 3132 H 297.661 -3.17194 -2.56616 0
M  V30 3133 H 296.336 -3.83034 -1.62042 0
M  V30 3134 H 294.913 -2.44362 -2.81677 0
M  V30 3135 N 297.098 0.621204 -1.44841 0
M  V30 3136 C 298.028 1.74366 -1.55303 0
M  V30 3137 C 299.009 1.65199 -0.405385 0
M  V30 3138 O 300.194 1.83807 -0.626787 0
M  V30 3139 C 297.324 3.12931 -1.50637 0
M  V30 3140 C 296.278 3.36896 -2.63979 0
M  V30 3141 C 295.604 4.75594 -2.44366 0
M  V30 3142 C 296.904 3.28483 -4.06074 0
M  V30 3143 H 298.598 1.65867 -2.49256 0
M  V30 3144 H 296.144 0.796558 -1.19962 0
M  V30 3145 H 298.097 3.9124 -1.56555 0
M  V30 3146 H 296.821 3.22237 -0.532057 0
M  V30 3147 H 295.48 2.60972 -2.57467 0
M  V30 3148 H 295.128 4.81616 -1.45105 0
M  V30 3149 H 294.828 4.92586 -3.20364 0
M  V30 3150 H 296.352 5.5612 -2.52117 0
M  V30 3151 H 297.766 3.96684 -4.13902 0
M  V30 3152 H 296.163 3.57008 -4.82354 0
M  V30 3153 H 297.233 2.26133 -4.28943 0
M  V30 3154 N 298.576 1.31904 0.862503 0
M  V30 3155 C 299.539 1.20131 1.95195 0
M  V30 3156 C 300.539 0.126409 1.60302 0
M  V30 3157 O 301.729 0.376234 1.70089 0
M  V30 3158 C 298.861 0.845691 3.30244 0
M  V30 3159 H 300.054 2.16943 2.07064 0
M  V30 3160 H 297.607 1.15622 1.05172 0
M  V30 3161 H 298.342 -0.120957 3.24074 0
M  V30 3162 H 298.127 1.62276 3.56944 0
M  V30 3163 H 299.617 0.787418 4.10109 0
M  V30 3164 N 300.054 -1.07777 1.14986 0
M  V30 3165 C 301.301 -1.8029 0.922056 0
M  V30 3166 C 301.629 -1.86531 -0.55105 0
M  V30 3167 O 300.884 -1.34189 -1.42449 0
M  V30 3168 C 301.183 -3.25495 1.47608 0
M  V30 3169 C 300.849 -3.39361 2.96893 0
M  V30 3170 C 299.511 -3.42852 3.37647 0
M  V30 3171 C 301.863 -3.42512 3.92854 0
M  V30 3172 C 299.191 -3.47094 4.73015 0
M  V30 3173 C 301.543 -3.4829 5.28088 0
M  V30 3174 C 300.207 -3.50058 5.68345 0
M  V30 3175 H 299.477 -0.659727 0.337404 0
M  V30 3176 H 302.124 -1.26854 1.43459 0
M  V30 3177 H 300.429 -3.81683 0.88463 0
M  V30 3178 H 302.126 -3.80168 1.27568 0
M  V30 3179 H 298.716 -3.37339 2.64387 0
M  V30 3180 H 302.9 -3.3904 3.62444 0
M  V30 3181 H 298.156 -3.46758 5.03556 0
M  V30 3182 H 302.33 -3.49675 6.02246 0
M  V30 3183 H 299.957 -3.53097 6.73221 0
M  V30 3184 N 301.532 -0.945985 -1.26051 0
M  V30 3185 C 302.462 -0.477172 -2.28572 0
M  V30 3186 C 303.443 0.472032 -1.63419 0
M  V30 3187 O 304.628 0.372853 -1.90587 0
M  V30 3188 C 301.758 0.253975 -3.4637 0
M  V30 3189 C 300.712 -0.609135 -4.23643 0
M  V30 3190 C 300.038 0.252252 -5.34105 0
M  V30 3191 C 301.338 -1.8829 -4.8718 0
M  V30 3192 H 303.032 -1.33402 -2.68038 0
M  V30 3193 H 300.578 -0.642904 -1.28852 0
M  V30 3194 H 302.531 0.593016 -4.17207 0
M  V30 3195 H 301.255 1.145 -3.05871 0
M  V30 3196 H 299.914 -0.931138 -3.54578 0
M  V30 3197 H 299.562 1.14278 -4.89846 0
M  V30 3198 H 299.262 -0.32188 -5.86718 0
M  V30 3199 H 300.786 0.586454 -6.07777 0
M  V30 3200 H 302.2 -1.61081 -5.50205 0
M  V30 3201 H 300.597 -2.40199 -5.49931 0
M  V30 3202 H 301.667 -2.59134 -4.09851 0
M  V30 3203 N 303.011 1.40521 -0.713556 0
M  V30 3204 C 304.422 1.83853 -0.324807 0
M  V30 3205 C 304.773 1.59667 1.14021 0
M  V30 3206 O 303.898 1.07649 1.87725 0
M  V30 3207 C 304.493 3.33751 -0.582746 0
M  V30 3208 C 303.052 3.75584 -0.247727 0
M  V30 3209 C 302.199 2.63753 -0.856121 0
M  V30 3210 H 305.15 1.29817 -0.91286 0
M  V30 3211 H 305.171 3.80194 0.152682 0
M  V30 3212 H 304.683 3.51322 -1.64908 0
M  V30 3213 H 302.784 3.63608 0.813624 0
M  V30 3214 H 302.897 4.7373 -0.715307 0
M  V30 3215 H 301.261 2.53108 -0.28432 0
M  V30 3216 H 302.044 2.84137 -1.92668 0
M  V30 3217 N 304.489 0.459591 1.5075 0
M  V30 3218 C 305.422 -0.386257 2.24907 0
M  V30 3219 C 306.4 -1.006 1.27744 0
M  V30 3220 O 307.584 -1.04416 1.56938 0
M  V30 3221 C 304.711 -1.54021 3.01654 0
M  V30 3222 C 303.757 -1.03898 4.13651 0
M  V30 3223 S 304.59 0.0370501 5.35487 0
M  V30 3224 C 305.746 -1.12105 6.15779 0
M  V30 3225 H 305.979 0.243272 2.96303 0
M  V30 3226 H 303.512 0.244339 1.52454 0
M  V30 3227 H 305.47 -2.20163 3.46466 0
M  V30 3228 H 304.131 -2.14121 2.29806 0
M  V30 3229 H 303.324 -1.90254 4.66711 0
M  V30 3230 H 302.926 -0.45545 3.71216 0
M  V30 3231 H 305.218 -2.03501 6.46215 0
M  V30 3232 H 306.161 -0.62995 7.05292 0
M  V30 3233 H 306.569 -1.36967 5.47631 0
M  V30 3234 N 305.967 -1.56429 0.191757 0
M  V30 3235 C 307.378 -1.83912 -0.321428 0
M  V30 3236 C 307.729 -1.11231 -1.61623 0
M  V30 3237 O 306.854 -0.37202 -2.13178 0
M  V30 3238 C 307.449 -3.33624 -0.589961 0
M  V30 3239 C 306.008 -3.6153 -1.04753 0
M  V30 3240 C 305.155 -2.7714 -0.0943327 0
M  V30 3241 H 308.106 -1.53161 0.415612 0
M  V30 3242 H 308.127 -3.52213 -1.43966 0
M  V30 3243 H 307.639 -3.86495 0.352588 0
M  V30 3244 H 305.74 -3.14089 -2.00447 0
M  V30 3245 H 305.853 -4.69737 -0.942549 0
M  V30 3246 H 304.217 -2.47638 -0.595589 0
M  V30 3247 H 305 -3.32799 0.842601 0
M  V30 3248 N 307.445 0.0818655 -1.57387 0
M  V30 3249 C 308.673 0.796108 -1.9097 0
M  V30 3250 C 309.088 1.71626 -0.786757 0
M  V30 3251 O 308.445 1.80908 0.240513 0
M  V30 3252 C 308.496 1.59829 -3.24248 0
M  V30 3253 O 308.217 0.715131 -4.32224 0
M  V30 3254 C 309.718 2.41442 -3.7178 0
M  V30 3255 H 306.938 0.22691 -0.631469 0
M  V30 3256 H 309.482 0.0551439 -2.04426 0
M  V30 3257 H 307.637 2.29163 -3.12351 0
M  V30 3258 H 308.051 1.27205 -5.08841 0
M  V30 3259 H 309.525 2.932 -4.67694 0
M  V30 3260 H 310.002 3.2051 -3.00283 0
M  V30 3261 H 310.608 1.77283 -3.86589 0
M  V30 3262 N 308.923 1.53595 0.353017 0
M  V30 3263 C 310.148 1.7462 1.11904 0
M  V30 3264 C 310.573 0.479721 1.8188 0
M  V30 3265 O 309.931 -0.567066 1.72204 0
M  V30 3266 C 309.979 2.92029 2.11545 0
M  V30 3267 O 309.083 2.61516 3.18878 0
M  V30 3268 H 308.424 0.579531 0.324099 0
M  V30 3269 H 310.954 2.00525 0.406301 0
M  V30 3270 H 310.964 3.18551 2.5493 0
M  V30 3271 H 309.639 3.83888 1.60008 0
M  V30 3272 H 308.216 2.45852 2.80377 0
M  V30 3273 N 310.401 -0.613514 1.45168 0
M  V30 3274 C 311.626 -1.40437 1.52618 0
M  V30 3275 C 312.051 -1.87438 0.157707 0
M  V30 3276 O 311.409 -1.59791 -0.856537 0
M  V30 3277 C 311.457 -2.58894 2.51011 0
M  V30 3278 O 310.561 -3.59326 2.02382 0
M  V30 3279 H 309.902 -0.419506 0.514695 0
M  V30 3280 H 312.432 -0.747215 1.90467 0
M  V30 3281 H 312.442 -3.06214 2.69624 0
M  V30 3282 H 311.117 -2.24032 3.50403 0
M  V30 3283 H 309.694 -3.18695 1.93618 0
M  V30 3284 N 311.879 -1.3236 -0.855495 0
M  V30 3285 C 313.127 -1.22629 -1.60644 0
M  V30 3286 C 313.448 0.212136 -1.93843 0
M  V30 3287 O 312.718 1.13666 -1.59552 0
M  V30 3288 H 311.298 -0.450882 -0.595579 0
M  V30 3289 H 313.96 -1.65871 -1.02337 0
M  V30 3290 H 313.056 -1.80832 -2.54374 0
M  V30 3291 N 313.357 1.07166 -1.15556 0
M  V30 3292 C 314.606 1.79181 -0.926132 0
M  V30 3293 C 314.919 1.87768 0.547967 0
M  V30 3294 O 316.125 2.56323 0.895036 0
M  V30 3295 C 314.581 3.22 -1.60761 0
M  V30 3296 C 314.189 3.21607 -3.11886 0
M  V30 3297 C 315.933 3.9861 -1.4598 0
M  V30 3298 C 313.84 4.59092 -3.72812 0
M  V30 3299 H 312.77 0.67154 -0.342856 0
M  V30 3300 H 315.421 1.2027 -1.3859 0
M  V30 3301 H 313.803 3.81115 -1.07553 0
M  V30 3302 H 314.977 2.72127 -3.71865 0
M  V30 3303 H 313.292 2.58495 -3.2645 0
M  V30 3304 H 315.889 5.00225 -1.88888 0
M  V30 3305 H 316.232 4.143 -0.407541 0
M  V30 3306 H 316.765 3.45996 -1.96295 0
M  V30 3307 H 313.504 4.48606 -4.77946 0
M  V30 3308 H 313.024 5.08803 -3.17616 0
M  V30 3309 H 314.703 5.28059 -3.73848 0
M  V30 3310 N 314.835 0.952656 1.25548 0
M  V30 3311 C 316.081 0.607272 1.93494 0
M  V30 3312 C 316.414 -0.853245 1.74452 0
M  V30 3313 O 315.689 -1.61194 1.08843 0
M  V30 3314 C 315.972 0.96435 3.46947 0
M  V30 3315 C 315.825 2.48045 3.75225 0
M  V30 3316 C 317.144 0.487987 4.37386 0
M  V30 3317 H 314.263 0.222096 0.702739 0
M  V30 3318 H 316.905 1.18895 1.48203 0
M  V30 3319 H 315.055 0.469361 3.85654 0
M  V30 3320 H 316.727 3.04905 3.46166 0
M  V30 3321 H 314.97 2.919 3.209 0
M  V30 3322 H 315.641 2.6808 4.82532 0
M  V30 3323 H 318.117 0.912558 4.0597 0
M  V30 3324 H 316.993 0.766547 5.43521 0
M  V30 3325 H 317.254 -0.612063 4.37843 0
M  V30 3326 N 316.313 -1.40141 0.720998 0
M  V30 3327 C 317.263 -2.27949 0.0482544 0
M  V30 3328 C 318.247 -1.43538 -0.727021 0
M  V30 3329 O 319.439 -1.6658 -0.598332 0
M  V30 3330 C 316.568 -3.32126 -0.868729 0
M  V30 3331 C 315.654 -4.24008 -0.0883515 0
M  V30 3332 N 316.045 -4.97154 0.931226 0
M  V30 3333 C 314.343 -4.4485 -0.320105 0
M  V30 3334 C 315.044 -5.64587 1.4006 0
M  V30 3335 N 314.02 -5.38787 0.721752 0
M  V30 3336 H 317.822 -2.81948 0.829609 0
M  V30 3337 H 315.336 -1.52656 0.554067 0
M  V30 3338 H 317.333 -3.93884 -1.36605 0
M  V30 3339 H 315.993 -2.79687 -1.6494 0
M  V30 3340 H 317.004 -5.01 1.31222 0
M  V30 3341 H 313.681 -4.03378 -1.07668 0
M  V30 3342 H 315.071 -6.33175 2.24808 0
M  V30 3343 N 317.792 -0.46758 -1.50504 0
M  V30 3344 C 318.722 0.318381 -2.31319 0
M  V30 3345 C 319.703 0.993564 -1.38066 0
M  V30 3346 O 320.888 0.991411 -1.66987 0
M  V30 3347 C 318.018 1.40275 -3.17711 0
M  V30 3348 C 316.972 0.849373 -4.19487 0
M  V30 3349 C 316.298 2.03177 -4.94594 0
M  V30 3350 C 317.598 -0.136942 -5.2212 0
M  V30 3351 H 319.292 -0.356106 -2.97275 0
M  V30 3352 H 316.838 -0.172703 -1.42961 0
M  V30 3353 H 318.791 1.96004 -3.73042 0
M  V30 3354 H 317.515 2.10596 -2.49634 0
M  V30 3355 H 316.174 0.314076 -3.65252 0
M  V30 3356 H 315.822 2.72187 -4.22993 0
M  V30 3357 H 315.522 1.66774 -5.63436 0
M  V30 3358 H 317.046 2.59403 -5.52759 0
M  V30 3359 H 318.46 0.331056 -5.72343 0
M  V30 3360 H 316.857 -0.41507 -5.98663 0
M  V30 3361 H 317.927 -1.06398 -4.73083 0
M  V30 3362 N 319.27 1.56325 -0.20005 0
M  V30 3363 C 320.203 2.15234 0.758267 0
M  V30 3364 C 321.181 1.09046 1.20614 0
M  V30 3365 O 322.365 1.37186 1.29276 0
M  V30 3366 C 319.492 2.71524 2.02466 0
M  V30 3367 C 318.538 3.90345 1.71852 0
M  V30 3368 S 319.371 5.28513 0.862249 0
M  V30 3369 C 320.527 5.88227 2.13868 0
M  V30 3370 H 320.76 2.96183 0.2575 0
M  V30 3371 H 318.293 1.54393 0.0150099 0
M  V30 3372 H 320.251 3.04598 2.75191 0
M  V30 3373 H 318.912 1.90607 2.49655 0
M  V30 3374 H 318.105 4.28158 2.65888 0
M  V30 3375 H 317.707 3.58306 1.07205 0
M  V30 3376 H 319.999 6.02891 3.09076 0
M  V30 3377 H 320.942 6.84714 1.80479 0
M  V30 3378 H 321.35 5.16874 2.2694 0
M  V30 3379 N 320.748 -0.0735177 1.57428 0
M  V30 3380 C 321.994 -0.774145 1.87443 0
M  V30 3381 C 322.327 -1.77311 0.792103 0
M  V30 3382 O 321.602 -1.93492 -0.197793 0
M  V30 3383 C 321.885 -1.48367 3.28115 0
M  V30 3384 C 321.738 -0.501227 4.46999 0
M  V30 3385 C 323.057 -2.429 3.66998 0
M  V30 3386 H 320.176 -0.279971 0.681752 0
M  V30 3387 H 322.818 -0.0373616 1.89963 0
M  V30 3388 H 320.968 -2.11171 3.26097 0
M  V30 3389 H 322.64 0.121468 4.6114 0
M  V30 3390 H 320.883 0.183593 4.33411 0
M  V30 3391 H 321.554 -1.03526 5.42205 0
M  V30 3392 H 324.03 -1.90175 3.70098 0
M  V30 3393 H 322.906 -2.89549 4.66318 0
M  V30 3394 H 323.167 -3.27628 2.96837 0
M  V30 3395 N 322.226 -1.5378 -0.344866 0
M  V30 3396 C 323.136 -1.84667 -1.4469 0
M  V30 3397 C 324.152 -0.736704 -1.57635 0
M  V30 3398 O 325.328 -1.02888 -1.73136 0
M  V30 3399 C 322.393 -2.04869 -2.79696 0
M  V30 3400 C 321.454 -3.28731 -2.76106 0
M  V30 3401 C 320.687 -3.4796 -4.04673 0
M  V30 3402 O 320.91 -2.71052 -5.01883 0
M  V30 3403 O 319.844 -4.41383 -4.09224 0
M  V30 3404 H 323.67 -2.78334 -1.21506 0
M  V30 3405 H 321.255 -1.39418 -0.536921 0
M  V30 3406 H 323.137 -2.19609 -3.59652 0
M  V30 3407 H 321.812 -1.14391 -3.02814 0
M  V30 3408 H 320.719 -3.19396 -1.94774 0
M  V30 3409 H 322.052 -4.19198 -2.57941 0
M  V30 3410 N 323.704 0.605807 -1.45491 0
M  V30 3411 C 324.95 1.36679 -1.49823 0
M  V30 3412 C 325.283 1.93693 -0.140175 0
M  V30 3413 O 324.558 1.75158 0.845581 0
M  V30 3414 C 324.841 2.51337 -2.57879 0
M  V30 3415 C 324.694 1.99508 -4.03134 0
M  V30 3416 C 326.013 3.53463 -2.62205 0
M  V30 3417 H 323.132 0.495617 -0.545466 0
M  V30 3418 H 325.774 0.682732 -1.7731 0
M  V30 3419 H 323.924 3.09691 -2.34571 0
M  V30 3420 H 325.596 1.45789 -4.37656 0
M  V30 3421 H 323.839 1.30496 -4.13707 0
M  V30 3422 H 324.51 2.82169 -4.74431 0
M  V30 3423 H 326.986 3.04953 -2.83095 0
M  V30 3424 H 325.862 4.31178 -3.39672 0
M  V30 3425 H 326.123 4.09197 -1.67363 0
M  V30 3426 N 325.182 1.32811 0.848464 0
M  V30 3427 C 326.092 1.24278 1.98978 0
M  V30 3428 C 327.108 0.155176 1.73307 0
M  V30 3429 O 328.284 0.376999 1.9784 0
M  V30 3430 C 325.349 0.972444 3.32783 0
M  V30 3431 C 324.41 2.14911 3.71634 0
M  V30 3432 C 323.643 1.89157 4.99054 0
M  V30 3433 O 323.866 0.837165 5.64223 0
M  V30 3434 O 322.8 2.75433 5.35183 0
M  V30 3435 H 326.626 2.20238 2.09115 0
M  V30 3436 H 324.211 1.12762 0.980052 0
M  V30 3437 H 326.093 0.838432 4.12975 0
M  V30 3438 H 324.768 0.043051 3.23671 0
M  V30 3439 H 323.675 2.33862 2.91992 0
M  V30 3440 H 325.008 3.06151 3.85399 0
M  V30 3441 N 326.66 -1.06551 1.16123 0
M  V30 3442 C 327.592 -2.13908 0.823171 0
M  V30 3443 C 328.605 -1.61926 -0.16843 0
M  V30 3444 O 329.794 -1.78412 0.055962 0
M  V30 3445 C 326.894 -3.38283 0.204424 0
M  V30 3446 C 326.067 -4.19589 1.23548 0
M  V30 3447 C 325.126 -5.2233 0.637011 0
M  V30 3448 O 324.152 -5.54034 1.30516 0
M  V30 3449 N 325.354 -5.77621 -0.577474 0
M  V30 3450 H 328.119 -2.43508 1.74711 0
M  V30 3451 H 325.68 -1.2253 1.05821 0
M  V30 3452 H 327.672 -4.0416 -0.208909 0
M  V30 3453 H 326.242 -3.06329 -0.623012 0
M  V30 3454 H 325.462 -3.49406 1.82507 0
M  V30 3455 H 326.75 -4.70718 1.93137 0
M  V30 3456 H 326.148 -5.54125 -1.13853 0
M  V30 3457 H 324.705 -6.45087 -0.933053 0
M  V30 3458 N 328.138 -0.959301 -1.25041 0
M  V30 3459 C 329.101 -0.487677 -2.23952 0
M  V30 3460 C 330.101 0.41119 -1.55454 0
M  V30 3461 O 331.291 0.207825 -1.72956 0
M  V30 3462 C 328.423 0.294807 -3.39623 0
M  V30 3463 H 329.616 -1.36198 -2.67189 0
M  V30 3464 H 327.169 -0.743042 -1.37508 0
M  V30 3465 H 327.904 1.18658 -3.01813 0
M  V30 3466 H 327.689 -0.35012 -3.90534 0
M  V30 3467 H 329.179 0.614089 -4.1306 0
M  V30 3468 N 329.616 1.39756 -0.72842 0
M  V30 3469 C 330.893 1.94574 -0.200079 0
M  V30 3470 C 331.273 1.66569 1.29684 0
M  V30 3471 O 330.621 0.990326 2.05924 0
M  V30 3472 C 330.831 3.45004 -0.526608 0
M  V30 3473 C 332.179 4.21965 -0.472318 0
M  V30 3474 O 333.203 3.53173 -0.463413 0
M  V30 3475 O 332.062 5.44552 -0.461075 0
M  V30 3476 H 329.156 0.826289 -0.0342851 0
M  V30 3477 H 331.702 1.49293 -0.806829 0
M  V30 3478 H 330.474 3.58796 -1.56144 0
M  V30 3479 H 330.097 3.97449 0.109449 0
M  V30 3480 N 331.094 0.475555 1.50254 0
M  V30 3481 C 332.371 -0.139685 1.95101 0
M  V30 3482 C 332.751 -1.56555 1.41611 0
M  V30 3483 O 332.099 -2.19956 0.618993 0
M  V30 3484 C 332.309 -0.0784298 3.48912 0
M  V30 3485 C 333.657 -0.265095 4.23772 0
M  V30 3486 O 334.681 -0.154808 3.55863 0
M  V30 3487 O 333.54 -0.488327 5.44314 0
M  V30 3488 H 330.634 -0.109236 0.819754 0
M  V30 3489 H 333.18 0.536276 1.61004 0
M  V30 3490 H 331.952 0.916918 3.80405 0
M  V30 3491 H 331.575 -0.795655 3.89558 0
M  V30 3492 N 332.573 -1.56217 0.208337 0
M  V30 3493 C 333.819 -1.98242 -0.427552 0
M  V30 3494 C 334.152 -1.09554 -1.60348 0
M  V30 3495 O 333.427 -0.15035 -1.93918 0
M  V30 3496 C 333.71 -3.4931 -0.874907 0
M  V30 3497 C 333.563 -4.48773 0.303751 0
M  V30 3498 C 334.882 -4.04424 -1.73577 0
M  V30 3499 H 332.001 -0.720744 -0.153936 0
M  V30 3500 H 334.643 -1.87586 0.30192 0
M  V30 3501 H 332.793 -3.58522 -1.49648 0
M  V30 3502 H 334.465 -4.51586 0.941682 0
M  V30 3503 H 332.708 -4.23194 0.953375 0
M  V30 3504 H 333.379 -5.51976 -0.0519883 0
M  V30 3505 H 335.855 -3.98075 -1.21143 0
M  V30 3506 H 334.731 -5.1047 -2.01771 0
M  V30 3507 H 334.992 -3.50494 -2.69456 0
M  V30 3508 N 334.051 0.0651679 -1.57465 0
M  V30 3509 C 335.299 0.761555 -1.87202 0
M  V30 3510 C 335.62 1.77778 -0.801243 0
M  V30 3511 O 334.89 1.95166 0.16937 0
M  V30 3512 H 333.47 0.284251 -0.690804 0
M  V30 3513 H 336.132 0.0396827 -1.9486 0
M  V30 3514 H 335.228 1.27365 -2.84929 0
M  V30 3515 N 335.529 1.53961 0.336706 0
M  V30 3516 C 336.459 1.85417 1.41925 0
M  V30 3517 C 337.44 0.709856 1.5458 0
M  V30 3518 O 338.625 0.962396 1.68676 0
M  V30 3519 C 335.755 2.06985 2.78881 0
M  V30 3520 C 334.709 3.22813 2.81026 0
M  V30 3521 C 334.035 3.29727 4.20932 0
M  V30 3522 C 335.335 4.60767 2.45949 0
M  V30 3523 H 337.029 2.76079 1.15848 0
M  V30 3524 H 334.575 1.32839 0.555859 0
M  V30 3525 H 336.528 2.27575 3.54665 0
M  V30 3526 H 335.252 1.13061 3.06406 0
M  V30 3527 H 333.911 3.0209 2.07695 0
M  V30 3528 H 333.559 2.33385 4.45579 0
M  V30 3529 H 333.259 4.07566 4.23277 0
M  V30 3530 H 334.783 3.52536 4.98549 0
M  V30 3531 H 336.197 4.81325 3.11446 0
M  V30 3532 H 334.594 5.4106 2.59566 0
M  V30 3533 H 335.664 4.6391 1.41122 0
M  V30 3534 N 337.007 -0.598083 1.45811 0
M  V30 3535 C 338.247 -1.36802 1.5187 0
M  V30 3536 C 338.611 -1.9133 0.160224 0
M  V30 3537 O 339.812 -2.6863 0.0955302 0
M  V30 3538 C 338.083 -2.47835 2.57513 0
M  V30 3539 S 339.642 -3.35458 2.82866 0
M  V30 3540 H 336.46 -0.466278 0.536755 0
M  V30 3541 H 339.062 -0.689152 1.82951 0
M  V30 3542 H 337.766 -2.06141 3.54872 0
M  V30 3543 H 337.297 -3.20512 2.28114 0
M  V30 3544 H 339.312 -4.46251 2.16967 0
M  V30 3545 N 338.485 -1.33259 -0.841409 0
M  V30 3546 C 339.415 -1.25926 -1.96634 0
M  V30 3547 C 340.396 -0.140349 -1.6952 0
M  V30 3548 O 341.581 -0.329707 -1.91381 0
M  V30 3549 C 338.711 -0.99512 -3.32738 0
M  V30 3550 C 337.665 -2.0767 -3.74242 0
M  V30 3551 C 336.991 -1.66474 -5.08125 0
M  V30 3552 C 338.291 -3.49318 -3.88297 0
M  V30 3553 H 339.985 -2.20046 -2.03027 0
M  V30 3554 H 337.531 -1.05931 -0.975425 0
M  V30 3555 H 339.484 -0.930323 -4.11002 0
M  V30 3556 H 338.208 -0.0183004 -3.26595 0
M  V30 3557 H 336.867 -2.13187 -2.98239 0
M  V30 3558 H 336.515 -0.675012 -4.9845 0
M  V30 3559 H 336.215 -2.3885 -5.36865 0
M  V30 3560 H 337.739 -1.61455 -5.88867 0
M  V30 3561 H 339.153 -3.46316 -4.56879 0
M  V30 3562 H 337.55 -4.20158 -4.28471 0
M  V30 3563 H 338.62 -3.8801 -2.9082 0
M  V30 3564 N 339.963 1.05934 -1.16686 0
M  V30 3565 C 341.24 1.75643 -0.860747 0
M  V30 3566 C 341.62 2.01144 0.640641 0
M  V30 3567 O 340.968 1.64147 1.58959 0
M  V30 3568 C 341.178 3.05493 -1.68745 0
M  V30 3569 C 342.526 3.79581 -1.90271 0
M  V30 3570 O 343.55 3.15344 -1.65641 0
M  V30 3571 O 342.409 4.9499 -2.31618 0
M  V30 3572 H 339.503 0.763426 -0.317977 0
M  V30 3573 H 342.049 1.1217 -1.27342 0
M  V30 3574 H 340.821 2.8264 -2.70611 0
M  V30 3575 H 340.444 3.76702 -1.27206 0
M  V30 3576 N 341.441 0.965919 1.2453 0
M  V30 3577 C 342.857 0.67216 1.44756 0
M  V30 3578 C 343.057 -0.766609 1.86347 0
M  V30 3579 O 342.113 -1.5407 2.00047 0
M  V30 3580 C 343.426 1.65473 2.51076 0
M  V30 3581 C 344.974 1.66716 2.64905 0
M  V30 3582 C 345.449 2.63766 3.74421 0
M  V30 3583 N 346.94 2.62198 3.81846 0
M  V30 3584 C 347.675 3.33966 4.66106 0
M  V30 3585 N 347.171 4.15245 5.54566 0
M  V30 3586 N 348.964 3.22799 4.60171 0
M  V30 3587 H 341.115 1.89553 0.958293 0
M  V30 3588 H 343.378 0.815979 0.482579 0
M  V30 3589 H 343.084 2.68296 2.27399 0
M  V30 3590 H 342.958 1.4261 3.49202 0
M  V30 3591 H 345.345 0.646057 2.87941 0
M  V30 3592 H 345.426 1.93642 1.67142 0
M  V30 3593 H 345.07 3.6601 3.52135 0
M  V30 3594 H 345 2.34121 4.71694 0
M  V30 3595 H 347.491 2.032 3.18619 0
M  V30 3596 H 347.804 4.66898 6.15814 0
M  V30 3597 H 346.149 4.1934 5.54237 0
M  V30 3598 H 349.34 2.58764 3.90075 0
M  V30 3599 H 349.513 3.78994 5.25612 0
M  V30 3600 N 342.919 -1.39368 0.735821 0
M  V30 3601 C 343.882 -2.2896 0.104874 0
M  V30 3602 C 344.882 -1.46347 -0.666274 0
M  V30 3603 O 346.072 -1.67014 -0.49517 0
M  V30 3604 C 343.204 -3.29857 -0.860656 0
M  V30 3605 H 344.397 -2.86259 0.894205 0
M  V30 3606 H 341.95 -1.48029 0.501704 0
M  V30 3607 H 342.685 -2.77615 -1.67631 0
M  V30 3608 H 342.47 -3.9087 -0.310327 0
M  V30 3609 H 343.96 -3.96893 -1.29867 0
M  V30 3610 N 344.397 -0.483516 -1.5 0
M  V30 3611 C 345.327 0.293829 -2.31644 0
M  V30 3612 C 346.308 0.978864 -1.39112 0
M  V30 3613 O 347.493 0.973644 -1.68029 0
M  V30 3614 C 344.623 1.36897 -3.19181 0
M  V30 3615 C 343.577 0.804833 -4.20365 0
M  V30 3616 C 342.903 1.9792 -4.96721 0
M  V30 3617 C 344.203 -0.192313 -5.21946 0
M  V30 3618 H 345.897 -0.387616 -2.9688 0
M  V30 3619 H 343.443 -0.187856 -1.42769 0
M  V30 3620 H 345.396 1.92037 -3.751 0
M  V30 3621 H 344.12 2.07936 -2.51853 0
M  V30 3622 H 342.779 0.275319 -3.65565 0
M  V30 3623 H 342.427 2.67686 -4.25856 0
M  V30 3624 H 342.127 1.60789 -5.65173 0
M  V30 3625 H 343.651 2.53526 -5.55479 0
M  V30 3626 H 345.065 0.270333 -5.72662 0
M  V30 3627 H 343.462 -0.478543 -5.98189 0
M  V30 3628 H 344.532 -1.11409 -4.71928 0
M  V30 3629 N 345.875 1.56104 -0.216619 0
M  V30 3630 C 347.291 1.58995 0.13886 0
M  V30 3631 C 347.491 1.23333 1.59346 0
M  V30 3632 O 346.547 0.966234 2.33281 0
M  V30 3633 C 347.86 3.00143 -0.182968 0
M  V30 3634 C 349.408 3.12751 -0.124807 0
M  V30 3635 C 349.883 4.56068 -0.420241 0
M  V30 3636 N 351.374 4.61723 -0.369634 0
M  V30 3637 C 352.109 5.70542 -0.571789 0
M  V30 3638 N 351.605 6.87744 -0.835453 0
M  V30 3639 N 353.398 5.59831 -0.504563 0
M  V30 3640 H 345.549 1.77562 -1.16557 0
M  V30 3641 H 347.812 0.825091 -0.466828 0
M  V30 3642 H 347.518 3.30871 -1.19237 0
M  V30 3643 H 347.392 3.73813 0.504367 0
M  V30 3644 H 349.779 2.81822 0.875223 0
M  V30 3645 H 349.86 2.41421 -0.845544 0
M  V30 3646 H 349.504 4.87713 -1.41769 0
M  V30 3647 H 349.434 5.25617 0.321631 0
M  V30 3648 H 351.925 3.77502 -0.173338 0
M  V30 3649 H 352.238 7.66587 -0.977938 0
M  V30 3650 H 350.583 6.895 -0.872592 0
M  V30 3651 H 353.774 4.67145 -0.298842 0
M  V30 3652 H 353.947 6.44573 -0.665519 0
M  V30 3653 N 347.353 -0.0568162 1.57498 0
M  V30 3654 C 348.769 -0.411933 1.54192 0
M  V30 3655 C 348.969 -1.78287 0.938942 0
M  V30 3656 O 348.025 -2.46483 0.547919 0
M  V30 3657 C 349.338 -0.339244 2.9878 0
M  V30 3658 C 350.886 -0.418348 3.10192 0
M  V30 3659 C 351.361 -0.375407 4.56459 0
M  V30 3660 N 352.852 -0.435038 4.61153 0
M  V30 3661 C 353.587 -0.424265 5.71828 0
M  V30 3662 N 353.083 -0.367418 6.91825 0
M  V30 3663 N 354.876 -0.471938 5.60115 0
M  V30 3664 H 347.027 0.840684 1.95055 0
M  V30 3665 H 349.29 0.316987 0.893433 0
M  V30 3666 H 348.996 0.601742 3.46514 0
M  V30 3667 H 348.87 -1.14371 3.59443 0
M  V30 3668 H 351.257 -1.34976 2.62422 0
M  V30 3669 H 351.338 0.414962 2.52412 0
M  V30 3670 H 350.982 0.552219 5.04889 0
M  V30 3671 H 350.912 -1.22645 5.12119 0
M  V30 3672 H 353.403 -0.482612 3.74806 0
M  V30 3673 H 353.716 -0.363535 7.71944 0
M  V30 3674 H 352.061 -0.333879 6.94198 0
M  V30 3675 H 355.252 -0.514145 4.65268 0
M  V30 3676 H 355.425 -0.460073 6.46365 0
M  V30 3677 N 348.832 -1.54138 -0.328536 0
M  V30 3678 C 349.779 -1.83176 -1.40411 0
M  V30 3679 C 350.749 -0.678494 -1.5161 0
M  V30 3680 O 351.934 -0.92443 -1.6691 0
M  V30 3681 C 349.074 -2.06035 -2.76846 0
M  V30 3682 C 348.187 -3.33727 -2.74318 0
M  V30 3683 C 347.322 -3.46574 -4.02567 0
M  V30 3684 C 346.361 -4.68159 -3.94327 0
M  V30 3685 N 345.498 -4.77959 -5.14296 0
M  V30 3686 H 350.338 -2.74938 -1.14948 0
M  V30 3687 H 347.875 -1.36166 -0.556538 0
M  V30 3688 H 349.833 -2.1728 -3.56153 0
M  V30 3689 H 348.463 -1.1757 -3.00628 0
M  V30 3690 H 347.515 -3.31246 -1.8703 0
M  V30 3691 H 348.827 -4.23139 -2.64111 0
M  V30 3692 H 347.981 -3.57333 -4.90304 0
M  V30 3693 H 346.72 -2.55245 -4.15574 0
M  V30 3694 H 345.725 -4.57461 -3.04974 0
M  V30 3695 H 346.95 -5.60868 -3.82889 0
M  V30 3696 H 344.896 -3.89544 -5.27818 0
M  V30 3697 H 344.813 -5.6133 -5.06404 0
M  V30 3698 H 346.081 -4.93044 -6.03761 0
M  V30 3699 N 350.31 0.590341 -1.46126 0
M  V30 3700 C 351.556 1.35082 -1.51264 0
M  V30 3701 C 351.889 1.93534 -0.160711 0
M  V30 3702 O 351.164 1.76045 0.826956 0
M  V30 3703 C 351.447 2.48588 -2.6053 0
M  V30 3704 C 351.3 1.95221 -4.05227 0
M  V30 3705 C 352.619 3.50662 -2.6594 0
M  V30 3706 H 349.738 0.489803 -0.550692 0
M  V30 3707 H 352.38 0.663887 -1.78024 0
M  V30 3708 H 350.53 3.07186 -2.37843 0
M  V30 3709 H 352.202 1.41139 -4.39178 0
M  V30 3710 H 350.445 1.26101 -4.15068 0
M  V30 3711 H 351.116 2.77121 -4.77397 0
M  V30 3712 H 353.592 3.01934 -2.86313 0
M  V30 3713 H 352.468 4.27551 -3.44226 0
M  V30 3714 H 352.729 4.07399 -1.71694 0
M  V30 3715 N 351.788 1.33704 0.83433 0
M  V30 3716 C 353.199 1.22813 1.4062 0
M  V30 3717 C 353.55 -0.151107 1.95617 0
M  V30 3718 O 352.675 -1.05092 1.89168 0
M  V30 3719 C 353.27 2.22355 2.55624 0
M  V30 3720 C 351.829 2.1529 3.08751 0
M  V30 3721 C 350.976 2.09589 1.8157 0
M  V30 3722 H 353.927 1.45236 0.639702 0
M  V30 3723 H 353.948 1.83391 3.33389 0
M  V30 3724 H 353.46 3.22728 2.15566 0
M  V30 3725 H 351.561 1.18235 3.53343 0
M  V30 3726 H 351.674 3.06038 3.68616 0
M  V30 3727 H 350.038 1.55134 2.02004 0
M  V30 3728 H 350.821 3.11777 1.43701 0
M  V30 3729 N 353.266 -1.05314 1.17247 0
M  V30 3730 C 354.199 -2.12512 0.831507 0
M  V30 3731 C 355.177 -1.61351 -0.201168 0
M  V30 3732 O 356.361 -1.88317 -0.0829831 0
M  V30 3733 C 353.488 -3.37848 0.24015 0
M  V30 3734 C 352.534 -4.07832 1.24801 0
M  V30 3735 S 353.367 -4.56537 2.79882 0
M  V30 3736 C 354.523 -5.85122 2.22223 0
M  V30 3737 H 354.756 -2.41106 1.7394 0
M  V30 3738 H 352.289 -1.17896 0.996988 0
M  V30 3739 H 354.247 -4.10391 -0.0945588 0
M  V30 3740 H 352.908 -3.07392 -0.645668 0
M  V30 3741 H 352.101 -4.97883 0.78287 0
M  V30 3742 H 351.703 -3.41348 1.52831 0
M  V30 3743 H 353.995 -6.58408 1.59703 0
M  V30 3744 H 354.938 -6.36381 3.10523 0
M  V30 3745 H 355.346 -5.39626 1.65722 0
M  V30 3746 N 354.744 -0.972509 -1.24016 0
M  V30 3747 C 355.969 -0.654417 -1.96805 0
M  V30 3748 C 356.394 0.770398 -1.716 0
M  V30 3749 O 355.752 1.52361 -0.982647 0
M  V30 3750 C 355.8 -0.941031 -3.48105 0
M  V30 3751 O 354.904 -0.0289472 -4.1239 0
M  V30 3752 H 354.245 -0.24692 -0.616382 0
M  V30 3753 H 356.775 -1.30396 -1.57664 0
M  V30 3754 H 356.785 -0.87452 -3.98517 0
M  V30 3755 H 355.46 -1.97939 -3.65777 0
M  V30 3756 H 354.037 -0.149192 -3.72601 0
M  V30 3757 N 356.222 1.38976 -0.743202 0
M  V30 3758 C 357.185 2.28901 -0.117014 0
M  V30 3759 C 358.185 1.46698 0.658503 0
M  V30 3760 O 359.375 1.67274 0.486305 0
M  V30 3761 C 356.507 3.30309 0.84315 0
M  V30 3762 H 357.7 2.8578 -0.909373 0
M  V30 3763 H 355.253 1.47761 -0.509547 0
M  V30 3764 H 355.988 2.785 1.66157 0
M  V30 3765 H 355.773 3.91029 0.289594 0
M  V30 3766 H 357.263 3.97577 1.2776 0
M  V30 3767 N 357.7 0.491464 1.49741 0
M  V30 3768 C 358.928 -0.0535151 2.06831 0
M  V30 3769 C 359.343 -1.31683 1.35296 0
M  V30 3770 O 358.7 -1.77402 0.42836 0
M  V30 3771 C 358.751 -0.320835 3.60073 0
M  V30 3772 O 358.472 0.892394 4.28915 0
M  V30 3773 C 359.973 -0.910519 4.33848 0
M  V30 3774 H 357.193 0.0161909 0.670805 0
M  V30 3775 H 359.737 0.68609 1.92647 0
M  V30 3776 H 357.892 -1.0104 3.73991 0
M  V30 3777 H 358.306 0.649401 5.20464 0
M  V30 3778 H 359.78 -1.04721 5.41976 0
M  V30 3779 H 360.257 -1.90589 3.95692 0
M  V30 3780 H 360.863 -0.258712 4.24512 0
M  V30 3781 N 359.178 -1.55987 0.224894 0
M  V30 3782 C 360.108 -2.23426 -0.678457 0
M  V30 3783 C 361.089 -1.20709 -1.19847 0
M  V30 3784 O 362.274 -1.49304 -1.24186 0
M  V30 3785 C 359.404 -2.91676 -1.88527 0
M  V30 3786 C 358.358 -4.00893 -1.49896 0
M  V30 3787 C 357.684 -4.56455 -2.78483 0
M  V30 3788 C 358.984 -5.17769 -0.686461 0
M  V30 3789 H 360.678 -2.99175 -0.116173 0
M  V30 3790 H 358.224 -1.43897 -0.054436 0
M  V30 3791 H 360.177 -3.37547 -2.5227 0
M  V30 3792 H 358.901 -2.1338 -2.47258 0
M  V30 3793 H 357.56 -3.55758 -0.884985 0
M  V30 3794 H 357.208 -3.74886 -3.35365 0
M  V30 3795 H 356.908 -5.30169 -2.53368 0
M  V30 3796 H 358.432 -5.05047 -3.43162 0
M  V30 3797 H 359.846 -5.60001 -1.22767 0
M  V30 3798 H 358.243 -5.97735 -0.532259 0
M  V30 3799 H 359.313 -4.83932 0.306196 0
M  V30 3800 N 360.656 0.0484629 -1.57525 0
M  V30 3801 C 361.904 0.741657 -1.88 0
M  V30 3802 C 362.225 1.76918 -0.820054 0
M  V30 3803 O 361.495 1.95335 0.148661 0
M  V30 3804 H 360.075 0.276908 -0.69378 0
M  V30 3805 H 362.737 0.019013 -1.94891 0
M  V30 3806 H 361.833 1.24336 -2.86264 0
M  V30 3807 N 362.134 1.5431 0.320358 0
M  V30 3808 C 363.55 1.45091 0.664889 0
M  V30 3809 C 363.75 0.626382 1.91517 0
M  V30 3810 O 362.806 0.126443 2.52183 0
M  V30 3811 C 364.119 2.88848 0.83591 0
M  V30 3812 C 365.667 2.9877 0.933046 0
M  V30 3813 C 366.142 4.43683 1.13621 0
M  V30 3814 N 367.633 4.47309 1.20287 0
M  V30 3815 C 368.368 5.56595 1.37801 0
M  V30 3816 N 367.864 6.75844 1.52338 0
M  V30 3817 N 369.657 5.44248 1.40535 0
M  V30 3818 H 361.808 2.06398 -0.501374 0
M  V30 3819 H 364.071 0.933963 -0.162534 0
M  V30 3820 H 363.777 3.51698 -0.0116092 0
M  V30 3821 H 363.651 3.35148 1.73078 0
M  V30 3822 H 366.038 2.36045 1.77107 0
M  V30 3823 H 366.119 2.55796 0.0145782 0
M  V30 3824 H 365.763 5.06995 0.303032 0
M  V30 3825 H 365.693 4.84269 2.0686 0
M  V30 3826 H 368.184 3.61388 1.10485 0
M  V30 3827 H 368.497 7.54892 1.65403 0
M  V30 3828 H 366.842 6.78746 1.4943 0
M  V30 3829 H 370.033 4.50038 1.28777 0
M  V30 3830 H 370.206 6.29473 1.53842 0
M  V30 3831 N 363.613 -0.582584 1.46437 0
M  V30 3832 C 364.563 -1.68654 1.53426 0
M  V30 3833 C 365.547 -1.55971 0.395194 0
M  V30 3834 O 366.739 -1.64884 0.643612 0
M  V30 3835 C 363.868 -3.07439 1.52762 0
M  V30 3836 C 362.954 -3.25418 2.71963 0
M  V30 3837 N 363.345 -3.13556 3.96883 0
M  V30 3838 C 361.643 -3.56357 2.68189 0
M  V30 3839 C 362.344 -3.33543 4.76575 0
M  V30 3840 N 361.32 -3.58704 4.08451 0
M  V30 3841 H 365.122 -1.58014 2.47808 0
M  V30 3842 H 362.636 -0.786617 1.42078 0
M  V30 3843 H 364.633 -3.86671 1.55857 0
M  V30 3844 H 363.293 -3.1921 0.594573 0
M  V30 3845 H 364.304 -2.9142 4.28129 0
M  V30 3846 H 360.981 -3.74812 1.83908 0
M  V30 3847 H 362.371 -3.29555 5.85528 0
M  V30 3848 N 365.091 -1.34144 -0.827227 0
M  V30 3849 C 366.337 -1.26446 -1.58554 0
M  V30 3850 C 366.67 0.1664 -1.93486 0
M  V30 3851 O 365.945 1.1107 -1.59667 0
M  V30 3852 C 366.228 -2.15111 -2.8879 0
M  V30 3853 C 366.081 -3.66712 -2.60465 0
M  V30 3854 C 367.4 -2.03311 -3.90324 0
M  V30 3855 H 364.519 -0.46067 -0.575284 0
M  V30 3856 H 367.161 -1.64356 -0.953269 0
M  V30 3857 H 365.311 -1.8291 -3.42748 0
M  V30 3858 H 366.983 -4.09259 -2.1285 0
M  V30 3859 H 365.226 -3.88014 -1.93978 0
M  V30 3860 H 365.897 -4.24112 -3.53317 0
M  V30 3861 H 368.373 -2.31574 -3.45706 0
M  V30 3862 H 367.249 -2.67582 -4.79261 0
M  V30 3863 H 367.51 -1.00879 -4.30437 0
M  V30 3864 N 366.569 1.04691 -1.17803 0
M  V30 3865 C 367.517 2.14665 -0.895635 0
M  V30 3866 C 368.511 1.68806 0.141679 0
M  V30 3867 O 369.717 1.79999 -0.00587914 0
M  V30 3868 H 366.092 0.701038 -0.272121 0
M  V30 3869 H 368.063 2.35685 -1.83017 0
M  V30 3870 C 366.812 3.45019 -0.430962 0
M  V30 3871 H 366.135 3.8071 -1.22064 0
M  V30 3872 H 367.575 4.23125 -0.272301 0
M  V30 3873 C 366.034 3.25943 0.852207 0
M  V30 3874 O 366.564 3.5296 1.91786 0
M  V30 3875 N 364.77 2.79304 0.802346 0
M  V30 3876 H 364.317 2.57518 -0.0650788 0
M  V30 3877 H 364.275 2.66921 1.66134 0
M  V30 3878 N 368.047 0.979072 1.23499 0
M  V30 3879 C 369.324 0.563674 1.87302 0
M  V30 3880 C 369.704 -0.959199 1.88049 0
M  V30 3881 O 369.052 -1.83535 1.36114 0
M  V30 3882 C 369.262 1.16822 3.28867 0
M  V30 3883 C 370.61 1.26014 4.0547 0
M  V30 3884 O 371.634 1.12158 3.38082 0
M  V30 3885 O 370.493 1.48044 5.26066 0
M  V30 3886 H 367.587 0.189602 0.804972 0
M  V30 3887 H 370.133 1.07407 1.31384 0
M  V30 3888 H 368.905 2.21049 3.22883 0
M  V30 3889 H 368.528 0.642564 3.92373 0
M  V30 3890 N 369.525 -1.3858 0.750561 0
M  V30 3891 C 370.455 -2.33102 0.136237 0
M  V30 3892 C 371.436 -1.54713 -0.706965 0
M  V30 3893 O 372.621 -1.83043 -0.648769 0
M  V30 3894 C 369.751 -3.38882 -0.760017 0
M  V30 3895 C 368.705 -4.27995 -0.0197785 0
M  V30 3896 C 368.031 -5.24605 -1.03408 0
M  V30 3897 C 369.331 -5.09554 1.14684 0
M  V30 3898 H 371.025 -2.84726 0.925822 0
M  V30 3899 H 368.571 -1.36898 0.446654 0
M  V30 3900 H 370.524 -4.0397 -1.19943 0
M  V30 3901 H 369.248 -2.85734 -1.58189 0
M  V30 3902 H 367.907 -3.64409 0.400184 0
M  V30 3903 H 367.555 -4.67746 -1.84994 0
M  V30 3904 H 367.255 -5.85081 -0.543464 0
M  V30 3905 H 368.779 -5.9257 -1.47288 0
M  V30 3906 H 370.193 -5.67899 0.785118 0
M  V30 3907 H 368.59 -5.7925 1.56812 0
M  V30 3908 H 369.66 -4.4347 1.96118 0
M  V30 3909 N 371.003 -0.499398 -1.49478 0
M  V30 3910 C 371.936 0.326491 -2.25852 0
M  V30 3911 C 372.914 0.971776 -1.30366 0
M  V30 3912 O 374.098 1.00219 -1.59651 0
M  V30 3913 C 371.225 1.45969 -3.05632 0
M  V30 3914 C 370.271 0.928938 -4.16261 0
M  V30 3915 S 371.104 -0.179012 -5.35201 0
M  V30 3916 C 372.26 0.957389 -6.18534 0
M  V30 3917 H 372.493 -0.321746 -2.95554 0
M  V30 3918 H 370.026 -0.284674 -1.51753 0
M  V30 3919 H 371.984 2.109 -3.52181 0
M  V30 3920 H 370.645 2.07953 -2.35402 0
M  V30 3921 H 369.838 1.77813 -4.71592 0
M  V30 3922 H 369.44 0.356869 -3.72293 0
M  V30 3923 H 371.732 1.86296 -6.51383 0
M  V30 3924 H 372.675 0.442733 -7.06715 0
M  V30 3925 H 373.083 1.224 -5.5107 0
M  V30 3926 N 372.481 1.55866 -0.233164 0
M  V30 3927 C 373.411 2.23783 0.666599 0
M  V30 3928 C 374.392 1.21343 1.19205 0
M  V30 3929 O 375.577 1.4996 1.23392 0
M  V30 3930 C 372.707 2.92671 1.86978 0
M  V30 3931 C 371.661 4.01682 1.47768 0
M  V30 3932 C 370.987 4.57926 2.76058 0
M  V30 3933 C 372.287 5.18126 0.658993 0
M  V30 3934 H 373.981 2.99232 0.100306 0
M  V30 3935 H 371.527 1.43924 0.046804 0
M  V30 3936 H 373.48 3.3888 2.50476 0
M  V30 3937 H 372.204 2.14688 2.46123 0
M  V30 3938 H 370.863 3.56222 0.866106 0
M  V30 3939 H 370.511 3.76659 3.33372 0
M  V30 3940 H 370.211 5.31505 2.50552 0
M  V30 3941 H 371.735 5.06859 3.40479 0
M  V30 3942 H 373.149 5.60644 1.19795 0
M  V30 3943 H 371.546 5.98009 0.500552 0
M  V30 3944 H 372.616 4.83763 -0.331856 0
M  V30 3945 N 373.959 -0.0401083 1.57549 0
M  V30 3946 C 375.184 -0.748931 1.93406 0
M  V30 3947 C 375.609 -1.68686 0.832274 0
M  V30 3948 O 374.967 -1.80047 -0.212818 0
M  V30 3949 C 375.015 -1.4916 3.28304 0
M  V30 3950 O 374.119 -2.6042 3.19774 0
M  V30 3951 H 373.46 -0.202212 0.63246 0
M  V30 3952 H 375.99 0.00112086 2.046 0
M  V30 3953 H 376 -1.86395 3.62934 0
M  V30 3954 H 374.675 -0.80364 4.08062 0
M  V30 3955 H 373.252 -2.25808 2.96758 0
M  V30 3956 N 375.437 -1.54477 -0.31217 0
M  V30 3957 C 376.684 -1.73227 -1.04875 0
M  V30 3958 C 377.012 -0.512042 -1.87639 0
M  V30 3959 O 376.267 0.506131 -1.89042 0
M  V30 3960 C 376.566 -2.967 -1.99258 0
M  V30 3961 C 376.232 -4.30974 -1.32559 0
M  V30 3962 C 374.894 -4.67477 -1.141 0
M  V30 3963 C 377.246 -5.14258 -0.847835 0
M  V30 3964 C 374.574 -5.84852 -0.465326 0
M  V30 3965 C 376.926 -6.32327 -0.185931 0
M  V30 3966 C 375.59 -6.67499 0.0107077 0
M  V30 3967 H 374.86 -0.633881 -0.383765 0
M  V30 3968 H 377.507 -1.88727 -0.324731 0
M  V30 3969 H 375.812 -2.75935 -2.7815 0
M  V30 3970 H 377.509 -3.08401 -2.563 0
M  V30 3971 H 374.099 -4.02262 -1.4793 0
M  V30 3972 H 378.283 -4.86565 -0.978192 0
M  V30 3973 H 373.539 -6.10654 -0.301883 0
M  V30 3974 H 377.713 -6.96135 0.192211 0
M  V30 3975 H 375.34 -7.58306 0.536287 0
M  V30 3976 N 376.915 0.57481 -1.46744 0
M  V30 3977 C 378.145 1.35659 -1.55821 0
M  V30 3978 C 378.553 1.88129 -0.201036 0
M  V30 3979 O 377.896 1.64723 0.813134 0
M  V30 3980 C 377.958 2.57473 -2.50894 0
M  V30 3981 C 377.622 2.26415 -3.9697 0
M  V30 3982 C 378.619 1.84771 -4.85958 0
M  V30 3983 C 376.304 2.38316 -4.42166 0
M  V30 3984 C 378.298 1.55434 -6.18158 0
M  V30 3985 C 375.985 2.08591 -5.74398 0
M  V30 3986 C 376.983 1.67216 -6.62214 0
M  V30 3987 O 376.671 1.37859 -7.91991 0
M  V30 3988 H 376.403 0.420496 -0.529301 0
M  V30 3989 H 378.957 0.704967 -1.92923 0
M  V30 3990 H 377.187 3.25468 -2.08824 0
M  V30 3991 H 378.876 3.19546 -2.50291 0
M  V30 3992 H 379.642 1.75085 -4.52295 0
M  V30 3993 H 375.521 2.69483 -3.74032 0
M  V30 3994 H 379.065 1.23065 -6.86659 0
M  V30 3995 H 374.962 2.17905 -6.07608 0
M  V30 3996 H 375.73 1.51638 -8.04331 0
M  V30 3997 N 378.394 1.34581 0.820102 0
M  V30 3998 C 379.327 1.20735 1.93644 0
M  V30 3999 C 380.305 0.0983343 1.62302 0
M  V30 4000 O 381.489 0.263997 1.86642 0
M  V30 4001 C 378.616 0.856037 3.27704 0
M  V30 4002 C 377.662 1.97521 3.78005 0
M  V30 4003 S 378.495 3.58906 3.97425 0
M  V30 4004 C 379.651 3.25822 5.34407 0
M  V30 4005 H 379.884 2.15231 2.05093 0
M  V30 4006 H 377.417 1.1964 0.97599 0
M  V30 4007 H 379.375 0.660133 4.05157 0
M  V30 4008 H 378.036 -0.0706253 3.14021 0
M  V30 4009 H 377.229 1.68321 4.75062 0
M  V30 4010 H 376.831 2.12875 3.07507 0
M  V30 4011 H 379.123 2.77812 6.17922 0
M  V30 4012 H 380.066 4.22029 5.68592 0
M  V30 4013 H 380.474 2.61932 5.00052 0
M  V30 4014 N 379.872 -1.04064 1.18357 0
M  V30 4015 C 380.819 -2.12077 0.910603 0
M  V30 4016 C 381.789 -1.65421 -0.15 0
M  V30 4017 O 382.974 -1.90797 -0.0103614 0
M  V30 4018 C 380.114 -3.42252 0.442472 0
M  V30 4019 C 379.227 -4.0252 1.5685 0
M  V30 4020 C 378.362 -5.20657 1.05309 0
M  V30 4021 C 377.401 -5.72955 2.1538 0
M  V30 4022 N 376.538 -6.8238 1.65233 0
M  V30 4023 H 381.378 -2.34764 1.83548 0
M  V30 4024 H 378.915 -1.15157 0.915279 0
M  V30 4025 H 380.873 -4.16921 0.152534 0
M  V30 4026 H 379.503 -3.19712 -0.445428 0
M  V30 4027 H 378.555 -3.25178 1.97391 0
M  V30 4028 H 379.867 -4.37362 2.39824 0
M  V30 4029 H 379.021 -6.0244 0.717677 0
M  V30 4030 H 377.76 -4.87318 0.19293 0
M  V30 4031 H 376.765 -4.89793 2.49766 0
M  V30 4032 H 377.99 -6.08337 3.01832 0
M  V30 4033 H 375.936 -6.50917 0.815064 0
M  V30 4034 H 375.853 -7.16286 2.41805 0
M  V30 4035 H 377.121 -7.67788 1.34619 0
M  V30 4036 N 381.35 -0.985608 -1.22978 0
M  V30 4037 C 382.578 -0.675582 -1.95559 0
M  V30 4038 C 382.993 0.758413 -1.72897 0
M  V30 4039 O 382.35 1.51094 -1.02357 0
M  V30 4040 C 382.401 -0.96293 -3.48439 0
M  V30 4041 O 382.122 -2.34057 -3.70336 0
M  V30 4042 C 383.623 -0.669585 -4.38214 0
M  V30 4043 H 380.843 -0.250523 -0.622478 0
M  V30 4044 H 383.387 -1.3184 -1.56328 0
M  V30 4045 H 381.542 -0.366033 -3.85667 0
M  V30 4046 H 381.956 -2.43424 -4.64591 0
M  V30 4047 H 383.43 -0.920967 -5.44263 0
M  V30 4048 H 383.907 0.396383 -4.37408 0
M  V30 4049 H 384.513 -1.2472 -4.06602 0
M  V30 4050 N 382.828 1.3818 -0.7579 0
M  V30 4051 C 384.239 1.82726 -0.383134 0
M  V30 4052 C 384.59 1.63214 1.08884 0
M  V30 4053 O 383.715 1.13566 1.84205 0
M  V30 4054 C 384.31 3.31728 -0.688631 0
M  V30 4055 C 382.869 3.74606 -0.367091 0
M  V30 4056 C 382.016 2.60896 -0.939599 0
M  V30 4057 H 384.967 1.26847 -0.953699 0
M  V30 4058 H 384.988 3.80487 0.0316492 0
M  V30 4059 H 384.5 3.45898 -1.76001 0
M  V30 4060 H 382.601 3.66013 0.697532 0
M  V30 4061 H 382.714 4.71215 -0.865658 0
M  V30 4062 H 381.078 2.52075 -0.3647 0
M  V30 4063 H 381.861 2.77864 -2.0161 0
M  V30 4064 N 384.306 0.507319 1.49211 0
M  V30 4065 C 385.554 -0.0348839 2.0207 0
M  V30 4066 C 385.875 -1.36898 1.38866 0
M  V30 4067 O 385.145 -1.88133 0.546151 0
M  V30 4068 H 383.725 -0.0158812 0.746831 0
M  V30 4069 H 386.387 0.665998 1.83168 0
M  V30 4070 H 385.483 -0.159917 3.1169 0
M  V30 4071 N 385.784 -1.5574 0.241426 0
M  V30 4072 C 387.032 -1.98417 -0.384075 0
M  V30 4073 C 387.353 -1.13078 -1.58866 0
M  V30 4074 O 386.623 -0.212312 -1.94746 0
M  V30 4075 H 385.203 -0.732813 -0.144894 0
M  V30 4076 H 387.865 -1.9193 0.338943 0
M  V30 4077 H 386.961 -3.04219 -0.696939 0
M  V30 4078 N 387.262 0.0317525 -1.57568 0
M  V30 4079 C 388.509 0.723104 -1.89149 0
M  V30 4080 C 388.837 1.75504 -0.838377 0
M  V30 4081 O 388.092 1.95037 0.160982 0
M  V30 4082 C 388.391 1.43167 -3.27472 0
M  V30 4083 C 388.057 0.535972 -4.47703 0
M  V30 4084 C 386.719 0.289262 -4.8033 0
M  V30 4085 C 389.071 -0.0826125 -5.21135 0
M  V30 4086 C 386.399 -0.584853 -5.83778 0
M  V30 4087 C 388.751 -0.944414 -6.25511 0
M  V30 4088 C 387.415 -1.20061 -6.56614 0
M  V30 4089 H 386.685 0.264602 -0.692146 0
M  V30 4090 H 389.332 -0.0169496 -1.91492 0
M  V30 4091 H 387.637 2.24497 -3.21105 0
M  V30 4092 H 389.334 1.97209 -3.49155 0
M  V30 4093 H 385.924 0.738414 -4.22191 0
M  V30 4094 H 390.108 0.0950302 -4.96209 0
M  V30 4095 H 385.364 -0.79168 -6.06253 0
M  V30 4096 H 389.538 -1.43026 -6.81554 0
M  V30 4097 H 387.165 -1.87967 -7.36595 0
M  V30 4098 N 388.74 1.54641 0.303973 0
M  V30 4099 C 390.017 1.64455 1.05896 0
M  V30 4100 C 390.397 0.490923 2.05312 0
M  V30 4101 O 389.745 -0.512685 2.22674 0
M  V30 4102 C 389.955 3.02331 1.74347 0
M  V30 4103 C 391.303 3.59045 2.26653 0
M  V30 4104 O 392.327 3.04764 1.84384 0
M  V30 4105 O 391.186 4.54081 3.04093 0
M  V30 4106 H 388.28 0.666729 0.489287 0
M  V30 4107 H 390.826 1.66986 0.302298 0
M  V30 4108 H 389.598 3.77734 1.02142 0
M  V30 4109 H 389.221 3.03565 2.56777 0
M  V30 4110 N 390.218 -0.567019 1.47046 0
M  V30 4111 C 391.467 -1.32091 1.5243 0
M  V30 4112 C 391.78 -1.94704 0.187021 0
M  V30 4113 O 392.986 -2.7124 0.118771 0
M  V30 4114 C 391.442 -2.39479 2.68659 0
M  V30 4115 C 391.05 -1.831 4.08874 0
M  V30 4116 C 392.794 -3.16111 2.83327 0
M  V30 4117 C 390.701 -2.8821 5.16419 0
M  V30 4118 H 389.631 -0.496629 0.56734 0
M  V30 4119 H 392.282 -0.603354 1.73297 0
M  V30 4120 H 390.664 -3.14105 2.41152 0
M  V30 4121 H 391.838 -1.14913 4.46242 0
M  V30 4122 H 390.153 -1.19085 3.99008 0
M  V30 4123 H 392.75 -3.94585 3.60842 0
M  V30 4124 H 393.093 -3.69686 1.91411 0
M  V30 4125 H 393.626 -2.48595 3.10556 0
M  V30 4126 H 390.365 -2.39504 6.10179 0
M  V30 4127 H 389.885 -3.54839 4.8358 0
M  V30 4128 H 391.564 -3.51881 5.42945 0
M  V30 4129 N 391.696 -1.35014 -0.812953 0
M  V30 4130 C 392.606 -1.2951 -1.95613 0
M  V30 4131 C 393.622 -0.20107 -1.72834 0
M  V30 4132 O 394.798 -0.42932 -1.96771 0
M  V30 4133 C 391.863 -1.06033 -3.30088 0
M  V30 4134 C 390.924 -2.24688 -3.65805 0
M  V30 4135 C 390.157 -2.02322 -4.93864 0
M  V30 4136 O 390.38 -0.986464 -5.61805 0
M  V30 4137 O 389.314 -2.89525 -5.27692 0
M  V30 4138 H 393.14 -2.25705 -2.03202 0
M  V30 4139 H 390.725 -1.15321 -0.949811 0
M  V30 4140 H 392.607 -0.94763 -4.10607 0
M  V30 4141 H 391.282 -0.128852 -3.23443 0
M  V30 4142 H 390.189 -2.41521 -2.85689 0
M  V30 4143 H 391.522 -3.16261 -3.77147 0
M  V30 4144 N 393.175 1.03435 -1.18907 0
M  V30 4145 C 394.422 1.76743 -0.988334 0
M  V30 4146 C 394.75 1.88447 0.481441 0
M  V30 4147 O 394.005 1.39383 1.37371 0
M  V30 4148 C 394.304 3.19792 -1.59586 0
M  V30 4149 C 393.97 3.28108 -3.09283 0
M  V30 4150 C 392.632 3.30084 -3.5014 0
M  V30 4151 C 394.984 3.27696 -4.05296 0
M  V30 4152 C 392.312 3.29299 -4.85571 0
M  V30 4153 C 394.664 3.28451 -5.4065 0
M  V30 4154 C 393.328 3.28723 -5.80946 0
M  V30 4155 H 392.598 0.64675 -0.361657 0
M  V30 4156 H 395.245 1.21442 -1.48068 0
M  V30 4157 H 393.55 3.78136 -1.02568 0
M  V30 4158 H 395.247 3.75171 -1.41589 0
M  V30 4159 H 391.837 3.27294 -2.76725 0
M  V30 4160 H 396.021 3.25354 -3.74778 0
M  V30 4161 H 391.277 3.2783 -5.16079 0
M  V30 4162 H 395.451 3.27082 -6.14809 0
M  V30 4163 H 393.078 3.27868 -6.85862 0
M  V30 4164 N 394.653 0.992116 1.22453 0
M  V30 4165 C 395.901 0.666215 1.90804 0
M  V30 4166 C 396.222 -0.804152 1.77647 0
M  V30 4167 O 395.492 -1.57629 1.16318 0
M  V30 4168 H 394.072 0.243423 0.706225 0
M  V30 4169 H 396.734 1.25845 1.48825 0
M  V30 4170 H 395.83 0.928069 2.97982 0
M  V30 4171 N 396.131 -1.37776 0.765217 0
M  V30 4172 C 397.371 -2.01691 0.331669 0
M  V30 4173 C 397.735 -1.59432 -1.06983 0
M  V30 4174 O 398.936 -2.15761 -1.60314 0
M  V30 4175 C 397.207 -3.54385 0.463261 0
M  V30 4176 S 398.766 -4.38652 0.114011 0
M  V30 4177 H 395.584 -0.699387 0.127979 0
M  V30 4178 H 398.186 -1.68084 0.998396 0
M  V30 4179 H 396.89 -3.82629 1.48401 0
M  V30 4180 H 396.421 -3.92783 -0.220246 0
M  V30 4181 H 398.436 -4.84021 -1.09261 0
M  V30 4182 N 397.609 -0.515225 -1.4894 0
M  V30 4183 C 398.519 0.259774 -2.33157 0
M  V30 4184 C 399.535 0.953501 -1.45548 0
M  V30 4185 O 400.711 0.931735 -1.78552 0
M  V30 4186 C 397.776 1.30193 -3.21326 0
M  V30 4187 C 396.837 0.620129 -4.24797 0
M  V30 4188 C 396.07 1.61263 -5.08753 0
M  V30 4189 O 396.293 2.84389 -4.94448 0
M  V30 4190 O 395.227 1.16013 -5.90614 0
M  V30 4191 H 399.053 -0.429932 -3.00641 0
M  V30 4192 H 396.638 -0.276346 -1.46822 0
M  V30 4193 H 398.52 1.90455 -3.75905 0
M  V30 4194 H 397.195 1.97431 -2.56521 0
M  V30 4195 H 396.102 -0.0226019 -3.74093 0
M  V30 4196 H 397.435 -0.0100493 -4.92199 0
M  V30 4197 N 399.087 1.5561 -0.249682 0
M  V30 4198 C 400.335 1.98618 0.373548 0
M  V30 4199 C 400.656 1.13919 1.58264 0
M  V30 4200 O 399.926 0.222637 1.94631 0
M  V30 4201 H 398.506 0.733571 0.141006 0
M  V30 4202 H 401.168 1.91748 -0.349117 0
M  V30 4203 H 400.264 3.04584 0.680796 0
M  V30 4204 N 400.565 -0.0233959 1.57583 0
M  V30 4205 C 401.981 -0.379134 1.55031 0
M  V30 4206 C 402.181 -1.76255 0.976548 0
M  V30 4207 O 401.237 -2.45266 0.600078 0
M  V30 4208 C 402.55 -0.275792 2.99433 0
M  V30 4209 C 404.098 -0.352458 3.11009 0
M  V30 4210 C 404.573 -0.278501 4.57152 0
M  V30 4211 N 406.064 -0.337123 4.61972 0
M  V30 4212 C 406.799 -0.302876 5.726 0
M  V30 4213 N 406.295 -0.220589 6.92449 0
M  V30 4214 N 408.088 -0.353023 5.6099 0
M  V30 4215 H 400.239 0.881869 1.93227 0
M  V30 4216 H 402.502 0.335867 0.886509 0
M  V30 4217 H 402.208 0.675108 3.4516 0
M  V30 4218 H 402.082 -1.06721 3.61788 0
M  V30 4219 H 404.469 -1.29379 2.65226 0
M  V30 4220 H 404.55 0.468409 2.51475 0
M  V30 4221 H 404.194 0.659189 5.03604 0
M  V30 4222 H 404.124 -1.11755 5.14605 0
M  V30 4223 H 406.615 -0.403002 3.75745 0
M  V30 4224 H 406.928 -0.199713 7.72542 0
M  V30 4225 H 405.273 -0.186555 6.9475 0
M  V30 4226 H 408.464 -0.415339 4.66254 0
M  V30 4227 H 408.637 -0.322866 6.47195 0
M  V30 4228 N 402.043 -1.548 -0.295768 0
M  V30 4229 C 402.975 -1.82492 -1.3867 0
M  V30 4230 C 403.988 -0.708134 -1.46592 0
M  V30 4231 O 405.177 -0.985686 -1.48817 0
M  V30 4232 C 402.277 -1.95256 -2.76999 0
M  V30 4233 C 401.45 -3.25709 -2.91946 0
M  V30 4234 C 400.509 -3.28824 -4.10806 0
M  V30 4235 O 399.535 -4.02328 -4.02643 0
M  V30 4236 N 400.737 -2.5459 -5.21694 0
M  V30 4237 H 403.502 -2.76646 -1.15269 0
M  V30 4238 H 401.063 -1.54438 -0.485849 0
M  V30 4239 H 403.055 -1.94736 -3.54768 0
M  V30 4240 H 401.625 -1.08072 -2.93324 0
M  V30 4241 H 400.845 -3.38959 -2.01247 0
M  V30 4242 H 402.133 -4.11786 -2.98847 0
M  V30 4243 H 401.531 -1.94512 -5.31208 0
M  V30 4244 H 400.088 -2.59818 -5.97778 0
M  V30 4245 N 403.521 0.559213 -1.47345 0
M  V30 4246 C 404.767 1.31843 -1.54095 0
M  V30 4247 C 405.1 1.93149 -0.201726 0
M  V30 4248 O 404.375 1.77759 0.789428 0
M  V30 4249 C 404.658 2.43006 -2.65744 0
M  V30 4250 C 404.511 1.86581 -4.09277 0
M  V30 4251 C 405.83 3.44943 -2.73318 0
M  V30 4252 H 402.949 0.478012 -0.560957 0
M  V30 4253 H 405.591 0.625977 -1.79392 0
M  V30 4254 H 403.741 3.02072 -2.44305 0
M  V30 4255 H 405.413 1.31792 -4.42073 0
M  V30 4256 H 403.656 1.17268 -4.17649 0
M  V30 4257 H 404.327 2.66933 -4.83168 0
M  V30 4258 H 406.803 2.95793 -2.92653 0
M  V30 4259 H 405.679 4.20153 -3.53218 0
M  V30 4260 H 405.94 4.03665 -1.80296 0
M  V30 4261 N 404.999 1.35443 0.805782 0
M  V30 4262 C 406.276 1.19325 1.54987 0
M  V30 4263 C 406.656 -0.227294 2.09873 0
M  V30 4264 O 406.004 -1.2309 1.92512 0
M  V30 4265 C 406.214 2.26196 2.65775 0
M  V30 4266 C 407.562 2.62043 3.34094 0
M  V30 4267 O 408.586 2.25115 2.76046 0
M  V30 4268 O 407.445 3.25542 4.38958 0
M  V30 4269 H 404.539 0.463623 0.684823 0
M  V30 4270 H 407.085 1.47127 0.845674 0
M  V30 4271 H 405.857 3.21471 2.23096 0
M  V30 4272 H 405.48 1.99667 3.43829 0
M  V30 4273 N 406.477 -1.02803 1.19454 0
M  V30 4274 C 407.754 -1.73299 0.907013 0
M  V30 4275 C 408.134 -2.02772 -0.587086 0
M  V30 4276 O 407.482 -1.68304 -1.54551 0
M  V30 4277 C 407.692 -3.00912 1.76785 0
M  V30 4278 C 409.04 -3.74403 2.00268 0
M  V30 4279 O 410.064 -3.10841 1.73943 0
M  V30 4280 O 408.923 -4.88675 2.4466 0
M  V30 4281 H 406.017 -0.754727 0.338106 0
M  V30 4282 H 408.563 -1.08754 1.30271 0
M  V30 4283 H 407.335 -2.75366 2.7801 0
M  V30 4284 H 406.958 -3.73197 1.37149 0
M  V30 4285 N 407.956 -0.998596 -1.21925 0
M  V30 4286 C 409.372 -0.710303 -1.42923 0
M  V30 4287 C 409.572 0.716933 -1.88314 0
M  V30 4288 O 408.628 1.48712 -2.04062 0
M  V30 4289 C 409.941 -1.72072 -2.466 0
M  V30 4290 C 411.489 -1.73681 -2.60392 0
M  V30 4291 C 411.964 -2.73601 -3.67296 0
M  V30 4292 N 413.455 -2.7223 -3.7476 0
M  V30 4293 C 414.19 -3.46206 -4.57087 0
M  V30 4294 N 413.686 -4.29802 -5.43362 0
M  V30 4295 N 415.479 -3.34886 -4.51451 0
M  V30 4296 H 407.63 -1.92028 -0.9077 0
M  V30 4297 H 409.893 -0.828487 -0.460775 0
M  V30 4298 H 409.599 -2.74231 -2.20206 0
M  V30 4299 H 409.473 -1.51818 -3.45299 0
M  V30 4300 H 411.86 -0.722173 -2.86127 0
M  V30 4301 H 411.941 -1.98005 -1.61949 0
M  V30 4302 H 411.585 -3.75217 -3.42307 0
M  V30 4303 H 411.515 -2.46545 -4.65321 0
M  V30 4304 H 414.006 -2.11576 -3.1312 0
M  V30 4305 H 414.319 -4.83061 -6.03218 0
M  V30 4306 H 412.664 -4.33887 -5.42925 0
M  V30 4307 H 415.855 -2.69015 -3.83078 0
M  V30 4308 H 416.028 -3.92796 -5.15379 0
M  V30 4309 N 409.434 1.37368 -0.772513 0
M  V30 4310 C 410.711 1.93839 -0.26188 0
M  V30 4311 C 411.091 1.7061 1.24319 0
M  V30 4312 O 410.439 1.05534 2.02669 0
M  V30 4313 C 410.649 3.43154 -0.636102 0
M  V30 4314 C 411.997 4.20249 -0.606324 0
M  V30 4315 O 413.021 3.5152 -0.575538 0
M  V30 4316 O 411.88 5.42809 -0.634086 0
M  V30 4317 H 408.974 0.82478 -0.0605555 0
M  V30 4318 H 411.52 1.4665 -0.853917 0
M  V30 4319 H 410.292 3.53647 -1.6748 0
M  V30 4320 H 409.915 3.97596 -0.0170516 0
M  V30 4321 N 410.912 0.523116 1.48665 0
M  V30 4322 C 412.158 -0.00540031 2.03399 0
M  V30 4323 C 412.513 -1.3264 1.39372 0
M  V30 4324 O 411.806 -1.84184 0.527916 0
M  V30 4325 C 412 -0.191671 3.56886 0
M  V30 4326 C 411.829 1.10972 4.35793 0
M  V30 4327 C 410.599 1.66769 4.76987 0
M  V30 4328 C 412.797 2.01861 4.73029 0
M  V30 4329 N 410.779 2.91268 5.40404 0
M  V30 4330 C 412.15 3.10937 5.36394 0
M  V30 4331 C 414.205 2.02271 4.54962 0
M  V30 4332 C 412.908 4.20478 5.83601 0
M  V30 4333 C 414.934 3.10802 5.03146 0
M  V30 4334 C 414.296 4.18597 5.6653 0
M  V30 4335 H 410.395 0.0393531 0.781009 0
M  V30 4336 H 412.979 0.702876 1.8157 0
M  V30 4337 H 411.15 -0.869025 3.78553 0
M  V30 4338 H 412.882 -0.719177 3.98259 0
M  V30 4339 H 409.637 1.20996 4.57883 0
M  V30 4340 H 410.061 3.54635 5.76683 0
M  V30 4341 H 414.703 1.2023 4.05345 0
M  V30 4342 H 412.421 5.03303 6.32228 0
M  V30 4343 H 416.007 3.12166 4.90962 0
M  V30 4344 H 414.887 5.01193 6.03138 0
M  V30 4345 N 412.39 -1.55475 0.257931 0
M  V30 4346 C 413.639 -1.98383 -0.364275 0
M  V30 4347 C 413.952 -1.14952 -1.58258 0
M  V30 4348 O 415.158 -1.47924 -2.27664 0
M  V30 4349 C 413.614 -3.53037 -0.699479 0
M  V30 4350 C 413.222 -4.45223 0.498046 0
M  V30 4351 C 414.966 -4.04575 -1.28526 0
M  V30 4352 C 412.873 -5.91238 0.138383 0
M  V30 4353 H 411.803 -0.740911 -0.13988 0
M  V30 4354 H 414.454 -1.79936 0.359883 0
M  V30 4355 H 412.836 -3.6722 -1.48207 0
M  V30 4356 H 414.01 -4.42803 1.27522 0
M  V30 4357 H 412.325 -4.04226 0.999503 0
M  V30 4358 H 414.922 -5.11196 -1.56788 0
M  V30 4359 H 415.265 -3.5258 -2.21344 0
M  V30 4360 H 415.798 -3.93762 -0.565337 0
M  V30 4361 H 412.537 -6.47294 1.03398 0
M  V30 4362 H 412.057 -5.96768 -0.602374 0
M  V30 4363 H 413.736 -6.46413 -0.27553 0
M  V30 4364 N 413.868 0.0150385 -1.57593 0
M  V30 4365 C 414.831 0.995996 -2.06428 0
M  V30 4366 C 415.831 1.2818 -0.970903 0
M  V30 4367 O 417.021 1.22949 -1.23406 0
M  V30 4368 C 414.153 2.32506 -2.49307 0
M  V30 4369 H 415.346 0.573873 -2.94358 0
M  V30 4370 H 412.899 0.262186 -1.54085 0
M  V30 4371 H 413.634 2.79438 -1.64575 0
M  V30 4372 H 413.419 2.13087 -3.29145 0
M  V30 4373 H 414.909 3.02906 -2.87468 0
M  V30 4374 N 415.346 1.54954 0.287554 0
M  V30 4375 C 416.762 1.46469 0.633964 0
M  V30 4376 C 416.962 0.666865 1.90145 0
M  V30 4377 O 416.018 0.179906 2.51858 0
M  V30 4378 C 417.331 2.90556 0.774454 0
M  V30 4379 C 418.879 3.00681 0.869462 0
M  V30 4380 C 419.354 4.45993 1.04184 0
M  V30 4381 N 420.845 4.4976 1.10772 0
M  V30 4382 C 421.58 5.59393 1.25964 0
M  V30 4383 N 421.076 6.78923 1.37968 0
M  V30 4384 N 422.869 5.47107 1.28959 0
M  V30 4385 H 415.02 2.05288 -0.545041 0
M  V30 4386 H 417.283 0.930305 -0.182308 0
M  V30 4387 H 416.989 3.51594 -0.086207 0
M  V30 4388 H 416.863 3.38743 1.6593 0
M  V30 4389 H 419.25 2.39749 1.7206 0
M  V30 4390 H 419.331 2.55769 -0.0396831 0
M  V30 4391 H 418.975 5.07524 0.195422 0
M  V30 4392 H 418.905 4.88548 1.96542 0
M  V30 4393 H 421.396 3.63651 1.02794 0
M  V30 4394 H 421.709 7.58231 1.49353 0
M  V30 4395 H 420.054 6.81763 1.34999 0
M  V30 4396 H 423.245 4.52668 1.19202 0
M  V30 4397 H 423.418 6.32595 1.40455 0
M  V30 4398 N 416.824 -0.551391 1.4764 0
M  V30 4399 C 417.734 -1.68525 1.63207 0
M  V30 4400 C 418.75 -1.6621 0.514815 0
M  V30 4401 O 419.926 -1.85551 0.783113 0
M  V30 4402 C 416.991 -3.05025 1.64805 0
M  V30 4403 C 416.052 -3.18362 2.88 0
M  V30 4404 C 415.285 -4.4835 2.89513 0
M  V30 4405 O 415.508 -5.34163 2.00065 0
M  V30 4406 O 414.442 -4.65602 3.81443 0
M  V30 4407 H 418.268 -1.58333 2.59161 0
M  V30 4408 H 415.853 -0.722063 1.30792 0
M  V30 4409 H 417.735 -3.86245 1.68502 0
M  V30 4410 H 416.41 -3.15587 0.720197 0
M  V30 4411 H 415.317 -2.36518 2.89845 0
M  V30 4412 H 416.65 -3.12707 3.80099 0
M  V30 4413 N 418.302 -1.35869 -0.798587 0
M  V30 4414 C 419.527 -1.32883 -1.59238 0
M  V30 4415 C 419.952 0.0894587 -1.87887 0
M  V30 4416 O 419.31 1.05869 -1.47178 0
M  V30 4417 C 419.358 -2.14892 -2.89575 0
M  V30 4418 O 418.462 -1.53512 -3.82763 0
M  V30 4419 H 417.803 -0.455236 -0.48338 0
M  V30 4420 H 420.333 -1.79024 -0.990539 0
M  V30 4421 H 420.343 -2.27139 -3.38928 0
M  V30 4422 H 419.018 -3.17998 -2.68049 0
M  V30 4423 H 417.595 -1.50153 -3.41334 0
M  V30 4424 N 419.78 1.02168 -1.19998 0
M  V30 4425 C 421.008 1.79296 -1.03249 0
M  V30 4426 C 421.423 1.84103 0.418502 0
M  V30 4427 O 420.78 1.29031 1.29063 0
M  V30 4428 C 420.831 3.24007 -1.60319 0
M  V30 4429 O 420.552 3.19512 -2.99739 0
M  V30 4430 C 422.053 4.17704 -1.48453 0
M  V30 4431 H 419.273 0.564016 -0.363493 0
M  V30 4432 H 421.817 1.28639 -1.58973 0
M  V30 4433 H 419.972 3.7183 -1.08727 0
M  V30 4434 H 420.386 4.10306 -3.26725 0
M  V30 4435 H 421.86 5.17104 -1.93153 0
M  V30 4436 H 422.337 4.37029 -0.436193 0
M  V30 4437 H 422.943 3.7576 -1.99211 0
M  V30 4438 N 421.258 1.00505 1.21394 0
M  V30 4439 C 422.221 0.570459 2.21987 0
M  V30 4440 C 423.221 -0.353211 1.56873 0
M  V30 4441 O 424.411 -0.14349 1.73608 0
M  V30 4442 C 421.543 -0.168555 3.40483 0
M  V30 4443 H 422.736 1.46021 2.6195 0
M  V30 4444 H 420.289 0.793565 1.34656 0
M  V30 4445 H 421.024 -1.07374 3.06009 0
M  V30 4446 H 420.809 0.494823 3.88965 0
M  V30 4447 H 422.299 -0.460362 4.15055 0
M  V30 4448 N 422.737 -1.36956 0.779787 0
M  V30 4449 C 423.983 -1.99787 0.348281 0
M  V30 4450 C 424.316 -1.61756 -1.07465 0
M  V30 4451 O 423.591 -0.867639 -1.74075 0
M  V30 4452 C 423.874 -3.56597 0.50104 0
M  V30 4453 C 423.727 -4.04513 1.96697 0
M  V30 4454 C 425.046 -4.40008 -0.0898097 0
M  V30 4455 H 422.165 -0.725796 0.128022 0
M  V30 4456 H 424.807 -1.62514 0.984331 0
M  V30 4457 H 422.957 -3.88479 -0.0404347 0
M  V30 4458 H 424.629 -3.83161 2.56876 0
M  V30 4459 H 422.872 -3.56408 2.47297 0
M  V30 4460 H 423.543 -5.1352 2.02486 0
M  V30 4461 H 426.019 -4.14431 0.372293 0
M  V30 4462 H 424.895 -5.4888 0.0471605 0
M  V30 4463 H 425.156 -4.26035 -1.18096 0
M  V30 4464 N 424.215 -0.530993 -1.48385 0
M  V30 4465 C 425.44 0.000729535 -2.074 0
M  V30 4466 C 425.865 1.27298 -1.3848 0
M  V30 4467 O 425.223 1.75599 -0.451081 0
M  V30 4468 C 425.271 0.206697 -3.60007 0
M  V30 4469 O 424.375 1.27514 -3.92191 0
M  V30 4470 H 423.716 -0.039583 -0.662819 0
M  V30 4471 H 426.246 -0.739194 -1.9078 0
M  V30 4472 H 426.256 0.42904 -4.05738 0
M  V30 4473 H 424.931 -0.722675 -4.09573 0
M  V30 4474 H 423.508 1.03537 -3.58238 0
M  V30 4475 N 425.693 1.55336 -0.266172 0
M  V30 4476 C 426.623 2.25146 0.618981 0
M  V30 4477 C 427.604 1.23845 1.16604 0
M  V30 4478 O 428.789 1.52544 1.20183 0
M  V30 4479 C 425.919 2.96572 1.80728 0
M  V30 4480 C 424.873 4.04726 1.39215 0
M  V30 4481 C 424.199 4.63678 2.66283 0
M  V30 4482 C 425.499 5.19407 0.548942 0
M  V30 4483 H 427.193 2.99377 0.0368116 0
M  V30 4484 H 424.739 1.43991 0.0162651 0
M  V30 4485 H 426.692 3.44116 2.43232 0
M  V30 4486 H 425.416 2.19861 2.41514 0
M  V30 4487 H 424.075 3.57979 0.790351 0
M  V30 4488 H 423.723 3.83646 3.25308 0
M  V30 4489 H 423.423 5.367 2.39222 0
M  V30 4490 H 424.947 5.13967 3.29651 0
M  V30 4491 H 426.361 5.63059 1.07876 0
M  V30 4492 H 424.758 5.98936 0.373593 0
M  V30 4493 H 425.828 4.8295 -0.434394 0
M  V30 4494 N 427.171 -0.0066808 1.57599 0
M  V30 4495 C 428.417 -0.68835 1.91398 0
M  V30 4496 C 428.772 -1.7175 0.86716 0
M  V30 4497 O 428.065 -1.91215 -0.121475 0
M  V30 4498 C 428.259 -1.37939 3.29708 0
M  V30 4499 C 428.088 -0.418689 4.47747 0
M  V30 4500 C 426.858 -0.031526 5.0529 0
M  V30 4501 C 429.056 0.312301 5.13351 0
M  V30 4502 N 427.038 0.928088 6.06844 0
M  V30 4503 C 428.409 1.12682 6.09674 0
M  V30 4504 C 430.464 0.376853 4.96472 0
M  V30 4505 C 429.167 2 6.90936 0
M  V30 4506 C 431.193 1.23723 5.78314 0
M  V30 4507 C 430.555 2.03962 6.74225 0
M  V30 4508 H 426.654 -0.225292 0.748844 0
M  V30 4509 H 429.238 0.0520973 1.9463 0
M  V30 4510 H 427.409 -2.09017 3.27363 0
M  V30 4511 H 429.141 -2.01522 3.50957 0
M  V30 4512 H 425.896 -0.398485 4.71921 0
M  V30 4513 H 426.32 1.40307 6.62301 0
M  V30 4514 H 430.962 -0.22921 4.22178 0
M  V30 4515 H 428.68 2.61676 7.64559 0
M  V30 4516 H 432.266 1.291 5.67296 0
M  V30 4517 H 431.146 2.69461 7.36451 0
M  V30 4518 N 428.649 -1.55105 -0.279332 0
M  V30 4519 C 429.897 -1.75066 -1.00977 0
M  V30 4520 C 430.218 -0.551276 -1.87045 0
M  V30 4521 O 429.488 0.433984 -1.91032 0
M  V30 4522 H 428.068 -0.645578 -0.375816 0
M  V30 4523 H 430.73 -1.92497 -0.305089 0
M  V30 4524 H 429.826 -2.64894 -1.65038 0
M  V30 4525 N 430.127 0.543554 -1.4793 0
M  V30 4526 C 431.077 1.64527 -1.57844 0
M  V30 4527 C 432.061 1.54869 -0.436408 0
M  V30 4528 O 433.253 1.63119 -0.687101 0
M  V30 4529 C 430.382 3.03281 -1.6086 0
M  V30 4530 C 429.468 3.18093 -2.80495 0
M  V30 4531 N 429.859 3.02923 -4.05057 0
M  V30 4532 C 428.157 3.49121 -2.77543 0
M  V30 4533 C 428.858 3.20791 -4.85251 0
M  V30 4534 N 427.834 3.47749 -4.17818 0
M  V30 4535 H 431.636 1.51388 -2.5191 0
M  V30 4536 H 429.15 0.748671 -1.44113 0
M  V30 4537 H 431.147 3.82403 -1.66054 0
M  V30 4538 H 429.807 3.17521 -0.678996 0
M  V30 4539 H 430.818 2.79966 -4.35705 0
M  V30 4540 H 427.495 3.69804 -1.93781 0
M  V30 4541 H 428.885 3.13915 -5.9406 0
M  V30 4542 N 431.605 1.3629 0.791371 0
M  V30 4543 C 432.882 1.20962 1.53712 0
M  V30 4544 C 433.262 -0.205021 2.10102 0
M  V30 4545 O 432.61 -1.21042 1.93807 0
M  V30 4546 C 432.82 2.29002 2.63361 0
M  V30 4547 C 434.168 2.65572 3.31295 0
M  V30 4548 O 435.192 2.2803 2.73643 0
M  V30 4549 O 434.051 3.3018 4.35481 0
M  V30 4550 H 431.145 0.47086 0.679867 0
M  V30 4551 H 433.691 1.48016 0.830021 0
M  V30 4552 H 432.463 3.2382 2.19674 0
M  V30 4553 H 432.086 2.03303 3.41692 0
M  V30 4554 N 433.083 -1.0153 1.20538 0
M  V30 4555 C 434.33 -1.75149 1.01633 0
M  V30 4556 C 434.658 -1.89189 -0.451399 0
M  V30 4557 O 433.913 -1.41551 -1.35136 0
M  V30 4558 C 434.212 -3.17213 1.64654 0
M  V30 4559 C 433.878 -3.23146 3.14464 0
M  V30 4560 C 432.54 -3.24472 3.55347 0
M  V30 4561 C 434.892 -3.21207 4.10458 0
M  V30 4562 C 432.22 -3.21532 4.90748 0
M  V30 4563 C 434.572 -3.19808 5.45807 0
M  V30 4564 C 433.236 -3.19439 5.86102 0
M  V30 4565 H 432.506 -0.640914 0.3719 0
M  V30 4566 H 435.153 -1.19071 1.49981 0
M  V30 4567 H 433.458 -3.76457 1.08571 0
M  V30 4568 H 435.155 -3.72871 1.4754 0
M  V30 4569 H 431.745 -3.2285 2.81897 0
M  V30 4570 H 435.929 -3.19351 3.79906 0
M  V30 4571 H 431.185 -3.19578 5.21229 0
M  V30 4572 H 435.359 -3.1726 6.19935 0
M  V30 4573 H 432.986 -3.16915 6.90991 0
M  V30 4574 N 434.561 -1.01147 -1.20859 0
M  V30 4575 C 435.789 -0.716911 -1.94082 0
M  V30 4576 C 436.204 0.721568 -1.74467 0
M  V30 4577 O 435.561 1.48889 -1.05539 0
M  V30 4578 C 435.612 -1.03662 -3.46318 0
M  V30 4579 O 435.333 -2.4186 -3.65288 0
M  V30 4580 C 436.834 -0.762386 -4.36695 0
M  V30 4581 H 434.054 -0.26367 -0.617024 0
M  V30 4582 H 436.598 -1.35127 -1.53496 0
M  V30 4583 H 434.753 -0.447757 -3.84804 0
M  V30 4584 H 435.167 -2.53224 -4.59323 0
M  V30 4585 H 436.641 -1.03621 -5.42187 0
M  V30 4586 H 437.118 0.303514 -4.3815 0
M  V30 4587 H 437.724 -1.33316 -4.03865 0
M  V30 4588 N 436.039 1.36541 -0.78704 0
M  V30 4589 C 437.285 1.99599 -0.358872 0
M  V30 4590 C 437.618 1.62323 1.06606 0
M  V30 4591 O 436.893 0.876858 1.73613 0
M  V30 4592 C 437.176 3.56327 -0.519944 0
M  V30 4593 C 437.029 4.03464 -1.98839 0
M  V30 4594 C 438.348 4.4005 0.0664737 0
M  V30 4595 H 435.467 0.725107 -0.131869 0
M  V30 4596 H 438.109 1.6199 -0.992936 0
M  V30 4597 H 436.259 3.88495 0.0198321 0
M  V30 4598 H 437.931 3.81793 -2.58905 0
M  V30 4599 H 436.174 3.55092 -2.49183 0
M  V30 4600 H 436.845 5.12439 -2.05207 0
M  V30 4601 H 439.321 4.14228 -0.394267 0
M  V30 4602 H 438.197 5.48847 -0.0762682 0
M  V30 4603 H 438.458 4.26655 1.15835 0
M  V30 4604 N 437.518 0.538854 1.48102 0
M  V30 4605 C 438.766 0.00798599 2.02098 0
M  V30 4606 C 439.087 -1.33922 1.41739 0
M  V30 4607 O 438.357 -1.86932 0.585934 0
M  V30 4608 H 436.937 -3.62179e-05 0.747 0
M  V30 4609 H 439.599 0.7047 1.81714 0
M  V30 4610 H 438.695 -0.0937672 3.11959 0
M  V30 4611 N 438.996 -1.55193 0.274407 0
M  V30 4612 C 439.959 -2.212 -0.600279 0
M  V30 4613 C 440.959 -1.18963 -1.08187 0
M  V30 4614 O 442.149 -1.43873 -0.982158 0
M  V30 4615 C 439.281 -2.87739 -1.82809 0
M  V30 4616 H 440.474 -2.9989 -0.0239682 0
M  V30 4617 H 438.027 -1.5628 0.0250192 0
M  V30 4618 H 438.762 -2.13058 -2.44493 0
M  V30 4619 H 438.547 -3.62658 -1.49069 0
M  V30 4620 H 440.037 -3.38171 -2.45011 0
M  V30 4621 N 440.474 -0.00167713 -1.576 0
M  V30 4622 C 441.89 0.354422 -1.55615 0
M  V30 4623 C 442.09 1.74679 -1.00447 0
M  V30 4624 O 441.146 2.4428 -0.639022 0
M  V30 4625 C 442.459 0.22812 -2.99833 0
M  V30 4626 C 444.007 0.302934 -3.11531 0
M  V30 4627 C 444.482 0.205737 -4.57538 0
M  V30 4628 N 445.973 0.263584 -4.62449 0
M  V30 4629 C 446.708 0.211742 -5.73009 0
M  V30 4630 N 446.204 0.110399 -6.92712 0
M  V30 4631 N 447.997 0.263729 -5.61481 0
M  V30 4632 H 440.148 -0.912498 -1.918 0
M  V30 4633 H 442.411 -0.349928 -0.881053 0
M  V30 4634 H 442.117 -0.729934 -3.44042 0
M  V30 4635 H 441.991 1.00951 -3.6344 0
M  V30 4636 H 444.378 1.25143 -2.67251 0
M  V30 4637 H 444.459 -0.508357 -2.50698 0
M  V30 4638 H 444.103 -0.739225 -5.02492 0
M  V30 4639 H 444.033 1.03554 -5.16318 0
M  V30 4640 H 446.524 0.343173 -3.76339 0
M  V30 4641 H 446.837 0.0767828 -7.72762 0
M  V30 4642 H 445.182 0.0760025 -6.94958 0
M  V30 4643 H 448.373 0.34111 -4.66855 0
M  V30 4644 H 448.546 0.219862 -6.47627 0
M  V30 4645 N 441.952 1.55251 0.271103 0
M  V30 4646 C 443.2 1.75599 1.00047 0
M  V30 4647 C 443.521 0.561188 1.8675 0
M  V30 4648 O 442.791 -0.423846 1.9126 0
M  V30 4649 H 441.371 0.647562 0.372387 0
M  V30 4650 H 444.033 1.92656 0.294876 0
M  V30 4651 H 443.129 2.65766 1.6363 0
M  V30 4652 O 443.469 -0.416875 1.56027 0
M  V30 4653 H 444.16 -1.06974 1.61481 0
M  V30 END ATOM
M  V30 BEGIN BOND
M  V30 END BOND
M  V30 END CTAB
M  END
$$$$
