drugbank_target|P9WNL9 Probable arabinosyltransferase A (DB00330)
 OpenBabel12092119233D

  0  0  0     0  0            999 V3000
M  V30 BEGIN CTAB
M  V30 COUNTS 16522 16736 0 0 0
M  V30 BEGIN ATOM
M  V30 1 H -0.908 1.98254 -0.117106 0
M  V30 2 N 0 1.576 0 0
M  V30 3 C 0.933 2.03868 1.02534 0
M  V30 4 C 1.911 0.928543 1.3348 0
M  V30 5 O 3.095 1.19667 1.45644 0
M  V30 6 C 0.222 2.43627 2.35294 0
M  V30 7 C -0.732 3.65373 2.2001 0
M  V30 8 S 0.101 5.13292 1.52614 0
M  V30 9 C 1.257 5.56322 2.86805 0
M  V30 10 H 1.49 2.90518 0.631377 0
M  V30 11 H -0.977 1.52953 0.210867 0
M  V30 12 H 0.981 2.67203 3.11629 0
M  V30 13 H -0.358 1.57376 2.7183 0
M  V30 14 H -1.165 3.90944 3.18086 0
M  V30 15 H -1.563 3.418 1.51819 0
M  V30 16 H 0.729 5.58782 3.83104 0
M  V30 17 H 1.672 6.56266 2.65933 0
M  V30 18 H 2.08 4.83886 2.90714 0
M  V30 19 N 1.4781 -0.272755 1.55222 0
M  V30 20 C 2.8891 -0.84378 1.66545 0
M  V30 21 C 3.2401 -1.87035 0.592641 0
M  V30 22 O 2.3651 -2.14761 -0.265818 0
M  V30 23 C 2.9601 -1.53723 3.01918 0
M  V30 24 C 1.5191 -2.05628 3.15268 0
M  V30 25 C 0.6661 -0.898424 2.62343 0
M  V30 26 H 3.6171 -0.0490998 1.58624 0
M  V30 27 H 3.6381 -2.40421 2.94921 0
M  V30 28 H 3.1501 -0.78983 3.79978 0
M  V30 29 H 1.2511 -2.83329 2.41983 0
M  V30 30 H 1.3641 -2.27142 4.21833 0
M  V30 31 H -0.2719 -1.29186 2.19506 0
M  V30 32 H 0.5111 -0.164528 3.42906 0
M  V30 33 N 2.9562 -1.48159 -0.537278 0
M  V30 34 C 3.9062 -1.5854 -1.63857 0
M  V30 35 C 4.8902 -0.442969 -1.54682 0
M  V30 36 O 6.0822 -0.69401 -1.62827 0
M  V30 37 C 3.2112 -1.62144 -3.02596 0
M  V30 38 C 2.2972 -2.81841 -3.16901 0
M  V30 39 N 2.6882 -4.06337 -3.01204 0
M  V30 40 C 0.9862 -2.79021 -3.47942 0
M  V30 41 C 1.6872 -4.86606 -3.18731 0
M  V30 42 N 0.6632 -4.19288 -3.45974 0
M  V30 43 H 4.4652 -2.5255 -1.50319 0
M  V30 44 H 1.9792 -1.4443 -0.742555 0
M  V30 45 H 3.9762 -1.67674 -3.81695 0
M  V30 46 H 2.6362 -0.69245 -3.17231 0
M  V30 47 H 3.6472 -4.36888 -2.78117 0
M  V30 48 H 0.3242 -1.95347 -3.6898 0
M  V30 49 H 1.7142 -5.95385 -3.11394 0
M  V30 50 N 4.4343 0.785586 -1.36625 0
M  V30 51 C 5.7113 1.53198 -1.21613 0
M  V30 52 C 6.0913 2.10187 0.196113 0
M  V30 53 O 5.4393 1.94318 1.20219 0
M  V30 54 C 5.6493 2.62388 -2.30116 0
M  V30 55 C 6.9973 3.30167 -2.66974 0
M  V30 56 O 8.0213 2.72674 -2.29188 0
M  V30 57 O 6.8803 4.34077 -3.32023 0
M  V30 58 H 3.9743 0.677865 -0.473738 0
M  V30 59 H 6.5203 0.823739 -1.48367 0
M  V30 60 H 5.2923 2.18299 -3.24748 0
M  V30 61 H 4.9153 3.40827 -2.0475 0
M  V30 62 N 5.9124 1.20967 1.01018 0
M  V30 63 C 7.1604 1.02172 1.74371 0
M  V30 64 C 7.4814 -0.446414 1.89821 0
M  V30 65 O 6.7514 -1.32234 1.44537 0
M  V30 66 H 5.3314 0.375066 0.646014 0
M  V30 67 H 7.9934 1.52187 1.21758 0
M  V30 68 H 7.0894 1.48538 2.74487 0
M  V30 69 N 7.3905 -1.2043 1.01659 0
M  V30 70 C 8.3385 -2.25249 0.580143 0
M  V30 71 C 9.3325 -1.65057 -0.381115 0
M  V30 72 O 10.5385 -1.78241 -0.251039 0
M  V30 73 H 6.9135 -0.732695 0.169299 0
M  V30 74 H 8.8845 -2.59389 1.47512 0
M  V30 75 C 7.6335 -3.47638 -0.065788 0
M  V30 76 H 6.9565 -3.94233 0.664874 0
M  V30 77 H 8.3965 -4.2268 -0.334282 0
M  V30 78 C 6.8555 -3.10447 -1.3086 0
M  V30 79 O 7.3855 -3.21981 -2.4019 0
M  V30 80 N 5.5915 -2.64996 -1.1927 0
M  V30 81 H 5.1385 -2.55811 -0.303064 0
M  V30 82 H 5.0965 -2.40482 -2.02523 0
M  V30 83 N 8.8686 -0.792821 -1.36206 0
M  V30 84 C 9.7786 -0.194808 -2.3379 0
M  V30 85 C 10.7946 0.654869 -1.61206 0
M  V30 86 O 11.9706 0.569856 -1.9317 0
M  V30 87 C 9.0356 0.657721 -3.40404 0
M  V30 88 C 8.0966 -0.210849 -4.28782 0
M  V30 89 C 7.3296 0.601086 -5.30304 0
M  V30 90 O 7.5526 1.83682 -5.40016 0
M  V30 91 O 6.4866 -0.000808277 -6.019 0
M  V30 92 H 10.3126 -1.00172 -2.86704 0
M  V30 93 H 7.8976 -0.554341 -1.38735 0
M  V30 94 H 9.7796 1.14375 -4.05581 0
M  V30 95 H 8.4546 1.44247 -2.89784 0
M  V30 96 H 7.3616 -0.743714 -3.66633 0
M  V30 97 H 8.6946 -0.959195 -4.82763 0
M  V30 98 N 10.3467 1.47872 -0.545128 0
M  V30 99 C 11.7627 1.5829 -0.204032 0
M  V30 100 C 11.9627 1.54529 1.29317 0
M  V30 101 O 11.0187 1.44232 2.07252 0
M  V30 102 C 12.3317 2.89304 -0.819987 0
M  V30 103 C 13.8797 3.02864 -0.790105 0
M  V30 104 C 14.3547 4.3656 -1.38491 0
M  V30 105 N 15.8457 4.43165 -1.34755 0
M  V30 106 C 16.5807 5.45153 -1.77753 0
M  V30 107 N 16.0767 6.54016 -2.2855 0
M  V30 108 N 17.8697 5.36125 -1.68897 0
M  V30 109 H 10.0207 1.4856 -1.51802 0
M  V30 110 H 12.2837 0.706305 -0.632327 0
M  V30 111 H 11.9897 2.97757 -1.87173 0
M  V30 112 H 11.8637 3.75957 -0.305915 0
M  V30 113 H 14.2507 2.94014 0.252913 0
M  V30 114 H 14.3317 2.17782 -1.34181 0
M  V30 115 H 13.9757 4.46164 -2.42693 0
M  V30 116 H 13.9057 5.20353 -0.808754 0
M  V30 117 H 16.3967 3.65083 -0.975855 0
M  V30 118 H 16.7097 7.27994 -2.59314 0
M  V30 119 H 15.0547 6.54938 -2.32553 0
M  V30 120 H 18.2457 4.49975 -1.28998 0
M  V30 121 H 18.4187 6.15472 -2.02726 0
M  V30 122 N 11.8248 0.280983 1.55075 0
M  V30 123 C 13.0498 -0.340154 2.04592 0
M  V30 124 C 13.4748 -1.48246 1.15779 0
M  V30 125 O 12.8328 -1.80614 0.15761 0
M  V30 126 C 12.8808 -0.793104 3.5177 0
M  V30 127 O 11.9848 -1.89981 3.66034 0
M  V30 128 H 11.3258 -0.0694289 0.66036 0
M  V30 129 H 13.8558 0.416993 2.00306 0
M  V30 130 H 13.8658 -1.08729 3.93245 0
M  V30 131 H 12.5408 0.0426163 4.15878 0
M  V30 132 H 11.1178 -1.60771 3.36463 0
M  V30 133 N 13.3029 -1.57598 0.00835791 0
M  V30 134 C 14.2529 -2.05431 -0.989045 0
M  V30 135 C 15.2369 -0.950662 -1.29812 0
M  V30 136 O 16.4289 -1.21438 -1.28771 0
M  V30 137 C 13.5579 -2.56801 -2.27833 0
M  V30 138 C 12.6439 -3.74058 -1.99853 0
M  V30 139 N 13.0349 -4.8544 -1.42062 0
M  V30 140 C 11.3329 -3.82148 -2.29953 0
M  V30 141 C 12.0339 -5.66817 -1.30743 0
M  V30 142 N 11.0099 -5.13077 -1.7959 0
M  V30 143 H 14.8119 -2.88955 -0.536853 0
M  V30 144 H 12.3259 -1.61199 -0.197148 0
M  V30 145 H 14.3229 -2.89349 -3.00137 0
M  V30 146 H 12.9829 -1.74699 -2.73698 0
M  V30 147 H 13.9939 -5.0612 -1.09833 0
M  V30 148 H 10.6709 -3.10916 -2.78635 0
M  V30 149 H 12.0609 -6.66343 -0.862328 0
M  V30 150 N 14.781 0.264519 -1.55364 0
M  V30 151 C 16.197 0.61215 -1.47394 0
M  V30 152 C 16.397 1.89134 -0.695018 0
M  V30 153 O 15.453 2.51563 -0.217275 0
M  V30 154 C 16.766 0.731235 -2.91674 0
M  V30 155 C 18.314 0.82473 -3.01939 0
M  V30 156 C 18.789 0.975522 -4.4749 0
M  V30 157 N 20.28 1.04083 -4.51354 0
M  V30 158 C 21.015 1.17646 -5.61201 0
M  V30 159 N 20.511 1.27874 -6.80896 0
M  V30 160 N 22.304 1.20823 -5.48961 0
M  V30 161 H 14.455 -0.575456 -2.04456 0
M  V30 162 H 16.718 -0.196099 -0.927496 0
M  V30 163 H 16.424 -0.138392 -3.51428 0
M  V30 164 H 16.298 1.60883 -3.41169 0
M  V30 165 H 18.685 1.68482 -2.42276 0
M  V30 166 H 18.766 -0.0776479 -2.55682 0
M  V30 167 H 18.41 0.120058 -5.07758 0
M  V30 168 H 18.34 1.89268 -4.91412 0
M  V30 169 H 20.831 0.973846 -3.65136 0
M  V30 170 H 21.144 1.38081 -7.60364 0
M  V30 171 H 19.489 1.24863 -6.83692 0
M  V30 172 H 22.68 1.12469 -4.54388 0
M  V30 173 H 22.853 1.31049 -6.3461 0
M  V30 174 N 16.2591 1.48442 0.529413 0
M  V30 175 C 17.5081 1.55742 1.28169 0
M  V30 176 C 17.8211 0.236511 1.94165 0
M  V30 177 O 19.0271 0.187761 2.7085 0
M  V30 178 C 17.4831 2.74667 2.32564 0
M  V30 179 C 17.0911 4.13402 1.72636 0
M  V30 180 C 18.8351 2.9128 3.08798 0
M  V30 181 C 16.7421 5.23587 2.74975 0
M  V30 182 H 15.6721 0.579796 0.48203 0
M  V30 183 H 18.3231 1.74776 0.559056 0
M  V30 184 H 16.7051 2.49067 3.07866 0
M  V30 185 H 17.8791 4.49022 1.03519 0
M  V30 186 H 16.1941 4.0191 1.08892 0
M  V30 187 H 18.7911 3.70767 3.85274 0
M  V30 188 H 19.1341 2.00757 3.64695 0
M  V30 189 H 19.6671 3.16782 2.40611 0
M  V30 190 H 16.4061 6.16076 2.23897 0
M  V30 191 H 15.9261 4.92454 3.42417 0
M  V30 192 H 17.6051 5.51724 3.37949 0
M  V30 193 N 17.7372 -0.778329 1.37039 0
M  V30 194 C 18.7002 -1.87301 1.32102 0
M  V30 195 C 19.7002 -1.59198 0.226405 0
M  V30 196 O 20.8902 -1.67403 0.481861 0
M  V30 197 C 18.0222 -3.24309 1.05055 0
M  V30 198 H 19.2152 -1.93093 2.29467 0
M  V30 199 H 16.7682 -0.977358 1.21973 0
M  V30 200 H 17.5032 -3.24196 0.0819373 0
M  V30 201 H 17.2882 -3.46098 1.84279 0
M  V30 202 H 18.7782 -4.04382 1.04234 0
M  V30 203 N 19.2153 -1.21501 -1.00376 0
M  V30 204 C 20.6313 -0.972629 -1.26539 0
M  V30 205 C 20.8313 0.340257 -1.98606 0
M  V30 206 O 19.8873 1.06561 -2.28913 0
M  V30 207 C 21.2003 -2.16404 -2.08781 0
M  V30 208 C 22.7483 -2.20643 -2.22004 0
M  V30 209 C 23.2233 -3.39306 -3.07629 0
M  V30 210 N 24.7143 -3.39401 -3.15217 0
M  V30 211 C 25.4493 -4.27867 -3.81729 0
M  V30 212 N 24.9453 -5.26533 -4.5026 0
M  V30 213 N 26.7383 -4.15672 -3.78382 0
M  V30 214 H 18.8893 -2.05929 -0.520281 0
M  V30 215 H 21.1523 -0.901803 -0.292328 0
M  V30 216 H 20.8583 -3.11554 -1.63178 0
M  V30 217 H 20.7323 -2.15567 -3.09533 0
M  V30 218 H 23.1193 -1.26048 -2.66825 0
M  V30 219 H 23.2003 -2.25523 -1.20718 0
M  V30 220 H 22.8443 -4.34195 -2.63509 0
M  V30 221 H 22.7743 -3.31665 -4.09031 0
M  V30 222 H 25.2653 -2.67997 -2.66432 0
M  V30 223 H 25.5783 -5.90337 -4.98721 0
M  V30 224 H 23.9233 -5.30457 -4.49044 0
M  V30 225 H 27.1143 -3.3785 -3.23998 0
M  V30 226 H 27.2873 -4.84825 -4.2994 0
M  V30 227 N 20.6934 1.19889 -1.02296 0
M  V30 228 C 21.6234 2.25141 -0.619174 0
M  V30 229 C 22.6044 1.66051 0.368915 0
M  V30 230 O 23.7894 1.92546 0.252941 0
M  V30 231 C 20.9194 3.4728 0.0368783 0
M  V30 232 C 19.8734 4.19005 -0.872865 0
M  V30 233 C 19.1994 5.34637 -0.0822402 0
M  V30 234 C 20.4994 4.74452 -2.18387 0
M  V30 235 H 22.1934 2.59171 -1.49903 0
M  V30 236 H 19.7394 1.24579 -0.722222 0
M  V30 237 H 21.6924 4.20098 0.330958 0
M  V30 238 H 20.4164 3.12433 0.95149 0
M  V30 239 H 19.0754 3.48061 -1.15105 0
M  V30 240 H 18.7234 4.96034 0.83422 0
M  V30 241 H 18.4234 5.83557 -0.688149 0
M  V30 242 H 19.9474 6.10255 0.205238 0
M  V30 243 H 21.3614 5.39055 -1.95172 0
M  V30 244 H 19.7584 5.33834 -2.74119 0
M  V30 245 H 20.8284 3.92844 -2.84257 0
M  V30 246 N 22.1715 0.800033 1.35784 0
M  V30 247 C 23.1345 0.211565 2.28221 0
M  V30 248 C 24.1345 -0.59728 1.49296 0
M  V30 249 O 25.3245 -0.416721 1.69142 0
M  V30 250 C 22.4565 -0.705846 3.33513 0
M  V30 251 H 23.6495 1.02677 2.81776 0
M  V30 252 H 21.2025 0.570211 1.45528 0
M  V30 253 H 21.9375 -1.54498 2.85133 0
M  V30 254 H 21.7225 -0.127655 3.91892 0
M  V30 255 H 23.2125 -1.11211 4.02519 0
M  V30 256 N 23.6496 -1.47581 0.552962 0
M  V30 257 C 24.6126 -2.28439 -0.186605 0
M  V30 258 C 25.6126 -1.36706 -0.84665 0
M  V30 259 O 26.8026 -1.59378 -0.703164 0
M  V30 260 C 23.9346 -3.16264 -1.2724 0
M  V30 261 H 25.1276 -2.95294 0.523609 0
M  V30 262 H 22.6806 -1.532 0.309745 0
M  V30 263 H 23.4156 -2.54091 -2.01514 0
M  V30 264 H 23.2006 -3.83769 -0.803968 0
M  V30 265 H 24.6906 -3.77198 -1.79196 0
M  V30 266 N 25.1277 -0.289203 -1.54924 0
M  V30 267 C 26.3737 0.323998 -2.00195 0
M  V30 268 C 26.7067 1.54441 -1.17735 0
M  V30 269 O 25.9817 1.92875 -0.250878 0
M  V30 270 C 26.2647 0.692276 -3.53383 0
M  V30 271 C 26.1177 -0.536457 -4.46589 0
M  V30 272 C 27.4367 1.52335 -4.12895 0
M  V30 273 H 24.5557 0.116289 -0.727768 0
M  V30 274 H 27.1977 -0.398954 -1.85764 0
M  V30 275 H 25.3477 1.30822 -3.65811 0
M  V30 276 H 27.0197 -1.17499 -4.46085 0
M  V30 277 H 25.2627 -1.17192 -4.1767 0
M  V30 278 H 25.9337 -0.234806 -5.515 0
M  V30 279 H 28.4097 1.00302 -4.0383 0
M  V30 280 H 27.2857 1.74982 -5.20262 0
M  V30 281 H 27.5467 2.50886 -3.64018 0
M  V30 282 N 26.6058 1.57591 -0.0167156 0
M  V30 283 C 27.8518 1.91567 0.665582 0
M  V30 284 C 28.1848 0.892298 1.72487 0
M  V30 285 O 27.4598 -0.0867127 1.94307 0
M  V30 286 C 27.7428 3.36069 1.29342 0
M  V30 287 C 27.5958 4.49135 0.244541 0
M  V30 288 C 28.9148 3.803 2.21495 0
M  V30 289 H 26.0338 0.69666 0.240488 0
M  V30 290 H 28.6758 1.89866 -0.0714356 0
M  V30 291 H 26.8258 3.3765 1.92158 0
M  V30 292 H 28.4978 4.59689 -0.385228 0
M  V30 293 H 26.7408 4.3165 -0.431379 0
M  V30 294 H 27.4118 5.47242 0.723207 0
M  V30 295 H 29.8878 3.80377 1.68678 0
M  V30 296 H 28.7638 4.82127 2.62382 0
M  V30 297 H 29.0248 3.15104 3.101 0
M  V30 298 N 28.0839 -0.256276 1.55502 0
M  V30 299 C 29.3089 -1.00766 1.81276 0
M  V30 300 C 29.7339 -1.78524 0.59252 0
M  V30 301 O 29.0919 -1.75413 -0.45827 0
M  V30 302 C 29.1399 -1.92869 3.04687 0
M  V30 303 O 28.2439 -3.019 2.80945 0
M  V30 304 H 27.5849 -0.287224 0.598664 0
M  V30 305 H 30.1149 -0.280109 2.02674 0
M  V30 306 H 30.1249 -2.34511 3.33869 0
M  V30 307 H 28.7999 -1.35689 3.93143 0
M  V30 308 H 27.3769 -2.64454 2.62904 0
M  V30 309 N 29.562 -1.4872 -0.521534 0
M  V30 310 C 30.81 -1.56857 -1.27437 0
M  V30 311 C 31.131 -0.247982 -1.93417 0
M  V30 312 O 30.401 0.731151 -1.81744 0
M  V30 313 H 28.981 -0.577885 -0.473347 0
M  V30 314 H 31.643 -1.85233 -0.606205 0
M  V30 315 H 30.739 -2.35402 -2.0492 0
M  V30 316 N 31.0401 0.771051 -1.3745 0
M  V30 317 C 32.2891 1.52491 -1.3202 0
M  V30 318 C 32.6021 1.9538 0.0927347 0
M  V30 319 O 33.8081 2.70159 0.269503 0
M  V30 320 C 32.2641 2.75366 -2.31736 0
M  V30 321 C 31.8721 2.39573 -3.78562 0
M  V30 322 C 33.6161 3.53307 -2.35318 0
M  V30 323 C 31.5231 3.58954 -4.70007 0
M  V30 324 H 30.4531 0.572506 -0.490666 0
M  V30 325 H 33.1041 0.844474 -1.62914 0
M  V30 326 H 31.4861 3.45303 -1.93861 0
M  V30 327 H 32.6601 1.77415 -4.25277 0
M  V30 328 H 30.9751 1.74805 -3.77932 0
M  V30 329 H 33.5721 4.42039 -3.00842 0
M  V30 330 H 33.9151 3.93217 -1.36698 0
M  V30 331 H 34.4481 2.90367 -2.71904 0
M  V30 332 H 31.1871 3.24125 -5.69757 0
M  V30 333 H 30.7071 4.20214 -4.27996 0
M  V30 334 H 32.3861 4.25758 -4.87175 0
M  V30 335 N 32.5182 1.22032 0.997298 0
M  V30 336 C 33.4812 0.987909 2.06816 0
M  V30 337 C 34.4812 -0.0440084 1.6074 0
M  V30 338 O 35.6712 0.194053 1.73116 0
M  V30 339 C 32.8032 0.49132 3.37341 0
M  V30 340 H 33.9962 1.93803 2.28868 0
M  V30 341 H 31.5492 1.03838 1.16822 0
M  V30 342 H 32.2842 -0.463364 3.20973 0
M  V30 343 H 32.0692 1.23575 3.72118 0
M  V30 344 H 33.5592 0.348824 4.16141 0
M  V30 345 N 33.9963 -1.19345 1.0293 0
M  V30 346 C 35.2443 -1.88665 0.724574 0
M  V30 347 C 35.5653 -1.80036 -0.749144 0
M  V30 348 O 34.8353 -1.2111 -1.53978 0
M  V30 349 H 33.4153 -0.698406 0.265025 0
M  V30 350 H 36.0773 -1.44885 1.30362 0
M  V30 351 H 35.1733 -2.94987 1.01926 0
M  V30 352 N 35.4744 -0.807222 -1.35358 0
M  V30 353 C 36.4044 -0.232509 -2.3234 0
M  V30 354 C 37.3854 0.642386 -1.57504 0
M  V30 355 O 38.5704 0.572526 -1.85569 0
M  V30 356 C 35.7004 0.619238 -3.41735 0
M  V30 357 C 34.6544 -0.157215 -4.27711 0
M  V30 358 C 33.9804 0.816273 -5.28433 0
M  V30 359 C 35.2804 -1.35656 -5.04376 0
M  V30 360 H 36.9744 -1.04276 -2.80654 0
M  V30 361 H 34.5204 -0.50288 -1.34934 0
M  V30 362 H 36.4734 1.03137 -4.08584 0
M  V30 363 H 35.1974 1.46239 -2.92031 0
M  V30 364 H 33.8564 -0.550525 -3.62443 0
M  V30 365 H 33.5044 1.65494 -4.74996 0
M  V30 366 H 33.2044 0.301067 -5.86828 0
M  V30 367 H 34.7284 1.22659 -5.98153 0
M  V30 368 H 36.1424 -1.01927 -5.64166 0
M  V30 369 H 34.5394 -1.8063 -5.7227 0
M  V30 370 H 35.6094 -2.14288 -4.34981 0
M  V30 371 N 36.9525 1.47285 -0.560781 0
M  V30 372 C 37.8825 2.32857 0.173105 0
M  V30 373 C 38.8635 1.44009 0.905281 0
M  V30 374 O 40.0485 1.7286 0.885046 0
M  V30 375 C 37.1785 3.25861 1.20133 0
M  V30 376 C 36.1325 4.23978 0.585388 0
M  V30 377 C 35.4585 5.06332 1.7185 0
M  V30 378 C 36.7585 5.20242 -0.463178 0
M  V30 379 H 38.4525 2.94466 -0.541307 0
M  V30 380 H 35.9985 1.41601 -0.261764 0
M  V30 381 H 37.9515 3.84569 1.72293 0
M  V30 382 H 36.6755 2.62315 1.94573 0
M  V30 383 H 35.3345 3.66501 0.085054 0
M  V30 384 H 34.9825 4.39186 2.45203 0
M  V30 385 H 34.6825 5.72762 1.31213 0
M  V30 386 H 36.2065 5.67899 2.24329 0
M  V30 387 H 37.6205 5.73293 -0.027502 0
M  V30 388 H 36.0175 5.94896 -0.788627 0
M  V30 389 H 37.0875 4.65504 -1.35773 0
M  V30 390 N 38.4306 0.297415 1.54768 0
M  V30 391 C 39.3606 -0.573494 2.26348 0
M  V30 392 C 40.3416 -1.14085 1.26169 0
M  V30 393 O 41.5266 -1.17086 1.54934 0
M  V30 394 C 38.6566 -1.74716 3.00153 0
M  V30 395 C 37.6106 -1.31032 4.07449 0
M  V30 396 C 36.9366 -2.56887 4.68949 0
M  V30 397 C 38.2366 -0.444183 5.20408 0
M  V30 398 H 39.9306 0.0235131 2.99391 0
M  V30 399 H 37.4766 0.0127488 1.43994 0
M  V30 400 H 39.4296 -2.3625 3.48947 0
M  V30 401 H 38.1536 -2.37035 2.24682 0
M  V30 402 H 36.8126 -0.718066 3.59499 0
M  V30 403 H 36.4606 -3.17512 3.90122 0
M  V30 404 H 36.1606 -2.2836 5.41411 0
M  V30 405 H 37.6846 -3.19229 5.20505 0
M  V30 406 H 39.0986 -0.9651 5.65118 0
M  V30 407 H 37.4956 -0.252846 5.99567 0
M  V30 408 H 38.5656 0.531609 4.81977 0
M  V30 409 N 39.9087 -1.5758 0.0250728 0
M  V30 410 C 41.1487 -1.93497 -0.65865 0
M  V30 411 C 41.5127 -0.901409 -1.69525 0
M  V30 412 O 42.7137 -1.14664 -2.43116 0
M  V30 413 C 40.9847 -3.34352 -1.26267 0
M  V30 414 S 42.5437 -3.92191 -1.96803 0
M  V30 415 H 39.3617 -0.67709 -0.216958 0
M  V30 416 H 41.9637 -1.95303 0.0877692 0
M  V30 417 H 40.6677 -4.07395 -0.495741 0
M  V30 418 H 40.1987 -3.3598 -2.04648 0
M  V30 419 H 42.2137 -3.75298 -3.24601 0
M  V30 420 N 41.3868 0.248026 -1.55636 0
M  V30 421 C 42.6348 0.974295 -1.77065 0
M  V30 422 C 42.9558 1.85897 -0.588849 0
M  V30 423 O 42.2258 1.91868 0.395407 0
M  V30 424 H 40.8058 0.362733 -0.653019 0
M  V30 425 H 43.4678 0.266244 -1.93073 0
M  V30 426 H 42.5638 1.59667 -2.68166 0
M  V30 427 N 42.8649 1.48995 0.513639 0
M  V30 428 C 44.1139 1.57093 1.2651 0
M  V30 429 C 44.4269 0.257091 1.93903 0
M  V30 430 O 45.6329 0.216478 2.70636 0
M  V30 431 C 44.0889 2.77118 2.29638 0
M  V30 432 C 43.6969 4.15209 1.68241 0
M  V30 433 C 45.4409 2.94538 3.05692 0
M  V30 434 C 43.3479 5.26474 2.69406 0
M  V30 435 H 42.2779 0.584876 0.475854 0
M  V30 436 H 44.9289 1.7536 0.540487 0
M  V30 437 H 43.3109 2.52319 3.05207 0
M  V30 438 H 44.4849 4.50094 0.987505 0
M  V30 439 H 42.7999 4.03042 1.04623 0
M  V30 440 H 45.3969 3.74832 3.8132 0
M  V30 441 H 45.7399 2.04614 3.62545 0
M  V30 442 H 46.2729 3.19316 2.37238 0
M  V30 443 H 43.0119 6.18417 2.17351 0
M  V30 444 H 42.5319 4.96058 3.37175 0
M  V30 445 H 44.2109 5.55277 3.32078 0
M  V30 446 N 44.343 -0.763751 1.37857 0
M  V30 447 C 45.589 -1.52483 1.33704 0
M  V30 448 C 45.922 -1.94051 -0.0759612 0
M  V30 449 O 45.197 -1.64675 -1.03501 0
M  V30 450 C 45.48 -2.78441 2.28348 0
M  V30 451 C 45.333 -2.43075 3.78463 0
M  V30 452 C 46.652 -3.80415 2.21298 0
M  V30 453 H 43.771 -0.553169 0.487005 0
M  V30 454 H 46.413 -0.875562 1.68624 0
M  V30 455 H 44.563 -3.33842 1.987 0
M  V30 456 H 46.235 -1.93527 4.18742 0
M  V30 457 H 44.478 -1.75666 3.96641 0
M  V30 458 H 45.149 -3.33149 4.40132 0
M  V30 459 H 47.625 -3.34527 2.47449 0
M  V30 460 H 46.501 -4.66257 2.89647 0
M  V30 461 H 46.762 -4.25262 1.20849 0
M  V30 462 N 45.8211 -1.22559 -0.990812 0
M  V30 463 C 47.2321 -1.04791 -1.54518 0
M  V30 464 C 47.5831 0.387998 -1.92325 0
M  V30 465 O 46.7081 1.27328 -1.74976 0
M  V30 466 C 47.3031 -1.896 -2.80779 0
M  V30 467 C 45.8621 -1.76124 -3.32652 0
M  V30 468 C 45.0091 -1.8594 -2.05722 0
M  V30 469 H 47.9601 -1.36374 -0.811662 0
M  V30 470 H 47.9811 -1.41464 -3.53225 0
M  V30 471 H 47.4931 -2.94101 -2.53231 0
M  V30 472 H 45.5941 -0.743643 -3.65104 0
M  V30 473 H 45.7071 -2.58913 -4.03114 0
M  V30 474 H 44.0711 -1.29403 -2.19379 0
M  V30 475 H 44.8541 -2.91976 -1.80568 0
M  V30 476 N 47.2992 1.18797 -1.03562 0
M  V30 477 C 48.2292 2.24472 -0.643019 0
M  V30 478 C 49.2102 1.66433 0.351283 0
M  V30 479 O 50.3952 1.92803 0.232505 0
M  V30 480 C 47.5252 3.473 4.24935e-05 0
M  V30 481 C 46.4792 4.18055 -0.917257 0
M  V30 482 C 45.8052 5.34519 -0.138941 0
M  V30 483 C 47.1052 4.72109 -2.23407 0
M  V30 484 H 48.7992 2.57566 -1.52643 0
M  V30 485 H 46.3452 1.23806 -0.735394 0
M  V30 486 H 48.2982 4.20426 0.286383 0
M  V30 487 H 47.0222 3.13424 0.918299 0
M  V30 488 H 45.6812 3.46821 -1.1879 0
M  V30 489 H 45.3292 4.96891 0.781562 0
M  V30 490 H 45.0292 5.82794 -0.750005 0
M  V30 491 H 46.5532 6.10438 0.1405 0
M  V30 492 H 47.9672 5.36955 -2.00879 0
M  V30 493 H 46.3642 5.30897 -2.79765 0
M  V30 494 H 47.4342 3.89807 -2.88407 0
M  V30 495 N 48.7773 0.814389 1.34928 0
M  V30 496 C 49.7073 0.244827 2.32213 0
M  V30 497 C 50.6883 -0.634024 1.57842 0
M  V30 498 O 51.8733 -0.562676 1.8587 0
M  V30 499 C 49.0033 -0.601106 3.42058 0
M  V30 500 C 47.9573 0.179896 4.27622 0
M  V30 501 C 47.2833 -0.788237 5.28858 0
M  V30 502 C 48.5833 1.38329 5.03649 0
M  V30 503 H 50.2773 1.05763 2.80097 0
M  V30 504 H 47.8233 0.510029 1.34665 0
M  V30 505 H 49.7763 -1.00968 4.09125 0
M  V30 506 H 48.5003 -1.44688 2.92802 0
M  V30 507 H 47.1593 0.569739 3.62146 0
M  V30 508 H 46.8073 -1.62973 4.75866 0
M  V30 509 H 46.5073 -0.269942 5.8698 0
M  V30 510 H 48.0313 -1.19485 5.98795 0
M  V30 511 H 49.4453 1.04918 5.63618 0
M  V30 512 H 47.8423 1.83662 5.71304 0
M  V30 513 H 48.9123 2.16592 4.33839 0
M  V30 514 N 50.2554 -1.46986 0.568584 0
M  V30 515 C 51.6664 -1.86188 0.138219 0
M  V30 516 C 52.0174 -1.47388 -1.29504 0
M  V30 517 O 51.1424 -0.88219 -1.97602 0
M  V30 518 C 51.7374 -3.3792 0.244065 0
M  V30 519 C 50.2964 -3.76171 -0.131335 0
M  V30 520 C 49.4434 -2.71027 0.586465 0
M  V30 521 H 52.3944 -1.38342 0.777645 0
M  V30 522 H 52.4154 -3.76729 -0.534351 0
M  V30 523 H 51.9274 -3.66128 1.28731 0
M  V30 524 H 50.0284 -3.5358 -1.17526 0
M  V30 525 H 50.1414 -4.78523 0.235146 0
M  V30 526 H 48.5054 -2.54684 0.0282722 0
M  V30 527 H 49.2884 -3.02077 1.63109 0
M  V30 528 N 51.7335 -0.305618 -1.54608 0
M  V30 529 C 52.9795 0.302746 -2.00528 0
M  V30 530 C 53.3125 1.53184 -1.19367 0
M  V30 531 O 52.5875 1.92598 -0.271321 0
M  V30 532 C 52.8705 0.654756 -3.54097 0
M  V30 533 C 52.7235 -0.583793 -4.45995 0
M  V30 534 C 54.0425 1.47947 -4.14487 0
M  V30 535 H 51.1615 0.108564 -0.72896 0
M  V30 536 H 53.8035 -0.418634 -1.85331 0
M  V30 537 H 51.9535 1.26935 -3.67178 0
M  V30 538 H 53.6255 -1.22224 -4.44814 0
M  V30 539 H 51.8685 -1.21615 -4.16404 0
M  V30 540 H 52.5395 -0.293287 -5.5122 0
M  V30 541 H 55.0155 0.96013 -4.04871 0
M  V30 542 H 53.8915 1.69454 -5.22088 0
M  V30 543 H 54.1525 2.47011 -3.66658 0
M  V30 544 N 53.2116 1.57565 -0.0334293 0
M  V30 545 C 54.1596 2.1164 0.96496 0
M  V30 546 C 55.1536 1.04398 1.33407 0
M  V30 547 O 56.3596 1.22828 1.3158 0
M  V30 548 H 52.7346 0.676222 0.32898 0
M  V30 549 H 54.7056 2.94455 0.483614 0
M  V30 550 C 53.4546 2.66207 2.23672 0
M  V30 551 H 52.7776 3.48378 1.96145 0
M  V30 552 H 54.2176 3.07685 2.9173 0
M  V30 553 C 52.6766 1.59151 2.96939 0
M  V30 554 O 53.2066 0.993858 3.89211 0
M  V30 555 N 51.4126 1.31093 2.59351 0
M  V30 556 H 50.9596 1.7988 1.84393 0
M  V30 557 H 50.9176 0.596889 3.08682 0
M  V30 558 N 54.6897 -0.239769 1.55765 0
M  V30 559 C 55.6217 -1.32001 1.87372 0
M  V30 560 C 56.6347 -1.43944 0.760522 0
M  V30 561 O 57.8237 -1.45167 1.0387 0
M  V30 562 C 54.9237 -2.69779 2.05115 0
M  V30 563 C 54.0967 -2.80014 3.36022 0
M  V30 564 C 53.1557 -3.98684 3.4342 0
M  V30 565 O 52.1817 -3.87877 4.16582 0
M  V30 566 N 53.3837 -5.12176 2.73232 0
M  V30 567 H 56.1487 -1.0522 2.80622 0
M  V30 568 H 53.7097 -0.429857 1.56089 0
M  V30 569 H 55.7017 -3.47517 2.07399 0
M  V30 570 H 54.2717 -2.89237 1.18577 0
M  V30 571 H 53.4917 -1.88896 3.45994 0
M  V30 572 H 54.7797 -2.83808 4.22292 0
M  V30 573 H 54.1777 -5.2385 2.13536 0
M  V30 574 H 52.7347 -5.88022 2.81199 0
M  V30 575 N 56.1678 -1.49265 -0.50573 0
M  V30 576 C 57.3958 -1.62215 -1.28429 0
M  V30 577 C 57.8108 -0.291697 -1.86533 0
M  V30 578 O 57.1678 0.722233 -1.67601 0
M  V30 579 C 57.2188 -2.68735 -2.41793 0
M  V30 580 O 56.9398 -3.96619 -1.86078 0
M  V30 581 C 58.4408 -2.92346 -3.3324 0
M  V30 582 H 55.6608 -0.546239 -0.389697 0
M  V30 583 H 58.2048 -1.95265 -0.607609 0
M  V30 584 H 56.3598 -2.38476 -3.053 0
M  V30 585 H 56.7738 -4.55256 -2.60465 0
M  V30 586 H 58.2478 -3.70623 -4.09075 0
M  V30 587 H 58.7248 -2.02081 -3.89948 0
M  V30 588 H 59.3308 -3.24003 -2.75503 0
M  V30 589 N 57.6459 0.756429 -1.3826 0
M  V30 590 C 58.8739 1.54565 -1.3754 0
M  V30 591 C 59.2889 1.88767 0.0355331 0
M  V30 592 O 58.6459 1.52572 1.0014 0
M  V30 593 C 58.6969 2.84654 -2.22833 0
M  V30 594 O 58.4179 2.51912 -3.5843 0
M  V30 595 C 59.9189 3.78807 -2.30261 0
M  V30 596 H 57.1389 0.478353 -0.470553 0
M  V30 597 H 59.6829 0.936381 -1.81803 0
M  V30 598 H 57.8379 3.41965 -1.8204 0
M  V30 599 H 58.2519 3.35325 -4.03308 0
M  V30 600 H 59.7259 4.67045 -2.94233 0
M  V30 601 H 60.2029 4.19038 -1.31545 0
M  V30 602 H 60.8089 3.2742 -2.71433 0
M  V30 603 N 59.124 1.23083 0.984299 0
M  V30 604 C 60.087 1.00979 2.05757 0
M  V30 605 C 61.087 -0.0269573 1.60777 0
M  V30 606 O 62.277 0.212403 1.729 0
M  V30 607 C 59.409 0.527072 3.36801 0
M  V30 608 H 60.602 1.9622 2.26799 0
M  V30 609 H 58.155 1.05072 1.15714 0
M  V30 610 H 58.89 -0.429294 3.21446 0
M  V30 611 H 58.675 1.27515 3.70786 0
M  V30 612 H 60.165 0.392942 4.15747 0
M  V30 613 N 60.6021 -1.18246 1.0419 0
M  V30 614 C 61.8301 -1.92195 0.766072 0
M  V30 615 C 62.2451 -1.76247 -0.676933 0
M  V30 616 O 61.6021 -1.09293 -1.46155 0
M  V30 617 C 61.6531 -3.43568 1.12442 0
M  V30 618 O 61.3741 -3.59015 2.51078 0
M  V30 619 C 62.8751 -4.34613 0.873275 0
M  V30 620 H 60.0951 -0.610114 0.279288 0
M  V30 621 H 62.6391 -1.50007 1.38989 0
M  V30 622 H 60.7941 -3.8354 0.545542 0
M  V30 623 H 61.2081 -4.5273 2.64831 0
M  V30 624 H 62.6821 -5.39374 1.17385 0
M  V30 625 H 63.1591 -4.38781 -0.191909 0
M  V30 626 H 63.7651 -4.00341 1.43551 0
M  V30 627 N 62.0802 -0.821533 -1.34494 0
M  V30 628 C 63.3292 -0.405355 -1.97585 0
M  V30 629 C 63.6422 1.03677 -1.65863 0
M  V30 630 O 64.8482 1.55679 -2.22433 0
M  V30 631 C 63.3042 -0.673861 -3.53535 0
M  V30 632 C 62.9122 -2.12951 -3.94152 0
M  V30 633 C 64.6562 -0.32378 -4.23263 0
M  V30 634 C 62.5632 -2.34298 -5.43009 0
M  V30 635 H 61.4932 -0.147836 -0.739365 0
M  V30 636 H 64.1442 -1.00769 -1.53355 0
M  V30 637 H 62.5262 -0.00137554 -3.96 0
M  V30 638 H 63.7002 -2.84104 -3.62797 0
M  V30 639 H 62.0152 -2.44089 -3.37356 0
M  V30 640 H 64.6122 -0.461126 -5.32708 0
M  V30 641 H 64.9552 0.731586 -4.09821 0
M  V30 642 H 65.4882 -0.950786 -3.8627 0
M  V30 643 H 62.2272 -3.38335 -5.61435 0
M  V30 644 H 61.7472 -1.67687 -5.75883 0
M  V30 645 H 63.4262 -2.16588 -6.09671 0
M  V30 646 N 63.5583 1.46682 -0.576371 0
M  V30 647 C 64.8053 2.02412 -0.0595339 0
M  V30 648 C 65.1333 1.44859 1.29793 0
M  V30 649 O 64.3883 0.601099 1.8624 0
M  V30 650 C 64.6873 3.57345 0.062886 0
M  V30 651 C 64.3533 4.33908 -1.22616 0
M  V30 652 C 63.0153 4.54544 -1.57933 0
M  V30 653 C 65.3673 4.77919 -2.07948 0
M  V30 654 C 62.6953 5.16444 -2.78393 0
M  V30 655 C 65.0473 5.41149 -3.27629 0
M  V30 656 C 63.7113 5.60014 -3.63236 0
M  V30 657 H 62.9813 0.74068 -0.021785 0
M  V30 658 H 65.6283 1.76128 -0.751735 0
M  V30 659 H 63.9333 3.82729 0.838178 0
M  V30 660 H 65.6303 3.98136 0.478439 0
M  V30 661 H 62.2203 4.18138 -0.941202 0
M  V30 662 H 66.4043 4.61738 -1.81967 0
M  V30 663 H 61.6603 5.29242 -3.06126 0
M  V30 664 H 65.8343 5.74211 -3.94023 0
M  V30 665 H 63.4613 6.07748 -4.56669 0
M  V30 666 N 65.0364 0.313813 1.54444 0
M  V30 667 C 66.2824 -0.284918 2.01395 0
M  V30 668 C 66.6374 -1.50537 1.19818 0
M  V30 669 O 65.9304 -1.89692 0.269748 0
M  V30 670 C 66.1244 -0.680386 3.50864 0
M  V30 671 C 65.9534 0.500198 4.4691 0
M  V30 672 C 64.7234 0.996248 4.95382 0
M  V30 673 C 66.9214 1.34928 4.96285 0
M  V30 674 N 64.9034 2.14226 5.75309 0
M  V30 675 C 66.2744 2.3426 5.7404 0
M  V30 676 C 68.3294 1.37818 4.78446 0
M  V30 677 C 67.0324 3.36272 6.35856 0
M  V30 678 C 69.0584 2.38695 5.4109 0
M  V30 679 C 68.4204 3.36755 6.18688 0
M  V30 680 H 64.5194 -0.0683689 0.779006 0
M  V30 681 H 67.1034 0.44664 1.89508 0
M  V30 682 H 65.2744 -1.38109 3.63016 0
M  V30 683 H 67.0064 -1.25975 3.84594 0
M  V30 684 H 63.7614 0.56912 4.70168 0
M  V30 685 H 64.1854 2.72005 6.19953 0
M  V30 686 H 68.8274 0.633747 4.18023 0
M  V30 687 H 66.5454 4.11627 6.95405 0
M  V30 688 H 70.1314 2.41721 5.29209 0
M  V30 689 H 69.0114 4.13535 6.66302 0
M  V30 690 N 66.5145 -1.57545 0.0417849 0
M  V30 691 C 67.9255 -1.80011 -0.495259 0
M  V30 692 C 68.2765 -0.953199 -1.71489 0
M  V30 693 O 67.4015 -0.167138 -2.15754 0
M  V30 694 C 67.9965 -3.26482 -0.905265 0
M  V30 695 C 66.5555 -3.499 -1.38734 0
M  V30 696 C 65.7025 -2.74979 -0.358056 0
M  V30 697 H 68.6535 -1.56425 0.267736 0
M  V30 698 H 68.6745 -3.36887 -1.76882 0
M  V30 699 H 68.1865 -3.88096 -0.017401 0
M  V30 700 H 66.2875 -2.93553 -2.29471 0
M  V30 701 H 66.4005 -4.58615 -1.38598 0
M  V30 702 H 64.7645 -2.40834 -0.828912 0
M  V30 703 H 65.5475 -3.39315 0.521561 0
M  V30 704 N 67.9926 0.231505 -1.5589 0
M  V30 705 C 68.9246 1.31006 -1.8807 0
M  V30 706 C 69.9376 1.43539 -0.768145 0
M  V30 707 O 71.1266 1.44614 -1.04638 0
M  V30 708 C 68.2266 2.68688 -2.06543 0
M  V30 709 C 67.3996 2.78228 -3.37502 0
M  V30 710 C 66.4586 3.96857 -3.4553 0
M  V30 711 O 65.4846 3.85662 -4.18633 0
M  V30 712 N 66.6866 5.1072 -2.75944 0
M  V30 713 H 69.4516 1.03731 -2.81176 0
M  V30 714 H 67.0126 0.421573 -1.56315 0
M  V30 715 H 69.0046 3.46412 -2.09239 0
M  V30 716 H 67.5746 2.88605 -1.20109 0
M  V30 717 H 66.7946 1.87059 -3.46991 0
M  V30 718 H 68.0826 2.81564 -4.23791 0
M  V30 719 H 67.4806 5.2271 -2.16311 0
M  V30 720 H 66.0376 5.86523 -2.84314 0
M  V30 721 N 69.4707 1.49531 0.497807 0
M  V30 722 C 70.7187 1.58865 1.24926 0
M  V30 723 C 71.0397 0.278721 1.92998 0
M  V30 724 O 70.3097 -0.702144 1.82885 0
M  V30 725 H 68.8897 0.585343 0.464094 0
M  V30 726 H 71.5517 1.86174 0.57666 0
M  V30 727 H 70.6477 2.38633 2.01149 0
M  V30 728 N 70.9488 -0.749086 1.3866 0
M  V30 729 C 72.1738 -1.54344 1.38538 0
M  V30 730 C 72.5988 -1.88088 -0.0216655 0
M  V30 731 O 71.9568 -1.50899 -1.00494 0
M  V30 732 C 72.0048 -2.8164 2.25192 0
M  V30 733 O 71.1088 -3.7698 1.67212 0
M  V30 734 H 70.4498 -0.466654 0.472367 0
M  V30 735 H 72.9798 -0.925355 1.82478 0
M  V30 736 H 72.9898 -3.30519 2.3921 0
M  V30 737 H 71.6648 -2.56411 3.27454 0
M  V30 738 H 70.2418 -3.35699 1.6236 0
M  V30 739 N 72.4269 -1.23603 -0.977757 0
M  V30 740 C 73.6549 -1.09646 -1.75458 0
M  V30 741 C 74.0699 0.351859 -1.85492 0
M  V30 742 O 73.4269 1.24327 -1.336 0
M  V30 743 C 73.4779 -1.71895 -3.18016 0
M  V30 744 O 73.1989 -3.11063 -3.08498 0
M  V30 745 C 74.6999 -1.63415 -4.12081 0
M  V30 746 H 71.9199 -0.38359 -0.550545 0
M  V30 747 H 74.4639 -1.63507 -1.22824 0
M  V30 748 H 72.6189 -1.22061 -3.67668 0
M  V30 749 H 73.0329 -3.41305 -3.9826 0
M  V30 750 H 74.5069 -2.11669 -5.09804 0
M  V30 751 H 74.9839 -0.593462 -4.35172 0
M  V30 752 H 75.5899 -2.12628 -3.68334 0
M  V30 753 N 73.905 1.17692 -1.04816 0
M  V30 754 C 74.868 2.19787 -0.650117 0
M  V30 755 C 75.868 1.58044 0.296427 0
M  V30 756 O 77.058 1.74012 0.0808097 0
M  V30 757 C 74.19 3.40869 0.0456987 0
M  V30 758 H 75.383 2.56516 -1.5537 0
M  V30 759 H 72.936 1.31708 -0.841594 0
M  V30 760 H 73.671 3.09681 0.962726 0
M  V30 761 H 73.456 3.86928 -0.634727 0
M  V30 762 H 74.946 4.16445 0.310432 0
M  V30 763 N 75.3831 0.828654 1.34056 0
M  V30 764 C 76.6601 0.341809 1.9259 0
M  V30 765 C 77.0401 -1.17158 1.75605 0
M  V30 766 O 76.3881 -1.98132 1.13824 0
M  V30 767 C 76.5981 0.777453 3.4023 0
M  V30 768 C 77.9461 0.779579 4.17382 0
M  V30 769 O 78.9701 0.7204 3.48839 0
M  V30 770 O 77.8291 0.857996 5.39723 0
M  V30 771 H 74.9231 0.0946085 0.821571 0
M  V30 772 H 77.4691 0.913827 1.42994 0
M  V30 773 H 76.2411 1.8196 3.46419 0
M  V30 774 H 75.8641 0.181444 3.97186 0
M  V30 775 N 76.8612 -1.46375 0.584142 0
M  V30 776 C 78.1092 -2.01978 0.0701287 0
M  V30 777 C 78.4302 -1.4579 -1.295 0
M  V30 778 O 77.7002 -0.64314 -1.85042 0
M  V30 779 H 76.2802 -0.746648 0.0229345 0
M  V30 780 H 78.9422 -1.79461 0.760245 0
M  V30 781 H 78.0382 -3.121 0.0022064 0
M  V30 782 N 78.3393 -0.321999 -1.54275 0
M  V30 783 C 79.2873 0.560206 -2.25753 0
M  V30 784 C 80.2813 1.11984 -1.27106 0
M  V30 785 O 81.4873 1.06806 -1.44888 0
M  V30 786 H 77.8623 0.199304 -0.725108 0
M  V30 787 H 79.8333 -0.0649365 -2.98329 0
M  V30 788 C 78.5823 1.71023 -3.02731 0
M  V30 789 H 77.9053 1.28885 -3.78456 0
M  V30 790 H 79.3453 2.30314 -3.55993 0
M  V30 791 C 77.8043 2.62692 -2.10938 0
M  V30 792 O 78.3343 3.64364 -1.6912 0
M  V30 793 N 76.5403 2.30891 -1.76459 0
M  V30 794 H 76.0873 1.48253 -2.10663 0
M  V30 795 H 76.0453 2.92487 -1.1532 0
M  V30 796 N 79.8174 1.5752 -0.0501392 0
M  V30 797 C 81.0664 1.91827 0.623328 0
M  V30 798 C 81.3794 0.930222 1.72065 0
M  V30 799 O 82.5854 1.1653 2.4522 0
M  V30 800 C 81.0414 3.40692 1.16003 0
M  V30 801 C 80.6494 4.479 0.0948811 0
M  V30 802 C 82.3934 3.84034 1.80881 0
M  V30 803 C 80.3004 5.87879 0.644411 0
M  V30 804 H 79.2304 0.715918 0.236596 0
M  V30 805 H 81.8814 1.83115 -0.118861 0
M  V30 806 H 80.2634 3.44405 1.9545 0
M  V30 807 H 81.4374 4.55775 -0.678675 0
M  V30 808 H 79.7524 4.13892 -0.45637 0
M  V30 809 H 82.3494 4.85984 2.22988 0
M  V30 810 H 82.6924 3.20225 2.6601 0
M  V30 811 H 83.2254 3.82833 1.0809 0
M  V30 812 H 79.9644 6.55282 -0.169229 0
M  V30 813 H 79.4844 5.83567 1.38598 0
M  V30 814 H 81.1634 6.37098 1.12763 0
M  V30 815 N 81.2955 -0.223234 1.56011 0
M  V30 816 C 82.5235 -0.964812 1.83027 0
M  V30 817 C 82.9385 -1.78013 0.62904 0
M  V30 818 O 82.2955 -1.78008 -0.402414 0
M  V30 819 C 82.3465 -1.88373 3.08542 0
M  V30 820 O 82.0675 -1.10137 4.2403 0
M  V30 821 C 83.5685 -2.73934 3.48533 0
M  V30 822 H 80.7885 -0.282842 0.608475 0
M  V30 823 H 83.3325 -0.238971 2.03099 0
M  V30 824 H 81.4875 -2.56354 2.9045 0
M  V30 825 H 81.9015 -1.72501 4.95322 0
M  V30 826 H 83.3755 -3.34117 4.39397 0
M  V30 827 H 83.8525 -3.46244 2.70207 0
M  V30 828 H 84.4585 -2.11369 3.69057 0
M  V30 829 N 82.7736 -1.49793 -0.48987 0
M  V30 830 C 83.7056 -1.63413 -1.60713 0
M  V30 831 C 84.7186 -0.516329 -1.54395 0
M  V30 832 O 85.9076 -0.788812 -1.60125 0
M  V30 833 C 83.0076 -1.58516 -2.99543 0
M  V30 834 C 82.1806 -2.86016 -3.30928 0
M  V30 835 C 81.2396 -2.74018 -4.49222 0
M  V30 836 O 80.2656 -3.47964 -4.50455 0
M  V30 837 N 81.4676 -1.86309 -5.4979 0
M  V30 838 H 84.2326 -2.59777 -1.49452 0
M  V30 839 H 81.7936 -1.47022 -0.677955 0
M  V30 840 H 83.7856 -1.48128 -3.76617 0
M  V30 841 H 82.3556 -0.69965 -3.0467 0
M  V30 842 H 81.5756 -3.10672 -2.42645 0
M  V30 843 H 82.8636 -3.70521 -3.487 0
M  V30 844 H 82.2616 -1.2551 -5.51601 0
M  V30 845 H 80.8186 -1.81837 -6.25922 0
M  V30 846 N 84.2517 0.741722 -1.39055 0
M  V30 847 C 85.5007 1.49656 -1.35225 0
M  V30 848 C 85.8137 1.95533 0.0512708 0
M  V30 849 O 87.0197 2.7067 0.212138 0
M  V30 850 C 85.4757 2.70389 -2.37525 0
M  V30 851 C 85.0837 2.31489 -3.83558 0
M  V30 852 C 86.8277 3.48236 -2.42759 0
M  V30 853 C 84.7347 3.48903 -4.77515 0
M  V30 854 H 83.6647 0.56197 -0.502699 0
M  V30 855 H 86.3157 0.809727 -1.64668 0
M  V30 856 H 84.6977 3.41113 -2.01142 0
M  V30 857 H 85.8717 1.68354 -4.28945 0
M  V30 858 H 84.1867 1.66749 -3.81554 0
M  V30 859 H 86.7837 4.35558 -3.1015 0
M  V30 860 H 87.1267 3.90229 -1.45008 0
M  V30 861 H 87.6597 2.84535 -2.78002 0
M  V30 862 H 84.3987 3.11966 -5.76504 0
M  V30 863 H 83.9187 4.11041 -4.36813 0
M  V30 864 H 85.5977 4.15328 -4.96096 0
M  V30 865 N 85.7298 1.2412 0.971189 0
M  V30 866 C 86.9578 1.10575 1.74874 0
M  V30 867 C 87.3728 -0.342017 1.85676 0
M  V30 868 O 86.7298 -1.23617 1.34258 0
M  V30 869 C 86.7808 1.73579 3.171 0
M  V30 870 O 86.5018 3.12695 3.06844 0
M  V30 871 C 88.0028 1.65598 4.11208 0
M  V30 872 H 85.2228 0.386504 0.548503 0
M  V30 873 H 87.7668 1.64156 1.21955 0
M  V30 874 H 85.9218 1.24009 3.67016 0
M  V30 875 H 86.3358 3.43412 3.96445 0
M  V30 876 H 87.8098 2.1437 5.08674 0
M  V30 877 H 88.2868 0.616532 4.34851 0
M  V30 878 H 88.8928 2.14578 3.67201 0
M  V30 879 N 87.2079 -1.17134 1.05439 0
M  V30 880 C 88.1709 -2.19439 0.661764 0
M  V30 881 C 89.1709 -1.58199 -0.288042 0
M  V30 882 O 90.3609 -1.74053 -0.0715803 0
M  V30 883 C 87.4929 -3.40889 -0.0276209 0
M  V30 884 H 88.6859 -2.55688 1.56728 0
M  V30 885 H 86.2389 -1.31259 0.848567 0
M  V30 886 H 86.9739 -3.10187 -0.94629 0
M  V30 887 H 86.7589 -3.86586 0.655238 0
M  V30 888 H 88.2489 -4.16603 -0.288342 0
M  V30 889 N 88.686 -0.835752 -1.33615 0
M  V30 890 C 90.097 -0.487099 -1.80234 0
M  V30 891 C 90.448 0.993627 -1.69179 0
M  V30 892 O 89.573 1.77403 -1.23924 0
M  V30 893 C 90.168 -0.877385 -3.27242 0
M  V30 894 C 88.727 -0.580915 -3.7189 0
M  V30 895 C 87.874 -1.0874 -2.5509 0
M  V30 896 H 90.825 -1.02474 -1.2118 0
M  V30 897 H 90.846 -0.186195 -3.80044 0
M  V30 898 H 90.358 -1.95512 -3.35256 0
M  V30 899 H 88.459 0.486881 -3.69405 0
M  V30 900 H 88.572 -1.13396 -4.65487 0
M  V30 901 H 86.936 -0.508392 -2.49575 0
M  V30 902 H 87.719 -2.17184 -2.65868 0
M  V30 903 N 90.1641 1.46063 -0.591896 0
M  V30 904 C 91.0941 2.33172 0.123673 0
M  V30 905 C 92.0751 1.45897 0.87453 0
M  V30 906 O 93.2601 1.74698 0.848181 0
M  V30 907 C 90.3901 3.28336 1.13194 0
M  V30 908 C 89.3441 4.25124 0.495324 0
M  V30 909 C 88.6701 5.09863 1.61071 0
M  V30 910 C 89.9701 5.19143 -0.573425 0
M  V30 911 H 91.6641 2.93252 -0.603646 0
M  V30 912 H 89.2101 1.41014 -0.291741 0
M  V30 913 H 91.1631 3.88137 1.64097 0
M  V30 914 H 89.8871 2.66383 1.88965 0
M  V30 915 H 88.5461 3.66599 0.00729452 0
M  V30 916 H 88.1941 4.44288 2.35832 0
M  V30 917 H 87.8941 5.75417 1.19035 0
M  V30 918 H 89.4181 5.72529 2.12233 0
M  V30 919 H 90.8321 5.73106 -0.1491 0
M  V30 920 H 89.2291 5.93089 -0.914636 0
M  V30 921 H 90.2991 4.62519 -1.45617 0
M  V30 922 N 91.6422 0.330177 1.54103 0
M  V30 923 C 92.8882 -0.270806 2.00984 0
M  V30 924 C 93.2212 -1.51265 1.21789 0
M  V30 925 O 92.4962 -1.92142 0.301927 0
M  V30 926 C 92.7792 -0.598339 3.55094 0
M  V30 927 C 92.6322 0.654674 4.4501 0
M  V30 928 C 93.9512 -1.41334 4.16789 0
M  V30 929 H 91.0702 -0.0969531 0.730595 0
M  V30 930 H 93.7122 0.448066 1.84641 0
M  V30 931 H 91.8622 -1.21078 3.69151 0
M  V30 932 H 93.5342 1.29285 4.42813 0
M  V30 933 H 91.7772 1.28224 4.14416 0
M  V30 934 H 92.4482 0.380944 5.50684 0
M  V30 935 H 94.9242 -0.895597 4.06347 0
M  V30 936 H 93.8002 -1.61127 5.24718 0
M  V30 937 H 94.0612 -2.41146 3.70541 0
M  V30 938 N 93.1203 -1.57491 0.0584922 0
M  V30 939 C 94.3453 -1.97711 -0.62652 0
M  V30 940 C 94.7703 -0.936132 -1.63151 0
M  V30 941 O 94.1283 0.099811 -1.81025 0
M  V30 942 C 94.1763 -3.36989 -1.28338 0
M  V30 943 O 93.2803 -3.35433 -2.39913 0
M  V30 944 H 92.6213 -0.643868 -0.162266 0
M  V30 945 H 95.1513 -2.04193 0.129064 0
M  V30 946 H 95.1613 -3.73879 -1.63335 0
M  V30 947 H 93.8363 -4.12289 -0.546889 0
M  V30 948 H 92.4133 -3.10298 -2.06809 0
M  V30 949 N 94.5984 0.214957 -1.56127 0
M  V30 950 C 95.8464 0.936518 -1.79091 0
M  V30 951 C 96.1674 1.84606 -0.628148 0
M  V30 952 O 95.4374 1.92664 0.35462 0
M  V30 953 H 94.0174 0.3488 -0.660566 0
M  V30 954 H 96.6794 0.22523 -1.93594 0
M  V30 955 H 95.7754 1.53943 -2.71492 0
M  V30 956 N 96.0765 1.50051 0.48192 0
M  V30 957 C 97.0395 1.67584 1.5636 0
M  V30 958 C 98.0395 0.546894 1.51214 0
M  V30 959 O 99.2295 0.813725 1.54026 0
M  V30 960 C 96.3615 1.691 2.96003 0
M  V30 961 H 97.5545 2.64078 1.42136 0
M  V30 962 H 95.1075 1.39369 0.707533 0
M  V30 963 H 95.8425 0.742589 3.15684 0
M  V30 964 H 95.6275 2.51105 3.01146 0
M  V30 965 H 97.1175 1.84656 3.74556 0
M  V30 966 N 97.5546 -0.734337 1.39446 0
M  V30 967 C 98.9656 -1.31264 1.32766 0
M  V30 968 C 99.3166 -1.96198 -0.00767497 0
M  V30 969 O 98.4416 -1.96346 -0.909796 0
M  V30 970 C 99.0366 -2.38682 2.4045 0
M  V30 971 C 97.5956 -2.92184 2.37288 0
M  V30 972 C 96.7426 -1.6576 2.22304 0
M  V30 973 H 99.6936 -0.531799 1.49525 0
M  V30 974 H 99.7146 -3.19087 2.07276 0
M  V30 975 H 99.2266 -1.91392 3.37625 0
M  V30 976 H 97.3276 -3.43752 1.43754 0
M  V30 977 H 97.4406 -3.45253 3.3217 0
M  V30 978 H 95.8046 -1.9012 1.69489 0
M  V30 979 H 96.5876 -1.20521 3.21449 0
M  V30 980 N 99.0327 -1.24633 -0.964593 0
M  V30 981 C 100.449 -1.01239 -1.2338 0
M  V30 982 C 100.649 0.2769 -1.99588 0
M  V30 983 O 99.7047 0.992241 -2.32187 0
M  V30 984 C 101.018 -2.22937 -2.01791 0
M  V30 985 C 102.566 -2.27594 -2.14872 0
M  V30 986 C 103.041 -3.48921 -2.96678 0
M  V30 987 N 104.532 -3.49257 -3.04259 0
M  V30 988 C 105.267 -4.39795 -3.67924 0
M  V30 989 N 104.763 -5.40591 -4.33281 0
M  V30 990 N 106.556 -4.275 -3.64966 0
M  V30 991 H 98.7067 -2.0748 -0.454502 0
M  V30 992 H 100.97 -0.910647 -0.26349 0
M  V30 993 H 100.676 -3.16587 -1.53184 0
M  V30 994 H 100.55 -2.25306 -3.02518 0
M  V30 995 H 102.937 -1.34473 -2.6268 0
M  V30 996 H 103.018 -2.2925 -1.13482 0
M  V30 997 H 102.662 -4.42359 -2.49562 0
M  V30 998 H 102.592 -3.4451 -3.98272 0
M  V30 999 H 105.083 -2.76337 -2.57771 0
M  V30 1000 H 105.396 -6.05904 -4.79687 0
M  V30 1001 H 103.741 -5.44475 -4.3194 0
M  V30 1002 H 106.932 -3.47987 -3.13086 0
M  V30 1003 H 107.105 -4.98258 -4.14298 0
M  V30 1004 N 100.511 1.16574 -1.06058 0
M  V30 1005 C 101.474 2.19085 -0.673392 0
M  V30 1006 C 102.474 1.5835 0.279648 0
M  V30 1007 O 103.664 1.74088 0.0623488 0
M  V30 1008 C 100.796 3.40899 0.00954234 0
M  V30 1009 H 101.989 2.54853 -1.58081 0
M  V30 1010 H 99.5418 1.30808 -0.855516 0
M  V30 1011 H 100.277 3.10684 0.929826 0
M  V30 1012 H 100.062 3.86233 -0.67573 0
M  V30 1013 H 101.552 4.1675 0.266245 0
M  V30 1014 N 101.989 0.842826 1.3317 0
M  V30 1015 C 102.919 0.294028 2.31641 0
M  V30 1016 C 103.9 -0.600401 1.59151 0
M  V30 1017 O 105.085 -0.523124 1.87022 0
M  V30 1018 C 102.215 -0.528416 3.43257 0
M  V30 1019 C 101.169 0.27056 4.27144 0
M  V30 1020 C 100.495 -0.675881 5.30411 0
M  V30 1021 C 101.795 1.48981 5.00602 0
M  V30 1022 H 103.489 1.11681 2.77791 0
M  V30 1023 H 101.035 0.538478 1.33553 0
M  V30 1024 H 102.988 -0.922674 4.11175 0
M  V30 1025 H 101.712 -1.38445 2.95805 0
M  V30 1026 H 100.371 0.646427 3.60856 0
M  V30 1027 H 100.019 -1.52842 4.79216 0
M  V30 1028 H 99.7189 -0.145374 5.8742 0
M  V30 1029 H 101.243 -1.06757 6.01195 0
M  V30 1030 H 102.657 1.16849 5.61266 0
M  V30 1031 H 101.054 1.95739 5.6728 0
M  V30 1032 H 102.124 2.25746 4.29147 0
M  V30 1033 N 103.467 -1.45747 0.599634 0
M  V30 1034 C 104.744 -1.95585 0.0240846 0
M  V30 1035 C 105.124 -1.54217 -1.44154 0
M  V30 1036 O 104.472 -0.800903 -2.14004 0
M  V30 1037 C 104.682 -3.48344 0.21385 0
M  V30 1038 C 106.03 -4.24504 0.0904902 0
M  V30 1039 O 107.054 -3.55911 0.143558 0
M  V30 1040 O 105.913 -5.46491 -0.0310766 0
M  V30 1041 H 103.007 -0.82602 -0.0402478 0
M  V30 1042 H 105.553 -1.55951 0.669139 0
M  V30 1043 H 104.325 -3.71397 1.23206 0
M  V30 1044 H 103.948 -3.9485 -0.466842 0
M  V30 1045 N 104.945 -0.338344 -1.53925 0
M  V30 1046 C 106.194 0.260732 -2.00008 0
M  V30 1047 C 106.507 1.52073 -1.23017 0
M  V30 1048 O 107.713 2.19672 -1.5955 0
M  V30 1049 C 106.169 0.51515 -3.56194 0
M  V30 1050 C 105.777 -0.728645 -4.42035 0
M  V30 1051 C 107.521 1.07337 -4.10706 0
M  V30 1052 C 105.428 -0.445315 -5.89721 0
M  V30 1053 H 104.358 0.101205 -0.747177 0
M  V30 1054 H 107.009 -0.452866 -1.77824 0
M  V30 1055 H 105.391 1.28932 -3.74423 0
M  V30 1056 H 106.565 -1.50352 -4.35581 0
M  V30 1057 H 104.88 -1.20813 -3.98489 0
M  V30 1058 H 107.477 1.30022 -5.18651 0
M  V30 1059 H 107.82 2.0273 -3.63602 0
M  V30 1060 H 108.353 0.360034 -3.96167 0
M  V30 1061 H 105.092 -1.36883 -6.41049 0
M  V30 1062 H 104.612 0.291569 -5.99091 0
M  V30 1063 H 106.291 -0.0606218 -6.46972 0
M  V30 1064 N 106.423 1.57458 -0.0668435 0
M  V30 1065 C 107.648 1.9804 0.616027 0
M  V30 1066 C 108.073 0.944771 1.62652 0
M  V30 1067 O 107.431 -0.0902094 1.81075 0
M  V30 1068 C 107.479 3.37665 1.26549 0
M  V30 1069 O 106.583 3.36701 2.38131 0
M  V30 1070 H 105.924 0.644719 0.158849 0
M  V30 1071 H 108.454 2.04121 -0.139891 0
M  V30 1072 H 108.464 3.7474 1.6135 0
M  V30 1073 H 107.139 4.12573 0.525016 0
M  V30 1074 H 105.716 3.1139 2.0516 0
M  V30 1075 N 107.901 -0.206675 1.56239 0
M  V30 1076 C 109.15 -0.926964 1.79138 0
M  V30 1077 C 109.463 -1.84901 0.638043 0
M  V30 1078 O 110.669 -2.60906 0.751033 0
M  V30 1079 C 109.125 -1.6986 3.17294 0
M  V30 1080 C 108.733 -0.821956 4.40395 0
M  V30 1081 C 110.477 -2.40922 3.4951 0
M  V30 1082 C 108.384 -1.59179 5.69575 0
M  V30 1083 H 107.314 -0.349864 0.667915 0
M  V30 1084 H 109.965 -0.180487 1.8261 0
M  V30 1085 H 108.347 -2.48853 3.08039 0
M  V30 1086 H 109.521 -0.0715019 4.60745 0
M  V30 1087 H 107.836 -0.222741 4.15804 0
M  V30 1088 H 110.433 -2.99047 4.43255 0
M  V30 1089 H 110.776 -3.14542 2.72707 0
M  V30 1090 H 111.309 -1.68905 3.60161 0
M  V30 1091 H 108.048 -0.898589 6.49312 0
M  V30 1092 H 107.568 -2.31648 5.53262 0
M  V30 1093 H 109.247 -2.14862 6.10281 0
M  V30 1094 N 109.379 -1.50304 -0.473955 0
M  V30 1095 C 110.79 -1.54042 -1.0549 0
M  V30 1096 C 111.141 -0.342248 -1.93192 0
M  V30 1097 O 110.266 0.545157 -2.09421 0
M  V30 1098 C 110.861 -2.79152 -1.91989 0
M  V30 1099 C 109.42 -2.8558 -2.45196 0
M  V30 1100 C 108.567 -2.48295 -1.2347 0
M  V30 1101 H 111.518 -1.5661 -0.256693 0
M  V30 1102 H 111.539 -2.60845 -2.7702 0
M  V30 1103 H 111.051 -3.66339 -1.28131 0
M  V30 1104 H 109.152 -2.02738 -3.12615 0
M  V30 1105 H 109.265 -3.88403 -2.80499 0
M  V30 1106 H 107.629 -2.00669 -1.56856 0
M  V30 1107 H 108.412 -3.37787 -0.612789 0
M  V30 1108 N 110.857 0.726932 -1.39834 0
M  V30 1109 C 112.097 1.4992 -1.38936 0
M  V30 1110 C 112.461 1.91996 0.0126883 0
M  V30 1111 O 113.662 2.68399 0.146715 0
M  V30 1112 C 111.933 2.70013 -2.34153 0
M  V30 1113 S 113.492 3.59563 -2.51515 0
M  V30 1114 H 110.31 0.51271 -0.492595 0
M  V30 1115 H 112.912 0.85107 -1.76003 0
M  V30 1116 H 111.616 2.37254 -3.34871 0
M  V30 1117 H 111.147 3.39748 -1.98331 0
M  V30 1118 H 113.162 4.63973 -1.75909 0
M  V30 1119 N 112.336 1.25143 0.95797 0
M  V30 1120 C 113.561 1.12521 1.74223 0
M  V30 1121 C 113.986 -0.317402 1.85403 0
M  V30 1122 O 113.344 -1.2299 1.33204 0
M  V30 1123 C 113.392 1.78062 3.1357 0
M  V30 1124 O 112.496 1.058 3.98598 0
M  V30 1125 H 111.837 0.39304 0.535178 0
M  V30 1126 H 114.367 1.65641 1.201 0
M  V30 1127 H 114.377 1.84213 3.64046 0
M  V30 1128 H 113.052 2.83021 3.04749 0
M  V30 1129 H 111.629 1.07506 3.57067 0
M  V30 1130 N 113.814 -1.1601 1.06675 0
M  V30 1131 C 114.777 -2.18724 0.685001 0
M  V30 1132 C 115.777 -1.58496 -0.271246 0
M  V30 1133 O 116.967 -1.74119 -0.0531156 0
M  V30 1134 C 114.099 -3.40899 0.00853648 0
M  V30 1135 H 115.292 -2.54011 1.59431 0
M  V30 1136 H 112.845 -1.30352 0.862441 0
M  V30 1137 H 113.58 -3.11173 -0.913337 0
M  V30 1138 H 113.365 -3.8587 0.696204 0
M  V30 1139 H 114.855 -4.16886 -0.24414 0
M  V30 1140 N 115.292 -0.849877 -1.32721 0
M  V30 1141 C 116.541 -0.447175 -1.96681 0
M  V30 1142 C 116.854 1.00135 -1.68025 0
M  V30 1143 O 118.06 1.50926 -2.25685 0
M  V30 1144 C 116.516 -0.7487 -3.52026 0
M  V30 1145 C 116.124 -2.21264 -3.89546 0
M  V30 1146 C 117.868 -0.413487 -4.22481 0
M  V30 1147 C 115.775 -2.45763 -5.37917 0
M  V30 1148 H 114.705 -0.163486 -0.736063 0
M  V30 1149 H 117.356 -1.03999 -1.51183 0
M  V30 1150 H 115.738 -0.0853727 -3.95908 0
M  V30 1151 H 116.912 -2.91736 -3.56689 0
M  V30 1152 H 115.227 -2.5119 -3.32103 0
M  V30 1153 H 117.824 -0.574017 -5.3161 0
M  V30 1154 H 118.167 0.644492 -4.11281 0
M  V30 1155 H 118.7 -1.03251 -3.84167 0
M  V30 1156 H 115.439 -3.50168 -5.54132 0
M  V30 1157 H 114.959 -1.79864 -5.72197 0
M  V30 1158 H 116.638 -2.29471 -6.0494 0
M  V30 1159 N 116.77 1.45427 -0.607355 0
M  V30 1160 C 117.733 2.28974 0.101693 0
M  V30 1161 C 118.733 1.39754 0.795329 0
M  V30 1162 O 119.923 1.61878 0.643527 0
M  V30 1163 C 117.055 3.20768 1.15414 0
M  V30 1164 H 118.248 2.93147 -0.632844 0
M  V30 1165 H 115.801 1.51945 -0.366391 0
M  V30 1166 H 116.536 2.61395 1.91945 0
M  V30 1167 H 116.321 3.86489 0.66098 0
M  V30 1168 H 117.811 3.83589 1.65073 0
M  V30 1169 N 118.248 0.346503 1.53744 0
M  V30 1170 C 119.476 -0.25041 2.05379 0
M  V30 1171 C 119.891 -1.43979 1.22129 0
M  V30 1172 O 119.248 -1.80677 0.257321 0
M  V30 1173 C 119.299 -0.662575 3.55376 0
M  V30 1174 O 119.02 0.479515 4.35468 0
M  V30 1175 C 120.521 -1.31989 4.23195 0
M  V30 1176 H 117.741 -0.0478198 0.669294 0
M  V30 1177 H 120.285 0.499346 1.9831 0
M  V30 1178 H 118.44 -1.36227 3.62658 0
M  V30 1179 H 118.854 0.15037 5.24284 0
M  V30 1180 H 120.328 -1.55902 5.29527 0
M  V30 1181 H 120.805 -2.27436 3.75725 0
M  V30 1182 H 121.411 -0.662154 4.20114 0
M  V30 1183 N 119.726 -1.57421 0.075193 0
M  V30 1184 C 120.656 -2.15942 -0.888324 0
M  V30 1185 C 121.637 -1.08737 -1.30806 0
M  V30 1186 O 122.822 -1.36787 -1.37851 0
M  V30 1187 C 119.952 -2.72379 -2.1547 0
M  V30 1188 C 118.906 -3.8478 -1.87425 0
M  V30 1189 C 118.232 -4.27834 -3.20721 0
M  V30 1190 C 119.532 -5.08869 -1.17684 0
M  V30 1191 H 121.226 -2.96705 -0.400799 0
M  V30 1192 H 118.772 -1.42723 -0.191342 0
M  V30 1193 H 120.725 -3.11965 -2.83295 0
M  V30 1194 H 119.449 -1.88841 -2.6647 0
M  V30 1195 H 118.108 -3.45703 -1.22004 0
M  V30 1196 H 117.756 -3.41214 -3.6957 0
M  V30 1197 H 117.456 -5.03605 -3.02746 0
M  V30 1198 H 118.98 -4.70039 -3.89738 0
M  V30 1199 H 120.394 -5.4575 -1.75584 0
M  V30 1200 H 118.791 -5.8994 -1.09956 0
M  V30 1201 H 119.861 -4.84648 -0.156453 0
M  V30 1202 N 121.204 0.198386 -1.56346 0
M  V30 1203 C 122.615 0.763358 -1.70381 0
M  V30 1204 C 122.966 1.83995 -0.681203 0
M  V30 1205 O 122.091 2.15785 0.16305 0
M  V30 1206 C 122.686 1.39143 -3.08909 0
M  V30 1207 C 121.245 1.90352 -3.2472 0
M  V30 1208 C 120.392 0.772233 -2.6633 0
M  V30 1209 H 123.343 -0.0266377 -1.58678 0
M  V30 1210 H 123.364 2.26076 -3.06055 0
M  V30 1211 H 122.876 0.607638 -3.83314 0
M  V30 1212 H 120.977 2.71461 -2.55225 0
M  V30 1213 H 121.09 2.06757 -4.3219 0
M  V30 1214 H 119.454 1.18566 -2.2542 0
M  V30 1215 H 120.237 0.00073556 -3.433 0
M  V30 1216 N 122.682 1.50554 0.465978 0
M  V30 1217 C 123.645 1.69233 1.54574 0
M  V30 1218 C 124.645 0.562901 1.50626 0
M  V30 1219 O 125.835 0.830016 1.53155 0
M  V30 1220 C 122.967 1.7223 2.94193 0
M  V30 1221 H 124.16 2.65571 1.39327 0
M  V30 1222 H 121.713 1.40111 0.692711 0
M  V30 1223 H 122.448 0.77603 3.14878 0
M  V30 1224 H 122.233 2.54285 2.98466 0
M  V30 1225 H 123.723 1.88618 3.72576 0
M  V30 1226 N 124.16 -0.719506 1.40217 0
M  V30 1227 C 125.108 -1.85493 1.40339 0
M  V30 1228 C 126.102 -1.66995 0.284415 0
M  V30 1229 O 127.308 -1.74148 0.455252 0
M  V30 1230 H 123.683 -0.610857 0.438586 0
M  V30 1231 H 125.654 -1.82506 2.36081 0
M  V30 1232 C 124.403 -3.23321 1.27901 0
M  V30 1233 H 123.726 -3.38159 2.1328 0
M  V30 1234 H 125.166 -4.02914 1.32045 0
M  V30 1235 C 123.625 -3.36898 -0.0111355 0
M  V30 1236 O 124.155 -3.89674 -0.975538 0
M  V30 1237 N 122.361 -2.90492 -0.0793393 0
M  V30 1238 H 121.908 -2.47731 0.706183 0
M  V30 1239 H 121.866 -2.99955 -0.942038 0
M  V30 1240 N 125.638 -1.25649 -0.95132 0
M  V30 1241 C 126.886 -1.10375 -1.69298 0
M  V30 1242 C 127.207 0.355339 -1.91735 0
M  V30 1243 O 126.477 1.25188 -1.50681 0
M  V30 1244 H 125.057 -0.405461 -0.627384 0
M  V30 1245 H 127.719 -1.57823 -1.14358 0
M  V30 1246 H 126.815 -1.61465 -2.67087 0
M  V30 1247 N 127.117 1.15442 -1.07289 0
M  V30 1248 C 128.365 1.85845 -0.794096 0
M  V30 1249 C 128.686 1.82692 0.681809 0
M  V30 1250 O 127.956 1.26741 1.49377 0
M  V30 1251 H 126.536 0.688089 -0.290763 0
M  V30 1252 H 129.198 1.39947 -1.3565 0
M  V30 1253 H 128.294 2.91001 -1.12804 0
M  V30 1254 N 128.595 0.856903 1.32268 0
M  V30 1255 C 129.525 0.31858 2.31316 0
M  V30 1256 C 130.506 -0.583487 1.59779 0
M  V30 1257 O 131.691 -0.503259 1.87566 0
M  V30 1258 C 128.821 -0.491979 3.43798 0
M  V30 1259 C 127.775 0.315849 4.26833 0
M  V30 1260 C 127.101 -0.619586 5.31098 0
M  V30 1261 C 128.401 1.54282 4.98993 0
M  V30 1262 H 130.095 1.14621 2.76591 0
M  V30 1263 H 127.641 0.552613 1.32974 0
M  V30 1264 H 129.594 -0.879012 4.1213 0
M  V30 1265 H 128.318 -1.35299 2.97257 0
M  V30 1266 H 126.977 0.684664 3.6015 0
M  V30 1267 H 126.625 -1.47751 4.8081 0
M  V30 1268 H 126.325 -0.0830621 5.87541 0
M  V30 1269 H 127.849 -1.00375 6.02293 0
M  V30 1270 H 129.263 1.22796 5.59995 0
M  V30 1271 H 127.66 2.01745 5.65172 0
M  V30 1272 H 128.73 2.30285 4.26728 0
M  V30 1273 N 130.073 -1.45103 0.615059 0
M  V30 1274 C 131.319 -2.02483 0.113347 0
M  V30 1275 C 131.652 -1.48146 -1.25564 0
M  V30 1276 O 130.927 -0.659104 -1.82992 0
M  V30 1277 C 131.21 -3.60005 0.0825278 0
M  V30 1278 C 131.063 -4.2466 1.48271 0
M  V30 1279 C 132.382 -4.35972 -0.601401 0
M  V30 1280 H 129.501 -0.735764 0.0426632 0
M  V30 1281 H 132.143 -1.72868 0.788461 0
M  V30 1282 H 130.293 -3.85367 -0.492378 0
M  V30 1283 H 131.965 -4.10458 2.10527 0
M  V30 1284 H 130.208 -3.82772 2.04127 0
M  V30 1285 H 130.879 -5.336 1.41332 0
M  V30 1286 H 133.355 -4.15947 -0.112666 0
M  V30 1287 H 132.231 -5.45697 -0.592097 0
M  V30 1288 H 132.492 -4.09391 -1.66887 0
M  V30 1289 N 131.551 -0.354651 -1.53558 0
M  V30 1290 C 132.481 0.489091 -2.2832 0
M  V30 1291 C 133.462 1.09324 -1.30316 0
M  V30 1292 O 134.647 1.11255 -1.59173 0
M  V30 1293 C 131.777 1.63456 -3.0643 0
M  V30 1294 C 130.731 1.1582 -4.12031 0
M  V30 1295 C 130.057 2.39305 -4.7816 0
M  V30 1296 C 131.357 0.250731 -5.21698 0
M  V30 1297 H 133.051 -0.134614 -2.99097 0
M  V30 1298 H 130.597 -0.0661826 -1.43848 0
M  V30 1299 H 132.55 2.23136 -3.57475 0
M  V30 1300 H 131.274 2.28533 -2.33325 0
M  V30 1301 H 129.933 0.584146 -3.61916 0
M  V30 1302 H 129.581 3.02814 -4.01637 0
M  V30 1303 H 129.281 2.08109 -5.49513 0
M  V30 1304 H 130.805 2.99691 -5.31994 0
M  V30 1305 H 132.219 0.754695 -5.68311 0
M  V30 1306 H 130.616 0.0301468 -6.00092 0
M  V30 1307 H 131.686 -0.710125 -4.79672 0
M  V30 1308 N 133.029 1.57378 -0.0835403 0
M  V30 1309 C 134.254 1.98682 0.594987 0
M  V30 1310 C 134.679 0.961969 1.61641 0
M  V30 1311 O 134.037 -0.0709989 1.81161 0
M  V30 1312 C 134.085 3.38988 1.2296 0
M  V30 1313 O 133.189 3.39208 2.34546 0
M  V30 1314 H 132.53 0.646368 0.152002 0
M  V30 1315 H 135.06 2.03961 -0.161533 0
M  V30 1316 H 135.07 3.76431 1.57366 0
M  V30 1317 H 133.745 4.13107 0.481228 0
M  V30 1318 H 132.322 3.13548 2.01846 0
M  V30 1319 N 134.507 -0.190092 1.56449 0
M  V30 1320 C 135.735 -0.925772 1.85033 0
M  V30 1321 C 136.15 -1.76638 0.666658 0
M  V30 1322 O 135.507 -1.78822 -0.364565 0
M  V30 1323 C 135.558 -1.81786 3.12468 0
M  V30 1324 O 135.279 -1.01118 4.26271 0
M  V30 1325 C 136.78 -2.6648 3.54265 0
M  V30 1326 H 134 -0.269872 0.614337 0
M  V30 1327 H 136.544 -0.195837 2.0356 0
M  V30 1328 H 134.699 -2.50136 2.95822 0
M  V30 1329 H 135.113 -1.61956 4.98869 0
M  V30 1330 H 136.587 -3.24722 4.46385 0
M  V30 1331 H 137.064 -3.40434 2.77491 0
M  V30 1332 H 137.67 -2.03493 3.73458 0
M  V30 1333 N 135.985 -1.50799 -0.457987 0
M  V30 1334 C 136.915 -1.73553 -1.5621 0
M  V30 1335 C 137.896 -0.584774 -1.59732 0
M  V30 1336 O 139.081 -0.825314 -1.7579 0
M  V30 1337 C 136.211 -1.84169 -2.94447 0
M  V30 1338 C 135.165 -2.99461 -3.0579 0
M  V30 1339 C 134.491 -2.95235 -4.45803 0
M  V30 1340 C 135.791 -4.39766 -2.81786 0
M  V30 1341 H 137.485 -2.66 -1.37421 0
M  V30 1342 H 135.031 -1.28002 -0.659662 0
M  V30 1343 H 136.984 -1.98672 -3.71628 0
M  V30 1344 H 135.708 -0.883545 -3.14422 0
M  V30 1345 H 134.367 -2.8463 -2.31044 0
M  V30 1346 H 134.015 -1.97239 -4.62715 0
M  V30 1347 H 133.715 -3.72642 -4.54326 0
M  V30 1348 H 135.239 -3.11803 -5.24987 0
M  V30 1349 H 136.653 -4.55054 -3.4871 0
M  V30 1350 H 135.05 -5.18722 -3.0174 0
M  V30 1351 H 136.12 -4.51229 -1.7754 0
M  V30 1352 N 137.463 0.71206 -1.40597 0
M  V30 1353 C 138.874 1.29135 -1.34837 0
M  V30 1354 C 139.225 1.96186 -0.0235395 0
M  V30 1355 O 138.35 1.97768 0.878444 0
M  V30 1356 C 138.945 2.34827 -2.44217 0
M  V30 1357 C 137.504 2.88371 -2.41907 0
M  V30 1358 C 136.651 1.62202 -2.24913 0
M  V30 1359 H 139.602 0.507944 -1.50352 0
M  V30 1360 H 139.623 3.15749 -2.12327 0
M  V30 1361 H 139.135 1.85996 -3.40627 0
M  V30 1362 H 137.236 3.41422 -1.49204 0
M  V30 1363 H 137.349 3.39925 -3.37621 0
M  V30 1364 H 135.713 1.874 -1.72492 0
M  V30 1365 H 136.496 1.15391 -3.23326 0
M  V30 1366 N 138.941 1.26152 0.944643 0
M  V30 1367 C 139.904 1.07474 2.0244 0
M  V30 1368 C 140.904 0.0242064 1.60782 0
M  V30 1369 O 142.094 0.267302 1.72137 0
M  V30 1370 C 139.226 0.633956 3.34953 0
M  V30 1371 H 140.419 2.03336 2.20442 0
M  V30 1372 H 137.972 1.087 1.12312 0
M  V30 1373 H 138.707 -0.326811 3.22649 0
M  V30 1374 H 138.492 1.39247 3.66542 0
M  V30 1375 H 139.982 0.52501 4.14287 0
M  V30 1376 N 140.419 -1.14872 1.07899 0
M  V30 1377 C 141.667 -1.85422 0.803941 0
M  V30 1378 C 141.988 -1.83051 -0.67211 0
M  V30 1379 O 141.258 -1.27532 -1.48703 0
M  V30 1380 H 139.838 -0.686537 0.294408 0
M  V30 1381 H 142.5 -1.39226 1.3639 0
M  V30 1382 H 141.596 -2.90399 1.14346 0
M  V30 1383 N 141.898 -0.863906 -1.31812 0
M  V30 1384 C 143.146 -0.470904 -1.96537 0
M  V30 1385 C 143.467 0.978771 -1.68657 0
M  V30 1386 O 142.737 1.6853 -0.998717 0
M  V30 1387 H 141.317 -0.171148 -0.72713 0
M  V30 1388 H 143.979 -1.10236 -1.60729 0
M  V30 1389 H 143.075 -0.623616 -3.05806 0
M  V30 1390 N 143.376 1.44774 -0.622745 0
M  V30 1391 C 144.622 2.0242 -0.124083 0
M  V30 1392 C 144.955 1.4881 1.24777 0
M  V30 1393 O 144.23 0.668799 1.8264 0
M  V30 1394 C 144.513 3.59957 -0.101619 0
M  V30 1395 C 144.366 4.23867 -1.50521 0
M  V30 1396 C 145.685 4.36284 0.578272 0
M  V30 1397 H 142.804 0.735528 -0.0465645 0
M  V30 1398 H 145.446 1.72447 -0.797617 0
M  V30 1399 H 143.596 3.85623 0.471934 0
M  V30 1400 H 145.268 4.09336 -2.12701 0
M  V30 1401 H 143.511 3.81684 -2.06154 0
M  V30 1402 H 144.182 5.32843 -1.4416 0
M  V30 1403 H 146.658 4.16001 0.0906057 0
M  V30 1404 H 145.534 5.46004 0.563149 0
M  V30 1405 H 145.795 4.10271 1.64713 0
M  V30 1406 N 144.854 0.36279 1.53368 0
M  V30 1407 C 146.131 -0.284021 1.93527 0
M  V30 1408 C 146.511 -1.66628 1.29608 0
M  V30 1409 O 145.859 -2.23942 0.45413 0
M  V30 1410 C 146.069 -0.337028 3.47369 0
M  V30 1411 C 147.417 -0.578708 4.20638 0
M  V30 1412 O 148.441 -0.418352 3.53735 0
M  V30 1413 O 147.3 -0.89074 5.39192 0
M  V30 1414 H 144.394 -0.169743 0.809393 0
M  V30 1415 H 146.94 0.41537 1.64538 0
M  V30 1416 H 145.712 0.632217 3.86159 0
M  V30 1417 H 145.335 -1.08243 3.82582 0
M  V30 1418 N 146.332 -1.57332 0.0918853 0
M  V30 1419 C 147.56 -1.98574 -0.581048 0
M  V30 1420 C 147.975 -0.970903 -1.61923 0
M  V30 1421 O 147.332 0.0399054 -1.82456 0
M  V30 1422 C 147.383 -3.39872 -1.23164 0
M  V30 1423 O 147.104 -4.37469 -0.234989 0
M  V30 1424 C 148.605 -3.96099 -1.99049 0
M  V30 1425 H 145.825 -0.65261 -0.156018 0
M  V30 1426 H 148.369 -2.0379 0.170225 0
M  V30 1427 H 146.524 -3.35679 -1.93386 0
M  V30 1428 H 146.938 -5.19751 -0.70418 0
M  V30 1429 H 148.412 -4.97127 -2.39934 0
M  V30 1430 H 148.889 -3.3374 -2.85507 0
M  V30 1431 H 149.495 -4.03755 -1.3365 0
M  V30 1432 N 147.81 0.181792 -1.56548 0
M  V30 1433 C 149.058 0.89832 -1.81038 0
M  V30 1434 C 149.379 1.83232 -0.667164 0
M  V30 1435 O 148.649 1.93372 0.313673 0
M  V30 1436 H 147.229 0.33471 -0.667816 0
M  V30 1437 H 149.891 0.184116 -1.94028 0
M  V30 1438 H 148.987 1.4815 -2.74696 0
M  V30 1439 N 149.288 1.51039 0.449983 0
M  V30 1440 C 150.235 1.71439 1.54523 0
M  V30 1441 C 151.205 0.555871 1.56522 0
M  V30 1442 O 152.39 0.788871 1.73728 0
M  V30 1443 C 149.53 1.83384 2.92343 0
M  V30 1444 C 148.643 3.10873 2.9997 0
M  V30 1445 C 147.778 3.13488 4.28834 0
M  V30 1446 C 146.817 4.35343 4.30282 0
M  V30 1447 N 145.954 4.35579 5.5065 0
M  V30 1448 H 150.794 2.64934 1.36433 0
M  V30 1449 H 148.331 1.31312 0.662982 0
M  V30 1450 H 150.289 1.88291 3.72293 0
M  V30 1451 H 148.919 0.933086 3.0902 0
M  V30 1452 H 147.971 3.15336 2.12761 0
M  V30 1453 H 149.283 4.00814 2.96901 0
M  V30 1454 H 148.437 3.17241 5.17149 0
M  V30 1455 H 147.176 2.21414 4.34543 0
M  V30 1456 H 146.181 4.3178 3.40362 0
M  V30 1457 H 147.406 5.28668 4.26248 0
M  V30 1458 H 145.352 3.46369 5.57104 0
M  V30 1459 H 145.269 5.19313 5.49409 0
M  V30 1460 H 146.537 4.43507 6.41032 0
M  V30 1461 N 150.766 -0.704594 1.40972 0
M  V30 1462 C 151.729 -1.80035 1.41845 0
M  V30 1463 C 152.729 -1.57774 0.310474 0
M  V30 1464 O 153.919 -1.64613 0.56992 0
M  V30 1465 C 151.051 -3.18284 1.22098 0
M  V30 1466 H 152.244 -1.80658 2.3938 0
M  V30 1467 H 149.797 -0.911329 1.26982 0
M  V30 1468 H 150.532 -3.23306 0.253672 0
M  V30 1469 H 150.317 -3.35843 2.02366 0
M  V30 1470 H 151.807 -3.98289 1.25522 0
M  V30 1471 N 152.244 -1.26651 -0.937939 0
M  V30 1472 C 153.492 -1.12165 -1.68118 0
M  V30 1473 C 153.813 0.334983 -1.92101 0
M  V30 1474 O 153.083 1.23583 -1.52 0
M  V30 1475 H 151.663 -0.412093 -0.623048 0
M  V30 1476 H 154.325 -1.59027 -1.12678 0
M  V30 1477 H 153.421 -1.64289 -2.6536 0
M  V30 1478 N 153.722 1.14298 -1.08507 0
M  V30 1479 C 154.652 2.21542 -0.737646 0
M  V30 1480 C 155.633 1.67773 0.280377 0
M  V30 1481 O 156.818 1.93616 0.150521 0
M  V30 1482 C 153.948 3.46988 -0.147259 0
M  V30 1483 C 152.902 4.13789 -1.09374 0
M  V30 1484 C 152.228 5.33449 -0.365524 0
M  V30 1485 C 153.528 4.62208 -2.4323 0
M  V30 1486 H 155.222 2.5086 -1.6343 0
M  V30 1487 H 152.768 1.20576 -0.787243 0
M  V30 1488 H 154.721 4.21262 0.107808 0
M  V30 1489 H 153.445 3.17037 0.784538 0
M  V30 1490 H 152.104 3.4147 -1.33393 0
M  V30 1491 H 151.752 4.99759 0.57011 0
M  V30 1492 H 151.452 5.79088 -0.996512 0
M  V30 1493 H 152.976 6.10485 -0.118534 0
M  V30 1494 H 154.39 5.27952 -2.23472 0
M  V30 1495 H 152.787 5.18553 -3.02031 0
M  V30 1496 H 153.857 3.77224 -3.04681 0
M  V30 1497 N 155.201 0.870884 1.31352 0
M  V30 1498 C 156.448 0.482273 1.96673 0
M  V30 1499 C 156.776 -0.965638 1.68836 0
M  V30 1500 O 156.031 -1.69514 0.977937 0
M  V30 1501 C 156.33 0.687157 3.50732 0
M  V30 1502 C 155.996 2.108 3.9859 0
M  V30 1503 C 154.658 2.49656 4.1137 0
M  V30 1504 C 157.01 3.03459 4.23748 0
M  V30 1505 C 154.338 3.80412 4.46659 0
M  V30 1506 C 156.69 4.3373 4.60501 0
M  V30 1507 C 155.354 4.725 4.71487 0
M  V30 1508 H 154.624 0.176476 0.719679 0
M  V30 1509 H 157.271 1.10405 1.56471 0
M  V30 1510 H 155.576 -0.0177476 3.91796 0
M  V30 1511 H 157.273 0.366284 3.99324 0
M  V30 1512 H 153.863 1.79633 3.8914 0
M  V30 1513 H 158.047 2.74665 4.13368 0
M  V30 1514 H 153.303 4.1021 4.53362 0
M  V30 1515 H 157.477 5.05578 4.78919 0
M  V30 1516 H 155.104 5.73859 4.98588 0
M  V30 1517 N 156.679 -1.44442 0.630414 0
M  V30 1518 C 157.925 -2.02351 0.134816 0
M  V30 1519 C 158.258 -1.4947 -1.23986 0
M  V30 1520 O 157.533 -0.678475 -1.82283 0
M  V30 1521 C 157.816 -3.59898 0.120707 0
M  V30 1522 C 157.669 -4.23063 1.52767 0
M  V30 1523 C 158.988 -4.36585 -0.555127 0
M  V30 1524 H 156.107 -0.73527 0.0504646 0
M  V30 1525 H 158.749 -1.72022 0.806751 0
M  V30 1526 H 156.899 -3.85868 -0.451477 0
M  V30 1527 H 158.571 -4.08202 2.14869 0
M  V30 1528 H 156.814 -3.80586 2.08175 0
M  V30 1529 H 157.485 -5.32071 1.46984 0
M  V30 1530 H 159.961 -4.16044 -0.0685429 0
M  V30 1531 H 158.837 -5.46294 -0.534185 0
M  V30 1532 H 159.098 -4.11138 -1.62535 0
M  V30 1533 N 158.157 -0.370918 -1.53173 0
M  V30 1534 C 159.573 -0.0200818 -1.59587 0
M  V30 1535 C 159.773 1.46279 -1.38581 0
M  V30 1536 O 158.829 2.22506 -1.19363 0
M  V30 1537 C 160.142 -0.4808 -2.96831 0
M  V30 1538 C 161.69 -0.435477 -3.09956 0
M  V30 1539 C 162.165 -0.872092 -4.4962 0
M  V30 1540 N 163.656 -0.827364 -4.55751 0
M  V30 1541 C 164.391 -1.13683 -5.62018 0
M  V30 1542 N 163.887 -1.51584 -6.76014 0
M  V30 1543 N 165.68 -1.05927 -5.52029 0
M  V30 1544 H 157.831 -1.33652 -1.65079 0
M  V30 1545 H 160.094 -0.546634 -0.774529 0
M  V30 1546 H 159.8 -1.51577 -3.1736 0
M  V30 1547 H 159.674 0.129796 -3.76977 0
M  V30 1548 H 162.061 0.590371 -2.89134 0
M  V30 1549 H 162.142 -1.08164 -2.31806 0
M  V30 1550 H 161.786 -1.89608 -4.71181 0
M  V30 1551 H 161.716 -0.203127 -5.26208 0
M  V30 1552 H 164.207 -0.548216 -3.73902 0
M  V30 1553 H 164.52 -1.73609 -7.53047 0
M  V30 1554 H 162.865 -1.55454 -6.77391 0
M  V30 1555 H 166.056 -0.762321 -4.61851 0
M  V30 1556 H 166.229 -1.30378 -6.34749 0
M  V30 1557 N 159.635 1.57281 -0.100228 0
M  V30 1558 C 160.598 2.13158 0.842398 0
M  V30 1559 C 161.598 1.06202 1.20738 0
M  V30 1560 O 162.788 1.32066 1.13597 0
M  V30 1561 C 159.92 2.65639 2.13655 0
M  V30 1562 H 161.113 2.97766 0.357114 0
M  V30 1563 H 158.666 1.5559 0.148823 0
M  V30 1564 H 159.401 1.84566 2.66657 0
M  V30 1565 H 159.186 3.43844 1.88451 0
M  V30 1566 H 160.676 3.08846 2.81077 0
M  V30 1567 N 161.113 -0.173488 1.56642 0
M  V30 1568 C 162.061 -1.23417 1.97157 0
M  V30 1569 C 163.055 -1.45946 0.860013 0
M  V30 1570 O 164.261 -1.46551 1.04512 0
M  V30 1571 H 160.636 -0.414818 0.62724 0
M  V30 1572 H 162.607 -0.865582 2.8557 0
M  V30 1573 C 161.356 -2.5665 2.34576 0
M  V30 1574 H 160.679 -2.40137 3.19647 0
M  V30 1575 H 162.119 -3.2956 2.6677 0
M  V30 1576 C 160.578 -3.15245 1.18836 0
M  V30 1577 O 161.108 -3.98883 0.474869 0
M  V30 1578 N 159.314 -2.74303 0.959497 0
M  V30 1579 H 158.861 -2.0639 1.54146 0
M  V30 1580 H 158.819 -3.13844 0.186932 0
M  V30 1581 N 162.591 -1.51276 -0.441967 0
M  V30 1582 C 163.523 -1.68444 -1.55433 0
M  V30 1583 C 164.536 -0.565187 -1.52674 0
M  V30 1584 O 165.725 -0.839356 -1.57534 0
M  V30 1585 C 162.825 -1.67966 -2.94348 0
M  V30 1586 C 161.998 -2.964 -3.21661 0
M  V30 1587 C 161.057 -2.88171 -4.40277 0
M  V30 1588 O 160.083 -3.62119 -4.39157 0
M  V30 1589 N 161.285 -2.03706 -5.43584 0
M  V30 1590 H 164.05 -2.644 -1.41112 0
M  V30 1591 H 161.611 -1.49104 -0.630838 0
M  V30 1592 H 163.603 -1.60035 -3.71713 0
M  V30 1593 H 162.173 -0.796225 -3.0229 0
M  V30 1594 H 161.393 -3.18234 -2.32638 0
M  V30 1595 H 162.681 -3.81427 -3.36736 0
M  V30 1596 H 162.079 -1.42995 -5.47329 0
M  V30 1597 H 160.636 -2.01658 -6.1982 0
M  V30 1598 N 164.069 0.697108 -1.41344 0
M  V30 1599 C 165.346 1.45154 -1.31109 0
M  V30 1600 C 165.726 2.11009 0.0620449 0
M  V30 1601 O 165.074 2.01571 1.07618 0
M  V30 1602 C 165.284 2.47223 -2.46337 0
M  V30 1603 C 166.632 3.1252 -2.87431 0
M  V30 1604 O 167.656 2.57547 -2.46065 0
M  V30 1605 O 166.515 4.12083 -3.58957 0
M  V30 1606 H 163.609 0.646365 -0.515889 0
M  V30 1607 H 166.155 0.727716 -1.53305 0
M  V30 1608 H 164.927 1.97204 -3.37974 0
M  V30 1609 H 164.55 3.27116 -2.2601 0
M  V30 1610 N 165.547 1.27147 0.931209 0
M  V30 1611 C 166.775 1.16082 1.71267 0
M  V30 1612 C 167.19 -0.282772 1.8667 0
M  V30 1613 O 166.547 -1.19283 1.38122 0
M  V30 1614 C 166.598 1.8358 3.11417 0
M  V30 1615 O 166.319 3.22299 2.96741 0
M  V30 1616 C 167.82 1.78597 4.05732 0
M  V30 1617 H 165.04 0.403758 0.535929 0
M  V30 1618 H 167.584 1.67953 1.16671 0
M  V30 1619 H 165.739 1.35623 3.62885 0
M  V30 1620 H 166.153 3.55851 3.85319 0
M  V30 1621 H 167.627 2.30444 5.01597 0
M  V30 1622 H 168.104 0.754564 4.3267 0
M  V30 1623 H 168.71 2.26152 3.60188 0
M  V30 1624 N 167.025 -1.13721 1.09112 0
M  V30 1625 C 168.271 -1.85198 0.826414 0
M  V30 1626 C 168.604 -1.83129 -0.646319 0
M  V30 1627 O 167.879 -1.2671 -1.47563 0
M  V30 1628 C 168.162 -3.33507 1.35812 0
M  V30 1629 C 168.015 -3.44108 2.89672 0
M  V30 1630 C 169.334 -4.28838 0.989256 0
M  V30 1631 H 166.453 -0.67243 0.301675 0
M  V30 1632 H 169.095 -1.33499 1.35197 0
M  V30 1633 H 167.245 -3.77666 0.911082 0
M  V30 1634 H 168.917 -3.08684 3.428 0
M  V30 1635 H 167.16 -2.85087 3.26967 0
M  V30 1636 H 167.831 -4.48388 3.21951 0
M  V30 1637 H 170.307 -3.92734 1.37475 0
M  V30 1638 H 169.183 -5.31051 1.38838 0
M  V30 1639 H 169.444 -4.4198 -0.102924 0
M  V30 1640 N 168.503 -0.877838 -1.30888 0
M  V30 1641 C 169.749 -0.493426 -1.96706 0
M  V30 1642 C 170.082 0.953504 -1.6918 0
M  V30 1643 O 169.357 1.67266 -0.992594 0
M  V30 1644 C 169.64 -0.760429 -3.51979 0
M  V30 1645 C 169.493 -2.25747 -3.89048 0
M  V30 1646 C 170.812 -0.232148 -4.39487 0
M  V30 1647 H 167.931 -0.180746 -0.714493 0
M  V30 1648 H 170.573 -1.10052 -1.54882 0
M  V30 1649 H 168.723 -0.243715 -3.87735 0
M  V30 1650 H 170.395 -2.84204 -3.63354 0
M  V30 1651 H 168.638 -2.72694 -3.37373 0
M  V30 1652 H 169.309 -2.39491 -4.97341 0
M  V30 1653 H 171.785 -0.674314 -4.106 0
M  V30 1654 H 170.661 -0.448355 -5.47066 0
M  V30 1655 H 170.922 0.866297 -4.33529 0
M  V30 1656 N 169.982 1.44106 -0.638065 0
M  V30 1657 C 171.228 2.02277 -0.145546 0
M  V30 1658 C 171.561 1.50125 1.23191 0
M  V30 1659 O 170.836 0.688133 1.8192 0
M  V30 1660 C 171.119 3.59829 -0.139791 0
M  V30 1661 C 170.972 4.22247 -1.55008 0
M  V30 1662 C 172.291 4.36873 0.531966 0
M  V30 1663 H 169.41 0.734992 -0.0543632 0
M  V30 1664 H 172.052 1.71592 -0.815863 0
M  V30 1665 H 170.202 3.86102 0.431007 0
M  V30 1666 H 171.874 4.07057 -2.1703 0
M  V30 1667 H 170.117 3.79476 -2.10191 0
M  V30 1668 H 170.788 5.31284 -1.49804 0
M  V30 1669 H 173.264 4.16074 0.0464781 0
M  V30 1670 H 172.14 5.4657 0.505206 0
M  V30 1671 H 172.401 4.11995 1.60352 0
M  V30 1672 N 171.46 0.379036 1.52974 0
M  V30 1673 C 172.423 -0.448865 2.24762 0
M  V30 1674 C 173.423 -0.998689 1.26027 0
M  V30 1675 O 174.613 -0.882313 1.50203 0
M  V30 1676 C 171.745 -1.62872 2.99476 0
M  V30 1677 H 172.938 0.179491 2.99362 0
M  V30 1678 H 170.491 0.13096 1.5575 0
M  V30 1679 H 171.226 -2.29479 2.29151 0
M  V30 1680 H 171.011 -1.24128 3.71934 0
M  V30 1681 H 172.501 -2.2151 3.5401 0
M  V30 1682 N 172.938 -1.57226 0.108567 0
M  V30 1683 C 174.185 -1.94833 -0.551943 0
M  V30 1684 C 174.513 -0.991204 -1.67348 0
M  V30 1685 O 173.768 -0.0131878 -1.95696 0
M  V30 1686 C 174.067 -3.38911 -1.13463 0
M  V30 1687 C 173.733 -4.50696 -0.135509 0
M  V30 1688 C 172.395 -4.80998 0.139252 0
M  V30 1689 C 174.747 -5.18333 0.545957 0
M  V30 1690 C 172.075 -5.76259 1.10194 0
M  V30 1691 C 174.427 -6.14627 1.49721 0
M  V30 1692 C 173.091 -6.43327 1.78006 0
M  V30 1693 H 172.361 -0.712944 -0.20197 0
M  V30 1694 H 175.008 -1.90582 0.18726 0
M  V30 1695 H 173.313 -3.39805 -1.95037 0
M  V30 1696 H 175.01 -3.65317 -1.65362 0
M  V30 1697 H 171.6 -4.27087 -0.359846 0
M  V30 1698 H 175.784 -4.95087 0.346842 0
M  V30 1699 H 171.04 -5.96804 1.32795 0
M  V30 1700 H 175.214 -6.66126 2.03099 0
M  V30 1701 H 172.841 -7.1695 2.52759 0
M  V30 1702 N 174.416 0.165178 -1.56732 0
M  V30 1703 C 175.832 0.517174 -1.50988 0
M  V30 1704 C 176.032 1.84331 -0.813894 0
M  V30 1705 O 175.088 2.49672 -0.37682 0
M  V30 1706 C 176.401 0.544261 -2.95733 0
M  V30 1707 C 177.949 0.631039 -3.06573 0
M  V30 1708 C 178.424 0.68896 -4.52788 0
M  V30 1709 N 179.915 0.751683 -4.5706 0
M  V30 1710 C 180.65 0.817177 -5.67547 0
M  V30 1711 N 180.146 0.843129 -6.8765 0
M  V30 1712 N 181.939 0.856668 -5.55534 0
M  V30 1713 H 174.09 -0.704318 -2.00382 0
M  V30 1714 H 176.353 -0.254687 -0.913148 0
M  V30 1715 H 176.059 -0.361607 -3.49836 0
M  V30 1716 H 175.933 1.3886 -3.5071 0
M  V30 1717 H 178.32 1.52733 -2.52501 0
M  V30 1718 H 178.401 -0.240095 -2.54671 0
M  V30 1719 H 178.045 -0.2031 -5.07494 0
M  V30 1720 H 177.975 1.57633 -5.02454 0
M  V30 1721 H 180.466 0.739661 -3.70591 0
M  V30 1722 H 180.779 0.894448 -7.67606 0
M  V30 1723 H 179.124 0.811304 -6.90248 0
M  V30 1724 H 182.315 0.833437 -4.60621 0
M  V30 1725 H 182.488 0.904247 -6.4166 0
M  V30 1726 N 175.894 1.51508 0.433938 0
M  V30 1727 C 177.171 1.54888 1.19453 0
M  V30 1728 C 177.551 0.315154 2.08734 0
M  V30 1729 O 176.899 -0.699558 2.17528 0
M  V30 1730 C 177.109 2.86467 1.99342 0
M  V30 1731 C 178.457 3.38545 2.56267 0
M  V30 1732 O 179.481 2.88041 2.0955 0
M  V30 1733 O 178.34 4.26675 3.41483 0
M  V30 1734 H 175.434 0.622863 0.544032 0
M  V30 1735 H 177.98 1.63823 0.442732 0
M  V30 1736 H 176.752 3.67718 1.33788 0
M  V30 1737 H 176.375 2.8071 2.8158 0
M  V30 1738 N 177.372 -0.689602 1.41712 0
M  V30 1739 C 178.597 -1.48329 1.44959 0
M  V30 1740 C 179.022 -1.8801 0.0581283 0
M  V30 1741 O 178.38 -1.55026 -0.940035 0
M  V30 1742 C 178.428 -2.71835 2.36935 0
M  V30 1743 O 177.532 -3.69549 1.8305 0
M  V30 1744 H 176.873 -0.446199 0.491734 0
M  V30 1745 H 179.403 -0.847127 1.86239 0
M  V30 1746 H 179.413 -3.20076 2.53013 0
M  V30 1747 H 178.088 -2.42291 3.38035 0
M  V30 1748 H 176.665 -3.2851 1.76452 0
M  V30 1749 N 178.85 -1.27639 -0.924453 0
M  V30 1750 C 180.096 -1.14336 -1.67497 0
M  V30 1751 C 180.429 0.309465 -1.91718 0
M  V30 1752 O 179.704 1.22608 -1.50989 0
M  V30 1753 C 179.987 -1.93096 -3.0395 0
M  V30 1754 C 179.84 -3.46381 -2.8695 0
M  V30 1755 C 181.159 -1.73798 -4.0433 0
M  V30 1756 H 178.278 -0.416728 -0.607871 0
M  V30 1757 H 180.92 -1.56832 -1.07256 0
M  V30 1758 H 179.07 -1.56982 -3.55372 0
M  V30 1759 H 180.742 -3.92343 -2.42621 0
M  V30 1760 H 178.985 -3.72557 -2.22225 0
M  V30 1761 H 179.656 -3.96735 -3.83804 0
M  V30 1762 H 182.132 -2.05293 -3.61931 0
M  V30 1763 H 181.008 -2.31294 -4.97789 0
M  V30 1764 H 181.269 -0.686725 -4.36734 0
M  V30 1765 N 180.328 1.1314 -1.09713 0
M  V30 1766 C 181.291 2.16831 -0.742751 0
M  V30 1767 C 182.291 1.59159 0.229129 0
M  V30 1768 O 183.481 1.74199 0.00693237 0
M  V30 1769 C 180.613 3.40756 -0.0989168 0
M  V30 1770 H 181.806 2.49695 -1.66109 0
M  V30 1771 H 179.359 1.2802 -0.896699 0
M  V30 1772 H 180.094 3.13485 0.830514 0
M  V30 1773 H 179.879 3.83888 -0.798265 0
M  V30 1774 H 181.369 4.17386 0.133524 0
M  V30 1775 N 181.806 0.884767 1.30421 0
M  V30 1776 C 182.769 0.356277 2.26414 0
M  V30 1777 C 183.769 -0.501124 1.52792 0
M  V30 1778 O 184.959 -0.30831 1.7145 0
M  V30 1779 C 182.091 -0.492316 3.37326 0
M  V30 1780 H 183.284 1.20389 2.74675 0
M  V30 1781 H 180.837 0.661607 1.41607 0
M  V30 1782 H 181.572 -1.36052 2.94381 0
M  V30 1783 H 181.357 0.121832 3.91911 0
M  V30 1784 H 182.847 -0.853871 4.08777 0
M  V30 1785 N 183.284 -1.43765 0.645699 0
M  V30 1786 C 184.53 -2.02197 0.156271 0
M  V30 1787 C 184.863 -1.50776 -1.22393 0
M  V30 1788 O 184.138 -0.697771 -1.81553 0
M  V30 1789 C 184.421 -3.59749 0.158872 0
M  V30 1790 C 184.274 -4.21419 1.57245 0
M  V30 1791 C 185.593 -4.37149 -0.50879 0
M  V30 1792 H 182.712 -0.734694 0.0582602 0
M  V30 1793 H 185.354 -1.71157 0.824951 0
M  V30 1794 H 183.504 -3.86325 -0.410525 0
M  V30 1795 H 185.176 -4.059 2.19186 0
M  V30 1796 H 183.419 -3.78356 2.122 0
M  V30 1797 H 184.09 -5.30482 1.52619 0
M  V30 1798 H 186.566 -4.16093 -0.024412 0
M  V30 1799 H 185.442 -5.4683 -0.476213 0
M  V30 1800 H 185.703 -4.12839 -1.58165 0
M  V30 1801 N 184.763 -0.387143 -1.52771 0
M  V30 1802 C 185.726 0.436939 -2.24997 0
M  V30 1803 C 186.726 0.991991 -1.26555 0
M  V30 1804 O 187.916 0.874335 -1.50669 0
M  V30 1805 C 185.048 1.61281 -3.00335 0
M  V30 1806 H 186.241 -0.195365 -2.99263 0
M  V30 1807 H 183.794 -0.139218 -1.55679 0
M  V30 1808 H 184.529 2.2826 -2.30364 0
M  V30 1809 H 184.314 1.22154 -3.72587 0
M  V30 1810 H 185.804 2.19629 -3.5518 0
M  V30 1811 N 186.241 1.57166 -0.116904 0
M  V30 1812 C 187.204 2.14039 0.819742 0
M  V30 1813 C 188.204 1.07477 1.19605 0
M  V30 1814 O 189.394 1.33263 1.1219 0
M  V30 1815 C 186.526 2.67891 2.10826 0
M  V30 1816 H 187.719 2.98128 0.325511 0
M  V30 1817 H 185.272 1.55739 0.132312 0
M  V30 1818 H 186.007 1.87384 2.64685 0
M  V30 1819 H 185.792 3.45823 1.84793 0
M  V30 1820 H 187.282 3.11809 2.77785 0
M  V30 1821 N 187.719 -0.156864 1.56817 0
M  V30 1822 C 189.135 -0.50916 1.5126 0
M  V30 1823 C 189.335 -1.83897 0.823658 0
M  V30 1824 O 188.391 -2.49469 0.390055 0
M  V30 1825 C 189.704 -0.52857 2.96018 0
M  V30 1826 C 191.252 -0.614771 3.06903 0
M  V30 1827 C 191.727 -0.664938 4.53147 0
M  V30 1828 N 193.218 -0.727433 4.57452 0
M  V30 1829 C 193.953 -0.787067 5.67973 0
M  V30 1830 N 193.449 -0.806649 6.88088 0
M  V30 1831 N 195.242 -0.827195 5.5598 0
M  V30 1832 H 187.393 0.714935 2.00006 0
M  V30 1833 H 189.656 0.259526 0.911784 0
M  V30 1834 H 189.362 0.380154 3.49639 0
M  V30 1835 H 189.236 -1.36998 3.51442 0
M  V30 1836 H 191.623 -1.51392 2.53307 0
M  V30 1837 H 191.704 0.253597 2.5454 0
M  V30 1838 H 191.348 0.230011 5.07379 0
M  V30 1839 H 191.278 -1.54966 5.03282 0
M  V30 1840 H 193.769 -0.719998 3.70978 0
M  V30 1841 H 194.082 -0.853727 7.6807 0
M  V30 1842 H 192.427 -0.774687 6.90669 0
M  V30 1843 H 195.618 -0.808998 4.61056 0
M  V30 1844 H 195.791 -0.870206 6.4213 0
M  V30 1845 N 189.197 -1.51736 -0.425897 0
M  V30 1846 C 190.422 -1.69082 -1.20108 0
M  V30 1847 C 190.847 -0.392398 -1.83962 0
M  V30 1848 O 190.205 0.64858 -1.69302 0
M  V30 1849 C 190.253 -2.81604 -2.25237 0
M  V30 1850 O 189.357 -2.46004 -3.30992 0
M  V30 1851 H 188.698 -0.563408 -0.35138 0
M  V30 1852 H 191.228 -1.98358 -0.501512 0
M  V30 1853 H 191.238 -3.06025 -2.69838 0
M  V30 1854 H 189.913 -3.75817 -1.78142 0
M  V30 1855 H 188.49 -2.32195 -2.91787 0
M  V30 1856 N 190.675 0.682077 -1.42076 0
M  V30 1857 C 191.903 1.47057 -1.4554 0
M  V30 1858 C 192.318 1.8869 -0.0645779 0
M  V30 1859 O 191.675 1.57666 0.919115 0
M  V30 1860 C 191.726 2.72442 -2.37609 0
M  V30 1861 O 191.447 2.32559 -3.71279 0
M  V30 1862 C 192.948 3.66069 -2.50017 0
M  V30 1863 H 190.168 0.452737 -0.495248 0
M  V30 1864 H 192.712 0.838695 -1.8651 0
M  V30 1865 H 190.867 3.31835 -1.9991 0
M  V30 1866 H 191.281 3.13475 -4.20516 0
M  V30 1867 H 192.755 4.50792 -3.18576 0
M  V30 1868 H 193.232 4.11476 -1.53572 0
M  V30 1869 H 193.838 3.12572 -2.88407 0
M  V30 1870 N 192.153 1.28127 0.917671 0
M  V30 1871 C 193.402 1.14432 1.66097 0
M  V30 1872 C 193.715 -0.307247 1.93172 0
M  V30 1873 O 194.921 -0.565259 2.65551 0
M  V30 1874 C 193.377 2.00015 2.99202 0
M  V30 1875 C 192.985 3.49889 2.79789 0
M  V30 1876 C 194.729 1.94996 3.77064 0
M  V30 1877 C 192.636 4.27636 4.08511 0
M  V30 1878 H 191.566 0.424662 0.62304 0
M  V30 1879 H 194.217 1.52628 1.01868 0
M  V30 1880 H 192.599 1.54672 3.64544 0
M  V30 1881 H 193.773 4.03162 2.23152 0
M  V30 1882 H 192.088 3.56392 2.15345 0
M  V30 1883 H 194.685 2.50354 4.72469 0
M  V30 1884 H 195.028 0.925819 4.05875 0
M  V30 1885 H 195.561 2.38287 3.18534 0
M  V30 1886 H 192.3 5.30615 3.84874 0
M  V30 1887 H 191.82 3.79137 4.64774 0
M  V30 1888 H 193.499 4.37346 4.76799 0
M  V30 1889 N 193.631 -1.12557 1.10312 0
M  V30 1890 C 194.594 -2.16434 0.75424 0
M  V30 1891 C 195.594 -1.59278 -0.220685 0
M  V30 1892 O 196.784 -1.742 0.00230591 0
M  V30 1893 C 193.916 -3.40699 0.116987 0
M  V30 1894 H 195.109 -2.48811 1.67431 0
M  V30 1895 H 192.662 -1.27542 0.903475 0
M  V30 1896 H 193.397 -3.13921 -0.813877 0
M  V30 1897 H 193.182 -3.83459 0.818613 0
M  V30 1898 H 194.672 -4.17451 -0.111387 0
M  V30 1899 N 195.109 -0.891671 -1.2995 0
M  V30 1900 C 196.072 -0.36828 -2.26222 0
M  V30 1901 C 197.072 0.493014 -1.53056 0
M  V30 1902 O 198.262 0.299213 -1.71611 0
M  V30 1903 C 195.394 0.47442 -3.37583 0
M  V30 1904 H 196.587 -1.21844 -2.74033 0
M  V30 1905 H 194.14 -0.669107 -1.41254 0
M  V30 1906 H 194.875 1.34489 -2.95099 0
M  V30 1907 H 194.66 -0.142615 -3.91841 0
M  V30 1908 H 196.15 0.83218 -4.09224 0
M  V30 1909 N 196.587 1.43421 -0.653314 0
M  V30 1910 C 197.835 2.01414 -0.166415 0
M  V30 1911 C 198.156 1.51803 1.22397 0
M  V30 1912 O 197.426 0.730693 1.81763 0
M  V30 1913 H 196.006 0.744703 -0.0585319 0
M  V30 1914 H 198.668 1.75629 -0.845003 0
M  V30 1915 H 197.764 3.11734 -0.151111 0
M  V30 1916 N 198.065 0.39524 1.52563 0
M  V30 1917 C 199.313 -0.184678 2.01254 0
M  V30 1918 C 199.634 -1.46822 1.28329 0
M  V30 1919 O 198.904 -1.91666 0.405094 0
M  V30 1920 H 197.484 -0.0712355 0.743596 0
M  V30 1921 H 200.146 0.528293 1.87603 0
M  V30 1922 H 199.242 -0.390681 3.09645 0
M  V30 1923 N 199.544 -1.57102 0.125237 0
M  V30 1924 C 200.784 -1.97294 -0.534259 0
M  V30 1925 C 201.148 -1.0074 -1.63449 0
M  V30 1926 O 202.349 -1.29893 -2.35332 0
M  V30 1927 C 200.62 -3.41705 -1.04748 0
M  V30 1928 S 202.179 -4.03913 -1.71463 0
M  V30 1929 H 198.997 -0.689517 -0.173458 0
M  V30 1930 H 201.599 -1.94349 0.211797 0
M  V30 1931 H 200.303 -4.09723 -0.235649 0
M  V30 1932 H 199.834 -3.48315 -1.82867 0
M  V30 1933 H 201.849 -3.95182 -3.00077 0
M  V30 1934 N 201.022 0.148545 -1.56898 0
M  V30 1935 C 202.247 0.880385 -1.87787 0
M  V30 1936 C 202.672 1.74018 -0.714093 0
M  V30 1937 O 202.03 1.78153 0.336343 0
M  V30 1938 C 202.078 1.71422 -3.17249 0
M  V30 1939 O 201.182 2.8183 -3.01074 0
M  V30 1940 H 200.523 0.245301 -0.617028 0
M  V30 1941 H 203.053 0.139826 -2.04122 0
M  V30 1942 H 203.063 2.10954 -3.49231 0
M  V30 1943 H 201.738 1.08284 -4.01556 0
M  V30 1944 H 200.315 2.45715 -2.80497 0
M  V30 1945 N 202.5 1.5196 0.417844 0
M  V30 1946 C 203.463 1.74065 1.49111 0
M  V30 1947 C 204.463 0.610537 1.48758 0
M  V30 1948 O 205.653 0.87832 1.50437 0
M  V30 1949 C 202.785 1.81502 2.88565 0
M  V30 1950 H 203.978 2.69869 1.30807 0
M  V30 1951 H 201.531 1.42244 0.647785 0
M  V30 1952 H 202.266 0.875813 3.1225 0
M  V30 1953 H 202.051 2.63651 2.90225 0
M  V30 1954 H 203.541 2.00376 3.66387 0
M  V30 1955 N 203.978 -0.674533 1.42435 0
M  V30 1956 C 204.908 -1.80009 1.48724 0
M  V30 1957 C 205.889 -1.6659 0.343793 0
M  V30 1958 O 207.074 -1.86007 0.558137 0
M  V30 1959 C 204.204 -3.18306 1.38919 0
M  V30 1960 C 203.158 -3.46461 2.51294 0
M  V30 1961 C 202.484 -4.84335 2.26547 0
M  V30 1962 C 203.784 -3.43328 3.93603 0
M  V30 1963 H 205.478 -1.75004 2.42928 0
M  V30 1964 H 203.024 -0.840533 1.16923 0
M  V30 1965 H 204.977 -3.9678 1.41927 0
M  V30 1966 H 203.701 -3.2399 0.412094 0
M  V30 1967 H 202.36 -2.70348 2.47604 0
M  V30 1968 H 202.008 -4.86669 1.2713 0
M  V30 1969 H 201.708 -5.04136 3.01861 0
M  V30 1970 H 203.232 -5.65094 2.31304 0
M  V30 1971 H 204.646 -4.11772 3.98894 0
M  V30 1972 H 203.043 -3.74664 4.68771 0
M  V30 1973 H 204.113 -2.41897 4.20255 0
M  V30 1974 N 205.456 -1.28612 -0.910864 0
M  V30 1975 C 206.406 -1.09423 -2.00026 0
M  V30 1976 C 207.39 -0.0170079 -1.60891 0
M  V30 1977 O 208.582 -0.237472 -1.754 0
M  V30 1978 C 205.711 -0.76114 -3.34756 0
M  V30 1979 C 204.797 -1.87735 -3.80285 0
M  V30 1980 N 205.188 -3.11938 -3.98156 0
M  V30 1981 C 203.486 -1.76786 -4.09467 0
M  V30 1982 C 204.187 -3.84687 -4.36338 0
M  V30 1983 N 203.163 -3.12555 -4.44759 0
M  V30 1984 H 206.965 -2.03658 -2.11898 0
M  V30 1985 H 204.479 -1.19573 -1.09891 0
M  V30 1986 H 206.476 -0.604743 -4.12491 0
M  V30 1987 H 205.136 0.173403 -3.24237 0
M  V30 1988 H 206.147 -3.47516 -3.83996 0
M  V30 1989 H 202.824 -0.905284 -4.07567 0
M  V30 1990 H 204.214 -4.91518 -4.58104 0
M  V30 1991 N 206.934 1.1197 -1.10907 0
M  V30 1992 C 208.183 1.82947 -0.849302 0
M  V30 1993 C 208.496 1.85275 0.627112 0
M  V30 1994 O 209.702 2.52296 1.00295 0
M  V30 1995 C 208.158 3.28529 -1.46959 0
M  V30 1996 C 207.766 3.34546 -2.97965 0
M  V30 1997 C 209.51 4.04443 -1.28942 0
M  V30 1998 C 207.417 4.74491 -3.53004 0
M  V30 1999 H 206.347 0.685477 -0.314065 0
M  V30 2000 H 208.998 1.2604 -1.33365 0
M  V30 2001 H 207.38 3.85333 -0.912917 0
M  V30 2002 H 208.554 2.87654 -3.59989 0
M  V30 2003 H 206.869 2.72108 -3.15192 0
M  V30 2004 H 209.466 5.07787 -1.67502 0
M  V30 2005 H 209.809 4.15656 -0.231456 0
M  V30 2006 H 210.342 3.5401 -1.81443 0
M  V30 2007 H 207.081 4.68474 -4.58489 0
M  V30 2008 H 206.601 5.21816 -2.9575 0
M  V30 2009 H 208.28 5.4344 -3.51115 0
M  V30 2010 N 208.412 0.89855 1.29475 0
M  V30 2011 C 209.658 0.534065 1.96263 0
M  V30 2012 C 210.013 -0.909415 1.69551 0
M  V30 2013 O 209.306 -1.63596 0.997349 0
M  V30 2014 C 209.5 0.761398 3.49195 0
M  V30 2015 C 209.329 2.22542 3.90775 0
M  V30 2016 C 208.099 2.87264 4.15701 0
M  V30 2017 C 210.297 3.20051 4.02581 0
M  V30 2018 N 208.279 4.24121 4.4384 0
M  V30 2019 C 209.65 4.42023 4.34759 0
M  V30 2020 C 211.705 3.15657 3.85052 0
M  V30 2021 C 210.408 5.60161 4.51235 0
M  V30 2022 C 212.434 4.33078 4.02737 0
M  V30 2023 C 211.796 5.5382 4.35273 0
M  V30 2024 H 207.895 0.245013 0.742625 0
M  V30 2025 H 210.479 1.15912 1.56437 0
M  V30 2026 H 208.65 0.165732 3.88046 0
M  V30 2027 H 210.382 0.362462 4.03074 0
M  V30 2028 H 207.137 2.38064 4.09417 0
M  V30 2029 H 207.561 4.94839 4.6202 0
M  V30 2030 H 212.203 2.23396 3.58962 0
M  V30 2031 H 209.921 6.52913 4.76162 0
M  V30 2032 H 213.507 4.31163 3.90628 0
M  V30 2033 H 212.387 6.43166 4.48672 0
M  V30 2034 N 209.89 -1.43072 0.660911 0
M  V30 2035 C 210.853 -2.29194 -0.0166406 0
M  V30 2036 C 211.853 -1.42609 -0.742912 0
M  V30 2037 O 213.043 -1.64155 -0.583004 0
M  V30 2038 C 210.175 -3.24831 -1.0343 0
M  V30 2039 H 211.368 -2.90596 0.741208 0
M  V30 2040 H 208.921 -1.5048 0.422532 0
M  V30 2041 H 209.656 -2.68339 -1.82111 0
M  V30 2042 H 209.441 -3.88676 -0.517082 0
M  V30 2043 H 210.931 -3.89451 -1.50723 0
M  V30 2044 N 211.368 -0.403325 -1.52352 0
M  V30 2045 C 212.645 0.232611 -1.94212 0
M  V30 2046 C 213.025 1.63133 -1.33981 0
M  V30 2047 O 212.373 2.22659 -0.513344 0
M  V30 2048 C 212.583 0.244811 -3.4814 0
M  V30 2049 C 213.931 0.46698 -4.22024 0
M  V30 2050 O 214.955 0.324419 -3.5472 0
M  V30 2051 O 213.814 0.74747 -5.41364 0
M  V30 2052 H 210.908 0.148223 -0.813609 0
M  V30 2053 H 213.454 -0.458848 -1.63379 0
M  V30 2054 H 212.226 -0.734378 -3.84347 0
M  V30 2055 H 211.849 0.980611 -3.85318 0
M  V30 2056 N 212.846 1.57033 -0.133567 0
M  V30 2057 C 214.074 2.00044 0.528195 0
M  V30 2058 C 214.489 1.01349 1.59291 0
M  V30 2059 O 213.846 0.00848369 1.82498 0
M  V30 2060 C 213.897 3.43018 1.1411 0
M  V30 2061 O 213.618 4.37939 0.11892 0
M  V30 2062 C 215.119 4.01237 1.88477 0
M  V30 2063 H 212.339 0.656517 0.138661 0
M  V30 2064 H 214.883 2.03267 -0.224196 0
M  V30 2065 H 213.038 3.40688 1.84418 0
M  V30 2066 H 213.452 5.21436 0.56613 0
M  V30 2067 H 214.926 5.03314 2.26669 0
M  V30 2068 H 215.403 3.41193 2.76558 0
M  V30 2069 H 216.009 4.07156 1.22898 0
M  V30 2070 N 214.325 -0.140222 1.56975 0
M  V30 2071 C 215.573 -0.850005 1.83356 0
M  V30 2072 C 215.894 -1.81399 0.71551 0
M  V30 2073 O 215.164 -1.94136 -0.262294 0
M  V30 2074 H 213.744 -0.316886 0.676456 0
M  V30 2075 H 216.406 -0.132608 1.94448 0
M  V30 2076 H 215.502 -1.40814 2.78528 0
M  V30 2077 N 215.803 -1.52179 -0.40978 0
M  V30 2078 C 217.051 -1.65878 -1.15451 0
M  V30 2079 C 217.372 -0.390771 -1.91044 0
M  V30 2080 O 216.642 0.594323 -1.86667 0
M  V30 2081 H 215.222 -0.611405 -0.429177 0
M  V30 2082 H 217.884 -1.89219 -0.467134 0
M  V30 2083 H 216.98 -2.49954 -1.86894 0
M  V30 2084 N 217.281 0.66697 -1.42791 0
M  V30 2085 C 218.244 1.76211 -1.46568 0
M  V30 2086 C 219.244 1.56896 -0.352196 0
M  V30 2087 O 220.434 1.63044 -0.613364 0
M  V30 2088 C 217.566 3.14935 -1.30494 0
M  V30 2089 H 218.759 1.74247 -2.44086 0
M  V30 2090 H 216.312 0.877342 -1.29354 0
M  V30 2091 H 217.047 3.2252 -0.339301 0
M  V30 2092 H 216.832 3.30359 -2.11199 0
M  V30 2093 H 218.322 3.94821 -1.36038 0
M  V30 2094 N 218.759 1.29093 0.90403 0
M  V30 2095 C 220.007 1.16583 1.65085 0
M  V30 2096 C 220.328 -0.283933 1.92922 0
M  V30 2097 O 219.598 -1.19509 1.55224 0
M  V30 2098 H 218.178 0.428467 0.611903 0
M  V30 2099 H 220.84 1.61959 1.08422 0
M  V30 2100 H 219.936 1.71266 2.6091 0
M  V30 2101 N 220.237 -1.11381 1.11499 0
M  V30 2102 C 221.2 -2.15622 0.777153 0
M  V30 2103 C 222.2 -1.59504 -0.203779 0
M  V30 2104 O 223.39 -1.74188 0.020782 0
M  V30 2105 C 220.522 -3.40556 0.153116 0
M  V30 2106 H 221.715 -2.47021 1.70061 0
M  V30 2107 H 219.268 -1.26577 0.916952 0
M  V30 2108 H 220.003 -3.14767 -0.780536 0
M  V30 2109 H 219.788 -3.8257 0.859238 0
M  V30 2110 H 221.278 -4.17546 -0.0671044 0
M  V30 2111 N 221.715 -0.905404 -1.28997 0
M  V30 2112 C 222.992 -0.453513 -1.9027 0
M  V30 2113 C 223.372 1.06721 -1.82137 0
M  V30 2114 O 222.72 1.91159 -1.25182 0
M  V30 2115 C 222.93 -0.974494 -3.35119 0
M  V30 2116 C 224.278 -1.0216 -4.12127 0
M  V30 2117 O 225.302 -0.922557 -3.44046 0
M  V30 2118 O 224.161 -1.17121 -5.33802 0
M  V30 2119 H 221.255 -0.142347 -0.814657 0
M  V30 2120 H 223.801 -0.995642 -1.37423 0
M  V30 2121 H 222.573 -2.01848 -3.35221 0
M  V30 2122 H 222.196 -0.412706 -3.95452 0
M  V30 2123 N 223.193 1.4272 -0.668489 0
M  V30 2124 C 224.44 2.01624 -0.18814 0
M  V30 2125 C 224.768 1.5282 1.20317 0
M  V30 2126 O 224.023 0.718323 1.8204 0
M  V30 2127 C 224.322 3.57021 -0.164499 0
M  V30 2128 C 223.988 4.25232 -1.49962 0
M  V30 2129 C 222.65 4.4358 -1.8652 0
M  V30 2130 C 225.002 4.63727 -2.37921 0
M  V30 2131 C 222.33 4.97694 -3.10674 0
M  V30 2132 C 224.682 5.19218 -3.6138 0
M  V30 2133 C 223.346 5.3578 -3.98115 0
M  V30 2134 H 222.616 0.737795 -0.0688454 0
M  V30 2135 H 225.263 1.70991 -0.862225 0
M  V30 2136 H 223.568 3.87285 0.593079 0
M  V30 2137 H 225.265 4.00372 0.224271 0
M  V30 2138 H 221.855 4.11306 -1.20522 0
M  V30 2139 H 226.039 4.4923 -2.10964 0
M  V30 2140 H 221.295 5.08702 -3.39164 0
M  V30 2141 H 225.469 5.4799 -4.29743 0
M  V30 2142 H 223.096 5.77475 -4.94395 0
M  V30 2143 N 224.671 0.411399 1.52136 0
M  V30 2144 C 225.604 -0.457614 2.23565 0
M  V30 2145 C 226.582 -1.04613 1.24478 0
M  V30 2146 O 227.766 -1.09356 1.53536 0
M  V30 2147 C 224.893 -1.6354 2.96602 0
M  V30 2148 C 223.939 -1.17005 4.10137 0
M  V30 2149 S 224.772 -0.13333 5.35334 0
M  V30 2150 C 225.928 -1.31638 6.119 0
M  V30 2151 H 226.161 0.148883 2.96927 0
M  V30 2152 H 223.694 0.195713 1.53155 0
M  V30 2153 H 225.652 -2.31074 3.39286 0
M  V30 2154 H 224.313 -2.21324 2.22878 0
M  V30 2155 H 223.506 -2.05005 4.60422 0
M  V30 2156 H 223.108 -0.573319 3.6958 0
M  V30 2157 H 225.4 -2.23957 6.39413 0
M  V30 2158 H 226.343 -0.854014 7.02931 0
M  V30 2159 H 226.751 -1.54321 5.42997 0
M  V30 2160 N 226.149 -1.5696 0.141893 0
M  V30 2161 C 227.397 -1.95573 -0.509484 0
M  V30 2162 C 227.718 -1.02746 -1.65736 0
M  V30 2163 O 226.988 -0.0880311 -1.95702 0
M  V30 2164 H 225.568 -0.722115 -0.191205 0
M  V30 2165 H 228.23 -1.93697 0.216196 0
M  V30 2166 H 227.326 -2.99171 -0.889 0
M  V30 2167 N 227.627 0.131896 -1.57047 0
M  V30 2168 C 228.876 0.84044 -1.83356 0
M  V30 2169 C 229.189 1.81646 -0.725535 0
M  V30 2170 O 230.395 2.57025 -0.874659 0
M  V30 2171 C 228.851 1.54528 -3.25037 0
M  V30 2172 C 228.459 0.610902 -4.43815 0
M  V30 2173 C 230.203 2.23972 -3.60606 0
M  V30 2174 C 228.11 1.31823 -5.76521 0
M  V30 2175 H 227.04 0.317599 -0.683847 0
M  V30 2176 H 229.691 0.0931561 -1.83263 0
M  V30 2177 H 228.073 2.33873 -3.19561 0
M  V30 2178 H 229.247 -0.148407 -4.60561 0
M  V30 2179 H 227.562 0.0241016 -4.16393 0
M  V30 2180 H 230.159 2.77558 -4.57018 0
M  V30 2181 H 230.502 3.01173 -2.87403 0
M  V30 2182 H 231.035 1.51529 -3.6781 0
M  V30 2183 H 227.774 0.587771 -6.52859 0
M  V30 2184 H 227.294 2.04987 -5.63685 0
M  V30 2185 H 228.973 1.855 -6.19838 0
M  V30 2186 N 229.106 1.52395 0.401703 0
M  V30 2187 C 230.517 1.58899 0.980202 0
M  V30 2188 C 230.868 0.434032 1.91339 0
M  V30 2189 O 229.993 -0.444619 2.11783 0
M  V30 2190 C 230.588 2.87994 1.78451 0
M  V30 2191 C 229.147 2.96953 2.31292 0
M  V30 2192 C 228.294 2.53903 1.11483 0
M  V30 2193 H 231.245 1.57657 0.18168 0
M  V30 2194 H 231.266 2.73765 2.64259 0
M  V30 2195 H 230.778 3.72035 1.10506 0
M  V30 2196 H 228.879 2.17422 3.02586 0
M  V30 2197 H 228.992 4.01344 2.61649 0
M  V30 2198 H 227.356 2.07925 1.47104 0
M  V30 2199 H 228.139 3.40326 0.450928 0
M  V30 2200 N 230.584 -0.659388 1.43143 0
M  V30 2201 C 231.832 -1.41654 1.44147 0
M  V30 2202 C 232.153 -1.94893 0.0645739 0
M  V30 2203 O 231.423 -1.74044 -0.899198 0
M  V30 2204 H 230.003 -0.525708 0.530697 0
M  V30 2205 H 232.665 -0.778097 1.78694 0
M  V30 2206 H 231.761 -2.26195 2.1504 0
M  V30 2207 N 232.062 -1.29571 -0.897171 0
M  V30 2208 C 233.31 -1.17456 -1.64464 0
M  V30 2209 C 233.631 0.273698 -1.9307 0
M  V30 2210 O 232.901 1.18684 -1.55855 0
M  V30 2211 H 231.481 -0.431706 -0.609622 0
M  V30 2212 H 234.143 -1.62531 -1.07562 0
M  V30 2213 H 233.239 -1.72648 -2.59998 0
M  V30 2214 N 233.54 1.10788 -1.12088 0
M  V30 2215 C 234.503 2.15207 -0.788577 0
M  V30 2216 C 235.503 1.59609 0.195317 0
M  V30 2217 O 236.693 1.74174 -0.0300193 0
M  V30 2218 C 233.825 3.4047 -0.171174 0
M  V30 2219 H 235.018 2.46116 -1.71368 0
M  V30 2220 H 232.571 1.26089 -0.923652 0
M  V30 2221 H 233.306 3.15176 0.763832 0
M  V30 2222 H 233.091 3.82109 -0.879514 0
M  V30 2223 H 234.581 4.17576 0.04496 0
M  V30 2224 N 235.018 0.912232 1.28515 0
M  V30 2225 C 236.266 0.543523 1.94654 0
M  V30 2226 C 236.587 -0.9155 1.72173 0
M  V30 2227 O 235.857 -1.64708 1.06058 0
M  V30 2228 H 234.437 0.198017 0.720277 0
M  V30 2229 H 237.099 1.16126 1.56527 0
M  V30 2230 H 236.195 0.736684 3.03281 0
M  V30 2231 N 236.496 -1.42363 0.676048 0
M  V30 2232 C 237.724 -2.05859 0.207268 0
M  V30 2233 C 238.139 -1.50796 -1.13605 0
M  V30 2234 O 237.496 -0.648265 -1.70598 0
M  V30 2235 C 237.547 -3.61248 0.134975 0
M  V30 2236 O 237.268 -4.1427 1.42521 0
M  V30 2237 C 238.769 -4.41859 -0.357151 0
M  V30 2238 H 235.989 -0.663431 0.100503 0
M  V30 2239 H 238.533 -1.82479 0.923136 0
M  V30 2240 H 236.688 -3.83735 -0.531588 0
M  V30 2241 H 237.102 -5.0815 1.29939 0
M  V30 2242 H 238.576 -5.50847 -0.356641 0
M  V30 2243 H 239.053 -4.16536 -1.39264 0
M  V30 2244 H 239.659 -4.24392 0.27772 0
M  V30 2245 N 237.974 -0.419461 -1.51915 0
M  V30 2246 C 238.904 0.391813 -2.30189 0
M  V30 2247 C 239.885 1.03699 -1.34836 0
M  V30 2248 O 241.07 1.04403 -1.63748 0
M  V30 2249 C 238.2 1.50312 -3.13087 0
M  V30 2250 C 237.154 0.9824 -4.16573 0
M  V30 2251 C 236.48 2.18809 -4.8788 0
M  V30 2252 C 237.78 0.0292356 -5.22292 0
M  V30 2253 H 239.474 -0.26135 -2.98257 0
M  V30 2254 H 237.02 -0.127134 -1.43438 0
M  V30 2255 H 238.973 2.07773 -3.66617 0
M  V30 2256 H 237.697 2.18431 -2.42807 0
M  V30 2257 H 236.356 0.430119 -3.64068 0
M  V30 2258 H 236.004 2.85507 -4.14119 0
M  V30 2259 H 235.704 1.84615 -5.57845 0
M  V30 2260 H 237.228 2.76858 -5.44226 0
M  V30 2261 H 238.642 0.512976 -5.71 0
M  V30 2262 H 237.039 -0.2244 -5.9968 0
M  V30 2263 H 238.109 -0.912931 -4.76228 0
M  V30 2264 N 239.452 1.56882 -0.150215 0
M  V30 2265 C 240.863 1.82995 0.370076 0
M  V30 2266 C 241.214 1.06907 1.64515 0
M  V30 2267 O 240.339 0.315369 2.1409 0
M  V30 2268 C 240.934 3.31942 0.678208 0
M  V30 2269 C 239.493 3.58625 1.14301 0
M  V30 2270 C 238.64 2.76792 0.167778 0
M  V30 2271 H 241.591 1.54209 -0.374858 0
M  V30 2272 H 241.612 3.48272 1.53254 0
M  V30 2273 H 241.124 3.87294 -0.249991 0
M  V30 2274 H 239.225 3.08664 2.08704 0
M  V30 2275 H 239.338 4.67073 1.06676 0
M  V30 2276 H 237.702 2.45972 0.661037 0
M  V30 2277 H 238.485 3.34916 -0.754069 0
M  V30 2278 N 240.93 -0.123565 1.57115 0
M  V30 2279 C 242.341 -0.681198 1.73829 0
M  V30 2280 C 242.692 -1.80535 0.768214 0
M  V30 2281 O 241.817 -2.16317 -0.0599103 0
M  V30 2282 C 242.412 -1.24246 3.15196 0
M  V30 2283 C 240.971 -1.74643 3.33432 0
M  V30 2284 C 240.118 -0.644284 2.69711 0
M  V30 2285 H 243.069 0.102315 1.5837 0
M  V30 2286 H 243.09 -2.11216 3.16493 0
M  V30 2287 H 242.602 -0.424062 3.85776 0
M  V30 2288 H 240.703 -2.58974 2.67886 0
M  V30 2289 H 240.816 -1.85902 4.41562 0
M  V30 2290 H 239.18 -1.07676 2.3082 0
M  V30 2291 H 239.963 0.163058 3.42913 0
M  V30 2292 N 242.408 -1.52605 -0.393616 0
M  V30 2293 C 243.318 -1.79971 -1.50492 0
M  V30 2294 C 244.334 -0.686181 -1.59899 0
M  V30 2295 O 245.51 -0.973274 -1.76322 0
M  V30 2296 C 242.575 -1.95867 -2.86072 0
M  V30 2297 C 241.636 -3.19781 -2.86424 0
M  V30 2298 C 240.869 -3.34909 -4.15538 0
M  V30 2299 O 241.092 -2.54948 -5.10253 0
M  V30 2300 O 240.026 -4.28141 -4.23059 0
M  V30 2301 H 243.852 -2.74328 -1.30299 0
M  V30 2302 H 241.437 -1.3764 -0.581005 0
M  V30 2303 H 243.319 -2.08056 -3.66457 0
M  V30 2304 H 241.994 -1.04699 -3.063 0
M  V30 2305 H 240.901 -3.13038 -2.04837 0
M  V30 2306 H 242.234 -4.1078 -2.71147 0
M  V30 2307 N 243.887 0.651787 -1.4349 0
M  V30 2308 C 244.834 1.76462 -1.4876 0
M  V30 2309 C 245.804 1.62641 -0.337189 0
M  V30 2310 O 246.989 1.82864 -0.544544 0
M  V30 2311 C 244.129 3.14623 -1.41796 0
M  V30 2312 C 243.242 3.39568 -2.67053 0
M  V30 2313 C 242.377 4.67585 -2.52068 0
M  V30 2314 C 241.416 4.85639 -3.72587 0
M  V30 2315 N 240.553 6.04915 -3.56402 0
M  V30 2316 H 245.393 1.71293 -2.43849 0
M  V30 2317 H 242.93 0.835889 -1.21043 0
M  V30 2318 H 244.888 3.94496 -1.35753 0
M  V30 2319 H 243.518 3.18859 -0.50288 0
M  V30 2320 H 242.57 2.53783 -2.8337 0
M  V30 2321 H 243.882 3.48795 -3.56572 0
M  V30 2322 H 243.036 5.55586 -2.4374 0
M  V30 2323 H 241.775 4.60681 -1.60075 0
M  V30 2324 H 240.78 3.96073 -3.81321 0
M  V30 2325 H 242.005 4.94372 -4.65589 0
M  V30 2326 H 239.951 5.9914 -2.67146 0
M  V30 2327 H 239.868 6.15106 -4.39524 0
M  V30 2328 H 241.136 6.95533 -3.51929 0
M  V30 2329 N 245.365 1.30045 0.890287 0
M  V30 2330 C 246.312 1.15976 1.99545 0
M  V30 2331 C 247.282 0.0506202 1.66023 0
M  V30 2332 O 248.467 0.219847 1.89529 0
M  V30 2333 C 245.607 0.852054 3.34416 0
M  V30 2334 C 244.72 2.04255 3.80662 0
M  V30 2335 C 243.855 1.6734 5.04154 0
M  V30 2336 C 242.894 2.82916 5.42794 0
M  V30 2337 N 242.031 2.46333 6.57468 0
M  V30 2338 H 246.871 2.10524 2.10911 0
M  V30 2339 H 244.408 1.04749 1.03276 0
M  V30 2340 H 246.366 0.654296 4.12037 0
M  V30 2341 H 244.996 -0.0565502 3.2275 0
M  V30 2342 H 244.048 2.35172 2.98995 0
M  V30 2343 H 245.36 2.90826 4.05242 0
M  V30 2344 H 244.514 1.43908 5.89386 0
M  V30 2345 H 243.253 0.779308 4.81433 0
M  V30 2346 H 242.258 3.0702 4.56091 0
M  V30 2347 H 243.483 3.73004 5.6749 0
M  V30 2348 H 241.429 1.59423 6.36334 0
M  V30 2349 H 241.346 3.26436 6.81891 0
M  V30 2350 H 242.614 2.26244 7.45945 0
M  V30 2351 N 246.843 -1.10192 1.12674 0
M  V30 2352 C 248.254 -1.63707 0.897604 0
M  V30 2353 C 248.605 -1.87812 -0.567546 0
M  V30 2354 O 247.73 -1.62196 -1.43253 0
M  V30 2355 C 248.325 -2.974 1.62292 0
M  V30 2356 C 246.884 -3.47772 1.43986 0
M  V30 2357 C 246.031 -2.22332 1.65722 0
M  V30 2358 H 248.982 -0.936587 1.28116 0
M  V30 2359 H 249.003 -3.64986 1.07541 0
M  V30 2360 H 248.515 -2.79824 2.68924 0
M  V30 2361 H 246.616 -3.70487 0.396206 0
M  V30 2362 H 246.729 -4.25723 2.19765 0
M  V30 2363 H 245.093 -2.30599 1.08149 0
M  V30 2364 H 245.876 -2.07285 2.73657 0
M  V30 2365 N 248.321 -0.919034 -1.28029 0
M  V30 2366 C 249.253 -0.368762 -2.26214 0
M  V30 2367 C 250.266 0.495716 -1.55069 0
M  V30 2368 O 251.455 0.30974 -1.75792 0
M  V30 2369 C 248.555 0.491049 -3.35324 0
M  V30 2370 C 247.728 -0.352133 -4.3598 0
M  V30 2371 C 246.787 0.443622 -5.24327 0
M  V30 2372 O 245.813 -0.14566 -5.69014 0
M  V30 2373 N 247.015 1.74545 -5.53637 0
M  V30 2374 H 249.78 -1.21273 -2.74068 0
M  V30 2375 H 247.341 -0.785541 -1.41566 0
M  V30 2376 H 249.333 1.03026 -3.91366 0
M  V30 2377 H 247.903 1.23574 -2.87138 0
M  V30 2378 H 247.123 -1.07269 -3.79324 0
M  V30 2379 H 248.411 -0.928883 -5.00249 0
M  V30 2380 H 247.809 2.24666 -5.19174 0
M  V30 2381 H 246.366 2.23138 -6.12416 0
M  V30 2382 N 249.799 1.42003 -0.683588 0
M  V30 2383 C 251.045 2.01712 -0.209825 0
M  V30 2384 C 251.378 1.53968 1.18353 0
M  V30 2385 O 250.653 0.745661 1.79639 0
M  V30 2386 C 250.936 3.59202 -0.254197 0
M  V30 2387 C 250.789 4.17102 -1.68363 0
M  V30 2388 C 252.108 4.38344 0.392709 0
M  V30 2389 H 249.227 0.732891 -0.0777189 0
M  V30 2390 H 251.869 1.68909 -0.87004 0
M  V30 2391 H 250.019 3.87278 0.307954 0
M  V30 2392 H 251.691 3.99946 -2.29871 0
M  V30 2393 H 249.934 3.72597 -2.22157 0
M  V30 2394 H 250.605 5.26249 -1.6663 0
M  V30 2395 H 253.081 4.16011 -0.0859162 0
M  V30 2396 H 251.957 5.47901 0.331063 0
M  V30 2397 H 252.218 4.16887 1.47164 0
M  V30 2398 N 251.277 0.427512 1.51691 0
M  V30 2399 C 252.525 -0.141948 2.01601 0
M  V30 2400 C 252.846 -1.44067 1.31414 0
M  V30 2401 O 252.116 -1.90763 0.445658 0
M  V30 2402 H 250.696 -0.0554468 0.744939 0
M  V30 2403 H 253.358 0.567968 1.86441 0
M  V30 2404 H 252.454 -0.324913 3.10404 0
M  V30 2405 N 252.755 -1.56801 0.158532 0
M  V30 2406 C 254.003 -1.96102 -0.488712 0
M  V30 2407 C 254.324 -1.04498 -1.64636 0
M  V30 2408 O 253.594 -0.108783 -1.95598 0
M  V30 2409 H 252.174 -0.724102 -0.183535 0
M  V30 2410 H 254.836 -1.93457 0.236728 0
M  V30 2411 H 253.932 -3.00097 -0.857219 0
M  V30 2412 N 254.233 0.115231 -1.57178 0
M  V30 2413 C 255.482 0.820945 -1.84237 0
M  V30 2414 C 255.795 1.80866 -0.744761 0
M  V30 2415 O 257.001 2.56083 -0.901871 0
M  V30 2416 C 255.457 1.51072 -3.26658 0
M  V30 2417 C 255.065 0.563795 -4.44438 0
M  V30 2418 C 256.809 2.20134 -3.62962 0
M  V30 2419 C 254.716 1.25701 -5.77887 0
M  V30 2420 H 253.646 0.310328 -0.687177 0
M  V30 2421 H 256.297 0.0737134 -1.83352 0
M  V30 2422 H 254.679 2.30471 -3.22024 0
M  V30 2423 H 255.853 -0.197247 -4.60378 0
M  V30 2424 H 254.168 -0.0200638 -4.16395 0
M  V30 2425 H 256.765 2.72696 -4.59936 0
M  V30 2426 H 257.108 2.98107 -2.90582 0
M  V30 2427 H 257.641 1.47619 -3.69396 0
M  V30 2428 H 254.38 0.518493 -6.53446 0
M  V30 2429 H 253.9 1.98997 -5.65827 0
M  V30 2430 H 255.579 1.78915 -6.2177 0
M  V30 2431 N 255.711 1.52812 0.385517 0
M  V30 2432 C 256.958 1.68026 1.1302 0
M  V30 2433 C 257.286 0.421934 1.89868 0
M  V30 2434 O 256.541 -0.595749 1.86412 0
M  V30 2435 C 256.84 2.86856 2.13187 0
M  V30 2436 C 256.506 4.24159 1.5297 0
M  V30 2437 C 255.168 4.61501 1.36274 0
M  V30 2438 C 257.52 5.09627 1.09223 0
M  V30 2439 C 254.848 5.81966 0.743837 0
M  V30 2440 C 257.2 6.30719 0.487411 0
M  V30 2441 C 255.864 6.6679 0.307777 0
M  V30 2442 H 255.134 0.614849 0.413571 0
M  V30 2443 H 257.781 1.86962 0.414405 0
M  V30 2444 H 256.086 2.6235 2.90998 0
M  V30 2445 H 257.783 2.95821 2.70722 0
M  V30 2446 H 254.373 3.94746 1.66954 0
M  V30 2447 H 258.557 4.81343 1.20922 0
M  V30 2448 H 253.813 6.08519 0.592891 0
M  V30 2449 H 257.987 6.96259 0.140143 0
M  V30 2450 H 255.614 7.60001 -0.173879 0
M  V30 2451 N 257.189 -0.644168 1.43834 0
M  V30 2452 C 258.417 -1.43147 1.49387 0
M  V30 2453 C 258.832 -1.88452 0.114583 0
M  V30 2454 O 258.189 -1.60047 -0.876989 0
M  V30 2455 C 258.24 -2.66046 2.44748 0
M  V30 2456 O 257.961 -2.22633 3.77314 0
M  V30 2457 C 259.462 -3.59311 2.59635 0
M  V30 2458 H 256.682 -0.439447 0.507077 0
M  V30 2459 H 259.226 -0.78895 1.88669 0
M  V30 2460 H 257.381 -3.26418 2.08638 0
M  V30 2461 H 257.795 -3.02216 4.28679 0
M  V30 2462 H 259.269 -4.42187 3.30416 0
M  V30 2463 H 259.746 -4.07259 1.64427 0
M  V30 2464 H 260.352 -3.04816 2.96593 0
M  V30 2465 N 258.668 -1.30515 -0.883378 0
M  V30 2466 C 259.945 -1.10086 -1.6168 0
M  V30 2467 C 260.325 0.349269 -2.08191 0
M  V30 2468 O 259.673 1.34105 -1.85008 0
M  V30 2469 C 259.883 -2.10315 -2.78511 0
M  V30 2470 C 261.231 -2.42119 -3.48803 0
M  V30 2471 O 262.255 -2.08638 -2.88702 0
M  V30 2472 O 261.114 -2.99396 -4.57192 0
M  V30 2473 H 258.208 -0.422907 -0.710689 0
M  V30 2474 H 260.754 -1.41947 -0.930015 0
M  V30 2475 H 259.526 -3.07917 -2.41459 0
M  V30 2476 H 259.149 -1.79282 -3.54886 0
M  V30 2477 N 260.146 1.09593 -1.13257 0
M  V30 2478 C 261.076 2.18214 -0.830946 0
M  V30 2479 C 262.057 1.68812 0.208966 0
M  V30 2480 O 263.242 1.9408 0.0682666 0
M  V30 2481 C 260.372 3.46051 -0.294296 0
M  V30 2482 C 259.326 4.08778 -1.26826 0
M  V30 2483 C 258.652 5.31419 -0.591449 0
M  V30 2484 C 259.952 4.51476 -2.62615 0
M  V30 2485 H 261.646 2.43703 -1.73923 0
M  V30 2486 H 259.192 1.17128 -0.837675 0
M  V30 2487 H 261.145 4.2134 -0.0709606 0
M  V30 2488 H 259.869 3.20079 0.649366 0
M  V30 2489 H 258.528 3.35505 -1.47756 0
M  V30 2490 H 258.176 5.01727 0.357633 0
M  V30 2491 H 257.876 5.74341 -1.24123 0
M  V30 2492 H 259.4 6.09433 -0.377355 0
M  V30 2493 H 260.814 5.17999 -2.45663 0
M  V30 2494 H 259.211 5.05277 -3.23752 0
M  V30 2495 H 260.281 3.63962 -3.20406 0
M  V30 2496 N 261.624 0.925811 1.2754 0
M  V30 2497 C 262.571 0.422045 2.26908 0
M  V30 2498 C 263.541 -0.510029 1.58076 0
M  V30 2499 O 264.726 -0.429599 1.85901 0
M  V30 2500 C 261.866 -0.320837 3.43605 0
M  V30 2501 C 260.979 0.64513 4.27156 0
M  V30 2502 C 260.114 -0.117405 5.3107 0
M  V30 2503 C 259.153 0.841391 6.0629 0
M  V30 2504 N 258.29 0.111604 7.02011 0
M  V30 2505 H 263.13 1.27441 2.69375 0
M  V30 2506 H 260.667 0.639697 1.32462 0
M  V30 2507 H 262.625 -0.76785 4.10073 0
M  V30 2508 H 261.255 -1.13745 3.02096 0
M  V30 2509 H 260.307 1.21067 3.6062 0
M  V30 2510 H 261.619 1.37797 4.79389 0
M  V30 2511 H 260.773 -0.624422 6.03478 0
M  V30 2512 H 259.512 -0.883219 4.79636 0
M  V30 2513 H 258.517 1.35967 5.32722 0
M  V30 2514 H 259.742 1.60696 6.59813 0
M  V30 2515 H 257.688 -0.635999 6.5291 0
M  V30 2516 H 257.605 0.784044 7.51923 0
M  V30 2517 H 258.873 -0.374823 7.78598 0
M  V30 2518 N 263.102 -1.41638 0.69111 0
M  V30 2519 C 264.348 -2.01598 0.220519 0
M  V30 2520 C 264.681 -1.54594 -1.17535 0
M  V30 2521 O 263.956 -0.755177 -1.79241 0
M  V30 2522 C 264.239 -3.59062 0.273243 0
M  V30 2523 C 264.092 -4.16203 1.70573 0
M  V30 2524 C 265.411 -4.38546 -0.369457 0
M  V30 2525 H 262.53 -0.732468 0.0816045 0
M  V30 2526 H 265.172 -1.68445 0.878986 0
M  V30 2527 H 263.322 -3.87435 -0.287411 0
M  V30 2528 H 264.994 -3.98722 2.31989 0
M  V30 2529 H 263.237 -3.71414 2.2413 0
M  V30 2530 H 263.908 -5.25358 1.69419 0
M  V30 2531 H 266.384 -4.1596 0.107977 0
M  V30 2532 H 265.26 -5.48069 -0.302002 0
M  V30 2533 H 265.521 -4.17662 -1.44951 0
M  V30 2534 N 264.58 -0.43555 -1.51462 0
M  V30 2535 C 265.828 0.131254 -2.01673 0
M  V30 2536 C 266.149 1.43368 -1.32177 0
M  V30 2537 O 265.419 1.90524 -0.455769 0
M  V30 2538 H 263.999 0.0514954 -0.745223 0
M  V30 2539 H 266.661 -0.577847 -1.86137 0
M  V30 2540 H 265.757 0.308446 -3.10572 0
M  V30 2541 N 266.058 1.56714 -0.166846 0
M  V30 2542 C 267.021 2.16539 0.751232 0
M  V30 2543 C 268.021 1.11228 1.16125 0
M  V30 2544 O 269.211 1.36765 1.07894 0
M  V30 2545 C 266.343 2.74462 2.02196 0
M  V30 2546 H 267.536 2.99013 0.230499 0
M  V30 2547 H 265.089 1.56081 0.0826982 0
M  V30 2548 H 265.824 1.95709 2.58589 0
M  V30 2549 H 265.609 3.51527 1.73698 0
M  V30 2550 H 267.099 3.20489 2.67725 0
M  V30 2551 N 267.536 -0.106894 1.57237 0
M  V30 2552 C 268.468 -1.15646 1.97885 0
M  V30 2553 C 269.481 -1.36981 0.879779 0
M  V30 2554 O 270.67 -1.35841 1.15799 0
M  V30 2555 C 267.77 -2.51425 2.27241 0
M  V30 2556 C 266.943 -2.50529 3.58545 0
M  V30 2557 C 266.002 -3.68145 3.75973 0
M  V30 2558 O 265.028 -3.51176 4.47956 0
M  V30 2559 N 266.23 -4.87177 3.15656 0
M  V30 2560 H 268.995 -0.81059 2.8853 0
M  V30 2561 H 266.556 -0.296024 1.59171 0
M  V30 2562 H 268.548 -3.28689 2.36105 0
M  V30 2563 H 267.118 -2.78147 1.42663 0
M  V30 2564 H 266.338 -1.58894 3.60758 0
M  V30 2565 H 267.626 -2.46997 4.44826 0
M  V30 2566 H 267.024 -5.03868 2.57165 0
M  V30 2567 H 265.581 -5.62075 3.30023 0
M  V30 2568 N 269.014 -1.53014 -0.377408 0
M  V30 2569 C 270.425 -1.60438 -0.954798 0
M  V30 2570 C 270.776 -0.464418 -1.90624 0
M  V30 2571 O 269.901 0.41087 -2.12464 0
M  V30 2572 C 270.496 -2.90797 -1.73847 0
M  V30 2573 C 269.055 -3.00595 -2.26538 0
M  V30 2574 C 268.202 -2.55645 -1.07429 0
M  V30 2575 H 271.153 -1.57926 -0.156575 0
M  V30 2576 H 271.174 -2.77935 -2.5987 0
M  V30 2577 H 270.686 -3.73746 -1.04574 0
M  V30 2578 H 268.787 -2.22208 -2.99089 0
M  V30 2579 H 268.9 -4.05456 -2.5523 0
M  V30 2580 H 267.264 -2.10239 -1.43777 0
M  V30 2581 H 268.047 -3.41 -0.396728 0
M  V30 2582 N 270.492 0.636531 -1.44174 0
M  V30 2583 C 271.74 1.39343 -1.46383 0
M  V30 2584 C 272.061 1.94766 -0.0955715 0
M  V30 2585 O 271.331 1.75452 0.871395 0
M  V30 2586 H 269.911 0.517199 -0.538994 0
M  V30 2587 H 272.573 0.74957 -1.7991 0
M  V30 2588 H 271.669 2.22746 -2.18611 0
M  V30 2589 N 271.97 1.30982 0.876444 0
M  V30 2590 C 272.9 1.20668 1.99903 0
M  V30 2591 C 273.881 0.095354 1.69833 0
M  V30 2592 O 275.066 0.27885 1.92188 0
M  V30 2593 C 272.196 0.90655 3.3526 0
M  V30 2594 C 271.15 1.97675 3.79617 0
M  V30 2595 C 270.476 1.52943 5.1236 0
M  V30 2596 C 271.776 3.389 3.97422 0
M  V30 2597 H 273.47 2.14586 2.0879 0
M  V30 2598 H 271.016 1.03308 1.00317 0
M  V30 2599 H 272.969 0.821025 4.13324 0
M  V30 2600 H 271.693 -0.0682969 3.26529 0
M  V30 2601 H 270.352 2.05205 3.03787 0
M  V30 2602 H 270 0.54262 5.00065 0
M  V30 2603 H 269.7 2.24532 5.43009 0
M  V30 2604 H 271.224 1.45786 5.92941 0
M  V30 2605 H 272.638 3.34081 4.659 0
M  V30 2606 H 271.035 4.0865 4.3946 0
M  V30 2607 H 272.105 3.80163 3.01006 0
M  V30 2608 N 273.449 -1.08991 1.13837 0
M  V30 2609 C 274.674 -1.85551 0.926585 0
M  V30 2610 C 275.099 -1.80782 -0.519566 0
M  V30 2611 O 274.457 -1.18855 -1.36906 0
M  V30 2612 C 274.505 -3.31266 1.42462 0
M  V30 2613 O 273.609 -4.07822 0.612789 0
M  V30 2614 H 272.95 -0.575192 0.331738 0
M  V30 2615 H 275.48 -1.37604 1.51414 0
M  V30 2616 H 275.49 -3.82112 1.43019 0
M  V30 2617 H 274.165 -3.34052 2.47754 0
M  V30 2618 H 272.742 -3.66731 0.675463 0
M  V30 2619 N 274.927 -0.932562 -1.27047 0
M  V30 2620 C 275.89 -0.440064 -2.24936 0
M  V30 2621 C 276.89 0.444071 -1.54547 0
M  V30 2622 O 278.08 0.244465 -1.72476 0
M  V30 2623 C 275.212 0.36678 -3.38921 0
M  V30 2624 H 276.405 -1.305 -2.70018 0
M  V30 2625 H 273.958 -0.713707 -1.39054 0
M  V30 2626 H 274.693 1.25033 -2.99228 0
M  V30 2627 H 274.478 -0.267204 -3.91188 0
M  V30 2628 H 275.968 0.701567 -4.11665 0
M  V30 2629 N 276.405 1.4127 -0.698611 0
M  V30 2630 C 277.821 1.55241 -0.370462 0
M  V30 2631 C 278.021 1.67351 1.12231 0
M  V30 2632 O 277.077 1.65363 1.90818 0
M  V30 2633 C 278.39 2.78997 -1.12165 0
M  V30 2634 C 279.938 2.92797 -1.1063 0
M  V30 2635 C 280.413 4.19445 -1.8393 0
M  V30 2636 N 281.904 4.26409 -1.80914 0
M  V30 2637 C 282.639 5.23271 -2.34467 0
M  V30 2638 N 282.135 6.26145 -2.96504 0
M  V30 2639 N 283.928 5.15232 -2.24706 0
M  V30 2640 H 276.079 1.31654 -1.66676 0
M  V30 2641 H 278.342 0.635393 -0.703548 0
M  V30 2642 H 278.048 2.76268 -2.17644 0
M  V30 2643 H 277.922 3.70606 -0.702209 0
M  V30 2644 H 280.309 2.95039 -0.0597713 0
M  V30 2645 H 280.39 2.02353 -1.56483 0
M  V30 2646 H 280.034 4.17964 -2.88563 0
M  V30 2647 H 279.964 5.08866 -1.35509 0
M  V30 2648 H 282.455 3.527 -1.35687 0
M  V30 2649 H 282.768 6.96451 -3.34927 0
M  V30 2650 H 281.113 6.26638 -3.00583 0
M  V30 2651 H 284.304 4.33789 -1.7591 0
M  V30 2652 H 284.477 5.90552 -2.66745 0
M  V30 2653 N 277.883 0.443576 1.51229 0
M  V30 2654 C 279.129 -0.120975 2.02439 0
M  V30 2655 C 279.462 -1.41815 1.32674 0
M  V30 2656 O 278.737 -1.89373 0.443622 0
M  V30 2657 C 279.02 -0.333291 3.58554 0
M  V30 2658 C 278.873 0.982968 4.38928 0
M  V30 2659 C 280.192 -1.10028 4.26124 0
M  V30 2660 H 277.311 -0.0424923 0.735774 0
M  V30 2661 H 279.953 0.583794 1.80809 0
M  V30 2662 H 278.103 -0.933614 3.77115 0
M  V30 2663 H 279.775 1.61775 4.32003 0
M  V30 2664 H 278.018 1.58611 4.03763 0
M  V30 2665 H 278.689 0.788379 5.46341 0
M  V30 2666 H 281.165 -0.591711 4.11871 0
M  V30 2667 H 280.041 -1.21761 5.35225 0
M  V30 2668 H 280.302 -2.12996 3.87408 0
M  V30 2669 N 279.361 -1.56624 0.175154 0
M  V30 2670 C 280.638 -1.88688 -0.515373 0
M  V30 2671 C 281.018 -1.08564 -1.81044 0
M  V30 2672 O 280.366 -0.180703 -2.27784 0
M  V30 2673 C 280.576 -3.40768 -0.753552 0
M  V30 2674 C 281.924 -4.10587 -1.08184 0
M  V30 2675 O 282.948 -3.46106 -0.841961 0
M  V30 2676 O 281.807 -5.24512 -1.53459 0
M  V30 2677 H 278.901 -0.78301 -0.26613 0
M  V30 2678 H 281.447 -1.68347 0.213877 0
M  V30 2679 H 280.219 -3.90965 0.161829 0
M  V30 2680 H 279.842 -3.66733 -1.53598 0
M  V30 2681 N 280.839 0.0985539 -1.57292 0
M  V30 2682 C 282.088 0.801358 -1.85098 0
M  V30 2683 C 282.401 1.80066 -0.763902 0
M  V30 2684 O 283.607 2.55112 -0.928981 0
M  V30 2685 C 282.063 1.47599 -3.28242 0
M  V30 2686 C 281.671 0.516624 -4.45011 0
M  V30 2687 C 283.415 2.16272 -3.65276 0
M  V30 2688 C 281.322 1.19564 -5.79188 0
M  V30 2689 H 280.252 0.303022 -0.69043 0
M  V30 2690 H 282.903 0.0542623 -1.8342 0
M  V30 2691 H 281.285 2.27042 -3.2445 0
M  V30 2692 H 282.459 -0.246065 -4.60143 0
M  V30 2693 H 280.774 -0.064227 -4.1635 0
M  V30 2694 H 283.371 2.67802 -4.62803 0
M  V30 2695 H 283.714 2.95009 -2.93727 0
M  V30 2696 H 284.247 1.43693 -3.70941 0
M  V30 2697 H 280.986 0.449157 -6.53959 0
M  V30 2698 H 280.506 1.92984 -5.67906 0
M  V30 2699 H 282.185 1.7231 -6.23633 0
M  V30 2700 N 282.317 1.53212 0.369288 0
M  V30 2701 C 283.594 1.59815 1.12776 0
M  V30 2702 C 283.974 0.403402 2.0721 0
M  V30 2703 O 283.322 -0.606667 2.20299 0
M  V30 2704 C 283.532 2.94664 1.87013 0
M  V30 2705 C 284.88 3.49109 2.41677 0
M  V30 2706 O 285.904 2.96669 1.97144 0
M  V30 2707 O 284.763 4.40775 3.23079 0
M  V30 2708 H 281.857 0.645376 0.517125 0
M  V30 2709 H 284.403 1.65553 0.37285 0
M  V30 2710 H 283.175 3.73061 1.18071 0
M  V30 2711 H 282.798 2.92401 2.69421 0
M  V30 2712 N 283.795 -0.628877 1.44509 0
M  V30 2713 C 285.023 -1.41554 1.50897 0
M  V30 2714 C 285.438 -1.8832 0.134564 0
M  V30 2715 O 284.795 -1.60969 -0.859965 0
M  V30 2716 C 284.846 -2.63435 2.47556 0
M  V30 2717 O 284.567 -2.18619 3.79654 0
M  V30 2718 C 286.068 -3.56537 2.63431 0
M  V30 2719 H 283.288 -0.434044 0.511709 0
M  V30 2720 H 285.832 -0.768895 1.89495 0
M  V30 2721 H 283.987 -3.24187 2.12089 0
M  V30 2722 H 284.401 -2.97652 4.31861 0
M  V30 2723 H 285.875 -4.38657 3.35088 0
M  V30 2724 H 286.352 -4.05493 1.68738 0
M  V30 2725 H 286.958 -3.01653 2.9981 0
M  V30 2726 N 285.273 -1.31445 -0.869486 0
M  V30 2727 C 286.689 -1.10113 -1.15531 0
M  V30 2728 C 286.889 0.128087 -2.01092 0
M  V30 2729 O 285.945 0.817276 -2.38908 0
M  V30 2730 C 287.258 -2.37291 -1.84698 0
M  V30 2731 C 288.806 -2.42906 -1.97397 0
M  V30 2732 C 289.281 -3.69967 -2.69979 0
M  V30 2733 N 290.772 -3.70864 -2.77514 0
M  V30 2734 C 291.507 -4.65875 -3.34287 0
M  V30 2735 N 291.003 -5.71242 -3.91988 0
M  V30 2736 N 292.796 -4.53394 -3.3225 0
M  V30 2737 H 284.947 -2.1028 -0.299347 0
M  V30 2738 H 287.21 -0.927683 -0.195214 0
M  V30 2739 H 286.916 -3.27078 -1.29278 0
M  V30 2740 H 286.79 -2.47125 -2.84972 0
M  V30 2741 H 289.177 -1.53588 -2.51982 0
M  V30 2742 H 289.258 -2.37036 -0.961643 0
M  V30 2743 H 288.902 -4.59652 -2.16062 0
M  V30 2744 H 288.832 -3.73103 -3.7162 0
M  V30 2745 H 291.323 -2.94697 -2.36563 0
M  V30 2746 H 291.636 -6.39817 -4.33421 0
M  V30 2747 H 289.981 -5.75015 -3.90362 0
M  V30 2748 H 293.172 -3.70252 -2.8641 0
M  V30 2749 H 293.345 -5.27617 -3.76197 0
M  V30 2750 N 286.751 1.08385 -1.14413 0
M  V30 2751 C 287.998 1.80776 -0.912482 0
M  V30 2752 C 288.326 1.86236 0.560934 0
M  V30 2753 O 287.581 1.33431 1.43159 0
M  V30 2754 C 287.88 3.26273 -1.45879 0
M  V30 2755 C 287.546 3.4093 -2.95089 0
M  V30 2756 C 286.208 3.44638 -3.35824 0
M  V30 2757 C 288.56 3.44591 -3.91033 0
M  V30 2758 C 285.888 3.49597 -4.71167 0
M  V30 2759 C 288.24 3.51086 -5.26233 0
M  V30 2760 C 286.904 3.53067 -5.6648 0
M  V30 2761 H 286.174 0.661507 -0.333901 0
M  V30 2762 H 288.821 1.27613 -1.42784 0
M  V30 2763 H 287.126 3.82146 -0.864376 0
M  V30 2764 H 288.823 3.80839 -1.2555 0
M  V30 2765 H 285.413 3.38736 -2.62594 0
M  V30 2766 H 289.597 3.40957 -3.60641 0
M  V30 2767 H 284.853 3.49424 -5.0171 0
M  V30 2768 H 289.027 3.52864 -6.00383 0
M  V30 2769 H 286.654 3.56662 -6.71339 0
M  V30 2770 N 288.23 0.939286 1.26551 0
M  V30 2771 C 289.479 0.581601 1.93133 0
M  V30 2772 C 289.792 -0.883224 1.74524 0
M  V30 2773 O 290.998 -1.3502 2.35546 0
M  V30 2774 C 289.454 0.989425 3.46032 0
M  V30 2775 C 289.062 2.47573 3.73379 0
M  V30 2776 C 290.806 0.703544 4.18629 0
M  V30 2777 C 288.713 2.82235 5.19709 0
M  V30 2778 H 287.643 0.213803 0.723052 0
M  V30 2779 H 290.294 1.14167 1.4366 0
M  V30 2780 H 288.676 0.357902 3.94379 0
M  V30 2781 H 289.85 3.15614 3.35744 0
M  V30 2782 H 288.165 2.73471 3.1401 0
M  V30 2783 H 290.762 0.938869 5.26393 0
M  V30 2784 H 291.105 -0.359639 4.14744 0
M  V30 2785 H 291.638 1.2947 3.76141 0
M  V30 2786 H 288.377 3.87509 5.28694 0
M  V30 2787 H 287.897 2.18854 5.58447 0
M  V30 2788 H 289.576 2.70599 5.87695 0
M  V30 2789 N 289.708 -1.40897 0.706093 0
M  V30 2790 C 290.936 -2.05373 0.250887 0
M  V30 2791 C 291.351 -1.53172 -1.10381 0
M  V30 2792 O 290.708 -0.684305 -1.69185 0
M  V30 2793 C 290.759 -3.6088 0.211571 0
M  V30 2794 O 290.48 -4.11153 1.51276 0
M  V30 2795 C 291.981 -4.42517 -0.263346 0
M  V30 2796 H 289.201 -0.66115 0.114552 0
M  V30 2797 H 291.745 -1.80479 0.961635 0
M  V30 2798 H 289.9 -3.84777 -0.450073 0
M  V30 2799 H 290.314 -5.05279 1.40689 0
M  V30 2800 H 291.788 -5.51479 -0.239718 0
M  V30 2801 H 292.265 -4.19396 -1.30397 0
M  V30 2802 H 292.871 -4.23708 0.367677 0
M  V30 2803 N 291.186 -0.45159 -1.50991 0
M  V30 2804 C 292.414 0.108334 -2.06616 0
M  V30 2805 C 292.829 1.35224 -1.31757 0
M  V30 2806 O 292.186 1.78475 -0.381174 0
M  V30 2807 C 292.237 0.41619 -3.59096 0
M  V30 2808 O 291.958 -0.778361 -4.3113 0
M  V30 2809 C 293.459 1.02523 -4.31282 0
M  V30 2810 H 290.679 0.00159995 -0.670998 0
M  V30 2811 H 293.223 -0.634771 -1.94399 0
M  V30 2812 H 291.378 1.10921 -3.71181 0
M  V30 2813 H 291.792 -0.511181 -5.22003 0
M  V30 2814 H 293.266 1.19053 -5.39009 0
M  V30 2815 H 293.743 2.01013 -3.905 0
M  V30 2816 H 294.349 0.371173 -4.23677 0
M  V30 2817 N 292.664 1.56529 -0.183458 0
M  V30 2818 C 294.075 1.83739 0.331177 0
M  V30 2819 C 294.426 1.10373 1.62211 0
M  V30 2820 O 293.551 0.36071 2.13373 0
M  V30 2821 C 294.146 3.33306 0.607646 0
M  V30 2822 C 292.705 3.60969 1.06668 0
M  V30 2823 C 291.852 2.77086 0.109029 0
M  V30 2824 H 294.803 1.53379 -0.407484 0
M  V30 2825 H 294.824 3.51444 1.45832 0
M  V30 2826 H 294.336 3.86677 -0.332086 0
M  V30 2827 H 292.437 3.13021 2.0211 0
M  V30 2828 H 292.55 4.69231 0.967447 0
M  V30 2829 H 290.914 2.47319 0.608714 0
M  V30 2830 H 291.697 3.33241 -0.82494 0
M  V30 2831 N 294.142 -0.090211 1.57342 0
M  V30 2832 C 295.39 -0.791241 1.85967 0
M  V30 2833 C 295.711 -1.7903 0.772859 0
M  V30 2834 O 294.981 -1.94872 -0.200398 0
M  V30 2835 H 293.561 -0.295205 0.686195 0
M  V30 2836 H 296.223 -0.0706782 1.94772 0
M  V30 2837 H 295.319 -1.31882 2.82867 0
M  V30 2838 N 295.62 -1.53406 -0.361157 0
M  V30 2839 C 296.583 -1.79479 -1.42548 0
M  V30 2840 C 297.583 -0.665327 -1.4639 0
M  V30 2841 O 298.773 -0.933549 -1.47073 0
M  V30 2842 C 295.905 -1.92087 -2.8163 0
M  V30 2843 H 297.098 -2.74538 -1.20701 0
M  V30 2844 H 294.651 -1.4455 -0.594546 0
M  V30 2845 H 295.386 -0.991099 -3.08784 0
M  V30 2846 H 295.171 -2.74241 -2.80239 0
M  V30 2847 H 296.661 -2.13836 -3.58697 0
M  V30 2848 N 297.098 0.621204 -1.44841 0
M  V30 2849 C 298.028 1.74366 -1.55303 0
M  V30 2850 C 299.009 1.65199 -0.405385 0
M  V30 2851 O 300.194 1.83807 -0.626787 0
M  V30 2852 C 297.324 3.12931 -1.50637 0
M  V30 2853 C 296.278 3.36896 -2.63979 0
M  V30 2854 C 295.604 4.75594 -2.44366 0
M  V30 2855 C 296.904 3.28483 -4.06074 0
M  V30 2856 H 298.598 1.65867 -2.49256 0
M  V30 2857 H 296.144 0.796558 -1.19962 0
M  V30 2858 H 298.097 3.9124 -1.56555 0
M  V30 2859 H 296.821 3.22237 -0.532057 0
M  V30 2860 H 295.48 2.60972 -2.57467 0
M  V30 2861 H 295.128 4.81616 -1.45105 0
M  V30 2862 H 294.828 4.92586 -3.20364 0
M  V30 2863 H 296.352 5.5612 -2.52117 0
M  V30 2864 H 297.766 3.96684 -4.13902 0
M  V30 2865 H 296.163 3.57008 -4.82354 0
M  V30 2866 H 297.233 2.26133 -4.28943 0
M  V30 2867 N 298.576 1.31904 0.862503 0
M  V30 2868 C 299.523 1.20182 1.9704 0
M  V30 2869 C 300.493 0.0858247 1.65878 0
M  V30 2870 O 301.678 0.26 1.8902 0
M  V30 2871 C 298.818 0.922797 3.32533 0
M  V30 2872 C 297.931 2.12284 3.76244 0
M  V30 2873 C 297.066 1.77996 5.00491 0
M  V30 2874 C 296.105 2.94366 5.36671 0
M  V30 2875 N 295.242 2.60223 6.52095 0
M  V30 2876 H 300.082 2.14951 2.06398 0
M  V30 2877 H 297.619 1.06917 1.01031 0
M  V30 2878 H 299.577 0.741548 4.10557 0
M  V30 2879 H 298.207 0.0119227 3.22798 0
M  V30 2880 H 297.259 2.41461 2.9394 0
M  V30 2881 H 298.571 2.99357 3.98982 0
M  V30 2882 H 297.725 1.56377 5.862 0
M  V30 2883 H 296.464 0.881252 4.79672 0
M  V30 2884 H 295.469 3.16625 4.49476 0
M  V30 2885 H 296.694 3.84957 5.59451 0
M  V30 2886 H 294.64 1.72884 6.32809 0
M  V30 2887 H 294.557 3.40827 6.74814 0
M  V30 2888 H 295.825 2.42016 7.40978 0
M  V30 2889 N 300.054 -1.07777 1.14986 0
M  V30 2890 C 301.001 -2.14867 0.842672 0
M  V30 2891 C 301.971 -1.6486 -0.202552 0
M  V30 2892 O 303.156 -1.90668 -0.0710568 0
M  V30 2893 C 300.296 -3.43486 0.333363 0
M  V30 2894 C 299.409 -4.07306 1.43965 0
M  V30 2895 C 298.544 -5.23744 0.886914 0
M  V30 2896 C 297.583 -5.79517 1.97043 0
M  V30 2897 N 296.72 -6.87291 1.4344 0
M  V30 2898 H 301.56 -2.40485 1.75986 0
M  V30 2899 H 299.097 -1.1801 0.878179 0
M  V30 2900 H 301.055 -4.17195 0.0198163 0
M  V30 2901 H 299.685 -3.18133 -0.546916 0
M  V30 2902 H 298.737 -3.31293 1.86946 0
M  V30 2903 H 300.049 -4.44771 2.25788 0
M  V30 2904 H 299.203 -6.04419 0.525651 0
M  V30 2905 H 297.942 -4.87685 0.0377957 0
M  V30 2906 H 296.947 -4.97491 2.34057 0
M  V30 2907 H 298.172 -6.17632 2.82325 0
M  V30 2908 H 296.118 -6.5318 0.607567 0
M  V30 2909 H 296.035 -7.23617 2.18895 0
M  V30 2910 H 297.303 -7.71682 1.10124 0
M  V30 2911 N 301.532 -0.945985 -1.26051 0
M  V30 2912 C 302.495 -0.463897 -2.24456 0
M  V30 2913 C 303.495 0.427655 -1.55009 0
M  V30 2914 O 304.685 0.226157 -1.72726 0
M  V30 2915 C 301.817 0.330812 -3.39291 0
M  V30 2916 H 303.01 -1.33357 -2.68619 0
M  V30 2917 H 300.563 -0.728416 -1.38289 0
M  V30 2918 H 301.298 1.21852 -3.00537 0
M  V30 2919 H 301.083 -0.308679 -3.90883 0
M  V30 2920 H 302.573 0.657865 -4.12386 0
M  V30 2921 N 303.011 1.40521 -0.713556 0
M  V30 2922 C 304.257 2.01221 -0.252564 0
M  V30 2923 C 304.59 1.56444 1.1506 0
M  V30 2924 O 303.865 0.783597 1.78017 0
M  V30 2925 C 304.148 3.58582 -0.330332 0
M  V30 2926 C 304.001 4.13437 -1.77173 0
M  V30 2927 C 305.32 4.39079 0.299641 0
M  V30 2928 H 302.439 0.731077 -0.0932471 0
M  V30 2929 H 305.081 1.67026 -0.905673 0
M  V30 2930 H 303.231 3.87844 0.225737 0
M  V30 2931 H 304.903 3.9498 -2.38303 0
M  V30 2932 H 303.146 3.67801 -2.3001 0
M  V30 2933 H 303.817 5.22597 -1.77755 0
M  V30 2934 H 306.293 4.15735 -0.174139 0
M  V30 2935 H 305.169 5.4848 0.214771 0
M  V30 2936 H 305.43 4.19915 1.38288 0
M  V30 2937 N 304.489 0.459591 1.5075 0
M  V30 2938 C 305.422 -0.386257 2.24907 0
M  V30 2939 C 306.4 -1.006 1.27744 0
M  V30 2940 O 307.584 -1.04416 1.56938 0
M  V30 2941 C 304.711 -1.54021 3.01654 0
M  V30 2942 C 303.757 -1.03898 4.13651 0
M  V30 2943 S 304.59 0.0370501 5.35487 0
M  V30 2944 C 305.746 -1.12105 6.15779 0
M  V30 2945 H 305.979 0.243272 2.96303 0
M  V30 2946 H 303.512 0.244339 1.52454 0
M  V30 2947 H 305.47 -2.20163 3.46466 0
M  V30 2948 H 304.131 -2.14121 2.29806 0
M  V30 2949 H 303.324 -1.90254 4.66711 0
M  V30 2950 H 302.926 -0.45545 3.71216 0
M  V30 2951 H 305.218 -2.03501 6.46215 0
M  V30 2952 H 306.161 -0.62995 7.05292 0
M  V30 2953 H 306.569 -1.36967 5.47631 0
M  V30 2954 N 305.967 -1.56429 0.191757 0
M  V30 2955 C 306.897 -2.21937 -0.725696 0
M  V30 2956 C 307.878 -1.1814 -1.2238 0
M  V30 2957 O 309.063 -1.46636 -1.27325 0
M  V30 2958 C 306.193 -2.87611 -1.94672 0
M  V30 2959 C 305.147 -3.97623 -1.58366 0
M  V30 2960 C 304.473 -4.50446 -2.88102 0
M  V30 2961 C 305.773 -5.16197 -0.796133 0
M  V30 2962 H 307.467 -2.98861 -0.179606 0
M  V30 2963 H 305.013 -1.43749 -0.0849464 0
M  V30 2964 H 306.966 -3.3212 -2.59373 0
M  V30 2965 H 305.69 -2.08087 -2.51728 0
M  V30 2966 H 304.349 -3.53801 -0.960247 0
M  V30 2967 H 303.997 -3.67688 -3.43241 0
M  V30 2968 H 303.697 -5.24675 -2.64556 0
M  V30 2969 H 305.221 -4.97654 -3.53798 0
M  V30 2970 H 306.635 -5.57271 -1.34618 0
M  V30 2971 H 305.032 -5.96471 -0.658928 0
M  V30 2972 H 306.102 -4.84473 0.203478 0
M  V30 2973 N 307.445 0.0818655 -1.57387 0
M  V30 2974 C 308.375 1.09885 -2.06028 0
M  V30 2975 C 309.356 1.4098 -0.951774 0
M  V30 2976 O 310.541 1.50781 -1.22387 0
M  V30 2977 C 307.671 2.4151 -2.4958 0
M  V30 2978 C 306.625 2.24792 -3.64215 0
M  V30 2979 C 305.951 3.61712 -3.93787 0
M  V30 2980 C 307.251 1.67749 -4.94629 0
M  V30 2981 H 308.945 0.694128 -2.91243 0
M  V30 2982 H 306.491 0.332448 -1.4011 0
M  V30 2983 H 308.444 3.12939 -2.82219 0
M  V30 2984 H 307.168 2.83943 -1.61381 0
M  V30 2985 H 305.827 1.55807 -3.31843 0
M  V30 2986 H 305.475 4.01697 -3.02735 0
M  V30 2987 H 305.175 3.51368 -4.70971 0
M  V30 2988 H 306.699 4.34587 -4.28913 0
M  V30 2989 H 308.113 2.29032 -5.25564 0
M  V30 2990 H 306.51 1.68128 -5.76067 0
M  V30 2991 H 307.58 0.638059 -4.80684 0
M  V30 2992 N 308.923 1.53595 0.353017 0
M  V30 2993 C 310.171 1.70049 1.09215 0
M  V30 2994 C 310.492 0.461406 1.89463 0
M  V30 2995 O 309.762 -0.524633 1.88744 0
M  V30 2996 H 308.342 0.626912 0.40619 0
M  V30 2997 H 311.004 1.90822 0.396585 0
M  V30 2998 H 310.1 2.56718 1.77488 0
M  V30 2999 N 310.401 -0.613514 1.45168 0
M  V30 3000 C 311.647 -1.37471 1.49096 0
M  V30 3001 C 311.98 -1.93765 0.129901 0
M  V30 3002 O 311.255 -1.74707 -0.854858 0
M  V30 3003 C 311.538 -2.52701 2.56542 0
M  V30 3004 C 311.391 -2.01643 4.0207 0
M  V30 3005 C 312.71 -3.54849 2.60327 0
M  V30 3006 H 309.829 -0.498502 0.54283 0
M  V30 3007 H 312.471 -0.692125 1.76945 0
M  V30 3008 H 310.621 -3.10931 2.32926 0
M  V30 3009 H 312.293 -1.48108 4.36877 0
M  V30 3010 H 310.536 -1.32688 4.13009 0
M  V30 3011 H 311.207 -2.84681 4.72928 0
M  V30 3012 H 313.683 -3.0645 2.81474 0
M  V30 3013 H 312.559 -4.32973 3.37381 0
M  V30 3014 H 312.82 -4.10079 1.6519 0
M  V30 3015 N 311.879 -1.3236 -0.855495 0
M  V30 3016 C 312.809 -1.23833 -1.97958 0
M  V30 3017 C 313.79 -0.122361 -1.69659 0
M  V30 3018 O 314.975 -0.30939 -1.9172 0
M  V30 3019 C 312.105 -0.959772 -3.33775 0
M  V30 3020 C 311.059 -2.03689 -3.76424 0
M  V30 3021 C 310.385 -1.61075 -5.09862 0
M  V30 3022 C 311.685 -3.4518 -3.9198 0
M  V30 3023 H 313.379 -2.1788 -2.0535 0
M  V30 3024 H 310.925 -1.04891 -0.986605 0
M  V30 3025 H 312.878 -0.886678 -4.11966 0
M  V30 3026 H 311.602 0.0163404 -3.26596 0
M  V30 3027 H 310.261 -2.10012 -3.00484 0
M  V30 3028 H 309.909 -0.622107 -4.99138 0
M  V30 3029 H 309.609 -2.33143 -5.39368 0
M  V30 3030 H 311.133 -1.55201 -5.90546 0
M  V30 3031 H 312.547 -3.4145 -4.60526 0
M  V30 3032 H 310.944 -4.1559 -4.32903 0
M  V30 3033 H 312.014 -3.84903 -2.94919 0
M  V30 3034 N 313.357 1.07166 -1.15556 0
M  V30 3035 C 314.32 2.12589 -0.856644 0
M  V30 3036 C 315.32 1.6015 0.14444 0
M  V30 3037 O 316.51 1.7399 -0.0854163 0
M  V30 3038 C 313.642 3.39753 -0.279405 0
M  V30 3039 H 314.835 2.40539 -1.79112 0
M  V30 3040 H 312.388 1.23086 -0.963298 0
M  V30 3041 H 313.123 3.17447 0.663174 0
M  V30 3042 H 312.908 3.79117 -1.00063 0
M  V30 3043 H 314.398 4.17507 -0.0879113 0
M  V30 3044 N 314.835 0.952656 1.25548 0
M  V30 3045 C 316.081 0.607272 1.93494 0
M  V30 3046 C 316.414 -0.853245 1.74452 0
M  V30 3047 O 315.689 -1.61194 1.08843 0
M  V30 3048 C 315.972 0.96435 3.46947 0
M  V30 3049 C 315.825 2.48045 3.75225 0
M  V30 3050 C 317.144 0.487987 4.37386 0
M  V30 3051 H 314.263 0.222096 0.702739 0
M  V30 3052 H 316.905 1.18895 1.48203 0
M  V30 3053 H 315.055 0.469361 3.85654 0
M  V30 3054 H 316.727 3.04905 3.46166 0
M  V30 3055 H 314.97 2.919 3.209 0
M  V30 3056 H 315.641 2.6808 4.82532 0
M  V30 3057 H 318.117 0.912558 4.0597 0
M  V30 3058 H 316.993 0.766547 5.43521 0
M  V30 3059 H 317.254 -0.612063 4.37843 0
M  V30 3060 N 316.313 -1.40141 0.720998 0
M  V30 3061 C 317.243 -2.33339 0.0867621 0
M  V30 3062 C 318.224 -1.53178 -0.739622 0
M  V30 3063 O 319.409 -1.81625 -0.687449 0
M  V30 3064 C 316.539 -3.37194 -0.831728 0
M  V30 3065 C 315.493 -4.27857 -0.110558 0
M  V30 3066 C 314.819 -5.22294 -1.14513 0
M  V30 3067 C 316.119 -5.11872 1.0385 0
M  V30 3068 H 317.813 -2.86626 0.865219 0
M  V30 3069 H 315.359 -1.37814 0.417516 0
M  V30 3070 H 317.312 -4.01335 -1.28485 0
M  V30 3071 H 316.036 -2.82314 -1.64214 0
M  V30 3072 H 314.695 -3.65176 0.322797 0
M  V30 3073 H 314.343 -4.63717 -1.94874 0
M  V30 3074 H 314.043 -5.83797 -0.667446 0
M  V30 3075 H 315.567 -5.89312 -1.59824 0
M  V30 3076 H 316.981 -5.69436 0.664482 0
M  V30 3077 H 315.378 -5.82445 1.4449 0
M  V30 3078 H 316.448 -4.4753 1.86668 0
M  V30 3079 N 317.792 -0.46758 -1.50504 0
M  V30 3080 C 319.038 0.0887532 -2.02606 0
M  V30 3081 C 319.371 1.39686 -1.34913 0
M  V30 3082 O 318.646 1.88644 -0.473694 0
M  V30 3083 C 318.929 0.276206 -3.59039 0
M  V30 3084 C 318.782 -1.05267 -4.37309 0
M  V30 3085 C 320.101 1.03235 -4.27821 0
M  V30 3086 H 317.22 0.0307814 -0.736357 0
M  V30 3087 H 319.862 -0.612485 -1.79857 0
M  V30 3088 H 318.012 0.8735 -3.78553 0
M  V30 3089 H 319.684 -1.68628 -4.29374 0
M  V30 3090 H 317.927 -1.65015 -4.01189 0
M  V30 3091 H 318.598 -0.875197 -5.45018 0
M  V30 3092 H 321.074 0.526111 -4.12761 0
M  V30 3093 H 319.95 1.1323 -5.37094 0
M  V30 3094 H 320.211 2.06806 -3.90748 0
M  V30 3095 N 319.27 1.56325 -0.20005 0
M  V30 3096 C 320.233 2.18084 0.705132 0
M  V30 3097 C 321.233 1.13666 1.1374 0
M  V30 3098 O 322.423 1.39023 1.04968 0
M  V30 3099 C 319.555 2.78689 1.96329 0
M  V30 3100 H 320.748 2.99435 0.167023 0
M  V30 3101 H 318.301 1.56221 0.0495725 0
M  V30 3102 H 319.036 2.0115 2.5438 0
M  V30 3103 H 318.821 3.55133 1.66202 0
M  V30 3104 H 320.311 3.26096 2.60866 0
M  V30 3105 N 320.748 -0.0735177 1.57428 0
M  V30 3106 C 321.681 -1.11932 1.98863 0
M  V30 3107 C 322.659 -1.37666 0.865266 0
M  V30 3108 O 323.843 -1.51068 1.12742 0
M  V30 3109 C 320.97 -2.46403 2.32386 0
M  V30 3110 C 320.016 -2.36815 3.54713 0
M  V30 3111 S 320.849 -1.76392 5.05614 0
M  V30 3112 C 322.005 -3.12444 5.42337 0
M  V30 3113 H 322.238 -0.766212 2.87257 0
M  V30 3114 H 319.771 -0.281987 1.51803 0
M  V30 3115 H 321.729 -3.23755 2.52375 0
M  V30 3116 H 320.39 -2.78876 1.44524 0
M  V30 3117 H 319.583 -3.35977 3.7568 0
M  V30 3118 H 319.185 -1.67598 3.34345 0
M  V30 3119 H 321.477 -4.08753 5.40303 0
M  V30 3120 H 322.42 -2.96258 6.43146 0
M  V30 3121 H 322.828 -3.1297 4.69798 0
M  V30 3122 N 322.226 -1.5378 -0.344866 0
M  V30 3123 C 323.472 -1.71216 -1.08687 0
M  V30 3124 C 323.805 -0.473281 -1.88345 0
M  V30 3125 O 323.08 0.52968 -1.87149 0
M  V30 3126 C 323.363 -2.97486 -2.02914 0
M  V30 3127 C 323.216 -4.31579 -1.26727 0
M  V30 3128 C 324.535 -3.19422 -3.0275 0
M  V30 3129 H 321.654 -0.62301 -0.393735 0
M  V30 3130 H 324.296 -1.8645 -0.365563 0
M  V30 3131 H 322.446 -2.84629 -2.64421 0
M  V30 3132 H 324.118 -4.56284 -0.67845 0
M  V30 3133 H 322.361 -4.30049 -0.569273 0
M  V30 3134 H 323.032 -5.16106 -1.95803 0
M  V30 3135 H 325.508 -3.316 -2.51357 0
M  V30 3136 H 324.384 -4.09169 -3.65885 0
M  V30 3137 H 324.645 -2.35656 -3.74057 0
M  V30 3138 N 323.704 0.605807 -1.45491 0
M  V30 3139 C 324.952 1.36207 -1.49305 0
M  V30 3140 C 325.273 1.94519 -0.136863 0
M  V30 3141 O 324.543 1.77261 0.833983 0
M  V30 3142 H 323.123 0.50565 -0.549843 0
M  V30 3143 H 325.785 0.711239 -1.81459 0
M  V30 3144 H 324.881 2.18058 -2.23287 0
M  V30 3145 N 325.182 1.32811 0.848464 0
M  V30 3146 C 326.112 1.24882 1.97299 0
M  V30 3147 C 327.093 0.131357 1.69592 0
M  V30 3148 O 328.278 0.319553 1.91553 0
M  V30 3149 C 325.408 0.97746 3.33261 0
M  V30 3150 C 324.362 2.05682 3.75338 0
M  V30 3151 C 323.688 1.63777 5.09 0
M  V30 3152 C 324.988 3.47254 3.90144 0
M  V30 3153 H 326.682 2.18966 2.04191 0
M  V30 3154 H 324.228 1.05413 0.981029 0
M  V30 3155 H 326.181 0.908513 4.1149 0
M  V30 3156 H 324.905 0.000980011 3.266 0
M  V30 3157 H 323.564 2.11603 2.99366 0
M  V30 3158 H 323.212 0.648569 4.98801 0
M  V30 3159 H 322.912 2.36 5.38124 0
M  V30 3160 H 324.436 1.5833 5.89715 0
M  V30 3161 H 325.85 3.43888 4.58709 0
M  V30 3162 H 324.247 4.1788 4.30693 0
M  V30 3163 H 325.317 3.86462 2.92874 0
M  V30 3164 N 326.66 -1.06551 1.16123 0
M  V30 3165 C 327.623 -2.12132 0.867906 0
M  V30 3166 C 328.623 -1.60224 -0.135944 0
M  V30 3167 O 329.813 -1.73943 0.0946422 0
M  V30 3168 C 326.945 -3.396 0.297419 0
M  V30 3169 H 328.138 -2.39586 1.80385 0
M  V30 3170 H 325.691 -1.22574 0.969812 0
M  V30 3171 H 326.426 -3.17794 -0.64633 0
M  V30 3172 H 326.211 -3.78581 1.02073 0
M  V30 3173 H 327.701 -4.17455 0.110052 0
M  V30 3174 N 328.138 -0.959301 -1.25041 0
M  V30 3175 C 329.101 -0.487677 -2.23952 0
M  V30 3176 C 330.101 0.41119 -1.55454 0
M  V30 3177 O 331.291 0.207825 -1.72956 0
M  V30 3178 C 328.423 0.294807 -3.39623 0
M  V30 3179 H 329.616 -1.36198 -2.67189 0
M  V30 3180 H 327.169 -0.743042 -1.37508 0
M  V30 3181 H 327.904 1.18658 -3.01813 0
M  V30 3182 H 327.689 -0.35012 -3.90534 0
M  V30 3183 H 329.179 0.614089 -4.1306 0
M  V30 3184 N 329.616 1.39756 -0.72842 0
M  V30 3185 C 330.546 2.33289 -0.0991354 0
M  V30 3186 C 331.527 1.53568 0.731489 0
M  V30 3187 O 332.712 1.81987 0.677807 0
M  V30 3188 C 329.842 3.3763 0.813834 0
M  V30 3189 C 328.796 4.2791 0.0878663 0
M  V30 3190 C 328.122 5.22894 1.11741 0
M  V30 3191 C 329.422 5.11314 -1.06563 0
M  V30 3192 H 331.116 2.86163 -0.880408 0
M  V30 3193 H 328.662 1.37591 -0.424819 0
M  V30 3194 H 330.615 4.0201 1.26355 0
M  V30 3195 H 329.339 2.83181 1.62715 0
M  V30 3196 H 327.998 3.65 -0.342159 0
M  V30 3197 H 327.646 4.64744 1.92412 0
M  V30 3198 H 327.346 5.84143 0.636477 0
M  V30 3199 H 328.87 5.90151 1.56697 0
M  V30 3200 H 330.284 5.69076 -0.694671 0
M  V30 3201 H 328.681 5.81671 -1.47577 0
M  V30 3202 H 329.751 4.46534 -1.89038 0
M  V30 3203 N 331.094 0.475555 1.50254 0
M  V30 3204 C 332.371 -0.139685 1.95101 0
M  V30 3205 C 332.751 -1.56555 1.41611 0
M  V30 3206 O 332.099 -2.19956 0.618993 0
M  V30 3207 C 332.309 -0.0784298 3.48912 0
M  V30 3208 C 333.657 -0.265095 4.23772 0
M  V30 3209 O 334.681 -0.154808 3.55863 0
M  V30 3210 O 333.54 -0.488327 5.44314 0
M  V30 3211 H 330.634 -0.109236 0.819754 0
M  V30 3212 H 333.18 0.536276 1.61004 0
M  V30 3213 H 331.952 0.916918 3.80405 0
M  V30 3214 H 331.575 -0.795655 3.89558 0
M  V30 3215 N 332.573 -1.56217 0.208337 0
M  V30 3216 C 333.989 -1.58919 -0.14729 0
M  V30 3217 C 334.189 -1.22486 -1.59998 0
M  V30 3218 O 333.245 -0.953849 -2.3379 0
M  V30 3219 C 334.558 -3.00236 0.167048 0
M  V30 3220 C 336.106 -3.12813 0.108219 0
M  V30 3221 C 336.581 -4.56284 0.396049 0
M  V30 3222 N 338.072 -4.61912 0.345142 0
M  V30 3223 C 338.807 -5.70837 0.541523 0
M  V30 3224 N 338.303 -6.88178 0.798968 0
M  V30 3225 N 340.096 -5.60091 0.474867 0
M  V30 3226 H 332.247 -1.78177 1.15614 0
M  V30 3227 H 334.51 -0.827555 0.462446 0
M  V30 3228 H 334.216 -3.31499 1.1748 0
M  V30 3229 H 334.09 -3.7354 -0.524184 0
M  V30 3230 H 336.477 -2.81354 -0.890157 0
M  V30 3231 H 336.558 -2.41866 0.832729 0
M  V30 3232 H 336.202 -4.88458 1.3918 0
M  V30 3233 H 336.132 -5.25439 -0.349502 0
M  V30 3234 H 338.623 -3.77589 0.153316 0
M  V30 3235 H 338.936 -7.67095 0.93727 0
M  V30 3236 H 337.281 -6.89953 0.836013 0
M  V30 3237 H 340.472 -4.67297 0.274064 0
M  V30 3238 H 340.645 -6.44917 0.631326 0
M  V30 3239 N 334.051 0.0651679 -1.57465 0
M  V30 3240 C 334.981 1.07693 -2.07182 0
M  V30 3241 C 335.962 1.39962 -0.966673 0
M  V30 3242 O 337.147 1.49475 -1.2398 0
M  V30 3243 C 334.277 2.3885 -2.52127 0
M  V30 3244 C 333.231 2.20917 -3.66579 0
M  V30 3245 C 332.557 3.57515 -3.97601 0
M  V30 3246 C 333.857 1.62493 -4.9638 0
M  V30 3247 H 335.551 0.663199 -2.91962 0
M  V30 3248 H 333.097 0.317569 -1.40455 0
M  V30 3249 H 335.05 3.09928 -2.85522 0
M  V30 3250 H 333.774 2.82215 -1.64384 0
M  V30 3251 H 332.433 1.52279 -3.33477 0
M  V30 3252 H 332.081 3.98463 -3.06979 0
M  V30 3253 H 331.781 3.46353 -4.74672 0
M  V30 3254 H 333.305 4.30013 -4.33499 0
M  V30 3255 H 334.719 2.23445 -5.27963 0
M  V30 3256 H 333.116 1.62009 -5.77818 0
M  V30 3257 H 334.186 0.587041 -4.81333 0
M  V30 3258 N 335.529 1.53961 0.336706 0
M  V30 3259 C 336.754 1.75797 1.10046 0
M  V30 3260 C 337.179 0.498985 1.81361 0
M  V30 3261 O 336.537 -0.548769 1.72795 0
M  V30 3262 C 336.585 2.94257 2.08436 0
M  V30 3263 O 335.689 2.64883 3.16087 0
M  V30 3264 H 335.03 0.582936 0.317934 0
M  V30 3265 H 337.56 2.00945 0.38501 0
M  V30 3266 H 337.57 3.21237 2.51537 0
M  V30 3267 H 336.245 3.85564 1.55927 0
M  V30 3268 H 334.822 2.48812 2.77753 0
M  V30 3269 N 337.007 -0.598083 1.45811 0
M  V30 3270 C 338.423 -0.919847 1.30426 0
M  V30 3271 C 338.623 -1.99759 0.264303 0
M  V30 3272 O 337.679 -2.50221 -0.338472 0
M  V30 3273 C 338.992 -1.35176 2.68603 0
M  V30 3274 C 340.54 -1.46546 2.76574 0
M  V30 3275 C 341.015 -1.9311 4.15298 0
M  V30 3276 N 342.506 -2.00328 4.1764 0
M  V30 3277 C 343.241 -2.37599 5.21856 0
M  V30 3278 N 342.737 -2.73771 6.36413 0
M  V30 3279 N 344.53 -2.38021 5.09218 0
M  V30 3280 H 336.681 0.114111 2.12093 0
M  V30 3281 H 338.944 -0.0116121 0.947929 0
M  V30 3282 H 338.65 -0.633969 3.45939 0
M  V30 3283 H 338.524 -2.3164 2.97696 0
M  V30 3284 H 340.911 -2.17415 1.99537 0
M  V30 3285 H 340.992 -0.483727 2.51185 0
M  V30 3286 H 340.636 -1.22824 4.92825 0
M  V30 3287 H 340.566 -2.92213 4.38086 0
M  V30 3288 H 343.057 -1.74925 3.34977 0
M  V30 3289 H 343.37 -3.0112 7.11721 0
M  V30 3290 H 341.715 -2.71445 6.39799 0
M  V30 3291 H 344.906 -2.09174 4.18765 0
M  V30 3292 H 345.079 -2.66741 5.90554 0
M  V30 3293 N 338.485 -1.33259 -0.841409 0
M  V30 3294 C 339.733 -1.24326 -1.59334 0
M  V30 3295 C 340.054 0.191564 -1.94057 0
M  V30 3296 O 339.324 1.11967 -1.60749 0
M  V30 3297 H 337.904 -0.457174 -0.590763 0
M  V30 3298 H 340.566 -1.66947 -1.00571 0
M  V30 3299 H 339.662 -1.8352 -2.52442 0
M  V30 3300 N 339.963 1.05934 -1.16686 0
M  V30 3301 C 341.379 1.30938 -0.912542 0
M  V30 3302 C 341.579 1.96803 0.432533 0
M  V30 3303 O 340.635 2.23693 1.17123 0
M  V30 3304 C 341.948 2.18649 -2.06429 0
M  V30 3305 C 343.496 2.32055 -2.10047 0
M  V30 3306 C 343.971 3.23122 -3.24586 0
M  V30 3307 N 345.462 3.30706 -3.24327 0
M  V30 3308 C 346.197 4.01273 -4.09594 0
M  V30 3309 N 345.693 4.74332 -5.04956 0
M  V30 3310 N 347.486 3.97361 -3.97569 0
M  V30 3311 H 339.637 0.615777 -2.03278 0
M  V30 3312 H 341.9 0.334077 -0.887185 0
M  V30 3313 H 341.606 1.77534 -3.03603 0
M  V30 3314 H 341.48 3.19252 -2.00894 0
M  V30 3315 H 343.867 2.72415 -1.13464 0
M  V30 3316 H 343.948 1.31107 -2.19647 0
M  V30 3317 H 343.592 2.83477 -4.2143 0
M  V30 3318 H 343.522 4.24057 -3.12223 0
M  V30 3319 H 346.013 2.78644 -2.55276 0
M  V30 3320 H 346.326 5.25716 -5.6643 0
M  V30 3321 H 344.671 4.733 -5.08933 0
M  V30 3322 H 347.862 3.39405 -3.22369 0
M  V30 3323 H 348.035 4.52089 -4.64241 0
M  V30 3324 N 341.441 0.965919 1.2453 0
M  V30 3325 C 342.669 0.644385 1.96609 0
M  V30 3326 C 343.084 -0.785823 1.71669 0
M  V30 3327 O 342.441 -1.52703 0.999399 0
M  V30 3328 C 342.492 0.907375 3.49927 0
M  V30 3329 O 342.213 2.28136 3.74013 0
M  V30 3330 C 343.714 0.599784 4.39224 0
M  V30 3331 H 340.934 0.240588 0.626385 0
M  V30 3332 H 343.478 1.29337 1.58405 0
M  V30 3333 H 341.633 0.304631 3.862 0
M  V30 3334 H 342.047 2.36002 4.68405 0
M  V30 3335 H 343.521 0.834263 5.45659 0
M  V30 3336 H 343.998 -0.465921 4.36722 0
M  V30 3337 H 344.604 1.18235 4.08535 0
M  V30 3338 N 342.919 -1.39368 0.735821 0
M  V30 3339 C 343.849 -2.33234 0.111506 0
M  V30 3340 C 344.83 -1.53954 -0.723334 0
M  V30 3341 O 346.015 -1.82344 -0.668147 0
M  V30 3342 C 343.145 -3.38057 -0.795917 0
M  V30 3343 C 342.099 -4.2795 -0.065172 0
M  V30 3344 C 341.425 -5.23479 -1.08967 0
M  V30 3345 C 342.725 -5.10741 1.09273 0
M  V30 3346 H 344.419 -2.85692 0.895571 0
M  V30 3347 H 341.965 -1.37364 0.432109 0
M  V30 3348 H 343.918 -4.02675 -1.24221 0
M  V30 3349 H 342.642 -2.8404 -1.61211 0
M  V30 3350 H 341.301 -3.64813 0.361511 0
M  V30 3351 H 340.949 -4.65758 -1.89944 0
M  V30 3352 H 340.649 -5.84472 -0.605489 0
M  V30 3353 H 342.173 -5.90974 -1.53565 0
M  V30 3354 H 343.587 -5.68699 0.724841 0
M  V30 3355 H 341.984 -5.8088 1.50659 0
M  V30 3356 H 343.054 -4.45525 1.91404 0
M  V30 3357 N 344.397 -0.483516 -1.5 0
M  V30 3358 C 345.813 -0.138404 -1.58999 0
M  V30 3359 C 346.013 1.35597 -1.4905 0
M  V30 3360 O 345.069 2.13039 -1.35539 0
M  V30 3361 C 346.382 -0.699658 -2.92447 0
M  V30 3362 C 347.93 -0.664195 -3.05872 0
M  V30 3363 C 348.405 -1.20321 -4.41913 0
M  V30 3364 N 349.896 -1.16315 -4.48358 0
M  V30 3365 C 350.631 -1.55058 -5.52037 0
M  V30 3366 N 350.127 -2.01311 -6.62907 0
M  V30 3367 N 351.92 -1.46584 -5.42651 0
M  V30 3368 H 344.071 -1.45529 -1.5471 0
M  V30 3369 H 346.334 -0.60258 -0.731848 0
M  V30 3370 H 346.04 -1.747 -3.05242 0
M  V30 3371 H 345.914 -0.150194 -3.76901 0
M  V30 3372 H 348.301 0.374272 -2.92717 0
M  V30 3373 H 348.382 -1.25061 -2.23144 0
M  V30 3374 H 348.026 -2.24037 -4.55818 0
M  V30 3375 H 347.956 -0.592896 -5.23252 0
M  V30 3376 H 350.447 -0.824058 -3.68806 0
M  V30 3377 H 350.76 -2.2899 -7.38095 0
M  V30 3378 H 349.105 -2.05273 -6.63994 0
M  V30 3379 H 352.296 -1.10281 -4.54924 0
M  V30 3380 H 352.469 -1.77103 -6.23329 0
M  V30 3381 N 345.875 1.56104 -0.216619 0
M  V30 3382 C 347.152 1.89988 0.465165 0
M  V30 3383 C 347.532 1.13326 1.78102 0
M  V30 3384 O 346.88 0.241033 2.27225 0
M  V30 3385 C 347.09 3.42646 0.662939 0
M  V30 3386 C 348.438 4.13311 0.972602 0
M  V30 3387 O 349.462 3.48217 0.749901 0
M  V30 3388 O 348.321 5.28396 1.39499 0
M  V30 3389 H 345.415 0.78979 0.245276 0
M  V30 3390 H 347.961 1.67721 -0.258436 0
M  V30 3391 H 346.733 3.90399 -0.26543 0
M  V30 3392 H 346.356 3.70677 1.43821 0
M  V30 3393 N 347.353 -0.0568162 1.57498 0
M  V30 3394 C 348.599 -0.748893 1.89111 0
M  V30 3395 C 348.954 -1.74422 0.81208 0
M  V30 3396 O 348.247 -1.90731 -0.182247 0
M  V30 3397 C 348.441 -1.48359 3.25153 0
M  V30 3398 C 348.27 -0.560924 4.46188 0
M  V30 3399 C 347.04 -0.192264 5.04934 0
M  V30 3400 C 349.238 0.148824 5.14085 0
M  V30 3401 N 347.22 0.734555 6.0949 0
M  V30 3402 C 348.591 0.932286 6.12951 0
M  V30 3403 C 350.646 0.218713 4.97419 0
M  V30 3404 C 349.349 1.77917 6.96949 0
M  V30 3405 C 351.375 1.05262 5.81957 0
M  V30 3406 C 350.737 1.82409 6.80372 0
M  V30 3407 H 346.836 -0.249002 0.741298 0
M  V30 3408 H 349.42 -0.00984926 1.94698 0
M  V30 3409 H 347.591 -2.19326 3.20547 0
M  V30 3410 H 349.323 -2.12586 3.44368 0
M  V30 3411 H 346.078 -0.548421 4.70414 0
M  V30 3412 H 346.502 1.19165 6.6643 0
M  V30 3413 H 351.144 -0.363407 4.21235 0
M  V30 3414 H 348.862 2.3722 7.72497 0
M  V30 3415 H 352.448 1.10987 5.71116 0
M  V30 3416 H 351.328 2.45895 7.44651 0
M  V30 3417 N 348.832 -1.54138 -0.328536 0
M  V30 3418 C 349.762 -1.86167 -1.40939 0
M  V30 3419 C 350.743 -0.718044 -1.54202 0
M  V30 3420 O 351.928 -0.971328 -1.68163 0
M  V30 3421 C 349.058 -2.08461 -2.77779 0
M  V30 3422 C 348.012 -3.24299 -2.7931 0
M  V30 3423 C 347.338 -3.31955 -4.19178 0
M  V30 3424 C 348.638 -4.62065 -2.43502 0
M  V30 3425 H 350.332 -2.76689 -1.14383 0
M  V30 3426 H 347.878 -1.33132 -0.548806 0
M  V30 3427 H 349.831 -2.29453 -3.53454 0
M  V30 3428 H 348.555 -1.14684 -3.05802 0
M  V30 3429 H 347.214 -3.03187 -2.0609 0
M  V30 3430 H 346.862 -2.35745 -4.44335 0
M  V30 3431 H 346.562 -4.09805 -4.2111 0
M  V30 3432 H 348.086 -3.55175 -4.96672 0
M  V30 3433 H 349.5 -4.8297 -3.08889 0
M  V30 3434 H 347.897 -5.42429 -2.56693 0
M  V30 3435 H 348.967 -4.64652 -1.38659 0
M  V30 3436 N 350.31 0.590341 -1.46126 0
M  V30 3437 C 351.538 1.37504 -1.54597 0
M  V30 3438 C 351.953 1.87897 -0.184447 0
M  V30 3439 O 351.31 1.63192 0.816984 0
M  V30 3440 C 351.361 2.56779 -2.54454 0
M  V30 3441 O 351.082 2.08476 -3.85317 0
M  V30 3442 C 352.583 3.49427 -2.72792 0
M  V30 3443 H 349.803 0.420325 -0.523037 0
M  V30 3444 H 352.347 0.718383 -1.91467 0
M  V30 3445 H 350.502 3.1845 -2.20609 0
M  V30 3446 H 350.916 2.86097 -4.396 0
M  V30 3447 H 352.39 4.29619 -3.466 0
M  V30 3448 H 352.867 4.00876 -1.79429 0
M  V30 3449 H 353.473 2.93598 -3.07702 0
M  V30 3450 N 351.788 1.33704 0.83433 0
M  V30 3451 C 353.204 1.13137 1.12571 0
M  V30 3452 C 353.404 -0.0747261 2.01361 0
M  V30 3453 O 352.46 -0.753647 2.4099 0
M  V30 3454 C 353.773 2.42105 1.78342 0
M  V30 3455 C 355.321 2.48054 1.90888 0
M  V30 3456 C 355.796 3.76995 2.60075 0
M  V30 3457 N 357.287 3.78092 2.67584 0
M  V30 3458 C 358.022 4.74574 3.21818 0
M  V30 3459 N 357.518 5.81434 3.76705 0
M  V30 3460 N 359.311 4.62044 3.20112 0
M  V30 3461 H 351.462 2.11 0.243489 0
M  V30 3462 H 353.725 0.932532 0.17055 0
M  V30 3463 H 353.431 3.30391 1.20561 0
M  V30 3464 H 353.305 2.54594 2.7832 0
M  V30 3465 H 355.692 1.60215 2.47821 0
M  V30 3466 H 355.773 2.39502 0.898459 0
M  V30 3467 H 355.417 4.65219 2.03799 0
M  V30 3468 H 355.347 3.82825 3.61597 0
M  V30 3469 H 357.838 3.00865 2.28667 0
M  V30 3470 H 358.151 6.51084 4.16305 0
M  V30 3471 H 356.496 5.85163 3.7498 0
M  V30 3472 H 359.687 3.77716 2.76493 0
M  V30 3473 H 359.86 5.37406 3.62076 0
M  V30 3474 N 353.266 -1.05314 1.17247 0
M  V30 3475 C 354.496 -1.81707 0.983166 0
M  V30 3476 C 354.904 -1.83222 -0.471822 0
M  V30 3477 O 354.247 -1.25721 -1.3394 0
M  V30 3478 C 354.309 -3.29134 1.44606 0
M  V30 3479 C 353.973 -3.51304 2.92292 0
M  V30 3480 C 354.97 -3.4353 3.90235 0
M  V30 3481 C 352.655 -3.78306 3.30439 0
M  V30 3482 C 354.649 -3.62442 5.24323 0
M  V30 3483 C 352.336 -3.96866 4.64694 0
M  V30 3484 C 353.334 -3.88933 5.61445 0
M  V30 3485 O 353.022 -4.06976 6.93272 0
M  V30 3486 H 352.754 -0.579476 0.348114 0
M  V30 3487 H 355.308 -1.33705 1.55924 0
M  V30 3488 H 353.538 -3.78046 0.813537 0
M  V30 3489 H 355.227 -3.87049 1.22262 0
M  V30 3490 H 355.993 -3.22648 3.62109 0
M  V30 3491 H 351.872 -3.83585 2.55702 0
M  V30 3492 H 355.416 -3.56165 5.99827 0
M  V30 3493 H 351.313 -4.1724 4.92525 0
M  V30 3494 H 352.081 -4.24209 6.99992 0
M  V30 3495 N 354.744 -0.972509 -1.24016 0
M  V30 3496 C 356.16 -0.679827 -1.44397 0
M  V30 3497 C 356.36 0.756716 -1.86751 0
M  V30 3498 O 355.416 1.53007 -2.00861 0
M  V30 3499 C 356.729 -1.66803 -2.50195 0
M  V30 3500 C 358.277 -1.68119 -2.64017 0
M  V30 3501 C 358.752 -2.65748 -3.73017 0
M  V30 3502 N 360.243 -2.64219 -3.8045 0
M  V30 3503 C 360.978 -3.36433 -4.64328 0
M  V30 3504 N 360.474 -4.1818 -5.52356 0
M  V30 3505 N 362.267 -3.25235 -4.58453 0
M  V30 3506 H 354.418 -1.90059 -0.948228 0
M  V30 3507 H 356.681 -0.818527 -0.478245 0
M  V30 3508 H 356.387 -2.69498 -2.25973 0
M  V30 3509 H 356.261 -1.4446 -3.48441 0
M  V30 3510 H 358.648 -0.661319 -2.87594 0
M  V30 3511 H 358.729 -1.94525 -1.66113 0
M  V30 3512 H 358.373 -3.67872 -3.50189 0
M  V30 3513 H 358.303 -2.36619 -4.70446 0
M  V30 3514 H 360.794 -2.04887 -3.17537 0
M  V30 3515 H 361.107 -4.70157 -6.13329 0
M  V30 3516 H 359.452 -4.22273 -5.52006 0
M  V30 3517 H 362.643 -2.60829 -3.88698 0
M  V30 3518 H 362.816 -3.81776 -5.23594 0
M  V30 3519 N 356.222 1.38976 -0.743202 0
M  V30 3520 C 357.633 1.83123 -0.363732 0
M  V30 3521 C 357.984 1.6205 1.10609 0
M  V30 3522 O 357.109 1.11606 1.854 0
M  V30 3523 C 357.704 3.32439 -0.653408 0
M  V30 3524 C 356.263 3.74974 -0.327338 0
M  V30 3525 C 355.41 2.61878 -0.911875 0
M  V30 3526 H 358.361 1.27852 -0.940191 0
M  V30 3527 H 358.382 3.80432 0.0720031 0
M  V30 3528 H 357.894 3.47745 -1.72323 0
M  V30 3529 H 355.995 3.65252 0.736314 0
M  V30 3530 H 356.108 4.72106 -0.815631 0
M  V30 3531 H 354.472 2.52448 -0.337944 0
M  V30 3532 H 355.255 2.79987 -1.98651 0
M  V30 3533 N 357.7 0.491464 1.49741 0
M  V30 3534 C 359.116 0.146835 1.58923 0
M  V30 3535 C 359.316 -1.34804 1.49767 0
M  V30 3536 O 358.372 -2.12317 1.36667 0
M  V30 3537 C 359.685 0.715157 2.92072 0
M  V30 3538 C 361.233 0.680407 3.05515 0
M  V30 3539 C 361.708 1.22663 4.41269 0
M  V30 3540 N 363.199 1.18691 4.47735 0
M  V30 3541 C 363.934 1.57984 5.51207 0
M  V30 3542 N 363.43 2.04824 6.6183 0
M  V30 3543 N 365.223 1.49459 5.41866 0
M  V30 3544 H 357.374 1.46347 1.53936 0
M  V30 3545 H 359.637 0.606453 0.728642 0
M  V30 3546 H 359.343 1.76317 3.04311 0
M  V30 3547 H 359.217 0.17018 3.76816 0
M  V30 3548 H 361.604 -0.358743 2.92911 0
M  V30 3549 H 361.685 1.26242 2.22478 0
M  V30 3550 H 361.329 2.26451 4.54623 0
M  V30 3551 H 361.259 0.620637 5.2293 0
M  V30 3552 H 363.75 0.843605 3.68364 0
M  V30 3553 H 364.063 2.32901 7.3687 0
M  V30 3554 H 362.408 2.08791 6.62896 0
M  V30 3555 H 365.599 1.12692 4.54333 0
M  V30 3556 H 365.772 1.80406 6.22381 0
M  V30 3557 N 359.178 -1.55987 0.224894 0
M  V30 3558 C 360.424 -1.98684 -0.406502 0
M  V30 3559 C 360.757 -1.11248 -1.59177 0
M  V30 3560 O 360.032 -0.170909 -1.93748 0
M  V30 3561 C 360.315 -3.50218 -0.837808 0
M  V30 3562 C 360.168 -4.48426 0.351332 0
M  V30 3563 C 361.487 -4.06243 -1.69278 0
M  V30 3564 H 358.606 -0.722337 -0.146283 0
M  V30 3565 H 361.248 -1.87255 0.321799 0
M  V30 3566 H 359.398 -3.60089 -1.45837 0
M  V30 3567 H 361.07 -4.50562 0.989526 0
M  V30 3568 H 359.313 -4.22159 0.998207 0
M  V30 3569 H 359.984 -5.52 0.00655905 0
M  V30 3570 H 362.46 -3.99337 -1.16914 0
M  V30 3571 H 361.336 -5.12581 -1.96346 0
M  V30 3572 H 361.597 -3.53332 -2.65723 0
M  V30 3573 N 360.656 0.0484629 -1.57525 0
M  V30 3574 C 362.072 0.40375 -1.54409 0
M  V30 3575 C 362.272 1.77786 -0.948384 0
M  V30 3576 O 361.328 2.46189 -0.560983 0
M  V30 3577 C 362.641 0.323394 -2.98956 0
M  V30 3578 C 364.189 0.401892 -3.10409 0
M  V30 3579 C 364.664 0.351195 -4.56652 0
M  V30 3580 N 366.155 0.410576 -4.61377 0
M  V30 3581 C 366.89 0.393933 -5.72045 0
M  V30 3582 N 366.386 0.330724 -6.9201 0
M  V30 3583 N 368.179 0.442227 -5.60358 0
M  V30 3584 H 360.33 -0.851016 -1.94606 0
M  V30 3585 H 362.593 -0.321721 -0.89174 0
M  V30 3586 H 362.299 -0.62011 -3.4619 0
M  V30 3587 H 362.173 1.12463 -3.60044 0
M  V30 3588 H 364.56 1.33582 -2.63134 0
M  V30 3589 H 364.641 -0.428342 -2.52188 0
M  V30 3590 H 364.285 -0.578987 -5.04589 0
M  V30 3591 H 364.215 1.19928 -5.12762 0
M  V30 3592 H 366.706 0.462729 -3.75056 0
M  V30 3593 H 367.019 0.322592 -7.72126 0
M  V30 3594 H 365.364 0.29706 -6.94365 0
M  V30 3595 H 368.555 0.489464 -4.65534 0
M  V30 3596 H 368.728 0.425788 -6.466 0
M  V30 3597 N 362.134 1.5431 0.320358 0
M  V30 3598 C 363.38 1.72924 1.05949 0
M  V30 3599 C 363.713 0.503185 1.87568 0
M  V30 3600 O 362.988 -0.499839 1.87968 0
M  V30 3601 C 363.271 3.00676 1.98156 0
M  V30 3602 C 363.124 4.3354 1.19845 0
M  V30 3603 C 364.443 3.24198 2.9763 0
M  V30 3604 H 361.562 0.629195 0.383774 0
M  V30 3605 H 364.204 1.87008 0.335854 0
M  V30 3606 H 362.354 2.888 2.59859 0
M  V30 3607 H 364.026 4.57305 0.605773 0
M  V30 3608 H 362.269 4.309 0.500784 0
M  V30 3609 H 362.94 5.19156 1.87567 0
M  V30 3610 H 365.416 3.35557 2.4605 0
M  V30 3611 H 364.292 4.14938 3.59329 0
M  V30 3612 H 364.553 2.41577 3.7026 0
M  V30 3613 N 363.613 -0.582584 1.46437 0
M  V30 3614 C 364.861 -1.33814 1.51453 0
M  V30 3615 C 365.182 -1.94277 0.167792 0
M  V30 3616 O 364.452 -1.78566 -0.805677 0
M  V30 3617 H 363.032 -0.496838 0.557818 0
M  V30 3618 H 365.694 -0.682281 1.82568 0
M  V30 3619 H 364.79 -2.14479 2.26728 0
M  V30 3620 N 365.091 -1.34144 -0.827227 0
M  V30 3621 C 366.338 -1.26258 -1.58319 0
M  V30 3622 C 366.666 0.168595 -1.93768 0
M  V30 3623 O 365.921 1.12877 -1.59866 0
M  V30 3624 C 366.22 -2.09464 -2.89585 0
M  V30 3625 C 365.886 -3.58521 -2.73448 0
M  V30 3626 C 364.548 -3.99155 -2.68754 0
M  V30 3627 C 366.9 -4.53189 -2.57428 0
M  V30 3628 C 364.228 -5.32656 -2.45957 0
M  V30 3629 C 366.58 -5.86864 -2.36163 0
M  V30 3630 C 365.244 -6.26667 -2.29879 0
M  V30 3631 H 364.514 -0.462013 -0.579332 0
M  V30 3632 H 367.161 -1.65845 -0.95748 0
M  V30 3633 H 365.466 -1.62692 -3.56425 0
M  V30 3634 H 367.163 -2.00712 -3.47154 0
M  V30 3635 H 363.753 -3.26264 -2.77939 0
M  V30 3636 H 367.937 -4.22696 -2.60081 0
M  V30 3637 H 363.193 -5.62519 -2.39546 0
M  V30 3638 H 367.367 -6.59813 -2.22754 0
M  V30 3639 H 364.994 -7.30049 -2.11975 0
M  V30 3640 N 366.569 1.04691 -1.17803 0
M  V30 3641 C 367.532 2.10724 -0.901545 0
M  V30 3642 C 368.532 1.6042 0.110437 0
M  V30 3643 O 369.722 1.7377 -0.122303 0
M  V30 3644 C 366.854 3.39084 -0.351409 0
M  V30 3645 H 368.047 2.36686 -1.84174 0
M  V30 3646 H 365.6 1.21015 -0.98919 0
M  V30 3647 H 366.335 3.18782 0.59569 0
M  V30 3648 H 366.12 3.76909 -1.08083 0
M  V30 3649 H 367.61 4.17227 -0.176451 0
M  V30 3650 N 368.047 0.979072 1.23499 0
M  V30 3651 C 369.272 0.664845 1.96455 0
M  V30 3652 C 369.697 -0.761287 1.72006 0
M  V30 3653 O 369.055 -1.51837 0.990713 0
M  V30 3654 C 369.103 0.959479 3.47601 0
M  V30 3655 O 368.207 0.0508168 4.12369 0
M  V30 3656 H 367.548 0.250185 0.615064 0
M  V30 3657 H 370.078 1.31231 1.5697 0
M  V30 3658 H 370.088 0.895642 3.98048 0
M  V30 3659 H 368.763 1.99876 3.64723 0
M  V30 3660 H 367.34 0.16895 3.72517 0
M  V30 3661 N 369.525 -1.3858 0.750561 0
M  V30 3662 C 370.941 -1.53759 0.427824 0
M  V30 3663 C 371.141 -1.71401 -1.05943 0
M  V30 3664 O 370.197 -1.72331 -1.84549 0
M  V30 3665 C 371.51 -2.74642 1.22443 0
M  V30 3666 C 373.058 -2.88489 1.2142 0
M  V30 3667 C 373.533 -4.12329 1.9937 0
M  V30 3668 N 375.024 -4.194 1.96616 0
M  V30 3669 C 375.759 -5.14209 2.53727 0
M  V30 3670 N 375.255 -6.14709 3.19539 0
M  V30 3671 N 377.048 -5.06537 2.43673 0
M  V30 3672 H 369.199 -1.25377 1.71447 0
M  V30 3673 H 371.462 -0.608844 0.726645 0
M  V30 3674 H 371.168 -2.68 2.27747 0
M  V30 3675 H 371.042 -3.67745 0.839273 0
M  V30 3676 H 373.429 -2.94614 0.169232 0
M  V30 3677 H 373.51 -1.96406 1.63885 0
M  V30 3678 H 373.154 -4.06966 3.03877 0
M  V30 3679 H 373.084 -5.03486 1.54302 0
M  V30 3680 H 375.575 -3.47421 1.48684 0
M  V30 3681 H 375.888 -6.8354 3.60545 0
M  V30 3682 H 374.233 -6.1505 3.23633 0
M  V30 3683 H 377.424 -4.26962 1.91889 0
M  V30 3684 H 377.597 -5.80245 2.88479 0
M  V30 3685 N 371.003 -0.499398 -1.49478 0
M  V30 3686 C 371.933 0.269244 -2.31943 0
M  V30 3687 C 372.914 0.964054 -1.40143 0
M  V30 3688 O 374.099 0.955767 -1.69052 0
M  V30 3689 C 371.229 1.33504 -3.20615 0
M  V30 3690 C 370.183 0.760202 -4.21195 0
M  V30 3691 C 369.509 1.9264 -4.98792 0
M  V30 3692 C 370.809 -0.247661 -5.21712 0
M  V30 3693 H 372.503 -0.419082 -2.96452 0
M  V30 3694 H 370.049 -0.202988 -1.42562 0
M  V30 3695 H 372.002 1.88048 -3.77115 0
M  V30 3696 H 370.726 2.05253 -2.54045 0
M  V30 3697 H 369.385 0.23653 -3.65836 0
M  V30 3698 H 369.033 2.63154 -4.28671 0
M  V30 3699 H 368.733 1.54785 -5.66847 0
M  V30 3700 H 370.257 2.4762 -5.58137 0
M  V30 3701 H 371.671 0.209579 -5.72917 0
M  V30 3702 H 370.068 -0.541962 -5.97648 0
M  V30 3703 H 371.138 -1.16409 -4.7072 0
M  V30 3704 N 372.481 1.55866 -0.233164 0
M  V30 3705 C 373.444 2.1953 0.658715 0
M  V30 3706 C 374.444 1.16053 1.11303 0
M  V30 3707 O 375.634 1.41218 1.01996 0
M  V30 3708 C 372.766 2.82791 1.90373 0
M  V30 3709 H 373.959 2.99721 0.10347 0
M  V30 3710 H 371.512 1.56291 0.0164245 0
M  V30 3711 H 372.247 2.06501 2.50056 0
M  V30 3712 H 372.032 3.58578 1.58632 0
M  V30 3713 H 373.522 3.31556 2.53891 0
M  V30 3714 N 373.959 -0.0401083 1.57549 0
M  V30 3715 C 375.236 -0.767917 1.79896 0
M  V30 3716 C 375.616 -1.9416 0.82856 0
M  V30 3717 O 374.964 -2.2812 -0.131671 0
M  V30 3718 C 375.174 -1.2113 3.27305 0
M  V30 3719 C 376.522 -1.63175 3.91994 0
M  V30 3720 O 377.546 -1.30616 3.31388 0
M  V30 3721 O 376.405 -2.23565 4.98679 0
M  V30 3722 H 373.499 -0.370441 0.739393 0
M  V30 3723 H 376.045 -0.017737 1.69691 0
M  V30 3724 H 374.817 -0.372937 3.89519 0
M  V30 3725 H 374.44 -2.02183 3.42356 0
M  V30 3726 N 375.437 -1.54477 -0.31217 0
M  V30 3727 C 376.4 -1.83923 -1.36766 0
M  V30 3728 C 377.4 -0.711563 -1.44199 0
M  V30 3729 O 378.59 -0.979866 -1.44029 0
M  V30 3730 C 375.722 -2.0095 -2.75376 0
M  V30 3731 H 376.915 -2.78239 -1.11906 0
M  V30 3732 H 374.468 -1.46369 -0.548257 0
M  V30 3733 H 375.203 -1.08883 -3.05475 0
M  V30 3734 H 374.988 -2.83018 -2.71373 0
M  V30 3735 H 376.478 -2.2514 -3.51713 0
M  V30 3736 N 376.915 0.57481 -1.46744 0
M  V30 3737 C 377.878 1.66533 -1.57478 0
M  V30 3738 C 378.878 1.54338 -0.451263 0
M  V30 3739 O 380.068 1.58814 -0.715813 0
M  V30 3740 C 377.2 3.05999 -1.50259 0
M  V30 3741 H 378.393 1.58372 -2.54673 0
M  V30 3742 H 375.946 0.793301 -1.34672 0
M  V30 3743 H 376.681 3.19709 -0.543725 0
M  V30 3744 H 376.466 3.16259 -2.31781 0
M  V30 3745 H 377.956 3.8537 -1.60872 0
M  V30 3746 N 378.394 1.34581 0.820102 0
M  V30 3747 C 379.64 1.27285 1.57881 0
M  V30 3748 C 379.973 -0.156137 1.93571 0
M  V30 3749 O 379.248 -1.10222 1.60254 0
M  V30 3750 C 379.531 2.16639 2.87645 0
M  V30 3751 C 379.384 3.68088 2.58517 0
M  V30 3752 C 380.703 2.05378 3.8924 0
M  V30 3753 H 377.822 0.463714 0.572833 0
M  V30 3754 H 380.464 1.64859 0.944539 0
M  V30 3755 H 378.614 1.84725 3.41773 0
M  V30 3756 H 380.286 4.10382 2.10676 0
M  V30 3757 H 378.529 3.89038 1.91917 0
M  V30 3758 H 379.2 4.2598 3.51063 0
M  V30 3759 H 381.676 2.33404 3.44473 0
M  V30 3760 H 380.552 2.7012 4.77835 0
M  V30 3761 H 380.813 1.0316 4.29896 0
M  V30 3762 N 379.872 -1.04064 1.18357 0
M  V30 3763 C 381.121 -1.76662 0.973313 0
M  V30 3764 C 381.434 -1.89154 -0.497991 0
M  V30 3765 O 382.64 -2.58606 -0.826762 0
M  V30 3766 C 381.096 -3.17624 1.69242 0
M  V30 3767 C 380.704 -3.13225 3.20303 0
M  V30 3768 C 382.448 -3.946 1.56497 0
M  V30 3769 C 380.355 -4.49046 3.84853 0
M  V30 3770 H 379.285 -0.662214 0.36054 0
M  V30 3771 H 381.936 -1.16553 1.41731 0
M  V30 3772 H 380.318 -3.78129 1.1762 0
M  V30 3773 H 381.492 -2.62172 3.78949 0
M  V30 3774 H 379.807 -2.49749 3.33189 0
M  V30 3775 H 382.404 -4.95042 2.02084 0
M  V30 3776 H 382.747 -4.13074 0.517243 0
M  V30 3777 H 383.28 -3.4067 2.05399 0
M  V30 3778 H 380.019 -4.35777 4.89672 0
M  V30 3779 H 379.539 -5.00203 3.30994 0
M  V30 3780 H 381.218 -5.17961 3.87718 0
M  V30 3781 N 381.35 -0.985608 -1.22978 0
M  V30 3782 C 382.313 -0.535071 -2.22867 0
M  V30 3783 C 383.313 0.378123 -1.56291 0
M  V30 3784 O 384.503 0.171092 -1.73358 0
M  V30 3785 C 381.635 0.222702 -3.40172 0
M  V30 3786 H 382.828 -1.41835 -2.6424 0
M  V30 3787 H 380.381 -0.772042 -1.35901 0
M  V30 3788 H 381.116 1.12229 -3.04262 0
M  V30 3789 H 380.901 -0.43288 -3.89703 0
M  V30 3790 H 382.391 0.526335 -4.1427 0
M  V30 3791 N 382.828 1.3818 -0.7579 0
M  V30 3792 C 384.056 2.04301 -0.326937 0
M  V30 3793 C 384.471 1.57163 1.0462 0
M  V30 3794 O 383.828 0.746626 1.66529 0
M  V30 3795 C 383.879 3.59846 -0.345363 0
M  V30 3796 O 383.6 4.05256 -1.66432 0
M  V30 3797 C 385.101 4.4319 0.098927 0
M  V30 3798 H 382.321 0.656443 -0.139012 0
M  V30 3799 H 384.865 1.76786 -1.02796 0
M  V30 3800 H 383.02 3.86182 0.306955 0
M  V30 3801 H 383.434 4.99709 -1.59345 0
M  V30 3802 H 384.908 5.51989 0.0348745 0
M  V30 3803 H 385.385 4.23947 1.14741 0
M  V30 3804 H 385.991 4.22051 -0.52468 0
M  V30 3805 N 384.306 0.507319 1.49211 0
M  V30 3806 C 385.236 -0.256939 2.32082 0
M  V30 3807 C 386.217 -0.956609 1.40652 0
M  V30 3808 O 387.402 -0.946788 1.69557 0
M  V30 3809 C 384.532 -1.31802 3.21318 0
M  V30 3810 C 383.486 -0.737855 4.21592 0
M  V30 3811 C 382.812 -1.89992 4.99807 0
M  V30 3812 C 384.112 0.275325 5.21574 0
M  V30 3813 H 385.806 0.434798 2.96226 0
M  V30 3814 H 383.352 0.210546 1.42452 0
M  V30 3815 H 385.305 -1.86045 3.78107 0
M  V30 3816 H 384.029 -2.03903 2.5513 0
M  V30 3817 H 382.688 -0.217126 3.65956 0
M  V30 3818 H 382.336 -2.60877 4.30061 0
M  V30 3819 H 382.036 -1.51777 5.6766 0
M  V30 3820 H 383.56 -2.44657 5.59442 0
M  V30 3821 H 384.974 -0.179193 5.7302 0
M  V30 3822 H 383.371 0.573649 5.97352 0
M  V30 3823 H 384.441 1.18903 4.70096 0
M  V30 3824 N 385.784 -1.5574 0.241426 0
M  V30 3825 C 386.714 -2.24133 -0.654722 0
M  V30 3826 C 387.695 -1.21974 -1.1856 0
M  V30 3827 O 388.88 -1.50612 -1.22595 0
M  V30 3828 C 386.01 -2.93659 -1.85423 0
M  V30 3829 C 384.964 -4.0246 -1.45636 0
M  V30 3830 C 384.29 -4.59383 -2.73626 0
M  V30 3831 C 385.59 -5.18468 -0.631506 0
M  V30 3832 H 387.284 -2.99281 -0.0844353 0
M  V30 3833 H 384.83 -1.43947 -0.0391707 0
M  V30 3834 H 386.783 -3.40203 -2.48676 0
M  V30 3835 H 385.507 -2.15991 -2.44981 0
M  V30 3836 H 384.166 -3.56676 -0.847202 0
M  V30 3837 H 383.814 -3.78422 -3.3137 0
M  V30 3838 H 383.514 -5.32826 -2.4773 0
M  V30 3839 H 385.038 -5.08658 -3.37786 0
M  V30 3840 H 386.452 -5.61272 -1.1682 0
M  V30 3841 H 384.849 -5.98266 -0.468831 0
M  V30 3842 H 385.919 -4.8358 0.357506 0
M  V30 3843 N 387.262 0.0317525 -1.57568 0
M  V30 3844 C 388.192 1.03274 -2.0942 0
M  V30 3845 C 389.173 1.3788 -0.996143 0
M  V30 3846 O 390.358 1.46811 -1.27122 0
M  V30 3847 C 387.488 2.33448 -2.57137 0
M  V30 3848 C 386.442 2.13091 -3.71182 0
M  V30 3849 C 385.768 3.49001 -4.05095 0
M  V30 3850 C 387.068 1.51928 -4.99715 0
M  V30 3851 H 388.762 0.60112 -2.93303 0
M  V30 3852 H 386.308 0.287705 -1.41097 0
M  V30 3853 H 388.261 3.03802 -2.92032 0
M  V30 3854 H 386.985 2.78665 -1.70333 0
M  V30 3855 H 385.644 1.45171 -3.36632 0
M  V30 3856 H 385.292 3.91862 -3.15362 0
M  V30 3857 H 384.992 3.36207 -4.81911 0
M  V30 3858 H 386.516 4.20721 -4.42522 0
M  V30 3859 H 387.93 2.12196 -5.32584 0
M  V30 3860 H 386.327 1.49716 -5.81124 0
M  V30 3861 H 387.397 0.484811 -4.8247 0
M  V30 3862 N 388.74 1.54641 0.303973 0
M  V30 3863 C 389.986 1.74969 1.03718 0
M  V30 3864 C 390.341 0.527461 1.85029 0
M  V30 3865 O 389.634 -0.480143 1.85486 0
M  V30 3866 C 389.828 2.97753 1.97681 0
M  V30 3867 C 389.657 4.318 1.25613 0
M  V30 3868 C 388.427 4.95616 0.984518 0
M  V30 3869 C 390.625 5.10021 0.662081 0
M  V30 3870 N 388.607 6.13455 0.233794 0
M  V30 3871 C 389.978 6.19984 0.0439736 0
M  V30 3872 C 392.033 4.94663 0.566835 0
M  V30 3873 C 390.736 7.16264 -0.66016 0
M  V30 3874 C 392.762 5.91271 -0.123637 0
M  V30 3875 C 392.124 7.00601 -0.730608 0
M  V30 3876 H 388.223 0.692873 0.362562 0
M  V30 3877 H 390.807 1.92116 0.316135 0
M  V30 3878 H 388.978 2.82036 2.6704 0
M  V30 3879 H 390.71 3.06621 2.64132 0
M  V30 3880 H 387.465 4.55921 1.28191 0
M  V30 3881 H 387.889 6.76879 -0.127996 0
M  V30 3882 H 392.531 4.10267 1.02181 0
M  V30 3883 H 390.249 8.00204 -1.12691 0
M  V30 3884 H 393.835 5.81466 -0.197236 0
M  V30 3885 H 392.715 7.7407 -1.2564 0
M  V30 3886 N 390.218 -0.567019 1.47046 0
M  V30 3887 C 391.168 -1.67018 1.55207 0
M  V30 3888 C 392.152 -1.55543 0.411714 0
M  V30 3889 O 393.344 -1.64192 0.661064 0
M  V30 3890 C 390.473 -3.05801 1.56014 0
M  V30 3891 C 389.559 -3.22515 2.75399 0
M  V30 3892 N 389.95 -3.09329 4.00186 0
M  V30 3893 C 388.248 -3.53493 2.71954 0
M  V30 3894 C 388.949 -3.2847 4.80086 0
M  V30 3895 N 387.925 -3.54352 4.12233 0
M  V30 3896 H 391.727 -1.55377 2.4947 0
M  V30 3897 H 389.241 -0.771503 1.42904 0
M  V30 3898 H 391.238 -3.84996 1.59949 0
M  V30 3899 H 389.898 -3.18561 0.628396 0
M  V30 3900 H 390.909 -2.86863 4.31196 0
M  V30 3901 H 387.586 -3.7284 1.87873 0
M  V30 3902 H 388.976 -3.23326 5.88991 0
M  V30 3903 N 391.696 -1.35014 -0.812953 0
M  V30 3904 C 392.942 -1.2812 -1.57204 0
M  V30 3905 C 393.275 0.145869 -1.93651 0
M  V30 3906 O 392.55 1.0937 -1.60836 0
M  V30 3907 C 392.833 -2.18162 -2.86492 0
M  V30 3908 C 392.686 -3.69454 -2.56561 0
M  V30 3909 C 394.005 -2.07439 -3.88145 0
M  V30 3910 H 391.124 -0.466746 -0.570366 0
M  V30 3911 H 393.766 -1.65357 -0.935783 0
M  V30 3912 H 391.916 -1.86535 -3.40789 0
M  V30 3913 H 393.588 -4.11493 -2.08497 0
M  V30 3914 H 391.831 -3.9005 -1.89851 0
M  V30 3915 H 392.502 -4.27835 -3.48799 0
M  V30 3916 H 394.978 -2.35228 -3.4323 0
M  V30 3917 H 393.854 -2.7265 -4.76396 0
M  V30 3918 H 394.115 -1.05439 -4.29343 0
M  V30 3919 N 393.175 1.03435 -1.18907 0
M  V30 3920 C 394.424 1.76143 -0.982669 0
M  V30 3921 C 394.737 1.89416 0.487953 0
M  V30 3922 O 395.943 2.59041 0.813036 0
M  V30 3923 C 394.399 3.16722 -1.70924 0
M  V30 3924 C 394.007 3.11522 -3.21959 0
M  V30 3925 C 395.751 3.93764 -1.58588 0
M  V30 3926 C 393.658 4.46999 -3.87228 0
M  V30 3927 H 392.588 0.660292 -0.364047 0
M  V30 3928 H 395.239 1.158 -1.42347 0
M  V30 3929 H 393.621 3.775 -1.19623 0
M  V30 3930 H 394.795 2.60158 -3.80335 0
M  V30 3931 H 393.11 2.47978 -3.34508 0
M  V30 3932 H 395.707 4.93963 -2.04707 0
M  V30 3933 H 396.05 4.12794 -0.539142 0
M  V30 3934 H 396.583 3.39576 -2.07203 0
M  V30 3935 H 393.322 4.33174 -4.91976 0
M  V30 3936 H 392.842 4.98441 -3.33642 0
M  V30 3937 H 394.521 5.15898 -3.90459 0
M  V30 3938 N 394.653 0.992116 1.22453 0
M  V30 3939 C 395.901 0.666215 1.90804 0
M  V30 3940 C 396.222 -0.804152 1.77647 0
M  V30 3941 O 395.492 -1.57629 1.16318 0
M  V30 3942 H 394.072 0.243423 0.706225 0
M  V30 3943 H 396.734 1.25845 1.48825 0
M  V30 3944 H 395.83 0.928069 2.97982 0
M  V30 3945 N 396.131 -1.37776 0.765217 0
M  V30 3946 C 397.094 -2.28686 0.153416 0
M  V30 3947 C 398.094 -1.47727 -0.635081 0
M  V30 3948 O 399.284 -1.68027 -0.459632 0
M  V30 3949 C 396.416 -3.31608 -0.790495 0
M  V30 3950 H 397.609 -2.84297 0.954723 0
M  V30 3951 H 395.162 -1.46932 0.53299 0
M  V30 3952 H 395.897 -2.81109 -1.61705 0
M  V30 3953 H 395.682 -3.9144 -0.227348 0
M  V30 3954 H 397.172 -3.99559 -1.21419 0
M  V30 3955 N 397.609 -0.515225 -1.4894 0
M  V30 3956 C 398.837 0.0206034 -2.0689 0
M  V30 3957 C 399.252 1.29514 -1.37374 0
M  V30 3958 O 398.609 1.76698 -0.456529 0
M  V30 3959 C 398.66 0.26351 -3.60538 0
M  V30 3960 O 398.381 -0.960517 -4.27441 0
M  V30 3961 C 399.882 0.841383 -4.35242 0
M  V30 3962 H 397.102 -0.0268608 -0.670462 0
M  V30 3963 H 399.646 -0.716651 -1.91532 0
M  V30 3964 H 397.801 0.950777 -3.75552 0
M  V30 3965 H 398.215 -0.73212 -5.19365 0
M  V30 3966 H 399.689 0.96085 -5.43573 0
M  V30 3967 H 400.166 1.8427 -3.98674 0
M  V30 3968 H 400.772 0.191143 -4.2487 0
M  V30 3969 N 399.087 1.5561 -0.249682 0
M  V30 3970 C 400.312 2.03865 0.381305 0
M  V30 3971 C 400.737 1.12769 1.50548 0
M  V30 3972 O 400.095 0.121189 1.80895 0
M  V30 3973 C 400.143 3.50101 0.863816 0
M  V30 3974 O 399.247 3.62132 1.97318 0
M  V30 3975 H 398.588 0.658827 0.0827194 0
M  V30 3976 H 401.118 2.01105 -0.376552 0
M  V30 3977 H 401.128 3.90975 1.1663 0
M  V30 3978 H 399.803 4.1588 0.0411816 0
M  V30 3979 H 398.38 3.33155 1.67517 0
M  V30 3980 N 400.565 -0.0233959 1.57583 0
M  V30 3981 C 401.79 -0.728376 1.94189 0
M  V30 3982 C 402.215 -1.67793 0.850119 0
M  V30 3983 O 401.573 -1.80262 -0.19371 0
M  V30 3984 C 401.621 -1.45669 3.29868 0
M  V30 3985 O 400.725 -2.57013 3.22518 0
M  V30 3986 H 400.066 -0.195493 0.63457 0
M  V30 3987 H 402.596 0.0228214 2.04587 0
M  V30 3988 H 402.606 -1.82535 3.6489 0
M  V30 3989 H 401.281 -0.760314 4.08891 0
M  V30 3990 H 399.858 -2.22648 2.99136 0
M  V30 3991 N 402.043 -1.548 -0.295768 0
M  V30 3992 C 403.32 -1.65014 -1.05023 0
M  V30 3993 C 403.7 -0.501805 -2.05049 0
M  V30 3994 O 403.048 0.500869 -2.22943 0
M  V30 3995 C 403.258 -3.03252 -1.72741 0
M  V30 3996 C 404.606 -3.60242 -2.24746 0
M  V30 3997 O 405.63 -3.05737 -1.82765 0
M  V30 3998 O 404.489 -4.55687 -3.01681 0
M  V30 3999 H 401.583 -0.669314 -0.485744 0
M  V30 4000 H 404.129 -1.67144 -0.293438 0
M  V30 4001 H 402.901 -3.7827 -1.00138 0
M  V30 4002 H 402.524 -3.04922 -2.55163 0
M  V30 4003 N 403.521 0.559213 -1.47345 0
M  V30 4004 C 404.798 1.31997 -1.44348 0
M  V30 4005 C 405.178 2.1064 -0.139358 0
M  V30 4006 O 404.526 2.1091 0.879153 0
M  V30 4007 C 404.736 2.22618 -2.68779 0
M  V30 4008 C 406.084 2.83701 -3.1591 0
M  V30 4009 O 407.108 2.32921 -2.69493 0
M  V30 4010 O 405.967 3.75993 -3.966 0
M  V30 4011 H 403.061 0.594251 -0.575147 0
M  V30 4012 H 405.607 0.578282 -1.59543 0
M  V30 4013 H 404.379 1.64093 -3.55231 0
M  V30 4014 H 404.002 3.04085 -2.5616 0
M  V30 4015 N 404.999 1.35443 0.805782 0
M  V30 4016 C 406.247 1.28507 1.55982 0
M  V30 4017 C 406.568 -0.140046 1.94496 0
M  V30 4018 O 405.838 -1.07666 1.63661 0
M  V30 4019 H 404.418 0.472676 0.578434 0
M  V30 4020 H 407.08 1.69555 0.961098 0
M  V30 4021 H 406.176 1.90148 2.47488 0
M  V30 4022 N 406.477 -1.02803 1.19454 0
M  V30 4023 C 407.707 -1.79581 1.02149 0
M  V30 4024 C 408.115 -1.84182 -0.432851 0
M  V30 4025 O 407.458 -1.28534 -1.31243 0
M  V30 4026 C 407.52 -3.25993 1.51554 0
M  V30 4027 C 407.184 -3.45025 2.99678 0
M  V30 4028 C 408.181 -3.35175 3.97434 0
M  V30 4029 C 405.866 -3.71212 3.38389 0
M  V30 4030 C 407.86 -3.51238 5.31893 0
M  V30 4031 C 405.547 -3.8692 4.73008 0
M  V30 4032 C 406.545 -3.76936 5.69569 0
M  V30 4033 O 406.233 -3.92179 7.01748 0
M  V30 4034 H 405.965 -0.571962 0.360327 0
M  V30 4035 H 408.519 -1.30367 1.58725 0
M  V30 4036 H 406.749 -3.76235 0.893543 0
M  V30 4037 H 408.438 -3.84368 1.30444 0
M  V30 4038 H 409.204 -3.14895 3.68872 0
M  V30 4039 H 405.083 -3.78075 2.6378 0
M  V30 4040 H 408.627 -3.43362 6.07247 0
M  V30 4041 H 404.524 -4.06699 5.01265 0
M  V30 4042 H 405.292 -4.09265 7.08833 0
M  V30 4043 N 407.956 -0.998596 -1.21925 0
M  V30 4044 C 408.886 -0.573688 -2.26343 0
M  V30 4045 C 409.867 0.402296 -1.65274 0
M  V30 4046 O 411.052 0.291683 -1.91997 0
M  V30 4047 C 408.182 0.106839 -3.47136 0
M  V30 4048 C 407.136 -0.788269 -4.20678 0
M  V30 4049 C 406.462 0.0254927 -5.34694 0
M  V30 4050 C 407.762 -2.08784 -4.78755 0
M  V30 4051 H 409.456 -1.44651 -2.62138 0
M  V30 4052 H 407.002 -0.696975 -1.26009 0
M  V30 4053 H 408.955 0.415531 -4.19346 0
M  V30 4054 H 407.679 1.01424 -3.10452 0
M  V30 4055 H 406.338 -1.08069 -3.50309 0
M  V30 4056 H 405.986 0.933989 -4.94253 0
M  V30 4057 H 405.686 -0.570437 -5.84825 0
M  V30 4058 H 407.21 0.328147 -6.09718 0
M  V30 4059 H 408.624 -1.84272 -5.42878 0
M  V30 4060 H 407.021 -2.63307 -5.39249 0
M  V30 4061 H 408.091 -2.76284 -3.98491 0
M  V30 4062 N 409.434 1.37368 -0.772513 0
M  V30 4063 C 410.364 2.32856 -0.173304 0
M  V30 4064 C 411.345 1.55818 0.682262 0
M  V30 4065 O 412.53 1.84052 0.619566 0
M  V30 4066 C 409.66 3.40048 0.706007 0
M  V30 4067 C 408.614 4.27973 -0.0483144 0
M  V30 4068 C 407.94 5.26184 0.950491 0
M  V30 4069 C 409.24 5.07665 -1.22776 0
M  V30 4070 H 410.934 2.83217 -0.971002 0
M  V30 4071 H 408.48 1.3617 -0.468377 0
M  V30 4072 H 410.433 4.05827 1.13501 0
M  V30 4073 H 409.157 2.88214 1.53623 0
M  V30 4074 H 407.816 3.63726 -0.458107 0
M  V30 4075 H 407.464 4.7063 1.77529 0
M  V30 4076 H 407.164 5.85872 0.450314 0
M  V30 4077 H 408.688 5.94838 1.37842 0
M  V30 4078 H 410.102 5.66578 -0.875366 0
M  V30 4079 H 408.499 5.76681 -1.66007 0
M  V30 4080 H 409.569 4.40294 -2.03149 0
M  V30 4081 N 410.912 0.523116 1.48665 0
M  V30 4082 C 412.14 -0.0096312 2.06898 0
M  V30 4083 C 412.555 -1.28784 1.38059 0
M  V30 4084 O 411.912 -1.76453 0.465893 0
M  V30 4085 C 411.963 -0.244386 3.60673 0
M  V30 4086 O 411.684 0.983172 4.26925 0
M  V30 4087 C 413.185 -0.818289 4.35682 0
M  V30 4088 H 410.405 0.0304161 0.67031 0
M  V30 4089 H 412.949 0.726799 1.91149 0
M  V30 4090 H 411.104 -0.930847 3.76051 0
M  V30 4091 H 411.518 0.759653 5.1897 0
M  V30 4092 H 412.992 -0.93201 5.44075 0
M  V30 4093 H 413.469 -1.82153 3.99646 0
M  V30 4094 H 414.075 -0.168609 4.24966 0
M  V30 4095 N 412.39 -1.55475 0.257931 0
M  V30 4096 C 413.636 -1.99502 -0.364266 0
M  V30 4097 C 413.969 -1.146 -1.56782 0
M  V30 4098 O 413.244 -0.211968 -1.93342 0
M  V30 4099 C 413.527 -3.51917 -0.763333 0
M  V30 4100 C 413.38 -4.4758 0.446371 0
M  V30 4101 C 414.699 -4.09742 -1.60623 0
M  V30 4102 H 411.818 -0.725277 -0.130929 0
M  V30 4103 H 414.46 -1.8653 0.361446 0
M  V30 4104 H 412.61 -3.63101 -1.38166 0
M  V30 4105 H 414.282 -4.48362 1.08487 0
M  V30 4106 H 412.525 -4.19947 1.08753 0
M  V30 4107 H 413.196 -5.51862 0.123645 0
M  V30 4108 H 415.672 -4.01727 -1.08418 0
M  V30 4109 H 414.548 -5.16631 -1.85429 0
M  V30 4110 H 414.809 -3.58889 -2.58169 0
M  V30 4111 N 413.868 0.0150385 -1.57593 0
M  V30 4112 C 414.831 0.995996 -2.06428 0
M  V30 4113 C 415.831 1.2818 -0.970903 0
M  V30 4114 O 417.021 1.22949 -1.23406 0
M  V30 4115 C 414.153 2.32506 -2.49307 0
M  V30 4116 H 415.346 0.573873 -2.94358 0
M  V30 4117 H 412.899 0.262186 -1.54085 0
M  V30 4118 H 413.634 2.79438 -1.64575 0
M  V30 4119 H 413.419 2.13087 -3.29145 0
M  V30 4120 H 414.909 3.02906 -2.87468 0
M  V30 4121 N 415.346 1.54954 0.287554 0
M  V30 4122 C 416.762 1.46469 0.633964 0
M  V30 4123 C 416.962 0.666865 1.90145 0
M  V30 4124 O 416.018 0.179906 2.51858 0
M  V30 4125 C 417.331 2.90556 0.774454 0
M  V30 4126 C 418.879 3.00681 0.869462 0
M  V30 4127 C 419.354 4.45993 1.04184 0
M  V30 4128 N 420.845 4.4976 1.10772 0
M  V30 4129 C 421.58 5.59393 1.25964 0
M  V30 4130 N 421.076 6.78923 1.37968 0
M  V30 4131 N 422.869 5.47107 1.28959 0
M  V30 4132 H 415.02 2.05288 -0.545041 0
M  V30 4133 H 417.283 0.930305 -0.182308 0
M  V30 4134 H 416.989 3.51594 -0.086207 0
M  V30 4135 H 416.863 3.38743 1.6593 0
M  V30 4136 H 419.25 2.39749 1.7206 0
M  V30 4137 H 419.331 2.55769 -0.0396831 0
M  V30 4138 H 418.975 5.07524 0.195422 0
M  V30 4139 H 418.905 4.88548 1.96542 0
M  V30 4140 H 421.396 3.63651 1.02794 0
M  V30 4141 H 421.709 7.58231 1.49353 0
M  V30 4142 H 420.054 6.81763 1.34999 0
M  V30 4143 H 423.245 4.52668 1.19202 0
M  V30 4144 H 423.418 6.32595 1.40455 0
M  V30 4145 N 416.824 -0.551391 1.4764 0
M  V30 4146 C 418.07 -1.31024 1.54792 0
M  V30 4147 C 418.403 -1.9304 0.211967 0
M  V30 4148 O 417.678 -1.78175 -0.77999 0
M  V30 4149 C 417.961 -2.41593 2.67029 0
M  V30 4150 C 417.814 -1.84408 4.10261 0
M  V30 4151 C 419.133 -3.43488 2.75143 0
M  V30 4152 H 416.252 -0.475031 0.563485 0
M  V30 4153 H 418.894 -0.616454 1.79722 0
M  V30 4154 H 417.044 -3.00772 2.45904 0
M  V30 4155 H 418.716 -1.29445 4.42766 0
M  V30 4156 H 416.959 -1.15051 4.18265 0
M  V30 4157 H 417.63 -2.64367 4.84576 0
M  V30 4158 H 420.106 -2.94236 2.94218 0
M  V30 4159 H 418.982 -4.18274 3.55441 0
M  V30 4160 H 419.243 -4.02703 1.82435 0
M  V30 4161 N 418.302 -1.35869 -0.798587 0
M  V30 4162 C 419.265 -1.29307 -1.89242 0
M  V30 4163 C 420.265 -0.202747 -1.59517 0
M  V30 4164 O 421.455 -0.456957 -1.681 0
M  V30 4165 C 418.587 -1.00229 -3.25833 0
M  V30 4166 H 419.78 -2.26576 -1.96478 0
M  V30 4167 H 417.333 -1.20509 -0.995358 0
M  V30 4168 H 418.068 -0.033801 -3.24282 0
M  V30 4169 H 417.853 -1.79121 -3.48795 0
M  V30 4170 H 419.343 -0.98219 -4.05885 0
M  V30 4171 N 419.78 1.02168 -1.19998 0
M  V30 4172 C 421.191 1.57135 -1.00825 0
M  V30 4173 C 421.542 1.91276 0.436818 0
M  V30 4174 O 420.667 1.71679 1.3174 0
M  V30 4175 C 421.262 2.85514 -1.82393 0
M  V30 4176 C 419.821 3.37027 -1.67601 0
M  V30 4177 C 418.968 2.10388 -1.80644 0
M  V30 4178 H 421.919 0.846106 -1.34264 0
M  V30 4179 H 421.94 3.56711 -1.32429 0
M  V30 4180 H 421.452 2.60634 -2.87561 0
M  V30 4181 H 419.553 3.66878 -0.650485 0
M  V30 4182 H 419.666 4.09572 -2.4857 0
M  V30 4183 H 418.03 2.22601 -1.23778 0
M  V30 4184 H 418.813 1.8794 -2.87286 0
M  V30 4185 N 421.258 1.00505 1.21394 0
M  V30 4186 C 422.205 0.565496 2.23765 0
M  V30 4187 C 423.175 -0.408466 1.60999 0
M  V30 4188 O 424.36 -0.310503 1.88257 0
M  V30 4189 C 421.5 -0.101667 3.4495 0
M  V30 4190 C 420.613 0.915479 4.22188 0
M  V30 4191 C 419.748 0.220574 5.30742 0
M  V30 4192 C 418.787 1.22527 5.99711 0
M  V30 4193 N 417.924 0.557831 6.9988 0
M  V30 4194 H 422.764 1.44314 2.60725 0
M  V30 4195 H 420.301 0.722643 1.28126 0
M  V30 4196 H 422.259 -0.505504 4.14126 0
M  V30 4197 H 420.889 -0.94303 3.08718 0
M  V30 4198 H 419.941 1.43756 3.52191 0
M  V30 4199 H 421.253 1.68005 4.69655 0
M  V30 4200 H 420.407 -0.239368 6.06228 0
M  V30 4201 H 419.146 -0.576401 4.84282 0
M  V30 4202 H 418.151 1.69571 5.22997 0
M  V30 4203 H 419.376 2.02332 6.48258 0
M  V30 4204 H 417.322 -0.219486 6.55633 0
M  V30 4205 H 417.239 1.26065 7.45415 0
M  V30 4206 H 418.507 0.121095 7.79406 0
M  V30 4207 N 422.737 -1.36956 0.779787 0
M  V30 4208 C 423.7 -2.2851 0.177662 0
M  V30 4209 C 424.7 -1.48393 -0.619377 0
M  V30 4210 O 425.89 -1.68505 -0.441785 0
M  V30 4211 C 423.022 -3.32428 -0.755279 0
M  V30 4212 H 424.215 -2.83269 0.984823 0
M  V30 4213 H 421.768 -1.46358 0.548544 0
M  V30 4214 H 422.503 -2.82808 -1.58714 0
M  V30 4215 H 422.288 -3.91659 -0.185817 0
M  V30 4216 H 423.778 -4.00824 -1.17174 0
M  V30 4217 N 424.215 -0.530993 -1.48385 0
M  V30 4218 C 425.463 0.00273189 -2.021 0
M  V30 4219 C 425.784 1.34672 -1.41027 0
M  V30 4220 O 425.054 1.8724 -0.576012 0
M  V30 4221 H 423.634 0.00399774 -0.746989 0
M  V30 4222 H 426.296 -0.695054 -1.82085 0
M  V30 4223 H 425.392 0.11031 -3.11905 0
M  V30 4224 N 425.693 1.55336 -0.266172 0
M  V30 4225 C 426.923 2.03506 0.356239 0
M  V30 4226 C 427.331 1.14426 1.50676 0
M  V30 4227 O 426.674 0.155043 1.83045 0
M  V30 4228 C 426.736 3.47848 0.90785 0
M  V30 4229 C 426.4 4.56861 -0.112888 0
M  V30 4230 C 427.397 5.11528 -0.929264 0
M  V30 4231 C 425.082 5.01704 -0.244546 0
M  V30 4232 C 427.076 6.09549 -1.86357 0
M  V30 4233 C 424.763 5.99553 -1.18234 0
M  V30 4234 C 425.761 6.53356 -1.99036 0
M  V30 4235 O 425.449 7.49293 -2.91231 0
M  V30 4236 H 425.181 0.670444 0.08649 0
M  V30 4237 H 427.735 2.01598 -0.39337 0
M  V30 4238 H 425.965 3.46967 1.70737 0
M  V30 4239 H 427.654 3.79407 1.44239 0
M  V30 4240 H 428.42 4.77701 -0.838237 0
M  V30 4241 H 424.299 4.59477 0.374359 0
M  V30 4242 H 427.843 6.51469 -2.49467 0
M  V30 4243 H 423.74 6.32799 -1.27421 0
M  V30 4244 H 424.508 7.66978 -2.8581 0
M  V30 4245 N 427.171 -0.0066808 1.57599 0
M  V30 4246 C 428.417 -0.693947 1.90558 0
M  V30 4247 C 428.75 -1.73792 0.866594 0
M  V30 4248 O 428.025 -1.94156 -0.115548 0
M  V30 4249 C 428.308 -1.34317 3.34112 0
M  V30 4250 C 428.161 -0.311189 4.48722 0
M  V30 4251 C 429.48 -2.27116 3.7697 0
M  V30 4252 H 426.599 -0.250803 0.693013 0
M  V30 4253 H 429.241 0.043242 1.89951 0
M  V30 4254 H 427.391 -1.9715 3.3476 0
M  V30 4255 H 429.063 0.316944 4.6021 0
M  V30 4256 H 427.306 0.367253 4.32243 0
M  V30 4257 H 427.977 -0.804366 5.46108 0
M  V30 4258 H 430.453 -1.74306 3.77831 0
M  V30 4259 H 429.329 -2.69511 4.78179 0
M  V30 4260 H 429.59 -3.14743 3.10466 0
M  V30 4261 N 428.649 -1.55105 -0.279332 0
M  V30 4262 C 429.612 -1.86783 -1.32834 0
M  V30 4263 C 430.612 -0.74199 -1.42657 0
M  V30 4264 O 431.802 -1.0102 -1.41918 0
M  V30 4265 C 428.934 -2.06746 -2.71052 0
M  V30 4266 H 430.127 -2.8055 -1.05979 0
M  V30 4267 H 427.68 -1.47499 -0.517087 0
M  V30 4268 H 428.415 -1.15339 -3.03097 0
M  V30 4269 H 428.2 -2.88711 -2.65309 0
M  V30 4270 H 429.69 -2.32549 -3.46858 0
M  V30 4271 N 430.127 0.543554 -1.4793 0
M  V30 4272 C 431.075 1.67039 -1.61866 0
M  V30 4273 C 432.069 1.62294 -0.48549 0
M  V30 4274 O 433.275 1.67315 -0.66376 0
M  V30 4275 H 429.65 0.552954 -0.509652 0
M  V30 4276 H 431.621 1.52426 -2.56533 0
M  V30 4277 C 430.37 3.05357 -1.6629 0
M  V30 4278 H 429.693 3.09696 -2.5284 0
M  V30 4279 H 431.133 3.83855 -1.80088 0
M  V30 4280 C 429.592 3.34531 -0.398861 0
M  V30 4281 O 430.122 3.98649 0.494162 0
M  V30 4282 N 428.328 2.89299 -0.2747 0
M  V30 4283 H 427.875 2.37298 -1.00236 0
M  V30 4284 H 427.833 3.09188 0.570075 0
M  V30 4285 N 431.605 1.3629 0.791371 0
M  V30 4286 C 432.835 1.33368 1.57786 0
M  V30 4287 C 433.243 -0.0875188 1.88997 0
M  V30 4288 O 432.586 -1.05427 1.50435 0
M  V30 4289 C 432.648 2.08802 2.92646 0
M  V30 4290 C 432.312 3.57903 2.84174 0
M  V30 4291 C 433.309 4.52191 2.56553 0
M  V30 4292 C 430.994 4.00762 3.02812 0
M  V30 4293 C 432.988 5.87315 2.47669 0
M  V30 4294 C 430.675 5.35977 2.93551 0
M  V30 4295 C 431.673 6.29066 2.66017 0
M  V30 4296 O 431.361 7.61798 2.56746 0
M  V30 4297 H 431.093 0.459166 0.496128 0
M  V30 4298 H 433.647 1.79952 0.990269 0
M  V30 4299 H 431.877 1.56878 3.53449 0
M  V30 4300 H 433.566 1.98762 3.53904 0
M  V30 4301 H 434.332 4.20393 2.41858 0
M  V30 4302 H 430.211 3.2868 3.2325 0
M  V30 4303 H 433.755 6.59943 2.26099 0
M  V30 4304 H 429.652 5.67384 3.07808 0
M  V30 4305 H 430.42 7.71898 2.72242 0
M  V30 4306 N 433.083 -1.0153 1.20538 0
M  V30 4307 C 434.313 -1.78487 1.04048 0
M  V30 4308 C 434.721 -1.84631 -0.413292 0
M  V30 4309 O 434.064 -1.29919 -1.29872 0
M  V30 4310 C 434.126 -3.24367 1.55003 0
M  V30 4311 C 433.79 -3.41827 3.0332 0
M  V30 4312 C 434.787 -3.30941 4.00966 0
M  V30 4313 C 432.472 -3.67602 3.42307 0
M  V30 4314 C 434.466 -3.45577 5.35589 0
M  V30 4315 C 432.153 -3.81881 4.77085 0
M  V30 4316 C 433.151 -3.70874 5.73534 0
M  V30 4317 O 432.839 -3.84714 7.05868 0
M  V30 4318 H 432.571 -0.568108 0.366373 0
M  V30 4319 H 435.125 -1.28677 1.60098 0
M  V30 4320 H 433.355 -3.75266 0.933397 0
M  V30 4321 H 435.044 -3.82963 1.34514 0
M  V30 4322 H 435.81 -3.10964 3.72191 0
M  V30 4323 H 431.689 -3.75256 2.67776 0
M  V30 4324 H 435.233 -3.36902 6.10854 0
M  V30 4325 H 431.13 -4.01359 5.0555 0
M  V30 4326 H 431.898 -4.01724 7.13134 0
M  V30 4327 N 434.561 -1.01147 -1.20859 0
M  V30 4328 C 435.977 -0.725422 -1.42161 0
M  V30 4329 C 436.177 0.696919 -1.89064 0
M  V30 4330 O 435.233 1.46539 -2.05627 0
M  V30 4331 C 436.546 -1.74678 -2.44761 0
M  V30 4332 C 438.094 -1.76433 -2.58535 0
M  V30 4333 C 438.569 -2.77481 -3.64374 0
M  V30 4334 N 440.06 -2.76189 -3.71852 0
M  V30 4335 C 440.795 -3.51035 -4.53389 0
M  V30 4336 N 440.291 -4.35541 -5.38773 0
M  V30 4337 N 442.084 -3.39655 -4.47873 0
M  V30 4338 H 434.235 -1.92979 -0.887282 0
M  V30 4339 H 436.498 -0.833327 -0.451962 0
M  V30 4340 H 436.204 -2.76551 -2.17285 0
M  V30 4341 H 436.078 -1.55472 -3.43669 0
M  V30 4342 H 438.465 -0.75248 -2.85345 0
M  V30 4343 H 438.546 -1.99712 -1.5984 0
M  V30 4344 H 438.19 -3.78827 -3.38308 0
M  V30 4345 H 438.12 -2.51466 -4.6268 0
M  V30 4346 H 440.611 -2.14885 -3.10858 0
M  V30 4347 H 440.924 -4.89432 -5.98061 0
M  V30 4348 H 439.269 -4.39621 -5.38292 0
M  V30 4349 H 442.46 -2.73063 -3.80203 0
M  V30 4350 H 442.633 -3.9824 -5.11184 0
M  V30 4351 N 436.039 1.36541 -0.78704 0
M  V30 4352 C 437.269 2.03266 -0.369662 0
M  V30 4353 C 437.677 1.59481 1.01796 0
M  V30 4354 O 437.02 0.778612 1.66383 0
M  V30 4355 C 437.082 3.57779 -0.351371 0
M  V30 4356 C 436.746 4.24756 -1.68617 0
M  V30 4357 C 437.743 4.47811 -2.64124 0
M  V30 4358 C 435.428 4.62277 -1.96481 0
M  V30 4359 C 437.422 5.07464 -3.85693 0
M  V30 4360 C 435.109 5.21649 -3.18317 0
M  V30 4361 C 436.107 5.44182 -4.12741 0
M  V30 4362 O 435.795 6.02307 -5.32429 0
M  V30 4363 H 435.527 0.658977 -0.150751 0
M  V30 4364 H 438.081 1.75548 -1.0664 0
M  V30 4365 H 436.311 3.84606 0.401847 0
M  V30 4366 H 438 4.05879 0.0410147 0
M  V30 4367 H 438.766 4.19221 -2.43883 0
M  V30 4368 H 434.645 4.44065 -1.23805 0
M  V30 4369 H 438.189 5.24968 -4.59407 0
M  V30 4370 H 434.086 5.49664 -3.38437 0
M  V30 4371 H 434.854 6.20775 -5.33461 0
M  V30 4372 N 437.518 0.538854 1.48102 0
M  V30 4373 C 438.765 0.0080018 2.02498 0
M  V30 4374 C 439.093 -1.33437 1.41509 0
M  V30 4375 O 438.348 -1.87709 0.553507 0
M  V30 4376 C 438.647 -0.153808 3.57069 0
M  V30 4377 C 438.313 1.11533 4.36888 0
M  V30 4378 C 436.975 1.46314 4.58417 0
M  V30 4379 C 439.327 1.95718 4.83057 0
M  V30 4380 C 436.655 2.6516 5.23361 0
M  V30 4381 C 439.007 3.13751 5.49312 0
M  V30 4382 C 437.671 3.48866 5.69077 0
M  V30 4383 H 436.941 0.00292807 0.740994 0
M  V30 4384 H 439.588 0.706668 1.77984 0
M  V30 4385 H 437.893 -0.935309 3.80472 0
M  V30 4386 H 439.59 -0.579607 3.96789 0
M  V30 4387 H 436.18 0.834484 4.20398 0
M  V30 4388 H 440.364 1.70158 4.66219 0
M  V30 4389 H 435.62 2.92558 5.36861 0
M  V30 4390 H 439.794 3.79282 5.84053 0
M  V30 4391 H 437.421 4.41054 6.19173 0
M  V30 4392 N 438.996 -1.55193 0.274407 0
M  V30 4393 C 440.244 -1.99187 -0.341902 0
M  V30 4394 C 440.565 -1.16422 -1.56431 0
M  V30 4395 O 439.835 -0.253573 -1.94252 0
M  V30 4396 H 438.415 -0.735721 -0.129317 0
M  V30 4397 H 441.077 -1.91168 0.379578 0
M  V30 4398 H 440.173 -3.05629 -0.632253 0
M  V30 4399 N 440.474 -0.00167713 -1.576 0
M  V30 4400 C 441.702 0.693759 -1.94922 0
M  V30 4401 C 442.117 1.67215 -0.876626 0
M  V30 4402 O 441.474 1.81929 0.144279 0
M  V30 4403 C 441.525 1.42416 -3.32265 0
M  V30 4404 O 441.246 0.485014 -4.35407 0
M  V30 4405 C 442.747 2.21395 -3.84056 0
M  V30 4406 H 439.967 0.193118 -0.642609 0
M  V30 4407 H 442.511 -0.0532952 -2.04431 0
M  V30 4408 H 440.666 2.12284 -3.24059 0
M  V30 4409 H 441.08 1.00053 -5.14868 0
M  V30 4410 H 442.554 2.67996 -4.82578 0
M  V30 4411 H 443.031 3.04142 -3.16851 0
M  V30 4412 H 443.637 1.56542 -3.95443 0
M  V30 4413 N 441.952 1.55251 0.271103 0
M  V30 4414 C 443.18 1.79974 1.02064 0
M  V30 4415 C 443.595 0.574003 1.79863 0
M  V30 4416 O 442.952 -0.456962 1.76686 0
M  V30 4417 C 443.003 3.02603 1.97772 0
M  V30 4418 O 442.724 4.20443 1.23124 0
M  V30 4419 C 444.225 3.39944 2.84522 0
M  V30 4420 H 441.445 0.599489 0.301419 0
M  V30 4421 H 443.989 2.02268 0.301313 0
M  V30 4422 H 442.144 2.8243 2.65165 0
M  V30 4423 H 442.558 4.89783 1.87651 0
M  V30 4424 H 444.032 4.28915 3.47471 0
M  V30 4425 H 444.509 2.59432 3.54389 0
M  V30 4426 H 445.115 3.62383 2.22618 0
M  V30 4427 N 443.43 -0.535701 1.48216 0
M  V30 4428 C 444.34 -1.66785 1.64985 0
M  V30 4429 C 445.356 -1.65654 0.532414 0
M  V30 4430 O 446.532 -1.8471 0.80275 0
M  V30 4431 C 443.597 -3.0326 1.68031 0
M  V30 4432 C 442.658 -3.1529 2.9136 0
M  V30 4433 C 441.891 -4.45255 2.94252 0
M  V30 4434 O 442.114 -5.32011 2.05719 0
M  V30 4435 O 441.048 -4.6153 3.86359 0
M  V30 4436 H 444.874 -1.55576 2.60825 0
M  V30 4437 H 442.459 -0.70815 1.31551 0
M  V30 4438 H 444.341 -3.84436 1.72589 0
M  V30 4439 H 443.016 -3.14805 0.753628 0
M  V30 4440 H 441.923 -2.3343 2.92337 0
M  V30 4441 H 443.256 -3.08658 3.83394 0
M  V30 4442 N 444.908 -1.36708 -0.784132 0
M  V30 4443 C 445.871 -1.31307 -1.87859 0
M  V30 4444 C 446.871 -0.219654 -1.59293 0
M  V30 4445 O 448.061 -0.47476 -1.67606 0
M  V30 4446 C 445.193 -1.03679 -3.24751 0
M  V30 4447 H 446.386 -2.28647 -1.94064 0
M  V30 4448 H 443.939 -1.21558 -0.98252 0
M  V30 4449 H 444.674 -0.0681936 -3.24228 0
M  V30 4450 H 444.459 -1.82811 -3.46876 0
M  V30 4451 H 445.949 -1.02518 -4.04821 0
M  V30 4452 N 446.386 1.0089 -1.21074 0
M  V30 4453 C 447.797 1.56056 -1.02486 0
M  V30 4454 C 448.148 1.91728 0.416506 0
M  V30 4455 O 447.273 1.73066 1.29912 0
M  V30 4456 C 447.868 2.83563 -1.85411 0
M  V30 4457 C 446.427 3.3523 -1.71166 0
M  V30 4458 C 445.574 2.0846 -1.82865 0
M  V30 4459 H 448.525 0.831818 -1.35154 0
M  V30 4460 H 448.546 3.55286 -1.36205 0
M  V30 4461 H 448.058 2.57569 -2.9031 0
M  V30 4462 H 446.159 3.66167 -0.689361 0
M  V30 4463 H 446.272 4.06913 -2.52901 0
M  V30 4464 H 444.636 2.21275 -1.26132 0
M  V30 4465 H 445.419 1.84883 -2.89263 0
M  V30 4466 N 447.864 1.01787 1.20321 0
M  V30 4467 C 449.111 0.707936 1.89722 0
M  V30 4468 C 449.439 -0.762535 1.78929 0
M  V30 4469 O 448.694 -1.56977 1.16861 0
M  V30 4470 C 448.993 1.09076 3.40349 0
M  V30 4471 C 448.659 2.55765 3.71342 0
M  V30 4472 C 447.321 2.95845 3.79511 0
M  V30 4473 C 449.673 3.50723 3.85542 0
M  V30 4474 C 447.001 4.2982 3.99339 0
M  V30 4475 C 449.353 4.84387 4.06881 0
M  V30 4476 C 448.017 5.24172 4.1328 0
M  V30 4477 H 447.287 0.259052 0.694243 0
M  V30 4478 H 449.934 1.27868 1.42555 0
M  V30 4479 H 448.239 0.438453 3.89339 0
M  V30 4480 H 449.936 0.828636 3.92345 0
M  V30 4481 H 446.526 2.2371 3.65584 0
M  V30 4482 H 450.71 3.20916 3.78585 0
M  V30 4483 H 445.966 4.60196 4.02529 0
M  V30 4484 H 450.14 5.57891 4.1681 0
M  V30 4485 H 447.767 6.27997 4.28396 0
M  V30 4486 N 449.342 -1.36122 0.79427 0
M  V30 4487 C 450.619 -1.93398 0.292685 0
M  V30 4488 C 450.999 -1.72567 -1.21589 0
M  V30 4489 O 450.347 -1.08745 -2.00965 0
M  V30 4490 C 450.557 -3.42099 0.690614 0
M  V30 4491 C 451.905 -4.19231 0.673105 0
M  V30 4492 O 452.929 -3.50559 0.631389 0
M  V30 4493 O 451.788 -5.41732 0.720362 0
M  V30 4494 H 448.882 -0.823712 0.0736693 0
M  V30 4495 H 451.428 -1.45273 0.87714 0
M  V30 4496 H 450.2 -3.50938 1.73085 0
M  V30 4497 H 449.823 -3.97519 0.0803036 0
M  V30 4498 N 450.82 -0.546701 -1.47814 0
M  V30 4499 C 452.066 -0.0269594 -2.03382 0
M  V30 4500 C 452.421 1.30406 -1.41464 0
M  V30 4501 O 451.714 1.8332 -0.557151 0
M  V30 4502 C 451.908 0.134869 -3.57145 0
M  V30 4503 C 451.737 -1.17891 -4.33972 0
M  V30 4504 C 450.507 -1.74336 -4.74273 0
M  V30 4505 C 452.705 -2.09361 -4.69758 0
M  V30 4506 N 450.687 -2.99829 -5.35701 0
M  V30 4507 C 452.058 -3.19431 -5.31379 0
M  V30 4508 C 454.113 -2.09484 -4.51687 0
M  V30 4509 C 452.816 -4.2971 -5.76838 0
M  V30 4510 C 454.842 -3.18767 -4.98138 0
M  V30 4511 C 454.204 -4.27557 -5.59799 0
M  V30 4512 H 450.303 -0.0517733 -0.780284 0
M  V30 4513 H 452.887 -0.731673 -1.80429 0
M  V30 4514 H 451.058 0.80869 -3.79888 0
M  V30 4515 H 452.79 0.655726 -3.99352 0
M  V30 4516 H 449.545 -1.28265 -4.559 0
M  V30 4517 H 449.969 -3.63765 -5.70968 0
M  V30 4518 H 454.611 -1.26663 -4.03381 0
M  V30 4519 H 452.329 -5.13297 -6.24141 0
M  V30 4520 H 455.915 -3.19937 -4.85934 0
M  V30 4521 H 454.795 -5.10725 -5.95088 0
M  V30 4522 N 452.299 1.55045 -0.282633 0
M  V30 4523 C 453.529 2.03872 0.334635 0
M  V30 4524 C 453.937 1.16018 1.49454 0
M  V30 4525 O 453.28 0.174449 1.8287 0
M  V30 4526 C 453.342 3.48791 0.870905 0
M  V30 4527 C 453.006 4.56715 -0.161338 0
M  V30 4528 C 454.003 5.10513 -0.983466 0
M  V30 4529 C 451.688 5.01417 -0.297745 0
M  V30 4530 C 453.682 6.07538 -1.92811 0
M  V30 4531 C 451.369 5.98265 -1.24586 0
M  V30 4532 C 452.367 6.51208 -2.05954 0
M  V30 4533 O 452.055 7.46162 -2.99162 0
M  V30 4534 H 451.787 0.671324 0.0793742 0
M  V30 4535 H 454.341 2.01169 -0.41473 0
M  V30 4536 H 452.571 3.48758 1.67047 0
M  V30 4537 H 454.26 3.80916 1.40207 0
M  V30 4538 H 455.026 4.76785 -0.888856 0
M  V30 4539 H 450.905 4.59849 0.325604 0
M  V30 4540 H 454.449 6.48787 -2.56363 0
M  V30 4541 H 450.346 6.31412 -1.34126 0
M  V30 4542 H 451.114 7.63903 -2.93929 0
M  V30 4543 N 453.777 0.010035 1.57597 0
M  V30 4544 C 455.005 -0.683413 1.95287 0
M  V30 4545 C 455.42 -1.66747 0.885481 0
M  V30 4546 O 454.777 -1.82003 -0.134629 0
M  V30 4547 C 454.828 -1.40652 3.33015 0
M  V30 4548 O 454.549 -0.461916 4.35658 0
M  V30 4549 C 456.05 -2.19356 3.85225 0
M  V30 4550 H 453.27 -0.189708 0.643624 0
M  V30 4551 H 455.814 0.0641359 2.04399 0
M  V30 4552 H 453.969 -2.10562 3.2518 0
M  V30 4553 H 454.383 -0.973215 5.15392 0
M  V30 4554 H 455.857 -2.65433 4.83993 0
M  V30 4555 H 456.334 -3.02457 3.18459 0
M  V30 4556 H 456.94 -1.54442 3.96267 0
M  V30 4557 N 455.255 -1.55392 -0.262866 0
M  V30 4558 C 456.48 -1.80847 -1.01533 0
M  V30 4559 C 456.905 -0.584946 -1.78774 0
M  V30 4560 O 456.263 0.465701 -1.75217 0
M  V30 4561 C 456.311 -3.03866 -1.94159 0
M  V30 4562 O 455.415 -2.79662 -3.03089 0
M  V30 4563 H 454.756 -0.597441 -0.289759 0
M  V30 4564 H 457.286 -2.02553 -0.288698 0
M  V30 4565 H 457.296 -3.32872 -2.35924 0
M  V30 4566 H 455.971 -3.92564 -1.37354 0
M  V30 4567 H 454.548 -2.61781 -2.65566 0
M  V30 4568 N 456.733 0.527833 -1.48498 0
M  V30 4569 C 457.979 1.28545 -1.56857 0
M  V30 4570 C 458.312 1.92678 -0.242651 0
M  V30 4571 O 457.587 1.79394 0.751545 0
M  V30 4572 C 457.87 2.37314 -2.70839 0
M  V30 4573 C 457.723 1.77858 -4.13142 0
M  V30 4574 C 459.042 3.39068 -2.80573 0
M  V30 4575 H 456.161 0.466006 -0.570971 0
M  V30 4576 H 458.803 0.587784 -1.8068 0
M  V30 4577 H 456.953 2.96821 -2.50658 0
M  V30 4578 H 458.625 1.22385 -4.44769 0
M  V30 4579 H 456.868 1.08383 -4.20042 0
M  V30 4580 H 457.539 2.56624 -4.88721 0
M  V30 4581 H 460.015 2.89518 -2.98862 0
M  V30 4582 H 458.891 4.12566 -3.6205 0
M  V30 4583 H 459.152 3.9975 -1.88818 0
M  V30 4584 N 458.211 1.37122 0.776871 0
M  V30 4585 C 459.141 1.35164 1.90402 0
M  V30 4586 C 460.122 0.221069 1.68657 0
M  V30 4587 O 461.307 0.420642 1.8959 0
M  V30 4588 C 458.437 1.15274 3.27611 0
M  V30 4589 C 457.391 2.25289 3.63908 0
M  V30 4590 C 456.717 1.90527 4.99603 0
M  V30 4591 C 458.017 3.67446 3.71188 0
M  V30 4592 H 459.711 2.29482 1.92297 0
M  V30 4593 H 457.257 1.10465 0.923773 0
M  V30 4594 H 459.21 1.12536 4.06096 0
M  V30 4595 H 457.934 0.174102 3.26136 0
M  V30 4596 H 456.593 2.27174 2.87728 0
M  V30 4597 H 456.241 0.91206 4.94662 0
M  V30 4598 H 455.941 2.64193 5.24858 0
M  V30 4599 H 457.465 1.89367 5.80493 0
M  V30 4600 H 458.879 3.67719 4.39836 0
M  V30 4601 H 457.276 4.40123 4.07936 0
M  V30 4602 H 458.346 4.01443 2.71977 0
M  V30 4603 N 459.689 -1.00246 1.21608 0
M  V30 4604 C 460.652 -2.07233 0.979133 0
M  V30 4605 C 461.652 -1.6072 -0.0508219 0
M  V30 4606 O 462.842 -1.73196 0.186712 0
M  V30 4607 C 459.974 -3.37546 0.477016 0
M  V30 4608 H 461.167 -2.29687 1.92831 0
M  V30 4609 H 458.72 -1.17261 1.03342 0
M  V30 4610 H 459.455 -3.20773 -0.476966 0
M  V30 4611 H 459.24 -3.72638 1.21997 0
M  V30 4612 H 460.73 -4.16285 0.331181 0
M  V30 4613 N 461.167 -1.02423 -1.1978 0
M  V30 4614 C 462.099 -0.559152 -2.22275 0
M  V30 4615 C 463.112 0.36251 -1.58713 0
M  V30 4616 O 464.301 0.159641 -1.77785 0
M  V30 4617 C 461.401 0.205094 -3.38279 0
M  V30 4618 C 460.574 -0.720361 -4.31427 0
M  V30 4619 C 459.633 -0.00234368 -5.262 0
M  V30 4620 O 458.659 -0.627378 -5.65732 0
M  V30 4621 N 459.861 1.26996 -5.66438 0
M  V30 4622 H 462.626 -1.44064 -2.62804 0
M  V30 4623 H 460.187 -0.902692 -1.34399 0
M  V30 4624 H 462.179 0.694868 -3.9869 0
M  V30 4625 H 460.749 0.987947 -2.96578 0
M  V30 4626 H 459.969 -1.39031 -3.68869 0
M  V30 4627 H 461.257 -1.3495 -4.90577 0
M  V30 4628 H 460.655 1.79858 -5.36347 0
M  V30 4629 H 459.212 1.70432 -6.29123 0
M  V30 4630 N 462.645 1.35699 -0.801477 0
M  V30 4631 C 463.575 2.32436 -0.222658 0
M  V30 4632 C 464.556 1.5723 0.649057 0
M  V30 4633 O 465.741 1.85324 0.580387 0
M  V30 4634 C 462.871 3.41469 0.633719 0
M  V30 4635 C 461.825 4.27774 -0.139083 0
M  V30 4636 C 461.151 5.28082 0.838666 0
M  V30 4637 C 462.451 5.04946 -1.33517 0
M  V30 4638 H 464.145 2.81094 -1.03086 0
M  V30 4639 H 461.691 1.35146 -0.497155 0
M  V30 4640 H 463.644 4.08143 1.04868 0
M  V30 4641 H 462.368 2.91408 1.47475 0
M  V30 4642 H 461.027 3.62673 -0.535156 0
M  V30 4643 H 460.675 4.7429 1.67506 0
M  V30 4644 H 460.375 5.86695 0.32594 0
M  V30 4645 H 461.899 5.97628 1.25194 0
M  V30 4646 H 463.313 5.64593 -0.995349 0
M  V30 4647 H 461.71 5.7303 -1.78202 0
M  V30 4648 H 462.78 4.35886 -2.12442 0
M  V30 4649 N 464.123 0.554532 1.47522 0
M  V30 4650 C 465.086 -0.184174 2.28459 0
M  V30 4651 C 466.086 -0.845195 1.36796 0
M  V30 4652 O 467.276 -0.701467 1.59452 0
M  V30 4653 C 464.408 -1.26903 3.16399 0
M  V30 4654 H 465.601 0.526751 2.95238 0
M  V30 4655 H 463.154 0.311375 1.53167 0
M  V30 4656 H 463.889 -2.01244 2.54306 0
M  V30 4657 H 463.674 -0.799883 3.83854 0
M  V30 4658 H 465.164 -1.78794 3.77389 0
M  V30 4659 N 465.601 -1.54893 0.290851 0
M  V30 4660 C 466.564 -2.21824 -0.576784 0
M  V30 4661 C 467.564 -1.20104 -1.06919 0
M  V30 4662 O 468.754 -1.44906 -0.966843 0
M  V30 4663 C 465.886 -2.89662 -1.79747 0
M  V30 4664 H 467.079 -2.99899 0.00784051 0
M  V30 4665 H 464.632 -1.56245 0.0415934 0
M  V30 4666 H 465.367 -2.15639 -2.42219 0
M  V30 4667 H 465.152 -3.64219 -1.45214 0
M  V30 4668 H 466.642 -3.4075 -2.4141 0
M  V30 4669 N 467.08 -0.0183926 -1.57589 0
M  V30 4670 C 468.326 0.663543 -1.91638 0
M  V30 4671 C 468.659 1.72392 -0.894134 0
M  V30 4672 O 467.934 1.94316 0.0846449 0
M  V30 4673 C 468.217 1.28984 -3.36207 0
M  V30 4674 C 468.07 0.239761 -4.49161 0
M  V30 4675 C 469.389 2.2109 -3.80536 0
M  V30 4676 H 466.508 0.239746 -0.696915 0
M  V30 4677 H 469.15 -0.073456 -1.89858 0
M  V30 4678 H 467.3 1.91799 -3.37854 0
M  V30 4679 H 468.972 -0.390119 -4.59647 0
M  V30 4680 H 467.215 -0.435972 -4.31604 0
M  V30 4681 H 467.886 0.717383 -5.47319 0
M  V30 4682 H 470.362 1.68273 -3.80557 0
M  V30 4683 H 469.238 2.61869 -4.82406 0
M  V30 4684 H 469.499 3.09764 -3.15434 0
M  V30 4685 N 468.558 1.5553 0.254621 0
M  V30 4686 C 469.783 1.81383 1.00573 0
M  V30 4687 C 470.208 0.594419 1.78461 0
M  V30 4688 O 469.566 -0.456403 1.75461 0
M  V30 4689 C 469.614 3.04892 1.92545 0
M  V30 4690 O 468.718 2.81266 3.01601 0
M  V30 4691 H 468.059 0.598969 0.286587 0
M  V30 4692 H 470.589 2.02703 0.277952 0
M  V30 4693 H 470.599 3.34119 2.34155 0
M  V30 4694 H 469.274 3.93287 1.3527 0
M  V30 4695 H 467.851 2.63185 2.64174 0
M  V30 4696 N 470.036 -0.519951 1.48776 0
M  V30 4697 C 471.264 -1.29971 1.60982 0
M  V30 4698 C 471.679 -1.86803 0.273885 0
M  V30 4699 O 471.036 -1.66904 -0.738193 0
M  V30 4700 C 471.087 -2.44346 2.66415 0
M  V30 4701 O 470.808 -1.89855 3.94825 0
M  V30 4702 C 472.309 -3.36014 2.89153 0
M  V30 4703 H 469.529 -0.394891 0.542496 0
M  V30 4704 H 472.073 -0.626214 1.94676 0
M  V30 4705 H 470.228 -3.07562 2.35552 0
M  V30 4706 H 470.642 -2.64798 4.5275 0
M  V30 4707 H 472.116 -4.12593 3.66703 0
M  V30 4708 H 472.593 -3.91859 1.98351 0
M  V30 4709 H 473.199 -2.78582 3.21359 0
M  V30 4710 N 471.514 -1.37532 -0.769588 0
M  V30 4711 C 472.477 -1.33292 -1.86456 0
M  V30 4712 C 473.477 -0.236537 -1.59051 0
M  V30 4713 O 474.667 -0.492511 -1.67093 0
M  V30 4714 C 471.799 -1.07118 -3.23633 0
M  V30 4715 H 472.992 -2.30692 -1.91628 0
M  V30 4716 H 470.545 -1.22593 -0.969572 0
M  V30 4717 H 471.28 -0.102578 -3.24138 0
M  V30 4718 H 471.065 -1.86479 -3.44917 0
M  V30 4719 H 472.555 -1.06806 -4.03711 0
M  V30 4720 N 472.992 0.995999 -1.22138 0
M  V30 4721 C 474.24 1.73167 -1.042 0
M  V30 4722 C 474.561 1.90329 0.42423 0
M  V30 4723 O 473.831 1.4607 1.30539 0
M  V30 4724 H 472.411 0.641593 -0.38258 0
M  V30 4725 H 475.073 1.19974 -1.53598 0
M  V30 4726 H 474.169 2.72734 -1.51731 0
M  V30 4727 N 474.47 1.03057 1.19235 0
M  V30 4728 C 475.716 0.729098 1.89241 0
M  V30 4729 C 476.049 -0.740573 1.79525 0
M  V30 4730 O 475.324 -1.53946 1.18874 0
M  V30 4731 C 475.607 1.18304 3.40112 0
M  V30 4732 C 475.46 2.71406 3.5869 0
M  V30 4733 C 476.779 0.765161 4.33397 0
M  V30 4734 H 473.898 0.266338 0.687192 0
M  V30 4735 H 476.54 1.28079 1.40341 0
M  V30 4736 H 474.69 0.713672 3.81889 0
M  V30 4737 H 476.362 3.26303 3.26074 0
M  V30 4738 H 474.605 3.11717 3.01687 0
M  V30 4739 H 475.276 2.98225 4.64506 0
M  V30 4740 H 477.752 1.16889 3.99345 0
M  V30 4741 H 476.628 1.11065 5.37546 0
M  V30 4742 H 476.889 -0.332372 4.40849 0
M  V30 4743 N 475.948 -1.35272 0.808662 0
M  V30 4744 C 477.194 -1.99434 0.399717 0
M  V30 4745 C 477.549 -1.62992 -1.02232 0
M  V30 4746 O 476.842 -0.884091 -1.69983 0
M  V30 4747 C 477.036 -3.53556 0.522798 0
M  V30 4748 C 476.865 -4.04969 1.95525 0
M  V30 4749 C 475.635 -4.34228 2.58407 0
M  V30 4750 C 477.833 -4.23362 2.92009 0
M  V30 4751 N 475.815 -4.71585 3.93041 0
M  V30 4752 C 477.186 -4.63739 4.11517 0
M  V30 4753 C 479.241 -4.05576 2.88813 0
M  V30 4754 C 477.944 -4.88189 5.28265 0
M  V30 4755 C 479.97 -4.31184 4.04765 0
M  V30 4756 C 479.332 -4.71834 5.23022 0
M  V30 4757 H 475.431 -0.757534 0.19408 0
M  V30 4758 H 478.015 -1.63939 1.05034 0
M  V30 4759 H 476.186 -3.88277 -0.0978471 0
M  V30 4760 H 477.918 -4.04604 0.0882378 0
M  V30 4761 H 474.673 -4.24621 2.09747 0
M  V30 4762 H 475.097 -4.9452 4.62363 0
M  V30 4763 H 479.739 -3.73288 1.98535 0
M  V30 4764 H 477.457 -5.1935 6.19113 0
M  V30 4765 H 481.043 -4.18972 4.03675 0
M  V30 4766 H 479.923 -4.91263 6.11253 0
M  V30 4767 N 477.426 -0.562348 -1.47226 0
M  V30 4768 C 478.359 0.230405 -2.27034 0
M  V30 4769 C 479.337 0.915609 -1.3437 0
M  V30 4770 O 480.521 0.933573 -1.63758 0
M  V30 4771 C 477.648 1.32874 -3.11548 0
M  V30 4772 C 476.694 0.751552 -4.19826 0
M  V30 4773 S 477.527 -0.405848 -5.3396 0
M  V30 4774 C 478.683 0.694186 -6.22038 0
M  V30 4775 H 478.916 -0.446811 -2.93923 0
M  V30 4776 H 476.449 -0.348781 -1.50409 0
M  V30 4777 H 478.407 1.95773 -3.60809 0
M  V30 4778 H 477.068 1.97782 -2.44011 0
M  V30 4779 H 476.261 1.57651 -4.78709 0
M  V30 4780 H 475.863 0.198645 -3.73472 0
M  V30 4781 H 478.155 1.58501 -6.58698 0
M  V30 4782 H 479.098 0.142592 -7.07956 0
M  V30 4783 H 479.506 0.989169 -5.55766 0
M  V30 4784 N 478.904 1.54736 -0.299062 0
M  V30 4785 C 480.32 1.59507 0.0543849 0
M  V30 4786 C 480.52 1.31606 1.52585 0
M  V30 4787 O 479.576 1.08853 2.27832 0
M  V30 4788 C 480.889 2.98751 -0.34181 0
M  V30 4789 C 482.437 3.1165 -0.290414 0
M  V30 4790 C 482.912 4.53199 -0.661402 0
M  V30 4791 N 484.403 4.59114 -0.613863 0
M  V30 4792 C 485.138 5.66709 -0.873417 0
M  V30 4793 N 484.634 6.82349 -1.19884 0
M  V30 4794 N 486.427 5.56369 -0.800608 0
M  V30 4795 H 478.578 1.71133 -1.25806 0
M  V30 4796 H 480.841 0.799186 -0.509908 0
M  V30 4797 H 480.547 3.24085 -1.36608 0
M  V30 4798 H 480.421 3.75961 0.305508 0
M  V30 4799 H 482.808 2.86066 0.724605 0
M  V30 4800 H 482.889 2.366 -0.972327 0
M  V30 4801 H 482.533 4.79513 -1.67422 0
M  V30 4802 H 482.463 5.26583 0.0425612 0
M  V30 4803 H 484.954 3.76053 -0.3732 0
M  V30 4804 H 485.267 7.60326 -1.38291 0
M  V30 4805 H 483.612 6.83906 -1.23685 0
M  V30 4806 H 486.803 4.64904 -0.546045 0
M  V30 4807 H 486.976 6.40139 -1.00626 0
M  V30 4808 N 480.382 0.0267497 1.57577 0
M  V30 4809 C 481.312 -0.954308 2.13108 0
M  V30 4810 C 482.293 -1.34088 1.04663 0
M  V30 4811 O 483.478 -1.41992 1.32484 0
M  V30 4812 C 480.608 -2.23744 2.65624 0
M  V30 4813 C 479.562 -1.99168 3.78835 0
M  V30 4814 C 478.888 -3.33726 4.17769 0
M  V30 4815 C 480.188 -1.33277 5.0501 0
M  V30 4816 H 481.882 -0.491848 2.95332 0
M  V30 4817 H 479.428 -0.23514 1.42067 0
M  V30 4818 H 481.381 -2.92754 3.03106 0
M  V30 4819 H 480.105 -2.72151 1.80558 0
M  V30 4820 H 478.764 -1.32577 3.41788 0
M  V30 4821 H 478.412 -3.79888 3.29688 0
M  V30 4822 H 478.112 -3.18089 4.94058 0
M  V30 4823 H 479.636 -4.04008 4.57832 0
M  V30 4824 H 481.05 -1.92283 5.40093 0
M  V30 4825 H 479.447 -1.28045 5.8628 0
M  V30 4826 H 480.517 -0.305411 4.83937 0
M  V30 4827 N 481.861 -1.55662 -0.24637 0
M  V30 4828 C 483.272 -1.67953 -0.81539 0
M  V30 4829 C 483.623 -0.624302 -1.86002 0
M  V30 4830 O 482.748 0.229328 -2.15181 0
M  V30 4831 C 483.343 -3.04484 -1.48576 0
M  V30 4832 C 481.902 -3.18713 -2.00248 0
M  V30 4833 C 481.049 -2.6383 -0.853766 0
M  V30 4834 H 484 -1.58685 -0.0221692 0
M  V30 4835 H 484.021 -2.98959 -2.3538 0
M  V30 4836 H 483.533 -3.81264 -0.725222 0
M  V30 4837 H 481.634 -2.46757 -2.79181 0
M  V30 4838 H 481.747 -4.25628 -2.1995 0
M  V30 4839 H 480.111 -2.21667 -1.25442 0
M  V30 4840 H 480.894 -3.43135 -0.106302 0
M  V30 4841 N 483.339 0.512053 -1.4905 0
M  V30 4842 C 484.302 1.59704 -1.64399 0
M  V30 4843 C 485.302 1.52285 -0.516317 0
M  V30 4844 O 486.492 1.55635 -0.782527 0
M  V30 4845 C 483.624 2.9935 -1.63102 0
M  V30 4846 H 484.817 1.47428 -2.61161 0
M  V30 4847 H 482.37 0.735469 -1.37915 0
M  V30 4848 H 483.105 3.17116 -0.678836 0
M  V30 4849 H 482.89 3.06144 -2.44986 0
M  V30 4850 H 484.38 3.782 -1.77072 0
M  V30 4851 N 484.817 1.37938 0.762283 0
M  V30 4852 C 486.045 1.36883 1.55147 0
M  V30 4853 C 486.46 -0.0435348 1.8875 0
M  V30 4854 O 485.817 -1.00786 1.52146 0
M  V30 4855 C 485.868 2.21624 2.85596 0
M  V30 4856 O 485.589 3.57358 2.5343 0
M  V30 4857 C 487.09 2.28653 3.7978 0
M  V30 4858 H 484.31 0.468521 0.480343 0
M  V30 4859 H 486.854 1.81404 0.944079 0
M  V30 4860 H 485.009 1.80588 3.42734 0
M  V30 4861 H 485.423 4.01883 3.37032 0
M  V30 4862 H 486.897 2.9225 4.68288 0
M  V30 4863 H 487.374 1.29767 4.19592 0
M  V30 4864 H 487.98 2.70043 3.28568 0
M  V30 4865 N 486.295 -0.989507 1.22664 0
M  V30 4866 C 487.225 -2.09847 1.02404 0
M  V30 4867 C 488.206 -1.70007 -0.0561303 0
M  V30 4868 O 489.391 -1.93906 0.106748 0
M  V30 4869 C 486.521 -3.41996 0.604663 0
M  V30 4870 C 485.475 -3.95699 1.63115 0
M  V30 4871 C 484.801 -5.23936 1.0675 0
M  V30 4872 C 486.101 -4.25999 3.02196 0
M  V30 4873 H 487.795 -2.27054 1.95158 0
M  V30 4874 H 485.341 -1.09111 0.939727 0
M  V30 4875 H 487.294 -4.1899 0.45002 0
M  V30 4876 H 486.018 -3.24626 -0.35855 0
M  V30 4877 H 484.677 -3.2084 1.77362 0
M  V30 4878 H 484.325 -5.02909 0.0955422 0
M  V30 4879 H 484.025 -5.60833 1.75328 0
M  V30 4880 H 485.549 -6.0356 0.924516 0
M  V30 4881 H 486.963 -4.93777 2.91303 0
M  V30 4882 H 485.36 -4.74076 3.67929 0
M  V30 4883 H 486.43 -3.33636 3.51873 0
M  V30 4884 N 487.773 -1.03688 -1.18687 0
M  V30 4885 C 488.736 -0.629115 -2.20397 0
M  V30 4886 C 489.736 0.311495 -1.57754 0
M  V30 4887 O 490.926 0.0974107 -1.73927 0
M  V30 4888 C 488.058 0.0782231 -3.4081 0
M  V30 4889 H 489.251 -1.52915 -2.57987 0
M  V30 4890 H 486.804 -0.828988 -1.32505 0
M  V30 4891 H 487.539 0.992233 -3.08748 0
M  V30 4892 H 487.324 -0.597776 -3.87517 0
M  V30 4893 H 488.814 0.350156 -4.16129 0
M  V30 4894 N 489.251 1.34841 -0.815825 0
M  V30 4895 C 490.499 1.98107 -0.399744 0
M  V30 4896 C 490.82 1.65019 1.03894 0
M  V30 4897 O 490.09 0.937311 1.72021 0
M  V30 4898 H 488.67 0.732827 -0.144823 0
M  V30 4899 H 491.332 1.64599 -1.0437 0
M  V30 4900 H 490.428 3.07856 -0.512965 0
M  V30 4901 N 490.729 0.570148 1.46925 0
M  V30 4902 C 491.978 0.0487352 2.01641 0
M  V30 4903 C 492.291 -1.31433 1.44861 0
M  V30 4904 O 493.497 -1.92638 1.91318 0
M  V30 4905 C 491.953 0.0365817 3.59881 0
M  V30 4906 C 491.561 1.39719 4.25655 0
M  V30 4907 C 493.305 -0.431545 4.22301 0
M  V30 4908 C 491.212 1.34345 5.75939 0
M  V30 4909 H 490.142 0.0144492 0.753862 0
M  V30 4910 H 492.793 0.719928 1.68788 0
M  V30 4911 H 491.175 -0.700522 3.89755 0
M  V30 4912 H 492.349 2.15303 4.07408 0
M  V30 4913 H 490.664 1.80431 3.75278 0
M  V30 4914 H 493.261 -0.490354 5.32447 0
M  V30 4915 H 493.604 -1.44638 3.90366 0
M  V30 4916 H 494.137 0.251102 3.97007 0
M  V30 4917 H 490.876 2.33469 6.12513 0
M  V30 4918 H 490.396 0.629615 5.96486 0
M  V30 4919 H 492.075 1.051 6.38407 0
M  V30 4920 N 492.207 -1.54576 0.307264 0
M  V30 4921 C 493.17 -2.22423 -0.553224 0
M  V30 4922 C 494.17 -1.21231 -1.05639 0
M  V30 4923 O 495.36 -1.45923 -0.951419 0
M  V30 4924 C 492.492 -2.91552 -1.76664 0
M  V30 4925 H 493.685 -2.99874 0.0396484 0
M  V30 4926 H 491.238 -1.56192 0.0581629 0
M  V30 4927 H 491.973 -2.18196 -2.39918 0
M  V30 4928 H 491.758 -3.65738 -1.41343 0
M  V30 4929 H 493.248 -3.43292 -2.37783 0
M  V30 4930 N 493.685 -0.035106 -1.57561 0
M  V30 4931 C 494.925 0.646316 -1.93913 0
M  V30 4932 C 495.289 1.68947 -0.912185 0
M  V30 4933 O 496.49 2.42381 -1.1621 0
M  V30 4934 C 494.761 1.24136 -3.35149 0
M  V30 4935 S 496.32 1.94302 -3.93436 0
M  V30 4936 H 493.138 0.212642 -0.678457 0
M  V30 4937 H 495.74 -0.100203 -1.95243 0
M  V30 4938 H 494.444 0.46979 -4.07702 0
M  V30 4939 H 493.975 2.02505 -3.37276 0
M  V30 4940 H 495.99 3.22205 -3.77357 0
M  V30 4941 N 495.163 1.55791 0.238111 0
M  V30 4942 C 496.409 1.79211 0.962035 0
M  V30 4943 C 496.764 0.605463 1.82625 0
M  V30 4944 O 496.057 -0.40104 1.87356 0
M  V30 4945 C 496.251 3.05869 1.84875 0
M  V30 4946 C 496.08 4.36739 1.07186 0
M  V30 4947 C 494.85 4.99346 0.773424 0
M  V30 4948 C 497.048 5.1237 0.445168 0
M  V30 4949 N 495.03 6.13894 -0.0266037 0
M  V30 4950 C 496.401 6.19613 -0.219023 0
M  V30 4951 C 498.456 4.96622 0.356522 0
M  V30 4952 C 497.159 7.1282 -0.963358 0
M  V30 4953 C 499.185 5.90214 -0.374304 0
M  V30 4954 C 498.547 6.96872 -1.0271 0
M  V30 4955 H 494.646 0.707627 0.332849 0
M  V30 4956 H 497.23 1.93284 0.234368 0
M  V30 4957 H 495.401 2.93108 2.54837 0
M  V30 4958 H 497.133 3.17547 2.5089 0
M  V30 4959 H 493.888 4.60948 1.08738 0
M  V30 4960 H 494.312 6.75727 -0.414968 0
M  V30 4961 H 498.954 4.14232 0.846878 0
M  V30 4962 H 496.672 7.94704 -1.46529 0
M  V30 4963 H 500.258 5.80106 -0.443678 0
M  V30 4964 H 499.138 7.68045 -1.58358 0
M  V30 4965 N 496.642 -0.504142 1.49319 0
M  V30 4966 C 497.572 -1.61473 1.68667 0
M  V30 4967 C 498.553 -1.61455 0.535378 0
M  V30 4968 O 499.738 -1.78245 0.770868 0
M  V30 4969 C 496.868 -2.99971 1.75028 0
M  V30 4970 C 495.822 -3.14854 2.89916 0
M  V30 4971 C 495.148 -4.54671 2.81387 0
M  V30 4972 C 496.448 -2.95176 4.30893 0
M  V30 4973 H 498.142 -1.45535 2.61648 0
M  V30 4974 H 495.688 -0.698711 1.25913 0
M  V30 4975 H 497.641 -3.77562 1.8715 0
M  V30 4976 H 496.365 -3.1699 0.786441 0
M  V30 4977 H 495.024 -2.39687 2.77391 0
M  V30 4978 H 494.672 -4.68562 1.82917 0
M  V30 4979 H 494.372 -4.6557 3.58494 0
M  V30 4980 H 495.896 -5.34327 2.95512 0
M  V30 4981 H 497.31 -3.62538 4.44116 0
M  V30 4982 H 495.707 -3.17549 5.09198 0
M  V30 4983 H 496.777 -1.91332 4.45556 0
M  V30 4984 N 498.12 -1.38341 -0.754957 0
M  V30 4985 C 499.369 -1.33791 -1.5094 0
M  V30 4986 C 499.682 0.0699267 -1.95475 0
M  V30 4987 O 500.888 0.237956 -2.70455 0
M  V30 4988 C 499.344 -2.34934 -2.72643 0
M  V30 4989 C 498.952 -3.81332 -2.35138 0
M  V30 4990 C 500.696 -2.39425 -3.50536 0
M  V30 4991 C 498.603 -4.74164 -3.53444 0
M  V30 4992 H 497.533 -0.497314 -0.566741 0
M  V30 4993 H 500.184 -1.63888 -0.825403 0
M  V30 4994 H 498.566 -1.97878 -3.43017 0
M  V30 4995 H 499.74 -4.27319 -1.7244 0
M  V30 4996 H 498.055 -3.79946 -1.70382 0
M  V30 4997 H 500.652 -3.0598 -4.38498 0
M  V30 4998 H 500.995 -1.41278 -3.91594 0
M  V30 4999 H 501.528 -2.75274 -2.87174 0
M  V30 5000 H 498.267 -5.73501 -3.17453 0
M  V30 5001 H 497.787 -4.3287 -4.15191 0
M  V30 5002 H 499.466 -4.92111 -4.20043 0
M  V30 5003 N 499.598 0.982988 -1.23187 0
M  V30 5004 C 500.844 1.72648 -1.06398 0
M  V30 5005 C 501.177 1.90066 0.398561 0
M  V30 5006 O 500.452 1.45105 1.29518 0
M  V30 5007 C 500.735 3.12627 -1.78707 0
M  V30 5008 C 500.588 3.02795 -3.32618 0
M  V30 5009 C 501.907 4.11997 -1.54747 0
M  V30 5010 H 499.026 0.626649 -0.387918 0
M  V30 5011 H 501.668 1.14455 -1.51658 0
M  V30 5012 H 499.818 3.62308 -1.40234 0
M  V30 5013 H 501.49 2.60659 -3.80598 0
M  V30 5014 H 499.733 2.39362 -3.61785 0
M  V30 5015 H 500.404 4.01893 -3.78399 0
M  V30 5016 H 502.88 3.71114 -1.88186 0
M  V30 5017 H 501.756 5.08037 -2.07821 0
M  V30 5018 H 502.017 4.39462 -0.482249 0
M  V30 5019 N 501.076 1.04316 1.18135 0
M  V30 5020 C 502.301 0.768047 1.92655 0
M  V30 5021 C 502.726 -0.66904 1.758 0
M  V30 5022 O 502.084 -1.46372 1.06981 0
M  V30 5023 C 502.132 1.14239 3.42026 0
M  V30 5024 O 501.236 0.269333 4.1152 0
M  V30 5025 H 500.577 0.282436 0.600937 0
M  V30 5026 H 503.107 1.39367 1.49793 0
M  V30 5027 H 503.117 1.10538 3.92741 0
M  V30 5028 H 501.792 2.18928 3.53615 0
M  V30 5029 H 500.369 0.366175 3.71098 0
M  V30 5030 N 502.554 -1.34406 0.822964 0
M  V30 5031 C 503.97 -1.51275 0.508727 0
M  V30 5032 C 504.17 -1.76776 -0.967083 0
M  V30 5033 O 503.226 -1.81871 -1.75155 0
M  V30 5034 C 504.539 -2.67765 1.36829 0
M  V30 5035 C 506.087 -2.81647 1.36542 0
M  V30 5036 C 506.562 -4.01181 2.20947 0
M  V30 5037 N 508.053 -4.08388 2.18571 0
M  V30 5038 C 508.788 -5.00036 2.80627 0
M  V30 5039 N 508.284 -5.96906 3.51674 0
M  V30 5040 N 510.077 -4.92908 2.70181 0
M  V30 5041 H 502.228 -1.16113 1.77852 0
M  V30 5042 H 504.491 -0.56947 0.757897 0
M  V30 5043 H 504.197 -2.55551 2.41633 0
M  V30 5044 H 504.071 -3.62779 1.03303 0
M  V30 5045 H 506.458 -2.93303 0.325163 0
M  V30 5046 H 506.539 -1.87443 1.74066 0
M  V30 5047 H 506.183 -3.90286 3.25022 0
M  V30 5048 H 506.113 -4.94599 1.80774 0
M  V30 5049 H 508.604 -3.39051 1.66891 0
M  V30 5050 H 508.917 -6.63468 3.96271 0
M  V30 5051 H 507.262 -5.9703 3.5578 0
M  V30 5052 H 510.453 -4.1619 2.14251 0
M  V30 5053 H 510.626 -5.64137 3.18831 0
M  V30 5054 N 504.032 -0.577932 -1.46621 0
M  V30 5055 C 505.279 -0.0616879 -2.02406 0
M  V30 5056 C 505.607 1.29638 -1.44997 0
M  V30 5057 O 504.862 1.86176 -0.60308 0
M  V30 5058 C 505.161 0.0590832 -3.57351 0
M  V30 5059 C 504.827 -1.23077 -4.33777 0
M  V30 5060 C 503.489 -1.58416 -4.54376 0
M  V30 5061 C 505.841 -2.08457 -4.77698 0
M  V30 5062 C 503.169 -2.78943 -5.16147 0
M  V30 5063 C 505.521 -3.28204 -5.408 0
M  V30 5064 C 504.185 -3.63832 -5.59627 0
M  V30 5065 H 503.455 -0.0225732 -0.740656 0
M  V30 5066 H 506.102 -0.753609 -1.76048 0
M  V30 5067 H 504.407 0.834104 -3.82818 0
M  V30 5068 H 506.104 0.474202 -3.98186 0
M  V30 5069 H 502.694 -0.945652 -4.18038 0
M  V30 5070 H 506.878 -1.82459 -4.61544 0
M  V30 5071 H 502.134 -3.06689 -5.28916 0
M  V30 5072 H 506.308 -3.94634 -5.73792 0
M  V30 5073 H 503.935 -4.57315 -6.07262 0
M  V30 5074 N 505.51 1.54411 -0.315457 0
M  V30 5075 C 506.756 2.00716 0.289972 0
M  V30 5076 C 507.089 1.2034 1.5242 0
M  V30 5077 O 506.364 0.283579 1.92422 0
M  V30 5078 C 506.647 3.54507 0.632196 0
M  V30 5079 C 506.5 4.45615 -0.61218 0
M  V30 5080 C 507.819 4.15421 1.45305 0
M  V30 5081 H 504.938 0.729637 0.10392 0
M  V30 5082 H 507.58 1.8506 -0.430427 0
M  V30 5083 H 505.73 3.67979 1.24595 0
M  V30 5084 H 507.402 4.44026 -1.25053 0
M  V30 5085 H 505.645 4.15621 -1.24264 0
M  V30 5086 H 506.316 5.51022 -0.328379 0
M  V30 5087 H 508.792 4.05474 0.934331 0
M  V30 5088 H 507.668 5.23157 1.66127 0
M  V30 5089 H 507.929 3.68223 2.44671 0
M  V30 5090 N 506.988 0.0434614 1.5754 0
M  V30 5091 C 507.918 -0.931651 2.14109 0
M  V30 5092 C 508.899 -1.32971 1.06079 0
M  V30 5093 O 510.084 -1.40579 1.33982 0
M  V30 5094 C 507.214 -2.20914 2.67982 0
M  V30 5095 C 506.168 -1.95139 3.80926 0
M  V30 5096 C 505.494 -3.29276 4.21285 0
M  V30 5097 C 506.794 -1.27913 5.06395 0
M  V30 5098 H 508.488 -0.460497 2.95837 0
M  V30 5099 H 506.034 -0.220058 1.42309 0
M  V30 5100 H 507.987 -2.89522 3.06194 0
M  V30 5101 H 506.711 -2.70221 1.83434 0
M  V30 5102 H 505.37 -1.28945 3.43175 0
M  V30 5103 H 505.018 -3.76369 3.33699 0
M  V30 5104 H 504.718 -3.12831 4.97404 0
M  V30 5105 H 506.242 -3.99129 4.62091 0
M  V30 5106 H 507.656 -1.86544 5.42102 0
M  V30 5107 H 506.053 -1.2182 5.87605 0
M  V30 5108 H 507.123 -0.254066 4.84234 0
M  V30 5109 N 508.466 -1.55915 -0.229846 0
M  V30 5110 C 509.882 -1.48721 -0.579166 0
M  V30 5111 C 510.082 -0.736976 -1.87539 0
M  V30 5112 O 509.138 -0.273258 -2.51017 0
M  V30 5113 C 510.451 -2.9323 -0.666082 0
M  V30 5114 C 511.999 -3.03701 -0.757267 0
M  V30 5115 C 512.474 -4.49552 -0.8756 0
M  V30 5116 N 513.965 -4.53561 -0.940035 0
M  V30 5117 C 514.7 -5.63683 -1.05116 0
M  V30 5118 N 514.196 -6.83576 -1.12675 0
M  V30 5119 N 515.989 -5.51516 -1.08565 0
M  V30 5120 H 508.14 -2.03123 0.620857 0
M  V30 5121 H 510.403 -0.922898 0.21671 0
M  V30 5122 H 510.109 -3.51032 0.21664 0
M  V30 5123 H 509.983 -3.44668 -1.53243 0
M  V30 5124 H 512.37 -2.45969 -1.63043 0
M  V30 5125 H 512.451 -2.55446 0.134583 0
M  V30 5126 H 512.095 -5.079 -0.00692351 0
M  V30 5127 H 512.025 -4.95506 -1.78274 0
M  V30 5128 H 514.516 -3.67215 -0.892269 0
M  V30 5129 H 514.829 -7.63251 -1.21109 0
M  V30 5130 H 513.174 -6.86303 -1.09603 0
M  V30 5131 H 516.365 -4.5678 -1.02319 0
M  V30 5132 H 516.538 -6.37372 -1.1688 0
M  V30 5133 N 509.944 0.496216 -1.49584 0
M  V30 5134 C 511.36 0.827814 -1.36453 0
M  V30 5135 C 511.56 1.97464 -0.401285 0
M  V30 5136 O 510.616 2.51958 0.165296 0
M  V30 5137 C 511.929 1.16352 -2.77277 0
M  V30 5138 C 513.477 1.27145 -2.86013 0
M  V30 5139 C 513.952 1.64042 -4.27615 0
M  V30 5140 N 515.443 1.71082 -4.30448 0
M  V30 5141 C 516.178 2.01085 -5.36984 0
M  V30 5142 N 515.674 2.2928 -6.5376 0
M  V30 5143 N 517.467 2.02376 -5.24405 0
M  V30 5144 H 509.618 -0.259947 -2.10803 0
M  V30 5145 H 511.881 -0.0537163 -0.946477 0
M  V30 5146 H 511.587 0.394153 -3.49484 0
M  V30 5147 H 511.461 2.10582 -3.12946 0
M  V30 5148 H 513.848 2.03152 -2.1404 0
M  V30 5149 H 513.929 0.309542 -2.5392 0
M  V30 5150 H 513.573 0.88583 -5.00115 0
M  V30 5151 H 513.503 2.6134 -4.57175 0
M  V30 5152 H 515.994 1.51434 -3.46232 0
M  V30 5153 H 516.307 2.51376 -7.30774 0
M  V30 5154 H 514.652 2.26726 -6.56978 0
M  V30 5155 H 517.843 1.79829 -4.32179 0
M  V30 5156 H 518.016 2.25425 -6.07526 0
M  V30 5157 N 511.423 1.38739 0.74761 0
M  V30 5158 C 512.353 1.39173 1.87492 0
M  V30 5159 C 513.334 0.256794 1.6815 0
M  V30 5160 O 514.519 0.460762 1.88655 0
M  V30 5161 C 511.649 1.22197 3.25093 0
M  V30 5162 C 510.603 2.32957 3.59047 0
M  V30 5163 C 509.929 2.01082 4.95449 0
M  V30 5164 C 511.229 3.75237 3.6331 0
M  V30 5165 H 512.923 2.3351 1.87386 0
M  V30 5166 H 510.469 1.12399 0.900134 0
M  V30 5167 H 512.422 1.21124 4.03617 0
M  V30 5168 H 511.146 0.243241 3.25693 0
M  V30 5169 H 509.805 2.33226 2.82845 0
M  V30 5170 H 509.453 1.01678 4.92616 0
M  V30 5171 H 509.153 2.75267 5.19136 0
M  V30 5172 H 510.677 2.01638 5.76346 0
M  V30 5173 H 512.091 3.76966 4.31937 0
M  V30 5174 H 510.488 4.48677 3.98509 0
M  V30 5175 H 511.558 4.07122 2.634 0
M  V30 5176 N 512.901 -0.976442 1.23707 0
M  V30 5177 C 514.149 -1.71487 1.06942 0
M  V30 5178 C 514.47 -1.9098 -0.393897 0
M  V30 5179 O 513.74 -1.48128 -1.28198 0
M  V30 5180 H 512.32 -0.635425 0.392739 0
M  V30 5181 H 514.982 -1.17515 1.55487 0
M  V30 5182 H 514.078 -2.70286 1.56051 0
M  V30 5183 N 514.379 -1.04941 -1.1758 0
M  V30 5184 C 515.79 -0.784501 -1.69418 0
M  V30 5185 C 516.141 0.693625 -1.8353 0
M  V30 5186 O 515.266 1.53925 -1.52106 0
M  V30 5187 C 515.861 -1.41746 -3.07723 0
M  V30 5188 C 514.42 -1.20066 -3.56737 0
M  V30 5189 C 513.567 -1.5026 -2.33061 0
M  V30 5190 H 516.518 -1.21469 -1.02133 0
M  V30 5191 H 516.539 -0.825381 -3.7144 0
M  V30 5192 H 516.051 -2.49325 -2.9742 0
M  V30 5193 H 514.152 -0.144006 -3.72322 0
M  V30 5194 H 514.265 -1.90384 -4.39648 0
M  V30 5195 H 512.629 -0.922598 -2.37403 0
M  V30 5196 H 513.412 -2.58967 -2.25368 0
M  V30 5197 N 515.857 1.33968 -0.830081 0
M  V30 5198 C 517.105 1.97672 -0.420734 0
M  V30 5199 C 517.426 1.66111 1.02138 0
M  V30 5200 O 516.696 0.955503 1.71017 0
M  V30 5201 H 515.276 0.73125 -0.152587 0
M  V30 5202 H 517.938 1.63483 -1.0611 0
M  V30 5203 H 517.034 3.07294 -0.545588 0
M  V30 5204 N 517.335 0.585699 1.46312 0
M  V30 5205 C 518.746 0.159938 1.86014 0
M  V30 5206 C 519.097 -1.27775 1.48889 0
M  V30 5207 O 518.222 -1.96559 0.90519 0
M  V30 5208 C 518.817 0.283485 3.37612 0
M  V30 5209 C 517.376 -0.0874256 3.76298 0
M  V30 5210 C 516.523 0.618055 2.70325 0
M  V30 5211 H 519.474 0.793737 1.37425 0
M  V30 5212 H 519.495 -0.490348 3.77327 0
M  V30 5213 H 519.007 1.32995 3.64601 0
M  V30 5214 H 517.108 -1.13391 3.54927 0
M  V30 5215 H 517.221 0.290975 4.78216 0
M  V30 5216 H 515.585 0.057993 2.54634 0
M  V30 5217 H 516.368 1.66623 3.00153 0
M  V30 5218 N 518.813 -1.54241 0.323641 0
M  V30 5219 C 520.061 -2.00174 -0.278359 0
M  V30 5220 C 520.382 -1.2134 -1.52648 0
M  V30 5221 O 519.652 -0.315244 -1.93347 0
M  V30 5222 H 518.232 -0.739463 -0.105845 0
M  V30 5223 H 520.894 -1.89864 0.440204 0
M  V30 5224 H 519.99 -3.07486 -0.5347 0
M  V30 5225 N 520.291 -0.0518155 -1.57515 0
M  V30 5226 C 521.539 0.620595 -1.92336 0
M  V30 5227 C 521.86 1.71345 -0.930907 0
M  V30 5228 O 521.13 1.95885 0.0241341 0
M  V30 5229 H 519.71 0.232226 -0.709986 0
M  V30 5230 H 522.372 -0.104969 -1.94617 0
M  V30 5231 H 521.468 1.05879 -2.93592 0
M  V30 5232 N 521.769 1.56035 0.221574 0
M  V30 5233 C 522.699 1.95434 1.2778 0
M  V30 5234 C 523.68 0.822564 1.48889 0
M  V30 5235 O 524.865 1.08486 1.61072 0
M  V30 5236 C 521.995 2.27102 2.62759 0
M  V30 5237 C 520.949 3.4277 2.56306 0
M  V30 5238 C 520.275 3.60043 3.95314 0
M  V30 5239 C 521.575 4.77742 2.11093 0
M  V30 5240 H 523.269 2.83912 0.950504 0
M  V30 5241 H 520.815 1.36596 0.455791 0
M  V30 5242 H 522.768 2.53256 3.36807 0
M  V30 5243 H 521.492 1.35478 2.97176 0
M  V30 5244 H 520.151 3.16664 1.84715 0
M  V30 5245 H 519.799 2.65794 4.27039 0
M  V30 5246 H 519.499 4.37841 3.91879 0
M  V30 5247 H 521.023 3.88545 4.71025 0
M  V30 5248 H 522.437 5.03102 2.74885 0
M  V30 5249 H 520.834 5.58823 2.18716 0
M  V30 5250 H 521.904 4.731 1.06321 0
M  V30 5251 N 523.247 -0.488276 1.49845 0
M  V30 5252 C 524.21 -1.57069 1.66919 0
M  V30 5253 C 525.21 -1.51445 0.540479 0
M  V30 5254 O 526.4 -1.5437 0.807188 0
M  V30 5255 C 523.532 -2.96718 1.67844 0
M  V30 5256 H 524.725 -1.43254 2.63474 0
M  V30 5257 H 522.278 -0.713435 1.39068 0
M  V30 5258 H 523.013 -3.15996 0.7292 0
M  V30 5259 H 522.798 -3.02208 2.49826 0
M  V30 5260 H 524.288 -3.75335 1.83066 0
M  V30 5261 N 524.725 -1.39134 -0.740242 0
M  V30 5262 C 525.95 -1.39518 -1.53459 0
M  V30 5263 C 526.375 0.00968883 -1.88098 0
M  V30 5264 O 525.733 0.995312 -1.51536 0
M  V30 5265 C 525.781 -2.26981 -2.802 0
M  V30 5266 O 524.885 -1.69609 -3.75908 0
M  V30 5267 H 524.226 -0.475328 -0.463637 0
M  V30 5268 H 526.756 -1.83064 -0.913717 0
M  V30 5269 H 526.766 -2.41309 -3.28989 0
M  V30 5270 H 525.441 -3.29081 -2.5432 0
M  V30 5271 H 524.018 -1.64495 -3.34658 0
M  V30 5272 N 526.204 0.969867 -1.24223 0
M  V30 5273 C 527.152 2.08535 -1.03034 0
M  V30 5274 C 528.146 1.69366 0.0340379 0
M  V30 5275 O 529.352 1.79597 -0.12034 0
M  V30 5276 H 525.727 0.682313 -0.316154 0
M  V30 5277 H 527.698 2.23569 -1.97635 0
M  V30 5278 C 526.447 3.4158 -0.649509 0
M  V30 5279 H 525.77 3.72177 -1.46028 0
M  V30 5280 H 527.21 4.20536 -0.540841 0
M  V30 5281 C 525.669 3.30703 0.643194 0
M  V30 5282 O 526.199 3.64443 1.68951 0
M  V30 5283 N 524.405 2.83841 0.623095 0
M  V30 5284 H 523.952 2.56583 -0.228719 0
M  V30 5285 H 523.91 2.76946 1.48823 0
M  V30 5286 N 527.682 1.05563 1.17022 0
M  V30 5287 C 529.098 0.777684 1.39371 0
M  V30 5288 C 529.298 -0.626269 1.91521 0
M  V30 5289 O 528.354 -1.38806 2.10924 0
M  V30 5290 C 529.667 1.83642 2.3811 0
M  V30 5291 C 531.215 1.85907 2.51809 0
M  V30 5292 C 531.69 2.90813 3.53824 0
M  V30 5293 N 533.181 2.898 3.61345 0
M  V30 5294 C 533.916 3.6762 4.40049 0
M  V30 5295 N 533.412 4.55237 5.22237 0
M  V30 5296 N 535.205 3.56044 4.34959 0
M  V30 5297 H 527.356 1.9614 0.815047 0
M  V30 5298 H 529.619 0.849527 0.420722 0
M  V30 5299 H 529.325 2.84425 2.06871 0
M  V30 5300 H 529.199 1.6812 3.37662 0
M  V30 5301 H 531.586 0.857865 2.82356 0
M  V30 5302 H 531.667 2.05506 1.52318 0
M  V30 5303 H 531.311 3.91122 3.24015 0
M  V30 5304 H 531.241 2.68465 4.53028 0
M  V30 5305 H 533.732 2.26274 3.02669 0
M  V30 5306 H 534.045 5.11291 5.79484 0
M  V30 5307 H 532.39 4.59296 5.21605 0
M  V30 5308 H 535.581 2.86986 3.69806 0
M  V30 5309 H 535.754 4.16938 4.96051 0
M  V30 5310 N 529.16 -1.33526 0.837174 0
M  V30 5311 C 530.406 -1.9813 0.432704 0
M  V30 5312 C 530.739 -1.66168 -1.00508 0
M  V30 5313 O 530.014 -0.94069 -1.70239 0
M  V30 5314 C 530.297 -3.54151 0.651834 0
M  V30 5315 C 530.15 -3.95806 2.13676 0
M  V30 5316 C 531.469 -4.39993 0.0968937 0
M  V30 5317 H 528.588 -0.719713 0.15869 0
M  V30 5318 H 531.23 -1.58193 1.05237 0
M  V30 5319 H 529.38 -3.88301 0.124369 0
M  V30 5320 H 531.052 -3.71921 2.72896 0
M  V30 5321 H 529.295 -3.45599 2.62191 0
M  V30 5322 H 529.966 -5.0447 2.24084 0
M  V30 5323 H 532.442 -4.12479 0.547733 0
M  V30 5324 H 531.318 -5.48186 0.279917 0
M  V30 5325 H 531.579 -4.3066 -0.9992 0
M  V30 5326 N 530.638 -0.59345 -1.46 0
M  V30 5327 C 531.601 0.123538 -2.28867 0
M  V30 5328 C 532.601 0.808628 -1.38989 0
M  V30 5329 O 533.791 0.658945 -1.61256 0
M  V30 5330 C 530.923 1.1847 -3.19653 0
M  V30 5331 H 532.116 -0.604843 -2.93737 0
M  V30 5332 H 529.669 -0.351875 -1.52288 0
M  V30 5333 H 530.404 1.94431 -2.59552 0
M  V30 5334 H 530.189 0.69783 -3.8584 0
M  V30 5335 H 531.679 1.68726 -3.81997 0
M  V30 5336 N 532.116 1.54067 -0.331816 0
M  V30 5337 C 533.362 2.01012 0.268667 0
M  V30 5338 C 533.695 1.2195 1.51136 0
M  V30 5339 O 532.97 0.303972 1.9211 0
M  V30 5340 C 533.253 3.55158 0.59456 0
M  V30 5341 C 533.106 4.4494 -0.659409 0
M  V30 5342 C 534.425 4.16939 1.4089 0
M  V30 5343 H 531.544 0.730698 0.0961756 0
M  V30 5344 H 534.186 1.84593 -0.450031 0
M  V30 5345 H 532.336 3.6928 1.20685 0
M  V30 5346 H 534.008 4.42675 -1.29756 0
M  V30 5347 H 532.251 4.1428 -1.28665 0
M  V30 5348 H 532.922 5.50643 -0.386804 0
M  V30 5349 H 535.398 4.06443 0.891272 0
M  V30 5350 H 534.274 5.24889 1.60569 0
M  V30 5351 H 534.535 3.70798 2.40752 0
M  V30 5352 N 533.594 0.0601682 1.57485 0
M  V30 5353 C 534.841 -0.611594 1.93043 0
M  V30 5354 C 535.169 -1.70317 0.939274 0
M  V30 5355 O 534.424 -1.95644 -0.046996 0
M  V30 5356 C 534.723 -1.23831 3.35262 0
M  V30 5357 C 534.389 -0.274037 4.50066 0
M  V30 5358 C 533.051 -0.00872394 4.81199 0
M  V30 5359 C 535.403 0.386308 5.19766 0
M  V30 5360 C 532.731 0.924218 5.79375 0
M  V30 5361 C 535.083 1.3075 6.1894 0
M  V30 5362 C 533.747 1.58139 6.48497 0
M  V30 5363 H 533.017 -0.223798 0.706396 0
M  V30 5364 H 535.664 0.128566 1.91068 0
M  V30 5365 H 533.969 -2.05394 3.33647 0
M  V30 5366 H 535.666 -1.76517 3.60059 0
M  V30 5367 H 532.256 -0.491008 4.25778 0
M  V30 5368 H 536.44 0.194436 4.95919 0
M  V30 5369 H 531.696 1.1438 6.00606 0
M  V30 5370 H 535.87 1.82519 6.72056 0
M  V30 5371 H 533.497 2.30593 7.24383 0
M  V30 5372 N 535.072 -1.5615 -0.213296 0
M  V30 5373 C 536.3 -1.83638 -0.953139 0
M  V30 5374 C 536.715 -0.640362 -1.77609 0
M  V30 5375 O 536.072 0.391071 -1.78261 0
M  V30 5376 C 536.123 -3.09735 -1.86405 0
M  V30 5377 O 535.844 -4.24723 -1.07435 0
M  V30 5378 C 537.345 -3.5027 -2.71709 0
M  V30 5379 H 534.565 -0.610263 -0.278962 0
M  V30 5380 H 537.109 -2.03247 -0.226035 0
M  V30 5381 H 535.264 -2.92077 -2.545 0
M  V30 5382 H 535.678 -4.9641 -1.69343 0
M  V30 5383 H 537.152 -4.41515 -3.31313 0
M  V30 5384 H 537.629 -2.72406 -3.44516 0
M  V30 5385 H 538.235 -3.70396 -2.09015 0
M  V30 5386 N 536.55 0.480323 -1.50102 0
M  V30 5387 C 537.513 1.56181 -1.6775 0
M  V30 5388 C 538.513 1.51156 -0.548503 0
M  V30 5389 O 539.703 1.5394 -0.815363 0
M  V30 5390 C 536.835 2.95823 -1.69415 0
M  V30 5391 H 538.028 1.41855 -2.6423 0
M  V30 5392 H 535.581 0.70605 -1.39444 0
M  V30 5393 H 536.316 3.15604 -0.745948 0
M  V30 5394 H 536.101 3.00878 -2.51425 0
M  V30 5395 H 537.591 3.74359 -1.85054 0
M  V30 5396 N 538.028 1.39524 0.732853 0
M  V30 5397 C 539.276 1.36594 1.48951 0
M  V30 5398 C 539.597 -0.0367507 1.94965 0
M  V30 5399 O 538.867 -0.988391 1.69138 0
M  V30 5400 H 537.447 0.502673 0.552566 0
M  V30 5401 H 540.109 1.74411 0.869869 0
M  V30 5402 H 539.205 2.03 2.3706 0
M  V30 5403 N 539.506 -0.963266 1.24736 0
M  V30 5404 C 540.469 -2.04013 1.04457 0
M  V30 5405 C 541.469 -1.608 0.000335555 0
M  V30 5406 O 542.659 -1.72515 0.241719 0
M  V30 5407 C 539.791 -3.35858 0.584162 0
M  V30 5408 H 540.984 -2.23436 2.00041 0
M  V30 5409 H 538.537 -1.13914 1.07021 0
M  V30 5410 H 539.272 -3.22128 -0.374673 0
M  V30 5411 H 539.057 -3.68568 1.3379 0
M  V30 5412 H 540.547 -4.1502 0.463451 0
M  V30 5413 N 540.985 -1.06182 -1.16461 0
M  V30 5414 C 542.231 -0.779015 -1.87241 0
M  V30 5415 C 542.564 0.692715 -1.81425 0
M  V30 5416 O 541.839 1.5074 -1.22913 0
M  V30 5417 C 542.122 -1.2728 -3.36856 0
M  V30 5418 C 541.975 -2.80821 -3.51368 0
M  V30 5419 C 543.294 -0.879799 -4.31216 0
M  V30 5420 H 540.413 -0.284464 -0.679889 0
M  V30 5421 H 543.055 -1.31755 -1.36896 0
M  V30 5422 H 541.205 -0.814673 -3.79862 0
M  V30 5423 H 542.877 -3.34833 -3.17308 0
M  V30 5424 H 541.12 -3.19606 -2.93316 0
M  V30 5425 H 541.791 -3.10435 -4.56436 0
M  V30 5426 H 544.267 -1.27436 -3.96105 0
M  V30 5427 H 543.143 -1.25278 -5.34412 0
M  V30 5428 H 543.404 0.215372 -4.41575 0
M  V30 5429 N 542.463 1.3308 -0.844243 0
M  V30 5430 C 543.71 1.97605 -0.44255 0
M  V30 5431 C 544.038 1.66856 0.999458 0
M  V30 5432 O 543.293 0.943586 1.7145 0
M  V30 5433 C 543.592 3.52045 -0.616354 0
M  V30 5434 C 543.258 4.02757 -2.02726 0
M  V30 5435 C 541.92 4.16316 -2.41317 0
M  V30 5436 C 544.272 4.29776 -2.9486 0
M  V30 5437 C 541.6 4.54232 -3.71335 0
M  V30 5438 C 543.952 4.69146 -4.24364 0
M  V30 5439 C 542.616 4.80911 -4.62904 0
M  V30 5440 H 541.886 0.723088 -0.161941 0
M  V30 5441 H 544.533 1.58663 -1.0723 0
M  V30 5442 H 542.838 3.91681 0.0966812 0
M  V30 5443 H 544.535 3.99981 -0.285756 0
M  V30 5444 H 541.125 3.9268 -1.71756 0
M  V30 5445 H 545.309 4.18818 -2.6628 0
M  V30 5446 H 540.565 4.61535 -4.00993 0
M  V30 5447 H 544.739 4.89008 -4.95827 0
M  V30 5448 H 542.366 5.10048 -5.63698 0
M  V30 5449 N 543.941 0.601185 1.45683 0
M  V30 5450 C 544.871 -0.108824 2.33246 0
M  V30 5451 C 545.852 -0.865223 1.46451 0
M  V30 5452 O 547.037 -0.83704 1.75235 0
M  V30 5453 C 544.167 -1.11101 3.2905 0
M  V30 5454 C 543.121 -0.468244 4.25431 0
M  V30 5455 C 542.447 -1.57822 5.10878 0
M  V30 5456 C 543.747 0.606469 5.18767 0
M  V30 5457 H 545.441 0.622306 2.92861 0
M  V30 5458 H 542.987 0.300714 1.40825 0
M  V30 5459 H 544.94 -1.61622 3.89174 0
M  V30 5460 H 543.664 -1.87265 2.67581 0
M  V30 5461 H 542.323 0.0160484 3.66596 0
M  V30 5462 H 541.971 -2.32998 4.45781 0
M  V30 5463 H 541.671 -1.15369 5.76163 0
M  V30 5464 H 543.195 -2.08583 5.73869 0
M  V30 5465 H 544.609 0.185589 5.73 0
M  V30 5466 H 543.006 0.952381 5.92494 0
M  V30 5467 H 544.076 1.48559 4.61582 0
M  V30 5468 N 545.419 -1.53889 0.339982 0
M  V30 5469 C 546.644 -2.05741 -0.261798 0
M  V30 5470 C 547.069 -1.21354 -1.43718 0
M  V30 5471 O 546.427 -0.22645 -1.7988 0
M  V30 5472 C 546.475 -3.54542 -0.658228 0
M  V30 5473 O 545.579 -3.7302 -1.75869 0
M  V30 5474 H 544.92 -0.662529 -0.0441672 0
M  V30 5475 H 547.45 -1.98568 0.493161 0
M  V30 5476 H 547.46 -3.9711 -0.936368 0
M  V30 5477 H 546.135 -4.15412 0.201358 0
M  V30 5478 H 544.712 -3.42355 -1.47809 0
M  V30 5479 N 546.897 -0.0685191 -1.57451 0
M  V30 5480 C 547.86 0.885173 -2.11417 0
M  V30 5481 C 548.86 1.22853 -1.03748 0
M  V30 5482 O 550.05 1.16235 -1.2975 0
M  V30 5483 C 547.182 2.18964 -2.61281 0
M  V30 5484 H 548.375 0.417034 -2.96986 0
M  V30 5485 H 545.928 0.18014 -1.55258 0
M  V30 5486 H 546.663 2.70321 -1.79156 0
M  V30 5487 H 546.448 1.9534 -3.39977 0
M  V30 5488 H 547.938 2.87242 -3.0312 0
M  V30 5489 N 548.375 1.56261 0.205012 0
M  V30 5490 C 549.621 1.81211 0.923805 0
M  V30 5491 C 549.976 0.644065 1.813 0
M  V30 5492 O 549.269 -0.361208 1.88164 0
M  V30 5493 C 549.463 3.09722 1.78345 0
M  V30 5494 C 549.292 4.38915 0.978979 0
M  V30 5495 C 548.062 5.00874 0.667332 0
M  V30 5496 C 550.26 5.13199 0.336386 0
M  V30 5497 N 548.242 6.137 -0.156814 0
M  V30 5498 C 549.613 6.19009 -0.350402 0
M  V30 5499 C 551.668 4.97266 0.251101 0
M  V30 5500 C 550.371 7.10616 -1.11434 0
M  V30 5501 C 552.397 5.89288 -0.499413 0
M  V30 5502 C 551.759 6.94536 -1.17468 0
M  V30 5503 H 547.858 0.714528 0.317764 0
M  V30 5504 H 550.442 1.93738 0.193317 0
M  V30 5505 H 548.613 2.98448 2.48563 0
M  V30 5506 H 550.345 3.22798 2.44098 0
M  V30 5507 H 547.1 4.63151 0.989366 0
M  V30 5508 H 547.524 6.74695 -0.558206 0
M  V30 5509 H 552.166 4.15935 0.758823 0
M  V30 5510 H 549.884 7.91417 -1.63353 0
M  V30 5511 H 553.47 5.79034 -0.566627 0
M  V30 5512 H 552.35 7.64513 -1.74613 0
M  V30 5513 N 549.853 -0.472356 1.50355 0
M  V30 5514 C 550.783 -1.57859 1.72055 0
M  V30 5515 C 551.764 -1.60283 0.569505 0
M  V30 5516 O 552.949 -1.7657 0.808503 0
M  V30 5517 C 550.079 -2.96191 1.81351 0
M  V30 5518 C 549.033 -3.08633 2.96529 0
M  V30 5519 C 548.359 -4.486 2.90968 0
M  V30 5520 C 549.659 -2.85969 4.37057 0
M  V30 5521 H 551.353 -1.39953 2.64676 0
M  V30 5522 H 548.899 -0.671846 1.27367 0
M  V30 5523 H 550.852 -3.73507 1.95117 0
M  V30 5524 H 549.576 -3.15251 0.853502 0
M  V30 5525 H 548.235 -2.33749 2.82413 0
M  V30 5526 H 547.883 -4.64577 1.92815 0
M  V30 5527 H 547.583 -4.57861 3.68289 0
M  V30 5528 H 549.107 -5.27938 3.0678 0
M  V30 5529 H 550.521 -3.53036 4.51706 0
M  V30 5530 H 548.918 -3.06677 5.15819 0
M  V30 5531 H 549.988 -1.81838 4.49514 0
M  V30 5532 N 551.331 -1.39911 -0.725443 0
M  V30 5533 C 552.742 -1.33599 -1.30415 0
M  V30 5534 C 553.093 -0.00481792 -1.96199 0
M  V30 5535 O 552.218 0.897275 -1.96921 0
M  V30 5536 C 552.813 -2.41965 -2.37146 0
M  V30 5537 C 551.372 -2.39144 -2.90667 0
M  V30 5538 C 550.519 -2.23355 -1.64341 0
M  V30 5539 H 553.47 -1.4986 -0.522267 0
M  V30 5540 H 553.491 -2.09304 -3.17761 0
M  V30 5541 H 553.003 -3.38837 -1.89238 0
M  V30 5542 H 551.104 -1.4594 -3.4283 0
M  V30 5543 H 551.217 -3.34362 -3.43131 0
M  V30 5544 H 549.581 -1.70696 -1.89037 0
M  V30 5545 H 550.364 -3.2221 -1.18471 0
M  V30 5546 N 552.809 0.956637 -1.25245 0
M  V30 5547 C 554.056 1.701 -1.09874 0
M  V30 5548 C 554.384 1.91128 0.36062 0
M  V30 5549 O 553.639 1.47837 1.28229 0
M  V30 5550 C 553.938 3.08996 -1.79601 0
M  V30 5551 C 553.604 3.07774 -3.29523 0
M  V30 5552 C 552.266 3.07149 -3.70423 0
M  V30 5553 C 554.618 3.01257 -4.25316 0
M  V30 5554 C 551.946 2.97752 -5.0553 0
M  V30 5555 C 554.298 2.93403 -5.60444 0
M  V30 5556 C 552.962 2.91111 -6.00675 0
M  V30 5557 H 552.232 0.62244 -0.402056 0
M  V30 5558 H 554.879 1.1178 -1.55491 0
M  V30 5559 H 553.184 3.70848 -1.26408 0
M  V30 5560 H 554.881 3.65407 -1.65162 0
M  V30 5561 H 551.471 3.09032 -2.9698 0
M  V30 5562 H 555.655 3.00861 -3.9471 0
M  V30 5563 H 550.911 2.94346 -5.35883 0
M  V30 5564 H 555.085 2.87321 -6.34366 0
M  V30 5565 H 552.712 2.83586 -7.05325 0
M  V30 5566 N 554.287 1.06798 1.15896 0
M  V30 5567 C 555.235 0.677525 2.22514 0
M  V30 5568 C 556.229 -0.308994 1.66558 0
M  V30 5569 O 557.435 -0.173308 1.79164 0
M  V30 5570 H 553.81 0.200994 0.724642 0
M  V30 5571 H 555.781 1.5865 2.52731 0
M  V30 5572 C 554.53 0.0854153 3.47595 0
M  V30 5573 H 553.853 0.835645 3.90969 0
M  V30 5574 H 555.293 -0.150199 4.23734 0
M  V30 5575 C 553.752 -1.1724 3.15843 0
M  V30 5576 O 554.282 -2.25965 3.32119 0
M  V30 5577 N 552.488 -1.07636 2.69931 0
M  V30 5578 H 552.035 -0.191559 2.56887 0
M  V30 5579 H 551.993 -1.91876 2.4906 0
M  V30 5580 N 555.766 -1.3263 0.851289 0
M  V30 5581 C 556.714 -2.30882 0.282202 0
M  V30 5582 C 557.708 -1.58697 -0.592589 0
M  V30 5583 O 558.914 -1.73461 -0.480768 0
M  V30 5584 H 555.289 -0.748492 0.0725487 0
M  V30 5585 H 557.26 -2.76374 1.12516 0
M  V30 5586 C 556.009 -3.43828 -0.517449 0
M  V30 5587 H 555.332 -3.99532 0.146392 0
M  V30 5588 H 556.772 -4.1474 -0.88128 0
M  V30 5589 C 555.231 -2.90786 -1.70133 0
M  V30 5590 O 555.761 -2.88 -2.80034 0
M  V30 5591 N 553.967 -2.4723 -1.52728 0
M  V30 5592 H 553.514 -2.49695 -0.633257 0
M  V30 5593 H 553.472 -2.12094 -2.32085 0
M  V30 5594 N 557.244 -0.608902 -1.45362 0
M  V30 5595 C 558.492 -0.104401 -2.0183 0
M  V30 5596 C 558.813 1.27007 -1.47967 0
M  V30 5597 O 558.083 1.83924 -0.674455 0
M  V30 5598 H 556.663 -0.0356042 -0.746151 0
M  V30 5599 H 559.325 -0.790596 -1.78145 0
M  V30 5600 H 558.421 -0.0551793 -3.12051 0
M  V30 5601 N 558.722 1.53707 -0.348139 0
M  V30 5602 C 559.652 2.28111 0.498766 0
M  V30 5603 C 560.633 1.29851 1.09876 0
M  V30 5604 O 561.818 1.587 1.11928 0
M  V30 5605 C 558.948 3.05735 1.64753 0
M  V30 5606 C 557.902 4.11537 1.17565 0
M  V30 5607 C 557.228 4.77142 2.4133 0
M  V30 5608 C 558.528 5.21587 0.272844 0
M  V30 5609 H 560.222 2.99152 -0.121934 0
M  V30 5610 H 557.768 1.43875 -0.0600842 0
M  V30 5611 H 559.721 3.56526 2.24649 0
M  V30 5612 H 558.445 2.32354 2.2952 0
M  V30 5613 H 557.104 3.61665 0.599483 0
M  V30 5614 H 556.752 4.0035 3.04514 0
M  V30 5615 H 556.452 5.48626 2.10436 0
M  V30 5616 H 557.976 5.30719 3.01943 0
M  V30 5617 H 559.39 5.67986 0.778779 0
M  V30 5618 H 557.787 6.00074 0.0555849 0
M  V30 5619 H 558.857 4.79969 -0.689785 0
M  V30 5620 N 560.2 0.0768682 1.57412 0
M  V30 5621 C 561.616 -0.279772 1.57129 0
M  V30 5622 C 561.816 -1.69688 1.08666 0
M  V30 5623 O 560.872 -2.40953 0.754843 0
M  V30 5624 C 562.185 -0.0848055 3.0058 0
M  V30 5625 C 563.733 -0.153954 3.12621 0
M  V30 5626 C 564.208 0.0127946 4.57998 0
M  V30 5627 N 565.699 -0.0426435 4.6318 0
M  V30 5628 C 566.434 0.0618892 5.73367 0
M  V30 5629 N 565.93 0.220229 6.9245 0
M  V30 5630 N 567.723 0.00446072 5.621 0
M  V30 5631 H 559.874 1.00297 1.87228 0
M  V30 5632 H 562.137 0.391565 0.863354 0
M  V30 5633 H 561.843 0.89325 3.40168 0
M  V30 5634 H 561.717 -0.834961 3.67843 0
M  V30 5635 H 564.104 -1.1225 2.72917 0
M  V30 5636 H 564.185 0.627389 2.47987 0
M  V30 5637 H 563.829 0.978128 4.98392 0
M  V30 5638 H 563.759 -0.788016 5.20671 0
M  V30 5639 H 566.25 -0.163226 3.77547 0
M  V30 5640 H 566.563 0.291999 7.72248 0
M  V30 5641 H 564.908 0.255658 6.9453 0
M  V30 5642 H 568.099 -0.117979 4.67951 0
M  V30 5643 H 568.272 0.0893796 6.47938 0
M  V30 5644 N 561.678 -1.56367 -0.196722 0
M  V30 5645 C 563.089 -1.70462 -0.761545 0
M  V30 5646 C 563.44 -0.683161 -1.83922 0
M  V30 5647 O 562.565 0.160753 -2.15802 0
M  V30 5648 C 563.16 -3.09057 -1.38814 0
M  V30 5649 C 561.719 -3.24922 -1.90007 0
M  V30 5650 C 560.866 -2.66412 -0.769399 0
M  V30 5651 H 563.817 -1.58675 0.0283263 0
M  V30 5652 H 563.838 -3.06296 -2.2575 0
M  V30 5653 H 563.35 -3.83378 -0.603559 0
M  V30 5654 H 561.451 -2.55514 -2.71189 0
M  V30 5655 H 561.564 -4.3241 -2.06297 0
M  V30 5656 H 559.928 -2.25546 -1.18326 0
M  V30 5657 H 560.711 -3.433 0.00291773 0
M  V30 5658 N 563.156 0.464375 -1.50603 0
M  V30 5659 C 564.066 1.58723 -1.72754 0
M  V30 5660 C 565.082 1.62925 -0.610844 0
M  V30 5661 O 566.258 1.8067 -0.889963 0
M  V30 5662 C 563.323 2.94897 -1.82309 0
M  V30 5663 C 562.384 3.0103 -3.06071 0
M  V30 5664 C 561.617 4.30708 -3.1516 0
M  V30 5665 O 561.84 5.2159 -2.30868 0
M  V30 5666 O 560.774 4.42571 -4.0794 0
M  V30 5667 H 564.6 1.42954 -2.67951 0
M  V30 5668 H 562.185 0.644579 -1.3478 0
M  V30 5669 H 564.067 3.75764 -1.90735 0
M  V30 5670 H 562.742 3.10851 -0.902967 0
M  V30 5671 H 561.649 2.19217 -3.03142 0
M  V30 5672 H 562.982 2.90014 -3.97684 0
M  V30 5673 N 564.634 1.40294 0.718013 0
M  V30 5674 C 566.045 1.34289 1.29705 0
M  V30 5675 C 566.396 0.0152228 1.96194 0
M  V30 5676 O 565.521 -0.88682 1.97394 0
M  V30 5677 C 566.116 2.43219 2.3586 0
M  V30 5678 C 564.675 2.40682 2.89394 0
M  V30 5679 C 563.822 2.24223 1.63154 0
M  V30 5680 H 566.773 1.50135 0.514312 0
M  V30 5681 H 566.794 2.10986 3.16647 0
M  V30 5682 H 566.306 3.39836 1.87439 0
M  V30 5683 H 564.407 1.47756 3.42051 0
M  V30 5684 H 564.52 3.36177 3.41353 0
M  V30 5685 H 562.884 1.71696 1.88129 0
M  V30 5686 H 563.667 3.22834 1.16761 0
M  V30 5687 N 566.112 -0.949982 1.2575 0
M  V30 5688 C 567.042 -2.06483 1.09028 0
M  V30 5689 C 568.023 -1.701 -0.00201532 0
M  V30 5690 O 569.208 -1.93469 0.168383 0
M  V30 5691 C 566.338 -3.39899 0.71316 0
M  V30 5692 C 565.292 -3.90309 1.75621 0
M  V30 5693 C 564.618 -5.20274 1.23365 0
M  V30 5694 C 565.918 -4.16169 3.15596 0
M  V30 5695 H 567.612 -2.20731 2.02283 0
M  V30 5696 H 565.158 -1.06066 0.973964 0
M  V30 5697 H 567.111 -4.17346 0.58309 0
M  V30 5698 H 565.835 -3.25602 -0.255091 0
M  V30 5699 H 564.494 -3.15035 1.8748 0
M  V30 5700 H 564.142 -5.02351 0.255491 0
M  V30 5701 H 563.842 -5.54971 1.93082 0
M  V30 5702 H 565.366 -6.00314 1.11607 0
M  V30 5703 H 566.78 -4.84259 3.06864 0
M  V30 5704 H 565.177 -4.62131 3.82825 0
M  V30 5705 H 566.247 -3.22273 3.6231 0
M  V30 5706 N 567.59 -1.07411 -1.15328 0
M  V30 5707 C 568.839 -0.792643 -1.85473 0
M  V30 5708 C 569.152 0.683789 -1.83259 0
M  V30 5709 O 570.358 1.08005 -2.49093 0
M  V30 5710 C 568.814 -1.36787 -3.32892 0
M  V30 5711 C 568.422 -2.87536 -3.43551 0
M  V30 5712 C 570.166 -1.16444 -4.08217 0
M  V30 5713 C 568.073 -3.38247 -4.85122 0
M  V30 5714 H 567.003 -0.292838 -0.694811 0
M  V30 5715 H 569.654 -1.29426 -1.30082 0
M  V30 5716 H 568.036 -0.793993 -3.87958 0
M  V30 5717 H 569.21 -3.50973 -2.98588 0
M  V30 5718 H 567.525 -3.06676 -2.81672 0
M  V30 5719 H 570.122 -1.51808 -5.12697 0
M  V30 5720 H 570.465 -0.10353 -4.16171 0
M  V30 5721 H 570.998 -1.70472 -3.59422 0
M  V30 5722 H 567.737 -4.43866 -4.82351 0
M  V30 5723 H 567.257 -2.79564 -5.30664 0
M  V30 5724 H 568.936 -3.34238 -5.5398 0
M  V30 5725 N 569.068 1.32177 -0.85831 0
M  V30 5726 C 570.031 2.27086 -0.310588 0
M  V30 5727 C 571.031 1.51751 0.531806 0
M  V30 5728 O 572.221 1.70794 0.34279 0
M  V30 5729 C 569.353 3.36266 0.560179 0
M  V30 5730 H 570.546 2.77045 -1.1483 0
M  V30 5731 H 568.099 1.42911 -0.632942 0
M  V30 5732 H 568.834 2.9158 1.41956 0
M  V30 5733 H 568.619 3.92077 -0.0428473 0
M  V30 5734 H 570.109 4.06974 0.936056 0
M  V30 5735 N 570.547 0.616602 1.45037 0
M  V30 5736 C 571.477 -0.0840787 2.33349 0
M  V30 5737 C 572.458 -0.849641 1.4736 0
M  V30 5738 O 573.643 -0.818407 1.76113 0
M  V30 5739 C 570.773 -1.07604 3.3021 0
M  V30 5740 C 569.727 -0.423096 4.25904 0
M  V30 5741 C 569.053 -1.52394 5.12523 0
M  V30 5742 C 570.353 0.661457 5.18095 0
M  V30 5743 H 572.047 0.653333 2.92185 0
M  V30 5744 H 569.593 0.315634 1.40498 0
M  V30 5745 H 571.546 -1.57485 3.90866 0
M  V30 5746 H 570.27 -1.84416 2.69552 0
M  V30 5747 H 568.929 0.05493 3.66559 0
M  V30 5748 H 568.577 -2.28257 4.48227 0
M  V30 5749 H 568.277 -1.09251 5.77354 0
M  V30 5750 H 569.801 -2.02485 5.76049 0
M  V30 5751 H 571.215 0.246353 5.7277 0
M  V30 5752 H 569.612 1.01517 5.91451 0
M  V30 5753 H 570.682 1.53446 4.59981 0
M  V30 5754 N 572.025 -1.5352 0.356285 0
M  V30 5755 C 573.273 -2.00719 -0.235837 0
M  V30 5756 C 573.594 -1.24551 -1.5004 0
M  V30 5757 O 572.864 -0.356185 -1.92635 0
M  V30 5758 H 571.444 -0.741542 -0.0901366 0
M  V30 5759 H 574.106 -1.88887 0.480378 0
M  V30 5760 H 573.202 -3.08551 -0.469357 0
M  V30 5761 N 573.503 -0.0852151 -1.57369 0
M  V30 5762 C 574.749 0.581666 -1.94279 0
M  V30 5763 C 575.082 1.68444 -0.966446 0
M  V30 5764 O 574.357 1.945 0.00215277 0
M  V30 5765 C 574.64 1.14609 -3.41375 0
M  V30 5766 C 574.493 0.0490414 -4.49773 0
M  V30 5767 C 575.812 2.04751 -3.8957 0
M  V30 5768 H 572.931 0.209972 -0.706456 0
M  V30 5769 H 575.573 -0.153915 -1.89376 0
M  V30 5770 H 573.723 1.77297 -3.45685 0
M  V30 5771 H 575.395 -0.584721 -4.57579 0
M  V30 5772 H 573.638 -0.618638 -4.29366 0
M  V30 5773 H 574.309 0.484601 -5.49869 0
M  V30 5774 H 576.785 1.51981 -3.87351 0
M  V30 5775 H 575.661 2.41173 -4.93079 0
M  V30 5776 H 575.922 2.96107 -3.28288 0
M  V30 5777 N 574.981 1.5647 0.188427 0
M  V30 5778 C 575.911 1.98101 1.23606 0
M  V30 5779 C 576.892 0.853961 1.47111 0
M  V30 5780 O 578.077 1.11879 1.58735 0
M  V30 5781 C 575.207 2.32624 2.57882 0
M  V30 5782 C 574.161 3.48129 2.48978 0
M  V30 5783 C 573.487 3.68347 3.87588 0
M  V30 5784 C 574.787 4.82112 2.00911 0
M  V30 5785 H 576.481 2.85864 0.890068 0
M  V30 5786 H 574.027 1.37532 0.426714 0
M  V30 5787 H 575.98 2.60343 3.3136 0
M  V30 5788 H 574.704 1.41751 2.94235 0
M  V30 5789 H 573.363 3.20511 1.77956 0
M  V30 5790 H 573.011 2.74793 4.21305 0
M  V30 5791 H 572.711 4.46055 3.82503 0
M  V30 5792 H 574.235 3.98449 4.62678 0
M  V30 5793 H 575.649 5.08819 2.64151 0
M  V30 5794 H 574.046 5.63337 2.06814 0
M  V30 5795 H 575.116 4.75249 0.96262 0
M  V30 5796 N 576.459 -0.456382 1.50847 0
M  V30 5797 C 577.705 -1.20914 1.62811 0
M  V30 5798 C 578.038 -1.91301 0.334304 0
M  V30 5799 O 577.313 -1.82775 -0.665098 0
M  V30 5800 C 577.596 -2.24122 2.81853 0
M  V30 5801 C 577.449 -1.57944 4.21158 0
M  V30 5802 C 578.768 -3.25295 2.96431 0
M  V30 5803 H 575.887 -0.438233 0.592554 0
M  V30 5804 H 578.529 -0.50091 1.83278 0
M  V30 5805 H 576.679 -2.84524 2.64534 0
M  V30 5806 H 578.351 -1.01025 4.50102 0
M  V30 5807 H 576.594 -0.882185 4.24735 0
M  V30 5808 H 577.265 -2.33014 5.00408 0
M  V30 5809 H 579.741 -2.7493 3.12335 0
M  V30 5810 H 578.617 -3.94822 3.81322 0
M  V30 5811 H 578.878 -3.90286 2.07676 0
M  V30 5812 N 577.937 -1.40673 -0.710563 0
M  V30 5813 C 579.165 -1.42547 -1.4996 0
M  V30 5814 C 579.58 -0.0265485 -1.88781 0
M  V30 5815 O 578.937 0.950694 -1.55782 0
M  V30 5816 C 578.988 -2.32071 -2.77173 0
M  V30 5817 O 578.709 -3.66518 -2.39992 0
M  V30 5818 C 580.21 -2.42591 -3.71032 0
M  V30 5819 H 577.43 -0.486025 -0.462623 0
M  V30 5820 H 579.974 -1.84783 -0.876102 0
M  V30 5821 H 578.129 -1.93184 -3.35795 0
M  V30 5822 H 578.543 -4.14115 -3.21884 0
M  V30 5823 H 580.017 -3.09429 -4.57119 0
M  V30 5824 H 580.494 -1.4525 -4.14486 0
M  V30 5825 H 581.1 -2.82051 -3.18319 0
M  V30 5826 N 579.415 0.9433 -1.26252 0
M  V30 5827 C 580.661 1.69226 -1.12846 0
M  V30 5828 C 581.016 1.8963 0.325282 0
M  V30 5829 O 580.309 1.46435 1.23561 0
M  V30 5830 C 580.503 3.07073 -1.82868 0
M  V30 5831 C 580.332 3.00118 -3.34902 0
M  V30 5832 C 579.102 3.03251 -4.04186 0
M  V30 5833 C 581.3 2.80418 -4.31127 0
M  V30 5834 N 579.282 2.86573 -5.42908 0
M  V30 5835 C 580.653 2.72287 -5.5701 0
M  V30 5836 C 582.708 2.65185 -4.21404 0
M  V30 5837 C 581.411 2.50479 -6.74279 0
M  V30 5838 C 583.437 2.4475 -5.38378 0
M  V30 5839 C 582.799 2.37349 -6.63208 0
M  V30 5840 H 578.898 0.626716 -0.467708 0
M  V30 5841 H 581.482 1.11645 -1.5951 0
M  V30 5842 H 579.653 3.62797 -1.38682 0
M  V30 5843 H 581.385 3.70816 -1.62103 0
M  V30 5844 H 578.14 3.12882 -3.55531 0
M  V30 5845 H 578.564 2.81408 -6.15742 0
M  V30 5846 H 583.206 2.69675 -3.25631 0
M  V30 5847 H 580.924 2.4473 -7.70151 0
M  V30 5848 H 584.51 2.33872 -5.32724 0
M  V30 5849 H 583.39 2.21746 -7.52196 0
M  V30 5850 N 580.893 1.08022 1.14757 0
M  V30 5851 C 582.139 0.808705 1.85978 0
M  V30 5852 C 582.472 -0.663764 1.82504 0
M  V30 5853 O 581.747 -1.48765 1.25296 0
M  V30 5854 C 582.03 1.32623 3.34788 0
M  V30 5855 C 581.883 2.86375 3.46856 0
M  V30 5856 C 583.202 0.948291 4.29762 0
M  V30 5857 H 580.321 0.295244 0.675278 0
M  V30 5858 H 582.963 1.33917 1.34783 0
M  V30 5859 H 581.113 0.875002 3.78518 0
M  V30 5860 H 582.785 3.39839 3.11941 0
M  V30 5861 H 581.028 3.24232 2.88194 0
M  V30 5862 H 581.699 3.17658 4.51439 0
M  V30 5863 H 584.175 1.33722 3.94028 0
M  V30 5864 H 583.051 1.33765 5.32352 0
M  V30 5865 H 583.312 -0.145094 4.41862 0
M  V30 5866 N 582.371 -1.3172 0.865308 0
M  V30 5867 C 583.301 -2.31109 0.333302 0
M  V30 5868 C 584.282 -1.60148 -0.573301 0
M  V30 5869 O 585.467 -1.87882 -0.491305 0
M  V30 5870 C 582.597 -3.44104 -0.470078 0
M  V30 5871 C 581.551 -4.26623 0.343021 0
M  V30 5872 C 580.877 -5.31482 -0.585756 0
M  V30 5873 C 582.177 -4.98001 1.57456 0
M  V30 5874 H 583.871 -2.75855 1.1638 0
M  V30 5875 H 581.417 -1.3262 0.561069 0
M  V30 5876 H 583.37 -4.12682 -0.852752 0
M  V30 5877 H 582.094 -2.98112 -1.33404 0
M  V30 5878 H 580.753 -3.59707 0.707583 0
M  V30 5879 H 580.401 -4.81741 -1.44686 0
M  V30 5880 H 580.101 -5.87582 -0.0456494 0
M  V30 5881 H 581.625 -6.0292 -0.965375 0
M  V30 5882 H 583.039 -5.59201 1.26359 0
M  V30 5883 H 581.436 -5.63876 2.05339 0
M  V30 5884 H 582.506 -4.25253 2.32997 0
M  V30 5885 N 583.85 -0.624285 -1.44708 0
M  V30 5886 C 585.096 -0.126237 -2.02407 0
M  V30 5887 C 585.428 1.24618 -1.48943 0
M  V30 5888 O 584.704 1.82569 -0.670742 0
M  V30 5889 C 584.986 -0.105449 -3.59946 0
M  V30 5890 C 584.84 -1.50972 -4.23707 0
M  V30 5891 C 586.159 0.573629 -4.36346 0
M  V30 5892 H 583.278 -0.0473472 -0.735478 0
M  V30 5893 H 585.92 -0.799452 -1.72362 0
M  V30 5894 H 584.07 0.46783 -3.85673 0
M  V30 5895 H 585.742 -2.13136 -4.0911 0
M  V30 5896 H 583.985 -2.0656 -3.81465 0
M  V30 5897 H 584.656 -1.44727 -5.32689 0
M  V30 5898 H 587.132 0.0861787 -4.16011 0
M  V30 5899 H 586.008 0.557338 -5.46063 0
M  V30 5900 H 586.269 1.64276 -4.10446 0
M  V30 5901 N 585.328 1.53329 -0.364422 0
M  V30 5902 C 586.238 2.29414 0.490552 0
M  V30 5903 C 587.254 1.35335 1.09363 0
M  V30 5904 O 588.43 1.68391 1.10483 0
M  V30 5905 C 585.495 3.06772 1.61529 0
M  V30 5906 C 584.556 4.16516 1.03986 0
M  V30 5907 C 583.789 4.90176 2.111 0
M  V30 5908 O 584.012 4.63687 3.32191 0
M  V30 5909 O 582.946 5.76134 1.74222 0
M  V30 5910 H 586.772 3.03428 -0.12856 0
M  V30 5911 H 584.357 1.48843 -0.128837 0
M  V30 5912 H 586.239 3.55082 2.26924 0
M  V30 5913 H 584.914 2.35596 2.21983 0
M  V30 5914 H 583.821 3.7246 0.349856 0
M  V30 5915 H 585.154 4.89855 0.4799 0
M  V30 5916 N 586.806 0.0935595 1.57322 0
M  V30 5917 C 588.222 -0.263091 1.57417 0
M  V30 5918 C 588.422 -1.68526 1.1046 0
M  V30 5919 O 587.478 -2.40139 0.780357 0
M  V30 5920 C 588.791 -0.0529201 3.00653 0
M  V30 5921 C 590.339 -0.120788 3.12767 0
M  V30 5922 C 590.814 0.0613707 4.57959 0
M  V30 5923 N 592.305 0.00648534 4.632 0
M  V30 5924 C 593.04 0.122699 5.73269 0
M  V30 5925 N 592.536 0.29366 6.92177 0
M  V30 5926 N 594.329 0.0640787 5.62063 0
M  V30 5927 H 586.48 1.02277 1.86154 0
M  V30 5928 H 588.743 0.4007 0.859153 0
M  V30 5929 H 588.449 0.929279 3.39201 0
M  V30 5930 H 588.323 -0.795899 3.68708 0
M  V30 5931 H 590.71 -1.09349 2.74093 0
M  V30 5932 H 590.791 0.653656 2.47307 0
M  V30 5933 H 590.435 1.03093 4.97327 0
M  V30 5934 H 590.365 -0.732748 5.21477 0
M  V30 5935 H 592.856 -0.123173 3.77699 0
M  V30 5936 H 593.169 0.37389 7.71895 0
M  V30 5937 H 591.514 0.329307 6.94219 0
M  V30 5938 H 594.705 -0.0683396 4.6805 0
M  V30 5939 H 594.878 0.158097 6.47807 0
M  V30 5940 N 588.284 -1.56567 -0.180126 0
M  V30 5941 C 589.509 -1.85975 -0.918041 0
M  V30 5942 C 589.934 -0.678888 -1.75422 0
M  V30 5943 O 589.292 0.372168 -1.77439 0
M  V30 5944 C 589.34 -3.13731 -1.77779 0
M  V30 5945 O 588.444 -2.95335 -2.87838 0
M  V30 5946 H 587.785 -0.61196 -0.257683 0
M  V30 5947 H 590.315 -2.03798 -0.180923 0
M  V30 5948 H 590.325 -3.4491 -2.17948 0
M  V30 5949 H 589 -3.99293 -1.16352 0
M  V30 5950 H 587.577 -2.7549 -2.51316 0
M  V30 5951 N 589.762 0.448376 -1.51087 0
M  V30 5952 C 591.011 1.19561 -1.62444 0
M  V30 5953 C 591.324 1.92602 -0.341151 0
M  V30 5954 O 592.53 2.69439 -0.333936 0
M  V30 5955 C 590.986 2.17373 -2.8684 0
M  V30 5956 C 590.594 1.5003 -4.22131 0
M  V30 5957 C 592.338 2.92597 -3.0755 0
M  V30 5958 C 590.245 2.46262 -5.37689 0
M  V30 5959 H 589.175 0.449975 -0.605011 0
M  V30 5960 H 591.826 0.463735 -1.77544 0
M  V30 5961 H 590.208 2.93948 -2.65349 0
M  V30 5962 H 591.382 0.790886 -4.53962 0
M  V30 5963 H 589.697 0.870011 -4.0721 0
M  V30 5964 H 592.294 3.64663 -3.91056 0
M  V30 5965 H 592.637 3.53306 -2.20183 0
M  V30 5966 H 593.17 2.23131 -3.29329 0
M  V30 5967 H 589.909 1.90258 -6.27281 0
M  V30 5968 H 589.429 3.15289 -5.10248 0
M  V30 5969 H 591.108 3.07623 -5.6919 0
M  V30 5970 N 591.24 1.41047 0.703093 0
M  V30 5971 C 592.203 1.42036 1.79884 0
M  V30 5972 C 593.203 0.312153 1.57741 0
M  V30 5973 O 594.393 0.571672 1.64553 0
M  V30 5974 C 591.525 1.22437 3.18154 0
M  V30 5975 H 592.718 2.39572 1.80403 0
M  V30 5976 H 590.271 1.27079 0.909977 0
M  V30 5977 H 591.006 0.257112 3.23279 0
M  V30 5978 H 590.791 2.02723 3.35627 0
M  V30 5979 H 592.281 1.25946 3.98155 0
M  V30 5980 N 592.718 -0.936591 1.26751 0
M  V30 5981 C 593.648 -2.05315 1.11212 0
M  V30 5982 C 594.629 -1.70092 0.0160262 0
M  V30 5983 O 595.814 -1.93279 0.188894 0
M  V30 5984 C 592.944 -3.39123 0.749171 0
M  V30 5985 C 591.898 -3.88425 1.79751 0
M  V30 5986 C 591.224 -5.18936 1.28876 0
M  V30 5987 C 592.524 -4.12798 3.19992 0
M  V30 5988 H 594.218 -2.18573 2.04613 0
M  V30 5989 H 591.764 -1.05027 0.985159 0
M  V30 5990 H 593.717 -4.16704 0.627323 0
M  V30 5991 H 592.441 -3.25855 -0.220543 0
M  V30 5992 H 591.1 -3.13028 1.90811 0
M  V30 5993 H 590.748 -5.02051 0.308757 0
M  V30 5994 H 590.448 -5.52892 1.98958 0
M  V30 5995 H 591.972 -5.99096 1.17967 0
M  V30 5996 H 593.386 -4.80977 3.11983 0
M  V30 5997 H 591.783 -4.58044 3.87705 0
M  V30 5998 H 592.853 -3.18412 3.65707 0
M  V30 5999 N 594.196 -1.08629 -1.14182 0
M  V30 6000 C 595.444 -0.815731 -1.84906 0
M  V30 6001 C 595.765 0.660441 -1.83475 0
M  V30 6002 O 595.035 1.47888 -1.28476 0
M  V30 6003 H 593.615 -0.298773 -0.684648 0
M  V30 6004 H 596.277 -1.37274 -1.38354 0
M  V30 6005 H 595.373 -1.16193 -2.89665 0
M  V30 6006 N 595.674 1.31259 -0.872281 0
M  V30 6007 C 597.09 1.49283 -0.564521 0
M  V30 6008 C 597.29 1.80243 0.900807 0
M  V30 6009 O 596.346 1.88246 1.68284 0
M  V30 6010 C 597.659 2.62503 -1.46673 0
M  V30 6011 C 599.207 2.76386 -1.46901 0
M  V30 6012 C 599.682 3.92705 -2.35684 0
M  V30 6013 N 601.173 3.99995 -2.33577 0
M  V30 6014 C 601.908 4.89276 -2.98992 0
M  V30 6015 N 601.404 5.83443 -3.73585 0
M  V30 6016 N 603.197 4.82541 -2.88289 0
M  V30 6017 H 595.348 1.09432 -1.82039 0
M  V30 6018 H 597.611 0.540949 -0.77851 0
M  V30 6019 H 597.317 2.46407 -2.50951 0
M  V30 6020 H 597.191 3.58695 -1.16696 0
M  V30 6021 H 599.578 2.91894 -0.433796 0
M  V30 6022 H 599.659 1.80853 -1.80903 0
M  V30 6023 H 599.303 3.77954 -3.39283 0
M  V30 6024 H 599.233 4.87549 -1.99006 0
M  V30 6025 H 601.724 3.32624 -1.7936 0
M  V30 6026 H 602.037 6.48303 -4.20622 0
M  V30 6027 H 600.382 5.83415 -3.77694 0
M  V30 6028 H 603.573 4.07951 -2.2955 0
M  V30 6029 H 603.746 5.51916 -3.39549 0
M  V30 6030 N 597.152 0.631951 1.44375 0
M  V30 6031 C 598.082 -0.0593243 2.33425 0
M  V30 6032 C 599.063 -0.833964 1.48253 0
M  V30 6033 O 600.248 -0.799682 1.76971 0
M  V30 6034 C 597.378 -1.04096 3.31333 0
M  V30 6035 C 596.332 -0.377899 4.26328 0
M  V30 6036 C 595.658 -1.4695 5.14111 0
M  V30 6037 C 596.958 0.716371 5.17364 0
M  V30 6038 H 598.652 0.684287 2.91475 0
M  V30 6039 H 596.198 0.330518 1.40156 0
M  V30 6040 H 598.151 -1.53331 3.92514 0
M  V30 6041 H 596.875 -1.81547 2.71493 0
M  V30 6042 H 595.534 0.0938054 3.6648 0
M  V30 6043 H 595.182 -2.2349 4.50623 0
M  V30 6044 H 594.882 -1.03121 5.78481 0
M  V30 6045 H 596.406 -1.96363 5.78164 0
M  V30 6046 H 597.82 0.307089 5.72477 0
M  V30 6047 H 596.217 1.07784 5.90341 0
M  V30 6048 H 597.287 1.58316 4.58327 0
M  V30 6049 N 598.631 -1.53133 0.372548 0
M  V30 6050 C 599.594 -2.24569 -0.458389 0
M  V30 6051 C 600.594 -1.25603 -1.00402 0
M  V30 6052 O 601.784 -1.49827 -0.888672 0
M  V30 6053 C 598.916 -2.98783 -1.6414 0
M  V30 6054 H 600.109 -2.99436 0.166799 0
M  V30 6055 H 597.662 -1.55805 0.124357 0
M  V30 6056 H 598.397 -2.28176 -2.30448 0
M  V30 6057 H 598.182 -3.71404 -1.25704 0
M  V30 6058 H 599.672 -3.53068 -2.23008 0
M  V30 6059 N 600.109 -0.101901 -1.5727 0
M  V30 6060 C 601.52 0.426173 -1.81771 0
M  V30 6061 C 601.871 1.67725 -1.01797 0
M  V30 6062 O 600.996 2.14958 -0.249386 0
M  V30 6063 C 601.591 0.779962 -3.297 0
M  V30 6064 C 600.15 1.25275 -3.54941 0
M  V30 6065 C 599.297 0.252814 -2.76145 0
M  V30 6066 H 602.248 -0.32726 -1.55289 0
M  V30 6067 H 602.269 1.63891 -3.43395 0
M  V30 6068 H 601.781 -0.130778 -3.8788 0
M  V30 6069 H 599.882 2.18097 -3.021 0
M  V30 6070 H 599.995 1.20988 -4.63572 0
M  V30 6071 H 598.359 0.736362 -2.43823 0
M  V30 6072 H 599.142 -0.650724 -3.37076 0
M  V30 6073 N 601.587 1.56661 0.17182 0
M  V30 6074 C 602.55 1.9549 1.19651 0
M  V30 6075 C 603.55 0.838501 1.37207 0
M  V30 6076 O 604.74 1.10556 1.34622 0
M  V30 6077 C 601.872 2.24927 2.56166 0
M  V30 6078 H 603.065 2.87184 0.864007 0
M  V30 6079 H 600.618 1.50711 0.41425 0
M  V30 6080 H 601.353 1.35944 2.94431 0
M  V30 6081 H 601.138 3.06301 2.4479 0
M  V30 6082 H 602.628 2.55891 3.30014 0
M  V30 6083 N 603.065 -0.440357 1.51323 0
M  V30 6084 C 604.028 -1.51679 1.71832 0
M  V30 6085 C 605.028 -1.49648 0.588386 0
M  V30 6086 O 606.218 -1.51724 0.855891 0
M  V30 6087 C 603.35 -2.91228 1.77199 0
M  V30 6088 H 604.543 -1.34799 2.67898 0
M  V30 6089 H 602.096 -0.66883 1.41267 0
M  V30 6090 H 602.831 -3.13516 0.829363 0
M  V30 6091 H 602.616 -2.94107 2.59314 0
M  V30 6092 H 604.106 -3.69321 1.94915 0
M  V30 6093 N 604.543 -1.41418 -0.695603 0
M  V30 6094 C 605.789 -1.40982 -1.4578 0
M  V30 6095 C 606.122 -0.0187763 -1.94191 0
M  V30 6096 O 605.397 0.95346 -1.69527 0
M  V30 6097 C 605.68 -2.41657 -2.66972 0
M  V30 6098 C 605.533 -3.89869 -2.24327 0
M  V30 6099 C 606.852 -2.39589 -3.69168 0
M  V30 6100 H 603.971 -0.513405 -0.528757 0
M  V30 6101 H 606.613 -1.72693 -0.792275 0
M  V30 6102 H 604.763 -2.14746 -3.23754 0
M  V30 6103 H 606.435 -4.27683 -1.72872 0
M  V30 6104 H 604.678 -4.04737 -1.56111 0
M  V30 6105 H 605.349 -4.55857 -3.11285 0
M  V30 6106 H 607.825 -2.63471 -3.2206 0
M  V30 6107 H 606.701 -3.12044 -4.51575 0
M  V30 6108 H 606.962 -1.41447 -4.18862 0
M  V30 6109 N 606.021 0.929856 -1.27246 0
M  V30 6110 C 606.984 2.01172 -1.09829 0
M  V30 6111 C 607.984 1.60743 -0.0429687 0
M  V30 6112 O 609.174 1.71813 -0.287373 0
M  V30 6113 C 606.306 3.34191 -0.673003 0
M  V30 6114 H 607.499 2.18054 -2.05895 0
M  V30 6115 H 605.052 1.11036 -1.10003 0
M  V30 6116 H 605.787 3.23009 0.289134 0
M  V30 6117 H 605.572 3.64892 -1.43515 0
M  V30 6118 H 607.062 4.13646 -0.573323 0
M  V30 6119 N 607.499 1.09233 1.13605 0
M  V30 6120 C 608.748 0.82205 1.84188 0
M  V30 6121 C 609.061 -0.654548 1.84323 0
M  V30 6122 O 610.267 -1.04029 2.50779 0
M  V30 6123 C 608.723 1.42066 3.30674 0
M  V30 6124 C 608.331 2.92965 3.38933 0
M  V30 6125 C 610.075 1.22924 4.06313 0
M  V30 6126 C 607.982 3.45922 4.79679 0
M  V30 6127 H 606.912 0.303854 0.690064 0
M  V30 6128 H 609.563 1.31479 1.28006 0
M  V30 6129 H 607.945 0.855613 3.86646 0
M  V30 6130 H 609.119 3.55679 2.92966 0
M  V30 6131 H 607.434 3.11118 2.76757 0
M  V30 6132 H 610.031 1.59945 5.10217 0
M  V30 6133 H 610.374 0.169726 4.15954 0
M  V30 6134 H 610.907 1.76168 3.56665 0
M  V30 6135 H 607.646 4.51484 4.75229 0
M  V30 6136 H 607.166 2.87971 5.26149 0
M  V30 6137 H 608.845 3.43009 5.48592 0
M  V30 6138 N 608.977 -1.30795 0.87923 0
M  V30 6139 C 610.226 -1.95636 0.490875 0
M  V30 6140 C 610.539 -1.70214 -0.963674 0
M  V30 6141 O 611.745 -2.28991 -1.45861 0
M  V30 6142 C 610.201 -3.50271 0.826929 0
M  V30 6143 C 609.809 -3.84521 2.29886 0
M  V30 6144 C 611.553 -4.21456 0.507494 0
M  V30 6145 C 609.46 -5.32309 2.57685 0
M  V30 6146 H 608.39 -0.732238 0.179841 0
M  V30 6147 H 611.041 -1.48829 1.07341 0
M  V30 6148 H 609.423 -3.9562 0.173542 0
M  V30 6149 H 610.597 -3.50102 2.99609 0
M  V30 6150 H 608.912 -3.26425 2.58526 0
M  V30 6151 H 611.509 -5.30199 0.692293 0
M  V30 6152 H 611.852 -4.12614 -0.552718 0
M  V30 6153 H 612.385 -3.81772 1.11782 0
M  V30 6154 H 609.124 -5.46195 3.62424 0
M  V30 6155 H 608.644 -5.68048 1.92566 0
M  V30 6156 H 610.323 -5.99678 2.42889 0
M  V30 6157 N 610.455 -0.639598 -1.44038 0
M  V30 6158 C 611.701 -0.147698 -2.02261 0
M  V30 6159 C 612.034 1.23031 -1.50256 0
M  V30 6160 O 611.309 1.81847 -0.690068 0
M  V30 6161 C 611.592 -0.14362 -3.59813 0
M  V30 6162 C 611.445 -1.55458 -4.22082 0
M  V30 6163 C 612.764 0.527317 -4.36929 0
M  V30 6164 H 609.883 -0.0551453 -0.734934 0
M  V30 6165 H 612.525 -0.817688 -1.71505 0
M  V30 6166 H 610.675 0.426898 -3.86147 0
M  V30 6167 H 612.347 -2.17464 -4.06826 0
M  V30 6168 H 610.59 -2.10594 -3.79253 0
M  V30 6169 H 611.261 -1.50369 -5.31124 0
M  V30 6170 H 613.737 0.0420504 -4.16079 0
M  V30 6171 H 612.613 0.499389 -5.46624 0
M  V30 6172 H 612.874 1.59914 -4.12165 0
M  V30 6173 N 611.933 1.52934 -0.380664 0
M  V30 6174 C 612.896 2.24809 0.446473 0
M  V30 6175 C 613.896 1.26133 0.997347 0
M  V30 6176 O 615.086 1.50297 0.880714 0
M  V30 6177 C 612.218 2.99649 1.62553 0
M  V30 6178 H 613.411 2.99343 -0.182677 0
M  V30 6179 H 610.964 1.55736 -0.132618 0
M  V30 6180 H 611.699 2.29395 2.29235 0
M  V30 6181 H 611.484 3.72066 1.23732 0
M  V30 6182 H 612.974 3.54246 2.21133 0
M  V30 6183 N 613.412 0.11024 1.57214 0
M  V30 6184 C 614.64 -0.557834 1.99238 0
M  V30 6185 C 615.055 -1.60778 0.989734 0
M  V30 6186 O 614.412 -1.82491 -0.0186092 0
M  V30 6187 C 614.463 -1.19189 3.41286 0
M  V30 6188 O 614.184 -0.183919 4.37714 0
M  V30 6189 C 615.685 -1.94413 3.98395 0
M  V30 6190 H 612.905 -0.148392 0.654386 0
M  V30 6191 H 615.449 0.193996 2.03578 0
M  V30 6192 H 613.604 -1.89456 3.37913 0
M  V30 6193 H 614.018 -0.643475 5.20538 0
M  V30 6194 H 615.492 -2.34116 4.99894 0
M  V30 6195 H 615.969 -2.81592 3.3705 0
M  V30 6196 H 616.575 -1.28928 4.05287 0
M  V30 6197 N 614.89 -1.56749 -0.16351 0
M  V30 6198 C 615.82 -2.00042 -1.20438 0
M  V30 6199 C 616.801 -0.877256 -1.45733 0
M  V30 6200 O 617.986 -1.1439 -1.56935 0
M  V30 6201 C 615.116 -2.36697 -2.54149 0
M  V30 6202 C 614.07 -3.52046 -2.43408 0
M  V30 6203 C 613.396 -3.74466 -3.81679 0
M  V30 6204 C 614.696 -4.85247 -1.93216 0
M  V30 6205 H 616.39 -2.87244 -0.844477 0
M  V30 6206 H 613.936 -1.38194 -0.40478 0
M  V30 6207 H 615.889 -2.65582 -3.27176 0
M  V30 6208 H 614.613 -1.46414 -2.91943 0
M  V30 6209 H 613.272 -3.23301 -1.72834 0
M  V30 6210 H 612.92 -2.81461 -4.1688 0
M  V30 6211 H 612.62 -4.52084 -3.75359 0
M  V30 6212 H 614.144 -4.0576 -4.5628 0
M  V30 6213 H 615.558 -5.12957 -2.56023 0
M  V30 6214 H 613.955 -5.66556 -1.97825 0
M  V30 6215 H 615.025 -4.7672 -0.88689 0
M  V30 6216 N 616.368 0.432326 -1.51554 0
M  V30 6217 C 617.596 1.20364 -1.68286 0
M  V30 6218 C 618.011 1.84888 -0.38233 0
M  V30 6219 O 617.368 1.70924 0.639627 0
M  V30 6220 C 617.419 2.28398 -2.80208 0
M  V30 6221 O 617.14 1.66512 -4.05223 0
M  V30 6222 C 618.641 3.18584 -3.08251 0
M  V30 6223 H 615.861 0.36259 -0.564596 0
M  V30 6224 H 618.405 0.511647 -1.97996 0
M  V30 6225 H 616.56 2.93305 -2.53083 0
M  V30 6226 H 616.974 2.37951 -4.67418 0
M  V30 6227 H 618.448 3.90511 -3.90135 0
M  V30 6228 H 618.925 3.79628 -2.2086 0
M  V30 6229 H 619.531 2.59372 -3.37055 0
M  V30 6230 N 617.846 1.41785 0.688094 0
M  V30 6231 C 618.809 1.43936 1.78368 0
M  V30 6232 C 619.809 0.328866 1.57401 0
M  V30 6233 O 620.999 0.589093 1.63937 0
M  V30 6234 C 618.131 1.25804 3.16838 0
M  V30 6235 H 619.324 2.41472 1.77852 0
M  V30 6236 H 616.877 1.28037 0.896448 0
M  V30 6237 H 617.612 0.291386 3.22988 0
M  V30 6238 H 617.397 2.06272 3.33458 0
M  V30 6239 H 618.887 1.30162 3.96797 0
M  V30 6240 N 619.324 -0.923095 1.27737 0
M  V30 6241 C 620.552 -1.70525 1.17171 0
M  V30 6242 C 620.967 -1.86847 -0.270881 0
M  V30 6243 O 620.324 -1.38879 -1.18401 0
M  V30 6244 C 620.375 -3.10242 1.85559 0
M  V30 6245 O 620.096 -2.94683 3.24182 0
M  V30 6246 C 621.597 -4.04586 1.81176 0
M  V30 6247 H 618.817 -0.533347 0.407163 0
M  V30 6248 H 621.361 -1.15599 1.68692 0
M  V30 6249 H 619.516 -3.62014 1.3793 0
M  V30 6250 H 619.93 -3.83045 3.58297 0
M  V30 6251 H 621.404 -5.00119 2.33633 0
M  V30 6252 H 621.881 -4.3218 0.782099 0
M  V30 6253 H 622.487 -3.58741 2.2844 0
M  V30 6254 N 620.802 -1.09834 -1.13024 0
M  V30 6255 C 621.732 -0.763451 -2.20666 0
M  V30 6256 C 622.713 0.260778 -1.68089 0
M  V30 6257 O 623.898 0.127915 -1.93778 0
M  V30 6258 C 621.028 -0.187744 -3.46792 0
M  V30 6259 C 619.982 -1.14196 -4.12484 0
M  V30 6260 C 619.308 -0.427755 -5.32986 0
M  V30 6261 C 620.608 -2.48607 -4.59338 0
M  V30 6262 H 622.302 -1.66347 -2.48936 0
M  V30 6263 H 619.848 -0.801261 -1.19649 0
M  V30 6264 H 621.801 0.0586375 -4.21359 0
M  V30 6265 H 620.525 0.747485 -3.17931 0
M  V30 6266 H 619.184 -1.37369 -3.3989 0
M  V30 6267 H 618.832 0.511747 -5.0039 0
M  V30 6268 H 618.532 -1.06403 -5.77886 0
M  V30 6269 H 620.056 -0.189772 -6.10305 0
M  V30 6270 H 621.47 -2.29618 -5.25308 0
M  V30 6271 H 619.867 -3.08062 -5.14993 0
M  V30 6272 H 620.937 -3.09062 -3.73642 0
M  V30 6273 N 622.28 1.30327 -0.886154 0
M  V30 6274 C 623.243 2.26376 -0.358687 0
M  V30 6275 C 624.243 1.52845 0.499498 0
M  V30 6276 O 625.433 1.71483 0.306485 0
M  V30 6277 C 622.565 3.37379 0.488726 0
M  V30 6278 H 623.758 2.74547 -1.20681 0
M  V30 6279 H 621.311 1.41536 -0.663113 0
M  V30 6280 H 622.046 2.94526 1.35739 0
M  V30 6281 H 621.831 3.91897 -0.126003 0
M  V30 6282 H 623.321 4.08868 0.84952 0
M  V30 6283 N 623.758 0.647228 1.43697 0
M  V30 6284 C 625.169 0.238689 1.85168 0
M  V30 6285 C 625.52 -1.21345 1.54175 0
M  V30 6286 O 624.645 -1.92542 0.987743 0
M  V30 6287 C 625.24 0.426422 3.36106 0
M  V30 6288 C 623.799 0.0722541 3.76331 0
M  V30 6289 C 622.946 0.732153 2.6746 0
M  V30 6290 H 625.897 0.851309 1.33934 0
M  V30 6291 H 625.918 -0.32987 3.79067 0
M  V30 6292 H 625.43 1.48339 3.58632 0
M  V30 6293 H 623.531 -0.982355 3.59417 0
M  V30 6294 H 623.644 0.493541 4.76551 0
M  V30 6295 H 622.008 0.16594 2.54159 0
M  V30 6296 H 622.791 1.79204 2.92816 0
M  V30 6297 N 625.236 -1.5273 0.388769 0
M  V30 6298 C 626.168 -2.24081 -0.481704 0
M  V30 6299 C 627.181 -1.26307 -1.02715 0
M  V30 6300 O 628.37 -1.52386 -0.929565 0
M  V30 6301 C 625.47 -2.94315 -1.68024 0
M  V30 6302 C 624.643 -4.18791 -1.26226 0
M  V30 6303 C 623.702 -4.72028 -2.32542 0
M  V30 6304 O 622.728 -5.35129 -1.93972 0
M  V30 6305 N 623.93 -4.51838 -3.64448 0
M  V30 6306 H 626.695 -2.9942 0.129591 0
M  V30 6307 H 624.256 -1.60465 0.2151 0
M  V30 6308 H 626.248 -3.26831 -2.38671 0
M  V30 6309 H 624.818 -2.22287 -2.19789 0
M  V30 6310 H 624.038 -3.92318 -0.384703 0
M  V30 6311 H 625.326 -4.99668 -0.959647 0
M  V30 6312 H 624.724 -4.01468 -3.98547 0
M  V30 6313 H 623.281 -4.88845 -4.31131 0
M  V30 6314 N 626.714 -0.118576 -1.57153 0
M  V30 6315 C 627.962 0.538461 -1.94795 0
M  V30 6316 C 628.283 1.67243 -1.00274 0
M  V30 6317 O 627.553 1.95811 -0.0589692 0
M  V30 6318 H 626.133 0.201904 -0.719197 0
M  V30 6319 H 628.795 -0.187418 -1.93997 0
M  V30 6320 H 627.891 0.933315 -2.97818 0
M  V30 6321 N 628.193 1.56834 0.155195 0
M  V30 6322 C 629.123 2.00678 1.19376 0
M  V30 6323 C 630.104 0.884973 1.45266 0
M  V30 6324 O 631.289 1.1522 1.56326 0
M  V30 6325 C 628.419 2.38042 2.5289 0
M  V30 6326 C 627.373 3.53332 2.41538 0
M  V30 6327 C 626.699 3.76485 3.79688 0
M  V30 6328 C 627.999 4.86265 1.9064 0
M  V30 6329 H 629.693 2.87688 0.829232 0
M  V30 6330 H 627.239 1.38407 0.397445 0
M  V30 6331 H 629.192 2.67314 3.25763 0
M  V30 6332 H 627.916 1.4796 2.91162 0
M  V30 6333 H 626.575 3.24213 1.71117 0
M  V30 6334 H 626.223 2.83667 4.15382 0
M  V30 6335 H 625.923 4.54068 3.72956 0
M  V30 6336 H 627.447 4.08174 4.54122 0
M  V30 6337 H 628.861 5.14308 2.53299 0
M  V30 6338 H 627.258 5.67597 1.94818 0
M  V30 6339 H 628.328 4.77184 0.861596 0
M  V30 6340 N 629.671 -0.424282 1.51781 0
M  V30 6341 C 630.92 -1.16961 1.64326 0
M  V30 6342 C 631.233 -1.92035 0.371749 0
M  V30 6343 O 632.439 -2.68873 0.37676 0
M  V30 6344 C 630.895 -2.12782 2.90262 0
M  V30 6345 C 630.503 -1.43295 4.24465 0
M  V30 6346 C 632.247 -2.87667 3.12166 0
M  V30 6347 C 630.154 -2.37676 5.41538 0
M  V30 6348 H 629.084 -0.440293 0.612093 0
M  V30 6349 H 631.735 -0.435431 1.78259 0
M  V30 6350 H 630.117 -2.8969 2.69992 0
M  V30 6351 H 631.291 -0.718564 4.55163 0
M  V30 6352 H 629.606 -0.805118 4.08542 0
M  V30 6353 H 632.203 -3.58395 3.96808 0
M  V30 6354 H 632.546 -3.49758 2.25776 0
M  V30 6355 H 633.079 -2.17863 3.32837 0
M  V30 6356 H 629.818 -1.80255 6.30229 0
M  V30 6357 H 629.338 -3.07132 5.15199 0
M  V30 6358 H 631.017 -2.98529 5.74012 0
M  V30 6359 N 631.149 -1.42148 -0.680565 0
M  V30 6360 C 632.112 -1.4488 -1.77602 0
M  V30 6361 C 633.112 -0.337209 -1.57224 0
M  V30 6362 O 634.302 -0.597778 -1.63622 0
M  V30 6363 C 631.434 -1.27483 -3.16166 0
M  V30 6364 H 632.627 -2.42412 -1.76568 0
M  V30 6365 H 630.18 -1.28511 -0.889645 0
M  V30 6366 H 630.915 -0.30851 -3.22829 0
M  V30 6367 H 630.7 -2.08037 -3.3236 0
M  V30 6368 H 632.19 -1.32265 -3.96101 0
M  V30 6369 N 632.627 0.916307 -1.28225 0
M  V30 6370 C 633.557 2.0352 -1.14464 0
M  V30 6371 C 634.538 1.70045 -0.0430844 0
M  V30 6372 O 635.723 1.92954 -0.219619 0
M  V30 6373 C 632.853 3.37889 -0.803027 0
M  V30 6374 C 631.807 3.85516 -1.85908 0
M  V30 6375 C 631.133 5.1682 -1.37116 0
M  V30 6376 C 632.433 4.07655 -3.26519 0
M  V30 6377 H 634.127 2.1529 -2.08064 0
M  V30 6378 H 631.673 1.03446 -1.00174 0
M  V30 6379 H 633.626 4.15654 -0.693537 0
M  V30 6380 H 632.35 3.26164 0.168674 0
M  V30 6381 H 631.009 3.09953 -1.95767 0
M  V30 6382 H 630.657 5.01497 -0.38859 0
M  V30 6383 H 630.357 5.49657 -2.07728 0
M  V30 6384 H 631.881 5.97143 -1.27484 0
M  V30 6385 H 633.295 4.75953 -3.19596 0
M  V30 6386 H 631.692 4.51818 -3.94943 0
M  V30 6387 H 632.762 3.12553 -3.70727 0
M  V30 6388 N 634.105 1.10431 1.1244 0
M  V30 6389 C 635.068 0.756542 2.16354 0
M  V30 6390 C 636.068 -0.21899 1.59302 0
M  V30 6391 O 637.258 0.00415969 1.742 0
M  V30 6392 C 634.39 0.120612 3.40687 0
M  V30 6393 H 635.583 1.67696 2.48632 0
M  V30 6394 H 633.136 0.904832 1.27446 0
M  V30 6395 H 633.871 -0.810536 3.14008 0
M  V30 6396 H 633.656 0.822693 3.83372 0
M  V30 6397 H 635.146 -0.106945 4.17463 0
M  V30 6398 N 635.583 -1.29855 0.893053 0
M  V30 6399 C 636.994 -1.77946 0.564998 0
M  V30 6400 C 637.345 -1.73339 -0.919134 0
M  V30 6401 O 636.47 -1.3152 -1.71847 0
M  V30 6402 C 637.065 -3.23118 1.01883 0
M  V30 6403 C 635.624 -3.69013 0.742051 0
M  V30 6404 C 634.771 -2.50121 1.19727 0
M  V30 6405 H 637.722 -1.16611 1.07646 0
M  V30 6406 H 637.743 -3.78875 0.351249 0
M  V30 6407 H 637.255 -3.26439 2.09903 0
M  V30 6408 H 635.356 -3.71173 -0.325816 0
M  V30 6409 H 635.469 -4.60117 1.33527 0
M  V30 6410 H 633.833 -2.47128 0.616418 0
M  V30 6411 H 634.616 -2.56174 2.28538 0
M  V30 6412 N 637.061 -0.65484 -1.43351 0
M  V30 6413 C 637.991 0.0221809 -2.33489 0
M  V30 6414 C 638.972 0.810272 -1.49561 0
M  V30 6415 O 640.157 0.771426 -1.78221 0
M  V30 6416 C 637.287 0.988117 -3.32947 0
M  V30 6417 C 636.241 0.310026 -4.26876 0
M  V30 6418 C 635.567 1.38752 -5.16384 0
M  V30 6419 C 636.867 -0.798589 -5.16159 0
M  V30 6420 H 638.561 -0.730571 -2.9035 0
M  V30 6421 H 636.107 -0.352773 -1.39612 0
M  V30 6422 H 638.06 1.47067 -3.94904 0
M  V30 6423 H 636.784 1.77205 -2.74346 0
M  V30 6424 H 635.443 -0.152097 -3.66284 0
M  V30 6425 H 635.091 2.16293 -4.54121 0
M  V30 6426 H 634.791 0.939051 -5.80048 0
M  V30 6427 H 636.315 1.87141 -5.81215 0
M  V30 6428 H 637.729 -0.398126 -5.71916 0
M  V30 6429 H 636.126 -1.17163 -5.88552 0
M  V30 6430 H 637.196 -1.65588 -4.55751 0
M  V30 6431 N 638.539 1.52521 -0.396863 0
M  V30 6432 C 639.469 2.29582 0.425941 0
M  V30 6433 C 640.45 1.33281 1.05689 0
M  V30 6434 O 641.635 1.62181 1.06823 0
M  V30 6435 C 638.765 3.10821 1.54943 0
M  V30 6436 C 637.719 4.15069 1.04413 0
M  V30 6437 C 637.045 4.84578 2.26028 0
M  V30 6438 C 638.345 5.22191 0.106767 0
M  V30 6439 H 640.039 2.98612 -0.217045 0
M  V30 6440 H 637.585 1.43611 -0.105826 0
M  V30 6441 H 639.538 3.63492 2.13193 0
M  V30 6442 H 638.262 2.39538 2.22011 0
M  V30 6443 H 636.921 3.63389 0.484118 0
M  V30 6444 H 636.569 4.09835 2.91623 0
M  V30 6445 H 636.269 5.55043 1.92876 0
M  V30 6446 H 637.793 5.40056 2.84906 0
M  V30 6447 H 639.207 5.70176 0.597685 0
M  V30 6448 H 637.604 5.99947 -0.135352 0
M  V30 6449 H 638.674 4.77531 -0.842134 0
M  V30 6450 N 640.017 0.126909 1.57088 0
M  V30 6451 C 641.245 -0.53667 1.99819 0
M  V30 6452 C 641.66 -1.5972 1.00673 0
M  V30 6453 O 641.017 -1.825 0.000747365 0
M  V30 6454 C 641.068 -1.15563 3.42531 0
M  V30 6455 O 640.789 -0.137483 4.37884 0
M  V30 6456 C 642.29 -1.90176 4.00435 0
M  V30 6457 H 639.51 -0.141443 0.655923 0
M  V30 6458 H 642.054 0.215578 2.03361 0
M  V30 6459 H 640.209 -1.85861 3.39904 0
M  V30 6460 H 640.623 -0.588229 5.21191 0
M  V30 6461 H 642.097 -2.28801 5.02349 0
M  V30 6462 H 642.574 -2.78002 3.40017 0
M  V30 6463 H 643.18 -1.24623 4.06632 0
M  V30 6464 N 641.495 -1.56914 -0.146875 0
M  V30 6465 C 642.743 -1.82994 -0.85777 0
M  V30 6466 C 643.064 -0.707814 -1.817 0
M  V30 6467 O 642.334 0.270521 -1.94023 0
M  V30 6468 H 640.914 -0.675106 -0.319751 0
M  V30 6469 H 643.576 -1.9439 -0.140849 0
M  V30 6470 H 642.672 -2.77928 -1.41994 0
M  V30 6471 N 642.974 0.416227 -1.52004 0
M  V30 6472 C 643.937 1.48926 -1.74223 0
M  V30 6473 C 644.937 1.48693 -0.612119 0
M  V30 6474 O 646.127 1.50343 -0.879921 0
M  V30 6475 C 643.259 2.88372 -1.81809 0
M  V30 6476 H 644.452 1.3052 -2.70008 0
M  V30 6477 H 642.005 0.646271 -1.42313 0
M  V30 6478 H 642.74 3.12157 -0.879135 0
M  V30 6479 H 642.525 2.89944 -2.6396 0
M  V30 6480 H 644.015 3.66173 -2.00766 0
M  V30 6481 N 644.452 1.42507 0.673017 0
M  V30 6482 C 645.868 1.25472 0.986355 0
M  V30 6483 C 646.068 0.160181 2.00862 0
M  V30 6484 O 645.124 -0.467993 2.48125 0
M  V30 6485 C 646.437 2.61219 1.48947 0
M  V30 6486 C 647.985 2.68589 1.60715 0
M  V30 6487 C 648.46 4.04707 2.14422 0
M  V30 6488 N 649.951 4.0667 2.21752 0
M  V30 6489 C 650.686 5.0881 2.64386 0
M  V30 6490 N 650.182 6.21332 3.0646 0
M  V30 6491 N 651.975 4.96166 2.64151 0
M  V30 6492 H 644.126 2.124 -0.00378532 0
M  V30 6493 H 646.389 0.946046 0.0608367 0
M  V30 6494 H 646.095 3.42179 0.812812 0
M  V30 6495 H 645.969 2.85261 2.46791 0
M  V30 6496 H 648.356 1.87974 2.27486 0
M  V30 6497 H 648.437 2.48333 0.613552 0
M  V30 6498 H 648.081 4.8578 1.48258 0
M  V30 6499 H 648.011 4.22315 3.14575 0
M  V30 6500 H 650.502 3.25438 1.92089 0
M  V30 6501 H 650.815 6.95118 3.37684 0
M  V30 6502 H 649.16 6.24835 3.04313 0
M  V30 6503 H 652.351 4.07334 2.30644 0
M  V30 6504 H 652.524 5.759 2.97057 0
M  V30 6505 N 645.93 -0.909495 1.28709 0
M  V30 6506 C 646.893 -1.99399 1.13016 0
M  V30 6507 C 647.893 -1.60654 0.068536 0
M  V30 6508 O 649.083 -1.71334 0.314671 0
M  V30 6509 C 646.215 -3.33078 0.726085 0
M  V30 6510 H 647.408 -2.14751 2.09338 0
M  V30 6511 H 644.961 -1.09272 1.11756 0
M  V30 6512 H 645.696 -3.23428 -0.23771 0
M  V30 6513 H 645.481 -3.62562 1.49302 0
M  V30 6514 H 646.971 -4.12681 0.639058 0
M  V30 6515 N 647.408 -1.11026 -1.11852 0
M  V30 6516 C 648.657 -0.851249 -1.82857 0
M  V30 6517 C 648.97 0.62514 -1.85341 0
M  V30 6518 O 650.176 1.00026 -2.52403 0
M  V30 6519 C 648.632 -1.47309 -3.28372 0
M  V30 6520 C 648.24 -2.9832 -3.34229 0
M  V30 6521 C 649.984 -1.29373 -4.04306 0
M  V30 6522 C 647.891 -3.53509 -4.74115 0
M  V30 6523 H 646.821 -0.314794 -0.685143 0
M  V30 6524 H 649.472 -1.33499 -1.25898 0
M  V30 6525 H 647.854 -0.917017 -3.85236 0
M  V30 6526 H 649.028 -3.60295 -2.87271 0
M  V30 6527 H 647.343 -3.15482 -2.71772 0
M  V30 6528 H 649.94 -1.68042 -5.07608 0
M  V30 6529 H 650.283 -0.235879 -4.15631 0
M  V30 6530 H 650.816 -1.8182 -3.53817 0
M  V30 6531 H 647.555 -4.58987 -4.67986 0
M  V30 6532 H 647.075 -2.96305 -5.21501 0
M  V30 6533 H 648.754 -3.51693 -5.43066 0
M  V30 6534 N 648.886 1.2938 -0.899927 0
M  V30 6535 C 649.849 2.25983 -0.382677 0
M  V30 6536 C 650.849 1.53366 0.483259 0
M  V30 6537 O 652.039 1.71798 0.28828 0
M  V30 6538 C 649.171 3.37878 0.452915 0
M  V30 6539 H 650.364 2.73252 -1.23586 0
M  V30 6540 H 647.917 1.40825 -0.678088 0
M  V30 6541 H 648.652 2.95949 1.32608 0
M  V30 6542 H 648.437 3.91742 -0.167562 0
M  V30 6543 H 649.927 4.09746 0.806107 0
M  V30 6544 N 650.364 0.662433 1.43002 0
M  V30 6545 C 651.296 -0.062326 2.29115 0
M  V30 6546 C 652.309 -0.777926 1.43011 0
M  V30 6547 O 653.498 -0.634146 1.66856 0
M  V30 6548 C 650.598 -1.11163 3.2015 0
M  V30 6549 C 649.771 -0.472327 4.34842 0
M  V30 6550 C 648.83 -1.41974 5.06685 0
M  V30 6551 O 647.856 -0.924795 5.61637 0
M  V30 6552 N 649.058 -2.75345 5.11043 0
M  V30 6553 H 651.823 0.676838 2.91957 0
M  V30 6554 H 649.384 0.505907 1.53793 0
M  V30 6555 H 651.376 -1.74643 3.65078 0
M  V30 6556 H 649.946 -1.75266 2.58845 0
M  V30 6557 H 649.166 0.341751 3.92716 0
M  V30 6558 H 650.454 -0.0264381 5.08793 0
M  V30 6559 H 649.852 -3.18108 4.67786 0
M  V30 6560 H 648.409 -3.34105 5.59658 0
M  V30 6561 N 651.842 -1.52309 0.404946 0
M  V30 6562 C 653.258 -1.59503 0.0556255 0
M  V30 6563 C 653.458 -1.41805 -1.43156 0
M  V30 6564 O 652.514 -1.2429 -2.19792 0
M  V30 6565 C 653.827 -2.95687 0.546801 0
M  V30 6566 C 655.375 -3.08909 0.504413 0
M  V30 6567 C 655.85 -4.47566 0.97203 0
M  V30 6568 N 657.341 -4.53795 0.928679 0
M  V30 6569 C 658.076 -5.59346 1.26174 0
M  V30 6570 N 657.572 -6.72469 1.66604 0
M  V30 6571 N 659.365 -5.49532 1.18198 0
M  V30 6572 H 651.516 -1.6206 1.37296 0
M  V30 6573 H 653.779 -0.762161 0.563751 0
M  V30 6574 H 653.485 -3.13905 1.58609 0
M  V30 6575 H 653.359 -3.77172 -0.0457905 0
M  V30 6576 H 655.746 -2.90378 -0.525819 0
M  V30 6577 H 655.827 -2.2934 1.13301 0
M  V30 6578 H 655.471 -4.6684 2.00057 0
M  V30 6579 H 655.401 -5.25625 0.320292 0
M  V30 6580 H 657.892 -3.72588 0.631369 0
M  V30 6581 H 658.205 -7.48993 1.9034 0
M  V30 6582 H 656.55 -6.73761 1.70504 0
M  V30 6583 H 659.741 -4.60038 0.865011 0
M  V30 6584 H 659.914 -6.31687 1.44485 0
M  V30 6585 N 653.32 -0.135238 -1.57019 0
M  V30 6586 C 654.569 0.518694 -1.94917 0
M  V30 6587 C 654.882 1.66783 -1.0219 0
M  V30 6588 O 656.088 2.38561 -1.29619 0
M  V30 6589 C 654.544 0.974123 -3.46466 0
M  V30 6590 C 654.152 -0.147439 -4.47757 0
M  V30 6591 C 655.896 1.59851 -3.93253 0
M  V30 6592 C 653.803 0.325599 -5.90503 0
M  V30 6593 H 652.733 0.19754 -0.727663 0
M  V30 6594 H 655.384 -0.217698 -1.82204 0
M  V30 6595 H 653.766 1.76542 -3.5447 0
M  V30 6596 H 654.94 -0.924122 -4.51438 0
M  V30 6597 H 653.255 -0.679496 -4.10818 0
M  V30 6598 H 655.852 1.96385 -4.9733 0
M  V30 6599 H 656.195 2.48306 -3.3414 0
M  V30 6600 H 656.728 0.872323 -3.88118 0
M  V30 6601 H 653.467 -0.523295 -6.53408 0
M  V30 6602 H 652.987 1.06841 -5.90208 0
M  V30 6603 H 654.666 0.781498 -6.42263 0
M  V30 6604 N 654.798 1.5699 0.138552 0
M  V30 6605 C 656.214 1.51844 0.491472 0
M  V30 6606 C 656.414 0.845063 1.82923 0
M  V30 6607 O 655.47 0.419143 2.48997 0
M  V30 6608 C 656.783 2.96615 0.493987 0
M  V30 6609 C 658.331 3.076 0.578913 0
M  V30 6610 C 658.806 4.53893 0.612009 0
M  V30 6611 N 660.297 4.5827 0.673997 0
M  V30 6612 C 661.032 5.68852 0.720729 0
M  V30 6613 N 660.528 6.88982 0.726292 0
M  V30 6614 N 662.321 5.56908 0.762253 0
M  V30 6615 H 654.472 1.99158 -0.738228 0
M  V30 6616 H 656.735 0.908693 -0.270149 0
M  V30 6617 H 656.441 3.49172 -0.420933 0
M  V30 6618 H 656.315 3.53017 1.32887 0
M  V30 6619 H 658.702 2.55057 1.48425 0
M  V30 6620 H 658.783 2.54227 -0.283286 0
M  V30 6621 H 658.427 5.07076 -0.289208 0
M  V30 6622 H 658.357 5.05057 1.49082 0
M  V30 6623 H 660.848 3.71793 0.676654 0
M  V30 6624 H 661.161 7.69014 0.764032 0
M  V30 6625 H 659.506 6.91526 0.69403 0
M  V30 6626 H 662.697 4.61969 0.755135 0
M  V30 6627 H 662.87 6.43102 0.795207 0
M  V30 6628 N 656.276 -0.40816 1.52223 0
M  V30 6629 C 657.692 -0.74685 1.41047 0
M  V30 6630 C 657.892 -1.94788 0.51573 0
M  V30 6631 O 656.948 -2.52494 -0.0181156 0
M  V30 6632 C 658.261 -0.999878 2.83589 0
M  V30 6633 C 659.809 -1.10253 2.92939 0
M  V30 6634 C 660.284 -1.38832 4.36451 0
M  V30 6635 N 661.775 -1.45694 4.3969 0
M  V30 6636 C 662.51 -1.69435 5.47795 0
M  V30 6637 N 662.006 -1.90774 6.66016 0
M  V30 6638 N 663.799 -1.71458 5.35312 0
M  V30 6639 H 655.95 0.382409 2.08929 0
M  V30 6640 H 658.213 0.108807 0.941735 0
M  V30 6641 H 657.919 -0.189723 3.51188 0
M  V30 6642 H 657.793 -1.91978 3.24691 0
M  V30 6643 H 660.18 -1.90328 2.2552 0
M  V30 6644 H 660.261 -0.160973 2.55293 0
M  V30 6645 H 659.905 -0.592741 5.04429 0
M  V30 6646 H 659.835 -2.34241 4.71634 0
M  V30 6647 H 662.326 -1.3099 3.54472 0
M  V30 6648 H 662.639 -2.08342 7.44186 0
M  V30 6649 H 660.984 -1.88037 6.69079 0
M  V30 6650 H 664.175 -1.54326 4.41929 0
M  V30 6651 H 664.348 -1.89621 6.19635 0
M  V30 6652 N 657.755 -1.42862 -0.66545 0
M  V30 6653 C 659.171 -1.25993 -0.979687 0
M  V30 6654 C 659.371 -0.170831 -2.00775 0
M  V30 6655 O 658.427 0.454827 -2.4837 0
M  V30 6656 C 659.74 -2.62005 -1.47559 0
M  V30 6657 C 661.288 -2.69437 -1.59288 0
M  V30 6658 C 661.763 -4.05838 -2.12272 0
M  V30 6659 N 663.254 -4.0784 -2.19592 0
M  V30 6660 C 663.989 -5.10205 -2.61684 0
M  V30 6661 N 663.485 -6.22949 -3.03161 0
M  V30 6662 N 665.278 -4.9756 -2.61516 0
M  V30 6663 H 657.429 -2.12395 0.0150493 0
M  V30 6664 H 659.692 -0.946355 -0.0558187 0
M  V30 6665 H 659.398 -3.42605 -0.794654 0
M  V30 6666 H 659.272 -2.86566 -2.45275 0
M  V30 6667 H 661.659 -1.89178 -2.26486 0
M  V30 6668 H 661.74 -2.48655 -0.600374 0
M  V30 6669 H 661.384 -4.86559 -1.4568 0
M  V30 6670 H 661.314 -4.23977 -3.12331 0
M  V30 6671 H 663.805 -3.26452 -1.90361 0
M  V30 6672 H 664.118 -6.96899 -3.33993 0
M  V30 6673 H 662.463 -6.2644 -3.00995 0
M  V30 6674 H 665.654 -4.08551 -2.28481 0
M  V30 6675 H 665.827 -5.77468 -2.93999 0
M  V30 6676 N 659.233 0.902656 -1.29189 0
M  V30 6677 C 660.649 1.18296 -1.07137 0
M  V30 6678 C 660.849 2.00701 0.179223 0
M  V30 6679 O 659.905 2.3675 0.877812 0
M  V30 6680 C 661.218 1.90677 -2.32514 0
M  V30 6681 C 662.766 2.03515 -2.37804 0
M  V30 6682 C 663.241 2.79307 -3.62976 0
M  V30 6683 N 664.732 2.86862 -3.63681 0
M  V30 6684 C 665.467 3.46035 -4.57217 0
M  V30 6685 N 664.963 4.06399 -5.61081 0
M  V30 6686 N 666.756 3.43681 -4.44792 0
M  V30 6687 H 658.907 0.352765 -2.0945 0
M  V30 6688 H 661.17 0.21876 -0.922414 0
M  V30 6689 H 660.876 1.3756 -3.23682 0
M  V30 6690 H 660.75 2.91169 -2.39793 0
M  V30 6691 H 663.137 2.55809 -1.47125 0
M  V30 6692 H 663.218 1.02166 -2.34512 0
M  V30 6693 H 662.862 2.2769 -4.54004 0
M  V30 6694 H 662.792 3.80995 -3.63525 0
M  V30 6695 H 665.283 2.43987 -2.88581 0
M  V30 6696 H 665.596 4.49564 -6.2858 0
M  V30 6697 H 663.941 4.0487 -5.64894 0
M  V30 6698 H 667.132 2.9574 -3.62843 0
M  V30 6699 H 667.305 3.89503 -5.17872 0
M  V30 6700 N 660.711 1.11618 1.11262 0
M  V30 6701 C 661.674 0.779447 2.15539 0
M  V30 6702 C 662.674 -0.202081 1.59525 0
M  V30 6703 O 663.864 0.0226356 1.74185 0
M  V30 6704 C 660.996 0.15674 3.40539 0
M  V30 6705 H 662.189 1.70324 2.4684 0
M  V30 6706 H 659.742 0.918298 1.26479 0
M  V30 6707 H 660.477 -0.777186 3.1485 0
M  V30 6708 H 660.262 0.863308 3.82478 0
M  V30 6709 H 661.752 -0.062661 4.17553 0
M  V30 6710 N 662.189 -1.289 0.906776 0
M  V30 6711 C 663.417 -1.99401 0.551969 0
M  V30 6712 C 663.832 -1.67816 -0.865048 0
M  V30 6713 O 663.189 -0.927078 -1.57199 0
M  V30 6714 C 663.24 -3.53779 0.743152 0
M  V30 6715 O 662.961 -3.84248 2.1044 0
M  V30 6716 C 664.462 -4.41543 0.39424 0
M  V30 6717 H 661.682 -0.636926 0.211106 0
M  V30 6718 H 664.226 -1.64266 1.21807 0
M  V30 6719 H 662.381 -3.87201 0.124143 0
M  V30 6720 H 662.795 -4.78904 2.13895 0
M  V30 6721 H 664.269 -5.48957 0.578814 0
M  V30 6722 H 664.746 -4.34073 -0.669137 0
M  V30 6723 H 665.352 -4.13605 0.990491 0
M  V30 6724 N 663.667 -0.670007 -1.42649 0
M  V30 6725 C 664.944 -0.119451 -1.95235 0
M  V30 6726 C 665.324 1.36461 -1.61064 0
M  V30 6727 O 664.672 2.09843 -0.904329 0
M  V30 6728 C 664.882 -0.383498 -3.46887 0
M  V30 6729 C 666.23 -0.297431 -4.23557 0
M  V30 6730 O 667.254 -0.31698 -3.54787 0
M  V30 6731 O 666.113 -0.235507 -5.45992 0
M  V30 6732 H 663.207 -8.85474e-05 -0.827 0
M  V30 6733 H 665.753 -0.744406 -1.52501 0
M  V30 6734 H 664.525 -1.41174 -3.64946 0
M  V30 6735 H 664.148 0.273702 -3.96657 0
M  V30 6736 N 665.145 1.52092 -0.413018 0
M  V30 6737 C 666.393 2.01456 0.161178 0
M  V30 6738 C 666.714 1.30034 1.45314 0
M  V30 6739 O 665.984 0.427435 1.9118 0
M  V30 6740 H 664.564 0.744376 0.0625526 0
M  V30 6741 H 667.226 1.86974 -0.550151 0
M  V30 6742 H 666.322 3.1008 0.354517 0
M  V30 6743 N 666.623 0.143563 1.56945 0
M  V30 6744 C 667.553 -0.7936 2.196 0
M  V30 6745 C 668.534 -1.25955 1.14321 0
M  V30 6746 O 669.719 -1.31773 1.42651 0
M  V30 6747 C 666.849 -2.03424 2.81489 0
M  V30 6748 C 665.803 -1.70519 3.92565 0
M  V30 6749 C 665.129 -3.01817 4.41373 0
M  V30 6750 C 666.429 -0.95449 5.13504 0
M  V30 6751 H 668.123 -0.271423 2.98167 0
M  V30 6752 H 665.669 -0.12911 1.4342 0
M  V30 6753 H 667.622 -2.69463 3.23987 0
M  V30 6754 H 666.346 -2.58008 2.00248 0
M  V30 6755 H 665.005 -1.06859 3.5068 0
M  V30 6756 H 664.653 -3.54386 3.56959 0
M  V30 6757 H 664.353 -2.80565 5.16292 0
M  V30 6758 H 665.877 -3.68934 4.86539 0
M  V30 6759 H 667.291 -1.5169 5.52868 0
M  V30 6760 H 665.688 -0.842035 5.94163 0
M  V30 6761 H 666.758 0.0544033 4.84869 0
M  V30 6762 N 668.101 -1.57061 -0.130224 0
M  V30 6763 C 669.031 -2.02552 -1.16168 0
M  V30 6764 C 670.012 -0.907971 -1.4384 0
M  V30 6765 O 671.197 -1.17693 -1.54473 0
M  V30 6766 C 668.327 -2.42035 -2.49071 0
M  V30 6767 C 667.281 -3.5713 -2.35886 0
M  V30 6768 C 666.607 -3.82478 -3.7365 0
M  V30 6769 C 667.907 -4.89236 -1.8288 0
M  V30 6770 H 669.601 -2.8897 -0.783359 0
M  V30 6771 H 667.147 -1.39021 -0.375376 0
M  V30 6772 H 669.1 -2.72462 -3.21469 0
M  V30 6773 H 667.824 -1.52573 -2.88771 0
M  V30 6774 H 666.483 -3.26895 -1.65938 0
M  V30 6775 H 666.131 -2.9024 -4.10816 0
M  V30 6776 H 665.831 -4.59944 -3.65685 0
M  V30 6777 H 667.355 -4.15347 -4.47571 0
M  V30 6778 H 668.769 -5.18272 -2.45085 0
M  V30 6779 H 667.166 -5.70624 -1.85763 0
M  V30 6780 H 668.236 -4.78494 -0.785571 0
M  V30 6781 N 669.579 0.400081 -1.52437 0
M  V30 6782 C 670.542 1.4707 -1.75793 0
M  V30 6783 C 671.542 1.48036 -0.627856 0
M  V30 6784 O 672.732 1.49401 -0.895817 0
M  V30 6785 C 669.864 2.86427 -1.84858 0
M  V30 6786 H 671.057 1.27649 -2.71377 0
M  V30 6787 H 668.61 0.631141 -1.42991 0
M  V30 6788 H 669.345 3.11207 -0.912194 0
M  V30 6789 H 669.13 2.87128 -2.6702 0
M  V30 6790 H 670.62 3.64023 -2.04638 0
M  V30 6791 N 671.057 1.43213 0.657864 0
M  V30 6792 C 672.468 1.39669 1.23893 0
M  V30 6793 C 672.819 0.0984217 1.95953 0
M  V30 6794 O 671.944 -0.8023 2.00978 0
M  V30 6795 C 672.539 2.53004 2.25332 0
M  V30 6796 C 671.098 2.5274 2.78926 0
M  V30 6797 C 670.245 2.30941 1.53497 0
M  V30 6798 H 673.196 1.52181 0.450172 0
M  V30 6799 H 673.217 2.24226 3.07413 0
M  V30 6800 H 672.729 3.4748 1.72856 0
M  V30 6801 H 670.83 1.6213 3.35477 0
M  V30 6802 H 670.943 3.50352 3.26787 0
M  V30 6803 H 669.307 1.7952 1.80678 0
M  V30 6804 H 670.09 3.27496 1.02963 0
M  V30 6805 N 672.536 -0.895792 1.29666 0
M  V30 6806 C 673.466 -2.01673 1.17688 0
M  V30 6807 C 674.447 -1.69955 0.0701317 0
M  V30 6808 O 675.632 -1.9258 0.250289 0
M  V30 6809 C 672.762 -3.36568 0.856681 0
M  V30 6810 C 671.716 -3.82509 1.92017 0
M  V30 6811 C 671.042 -5.14574 1.4532 0
M  V30 6812 C 672.342 -4.02409 3.32963 0
M  V30 6813 H 674.036 -2.11953 2.11463 0
M  V30 6814 H 671.582 -1.01839 1.01807 0
M  V30 6815 H 673.535 -4.14498 0.759577 0
M  V30 6816 H 672.259 -3.26391 -0.116763 0
M  V30 6817 H 670.918 -3.068 2.00673 0
M  V30 6818 H 670.566 -5.00815 0.468325 0
M  V30 6819 H 670.266 -5.46283 2.16447 0
M  V30 6820 H 671.79 -5.9504 1.36968 0
M  V30 6821 H 673.204 -4.70808 3.27127 0
M  V30 6822 H 671.601 -4.45478 4.02082 0
M  V30 6823 H 672.671 -3.06616 3.75652 0
M  V30 6824 N 674.014 -1.12206 -1.10668 0
M  V30 6825 C 674.977 -0.790867 -2.15123 0
M  V30 6826 C 675.977 0.193618 -1.5963 0
M  V30 6827 O 677.167 -0.0318728 -1.74171 0
M  V30 6828 C 674.299 -0.174797 -3.40452 0
M  V30 6829 H 675.492 -1.7163 -2.45933 0
M  V30 6830 H 673.045 -0.924993 -1.2599 0
M  V30 6831 H 673.78 0.760478 -3.15257 0
M  V30 6832 H 673.565 -0.88358 -3.82015 0
M  V30 6833 H 675.055 0.0405162 -4.1758 0
M  V30 6834 N 675.492 1.28418 -0.913599 0
M  V30 6835 C 676.738 1.9527 -0.547484 0
M  V30 6836 C 677.071 1.71745 0.906486 0
M  V30 6837 O 676.346 1.03834 1.64465 0
M  V30 6838 C 676.629 3.49748 -0.857205 0
M  V30 6839 C 676.482 3.82675 -2.3639 0
M  V30 6840 C 677.801 4.3868 -0.353258 0
M  V30 6841 H 674.92 0.709236 -0.200381 0
M  V30 6842 H 677.562 1.51789 -1.14281 0
M  V30 6843 H 675.712 3.86915 -0.350548 0
M  V30 6844 H 677.384 3.55378 -2.94116 0
M  V30 6845 H 675.627 3.29724 -2.81894 0
M  V30 6846 H 676.298 4.90547 -2.53115 0
M  V30 6847 H 678.774 4.08584 -0.787288 0
M  V30 6848 H 677.65 5.45621 -0.599049 0
M  V30 6849 H 677.911 4.35753 0.746413 0
M  V30 6850 N 676.97 0.677563 1.42291 0
M  V30 6851 C 677.9 0.014968 2.33495 0
M  V30 6852 C 678.881 -0.786376 1.50831 0
M  V30 6853 O 680.066 -0.742975 1.79426 0
M  V30 6854 C 677.196 -0.935023 3.34477 0
M  V30 6855 C 676.15 -0.242074 4.27315 0
M  V30 6856 C 675.476 -1.30519 5.18526 0
M  V30 6857 C 676.776 0.880604 5.14823 0
M  V30 6858 H 678.47 0.776671 2.89151 0
M  V30 6859 H 676.016 0.37494 1.39033 0
M  V30 6860 H 677.969 -1.40766 3.97194 0
M  V30 6861 H 676.693 -1.72818 2.77131 0
M  V30 6862 H 675.352 0.210351 3.65996 0
M  V30 6863 H 675 -2.09041 4.57505 0
M  V30 6864 H 674.7 -0.846652 5.81468 0
M  V30 6865 H 676.224 -1.7787 5.84119 0
M  V30 6866 H 677.638 0.489062 5.7121 0
M  V30 6867 H 676.035 1.26511 5.86613 0
M  V30 6868 H 677.105 1.72818 4.53059 0
M  V30 6869 N 678.448 -1.51871 0.421078 0
M  V30 6870 C 679.411 -2.25914 -0.386712 0
M  V30 6871 C 680.411 -1.28733 -0.963555 0
M  V30 6872 O 681.601 -1.52579 -0.840556 0
M  V30 6873 C 678.733 -3.03853 -1.54551 0
M  V30 6874 H 679.926 -2.98754 0.261978 0
M  V30 6875 H 677.479 -1.5533 0.173862 0
M  V30 6876 H 678.214 -2.35392 -2.23072 0
M  V30 6877 H 677.999 -3.75215 -1.13824 0
M  V30 6878 H 679.489 -3.59984 -2.11663 0
M  V30 6879 N 679.926 -0.151884 -1.56866 0
M  V30 6880 C 680.889 0.771861 -2.15812 0
M  V30 6881 C 681.889 1.17181 -1.10115 0
M  V30 6882 O 683.079 1.09194 -1.35729 0
M  V30 6883 C 680.211 2.04806 -2.7252 0
M  V30 6884 H 681.404 0.259021 -2.98779 0
M  V30 6885 H 678.957 0.097588 -1.55995 0
M  V30 6886 H 679.692 2.60445 -1.93233 0
M  V30 6887 H 679.477 1.77044 -3.49854 0
M  V30 6888 H 680.967 2.70771 -3.1792 0
M  V30 6889 N 681.404 1.57128 0.121893 0
M  V30 6890 C 682.367 1.99197 1.13372 0
M  V30 6891 C 683.367 0.881728 1.3447 0
M  V30 6892 O 684.557 1.14783 1.31036 0
M  V30 6893 C 681.689 2.32963 2.4888 0
M  V30 6894 H 682.882 2.89788 0.772204 0
M  V30 6895 H 680.435 1.51952 0.366093 0
M  V30 6896 H 681.17 1.45243 2.89957 0
M  V30 6897 H 680.955 3.13934 2.34921 0
M  V30 6898 H 682.445 2.66261 3.21706 0
M  V30 6899 N 682.882 -0.391992 1.52647 0
M  V30 6900 C 683.812 -1.48517 1.8018 0
M  V30 6901 C 684.793 -1.57039 0.653667 0
M  V30 6902 O 685.978 -1.72036 0.900962 0
M  V30 6903 C 683.108 -2.86161 1.96797 0
M  V30 6904 C 682.062 -2.92481 3.12472 0
M  V30 6905 C 681.388 -4.32546 3.14338 0
M  V30 6906 C 682.688 -2.624 4.51601 0
M  V30 6907 H 684.382 -1.25726 2.71723 0
M  V30 6908 H 681.928 -0.603387 1.30749 0
M  V30 6909 H 683.881 -3.62639 2.14641 0
M  V30 6910 H 682.605 -3.10283 1.01941 0
M  V30 6911 H 681.264 -2.18451 2.94406 0
M  V30 6912 H 680.912 -4.53703 2.1717 0
M  V30 6913 H 680.612 -4.37695 3.92042 0
M  V30 6914 H 682.136 -5.10934 3.34333 0
M  V30 6915 H 683.55 -3.28596 4.69785 0
M  V30 6916 H 681.947 -2.78903 5.3135 0
M  V30 6917 H 683.017 -1.57754 4.58521 0
M  V30 6918 N 684.36 -1.4356 -0.65026 0
M  V30 6919 C 685.585 -1.48995 -1.44275 0
M  V30 6920 C 686.01 -0.109954 -1.87778 0
M  V30 6921 O 685.368 0.896926 -1.57559 0
M  V30 6922 C 685.416 -2.44341 -2.65198 0
M  V30 6923 O 684.52 -1.93172 -3.6436 0
M  V30 6924 H 683.861 -0.503852 -0.432469 0
M  V30 6925 H 686.391 -1.88504 -0.795446 0
M  V30 6926 H 686.401 -2.61743 -3.12977 0
M  V30 6927 H 685.076 -3.44588 -2.32877 0
M  V30 6928 H 683.653 -1.85445 -3.23519 0
M  V30 6929 N 685.838 0.888903 -1.30139 0
M  V30 6930 C 686.768 2.01046 -1.18755 0
M  V30 6931 C 687.749 1.69916 -0.0791438 0
M  V30 6932 O 688.934 1.92445 -0.260498 0
M  V30 6933 C 686.064 3.36109 -0.874518 0
M  V30 6934 C 685.018 3.81486 -1.94043 0
M  V30 6935 C 684.344 5.13796 -1.48047 0
M  V30 6936 C 685.644 4.00637 -3.35093 0
M  V30 6937 H 687.338 2.10828 -2.12584 0
M  V30 6938 H 684.884 1.01298 -1.02346 0
M  V30 6939 H 686.837 4.14089 -0.781548 0
M  V30 6940 H 685.561 3.26449 0.0994519 0
M  V30 6941 H 684.22 3.05731 -2.02297 0
M  V30 6942 H 683.868 5.0056 -0.494878 0
M  V30 6943 H 683.568 5.45127 -2.19341 0
M  V30 6944 H 685.092 5.94305 -1.40121 0
M  V30 6945 H 686.506 4.69067 -3.2962 0
M  V30 6946 H 684.903 4.43339 -4.04438 0
M  V30 6947 H 685.973 3.0462 -3.77273 0
M  V30 6948 N 687.317 1.12792 1.10072 0
M  V30 6949 C 688.566 0.880232 1.81479 0
M  V30 6950 C 688.879 -0.595575 1.86312 0
M  V30 6951 O 690.085 -0.959979 2.53962 0
M  V30 6952 C 688.541 1.52514 3.25987 0
M  V30 6953 C 688.149 3.036 3.29441 0
M  V30 6954 C 689.893 1.35788 4.02196 0
M  V30 6955 C 687.8 3.61007 4.68431 0
M  V30 6956 H 686.73 0.325654 0.680048 0
M  V30 6957 H 689.381 1.35485 1.23758 0
M  V30 6958 H 687.763 0.978188 3.83728 0
M  V30 6959 H 688.937 3.64819 2.81502 0
M  V30 6960 H 687.252 3.19765 2.66719 0
M  V30 6961 H 689.849 1.76096 5.0487 0
M  V30 6962 H 690.192 0.301972 4.15203 0
M  V30 6963 H 690.725 1.87426 3.50879 0
M  V30 6964 H 687.464 4.66375 4.60625 0
M  V30 6965 H 686.984 3.04564 5.16721 0
M  V30 6966 H 688.663 3.60289 5.37402 0
M  V30 6967 N 688.795 -1.27931 0.920396 0
M  V30 6968 C 690.023 -1.98805 0.573087 0
M  V30 6969 C 690.438 -1.68724 -0.847201 0
M  V30 6970 O 689.795 -0.943699 -1.56207 0
M  V30 6971 C 689.846 -3.52971 0.780633 0
M  V30 6972 O 689.567 -3.81994 2.14504 0
M  V30 6973 C 691.068 -4.411 0.44105 0
M  V30 6974 H 688.288 -0.634651 0.21785 0
M  V30 6975 H 690.832 -1.62965 1.23542 0
M  V30 6976 H 688.987 -3.87048 0.165204 0
M  V30 6977 H 689.401 -4.76609 2.18962 0
M  V30 6978 H 690.875 -5.48312 0.637006 0
M  V30 6979 H 691.352 -4.34758 -0.62306 0
M  V30 6980 H 691.958 -4.12532 1.0343 0
M  V30 6981 N 690.273 -0.685099 -1.4193 0
M  V30 6982 C 691.519 -0.211971 -2.01689 0
M  V30 6983 C 691.852 1.18189 -1.54094 0
M  V30 6984 O 691.127 1.79559 -0.747572 0
M  V30 6985 C 691.41 -0.258019 -3.59174 0
M  V30 6986 C 691.263 -1.68807 -4.16922 0
M  V30 6987 C 692.582 0.388044 -4.38386 0
M  V30 6988 H 689.701 -0.0784987 -0.732808 0
M  V30 6989 H 692.343 -0.871837 -1.68816 0
M  V30 6990 H 690.493 0.303832 -3.8731 0
M  V30 6991 H 692.165 -2.30296 -3.99702 0
M  V30 6992 H 690.408 -2.22553 -3.72361 0
M  V30 6993 H 691.079 -1.6719 -5.26072 0
M  V30 6994 H 693.555 -0.0903432 -4.16002 0
M  V30 6995 H 692.431 0.325232 -5.47936 0
M  V30 6996 H 692.692 1.4672 -4.17044 0
M  V30 6997 N 691.751 1.51645 -0.429126 0
M  V30 6998 C 692.997 2.02314 0.140286 0
M  V30 6999 C 693.33 1.31314 1.43074 0
M  V30 7000 O 692.605 0.425531 1.89788 0
M  V30 7001 C 692.888 3.5822 0.36749 0
M  V30 7002 C 692.741 4.39846 -0.941039 0
M  V30 7003 C 694.06 4.25055 1.14089 0
M  V30 7004 H 691.179 0.735335 0.0495112 0
M  V30 7005 H 693.821 1.81358 -0.566514 0
M  V30 7006 H 691.971 3.76207 0.969556 0
M  V30 7007 H 693.643 4.33527 -1.57646 0
M  V30 7008 H 691.886 4.05259 -1.54751 0
M  V30 7009 H 692.557 5.47069 -0.73621 0
M  V30 7010 H 695.033 4.11288 0.630986 0
M  V30 7011 H 693.909 5.34038 1.26863 0
M  V30 7012 H 694.17 3.85358 2.16683 0
M  V30 7013 N 693.229 0.160201 1.56784 0
M  V30 7014 C 694.475 -0.48831 1.96833 0
M  V30 7015 C 694.808 -1.63641 1.04571 0
M  V30 7016 O 694.083 -1.94289 0.0906481 0
M  V30 7017 C 694.366 -0.981908 3.46454 0
M  V30 7018 C 694.219 0.165607 4.49495 0
M  V30 7019 C 695.538 -1.85931 3.98896 0
M  V30 7020 H 692.657 -0.176027 0.71567 0
M  V30 7021 H 695.299 0.244093 1.88426 0
M  V30 7022 H 693.449 -1.60602 3.5375 0
M  V30 7023 H 695.121 0.802372 4.54268 0
M  V30 7024 H 693.364 0.822789 4.25926 0
M  V30 7025 H 694.035 -0.221699 5.51555 0
M  V30 7026 H 696.511 -1.33327 3.94161 0
M  V30 7027 H 695.387 -2.17373 5.04024 0
M  V30 7028 H 695.648 -2.80106 3.42042 0
M  V30 7029 N 694.707 -1.5719 -0.113559 0
M  V30 7030 C 695.954 -1.85138 -0.820382 0
M  V30 7031 C 696.282 -0.74608 -1.79622 0
M  V30 7032 O 695.537 0.262077 -1.93937 0
M  V30 7033 C 695.836 -3.19593 -1.59984 0
M  V30 7034 C 695.502 -4.44315 -0.767809 0
M  V30 7035 C 694.164 -4.78179 -0.538379 0
M  V30 7036 C 696.516 -5.2086 -0.188203 0
M  V30 7037 C 693.844 -5.86028 0.28082 0
M  V30 7038 C 696.196 -6.29572 0.618217 0
M  V30 7039 C 694.86 -6.61964 0.857912 0
M  V30 7040 H 694.13 -0.677467 -0.300199 0
M  V30 7041 H 696.777 -1.91322 -0.0825443 0
M  V30 7042 H 695.082 -3.0901 -2.40874 0
M  V30 7043 H 696.779 -3.3844 -2.1508 0
M  V30 7044 H 693.369 -4.17786 -0.956724 0
M  V30 7045 H 697.553 -4.95045 -0.352658 0
M  V30 7046 H 692.809 -6.09547 0.475693 0
M  V30 7047 H 696.983 -6.88064 1.0743 0
M  V30 7048 H 694.61 -7.45365 1.49451 0
M  V30 7049 N 696.185 0.383891 -1.52853 0
M  V30 7050 C 697.601 0.724316 -1.42218 0
M  V30 7051 C 697.801 1.93943 -0.546654 0
M  V30 7052 O 696.857 2.5249 -0.0220562 0
M  V30 7053 C 698.17 0.954635 -2.85144 0
M  V30 7054 C 699.718 1.05579 -2.94656 0
M  V30 7055 C 700.193 1.3187 -4.38605 0
M  V30 7056 N 701.684 1.38681 -4.41952 0
M  V30 7057 C 702.419 1.60699 -5.50421 0
M  V30 7058 N 701.915 1.80154 -6.68967 0
M  V30 7059 N 703.708 1.6292 -5.37972 0
M  V30 7060 H 695.859 -0.4156 -2.08294 0
M  V30 7061 H 698.122 -0.123776 -0.939885 0
M  V30 7062 H 697.828 0.133829 -3.51445 0
M  V30 7063 H 697.702 1.86788 -3.27704 0
M  V30 7064 H 700.089 1.86716 -2.2852 0
M  V30 7065 H 700.17 0.120338 -2.55517 0
M  V30 7066 H 699.814 0.512416 -5.05309 0
M  V30 7067 H 699.744 2.26708 -4.75301 0
M  V30 7068 H 702.235 1.25334 -3.56511 0
M  V30 7069 H 702.548 1.96476 -7.47407 0
M  V30 7070 H 700.893 1.77368 -6.71986 0
M  V30 7071 H 704.084 1.47276 -4.44328 0
M  V30 7072 H 704.257 1.79739 -6.22574 0
M  V30 7073 N 697.663 1.43903 0.642637 0
M  V30 7074 C 698.94 1.36556 1.40043 0
M  V30 7075 C 699.32 0.0185588 2.11092 0
M  V30 7076 O 698.668 -0.998438 2.05532 0
M  V30 7077 C 698.878 2.55596 2.37638 0
M  V30 7078 C 700.226 2.99153 3.01318 0
M  V30 7079 O 701.25 2.55719 2.47965 0
M  V30 7080 O 700.109 3.74427 3.98078 0
M  V30 7081 H 697.203 0.540189 0.626198 0
M  V30 7082 H 699.749 1.55971 0.668657 0
M  V30 7083 H 698.521 3.45256 1.84158 0
M  V30 7084 H 698.144 2.38334 3.18249 0
M  V30 7085 N 699.141 -0.881989 1.30609 0
M  V30 7086 C 700.073 -1.99375 1.13058 0
M  V30 7087 C 701.086 -1.62636 0.0729879 0
M  V30 7088 O 702.275 -1.75621 0.319301 0
M  V30 7089 C 699.375 -3.31536 0.702651 0
M  V30 7090 C 698.548 -3.96693 1.84265 0
M  V30 7091 C 697.607 -5.07158 1.40277 0
M  V30 7092 O 696.633 -5.28628 2.11048 0
M  V30 7093 N 697.835 -5.79808 0.283449 0
M  V30 7094 H 700.6 -2.14981 2.08814 0
M  V30 7095 H 698.161 -1.05526 1.22784 0
M  V30 7096 H 700.153 -4.02804 0.391331 0
M  V30 7097 H 698.723 -3.12175 -0.162954 0
M  V30 7098 H 697.943 -3.1856 2.32192 0
M  V30 7099 H 699.231 -4.36964 2.60653 0
M  V30 7100 H 698.629 -5.64871 -0.306189 0
M  V30 7101 H 697.186 -6.51792 0.0315985 0
M  V30 7102 N 700.619 -1.13374 -1.09472 0
M  V30 7103 C 701.847 -0.918351 -1.85402 0
M  V30 7104 C 702.262 0.53281 -1.81126 0
M  V30 7105 O 701.619 1.36879 -1.20708 0
M  V30 7106 C 701.67 -1.39743 -3.33398 0
M  V30 7107 O 701.391 -2.79172 -3.37631 0
M  V30 7108 C 702.892 -1.22042 -4.2617 0
M  V30 7109 H 700.112 -0.327511 -0.585643 0
M  V30 7110 H 702.656 -1.50617 -1.38328 0
M  V30 7111 H 700.811 -0.852619 -3.77901 0
M  V30 7112 H 701.225 -3.00428 -4.29934 0
M  V30 7113 H 702.699 -1.60438 -5.2817 0
M  V30 7114 H 703.176 -0.162047 -4.38901 0
M  V30 7115 H 703.782 -1.75323 -3.87482 0
M  V30 7116 N 702.098 1.27442 -0.927168 0
M  V30 7117 C 703.028 2.29256 -0.443188 0
M  V30 7118 C 704.009 1.62701 0.49624 0
M  V30 7119 O 705.194 1.90013 0.401105 0
M  V30 7120 C 702.324 3.45955 0.305366 0
M  V30 7121 C 701.278 4.24501 -0.546178 0
M  V30 7122 C 700.604 5.33671 0.331512 0
M  V30 7123 C 701.904 4.89921 -1.81037 0
M  V30 7124 H 703.598 2.69988 -1.29409 0
M  V30 7125 H 701.144 1.29792 -0.623705 0
M  V30 7126 H 703.097 4.1628 0.654885 0
M  V30 7127 H 701.821 3.04138 1.19029 0
M  V30 7128 H 700.48 3.55921 -0.878398 0
M  V30 7129 H 700.128 4.88096 1.21537 0
M  V30 7130 H 699.828 5.87131 -0.234746 0
M  V30 7131 H 701.352 6.0684 0.676614 0
M  V30 7132 H 702.766 5.52536 -1.52895 0
M  V30 7133 H 701.163 5.53436 -2.32009 0
M  V30 7134 H 702.233 4.13652 -2.53021 0
M  V30 7135 N 703.576 0.692616 1.41565 0
M  V30 7136 C 704.539 0.0344174 2.29174 0
M  V30 7137 C 705.539 -0.710961 1.44229 0
M  V30 7138 O 706.729 -0.546293 1.65412 0
M  V30 7139 C 703.861 -0.961682 3.27054 0
M  V30 7140 H 705.054 0.805755 2.88873 0
M  V30 7141 H 702.607 0.455947 1.49502 0
M  V30 7142 H 703.342 -1.76089 2.72329 0
M  V30 7143 H 703.127 -0.430375 3.89731 0
M  V30 7144 H 704.617 -1.4201 3.92712 0
M  V30 7145 N 705.054 -1.51416 0.437162 0
M  V30 7146 C 706.282 -2.06503 -0.128045 0
M  V30 7147 C 706.697 -1.30461 -1.36475 0
M  V30 7148 O 706.054 -0.364127 -1.78831 0
M  V30 7149 C 706.105 -3.58683 -0.450437 0
M  V30 7150 O 705.826 -4.31853 0.737186 0
M  V30 7151 C 707.327 -4.30284 -1.06633 0
M  V30 7152 H 704.547 -0.670952 -0.00800269 0
M  V30 7153 H 707.091 -1.94996 0.616193 0
M  V30 7154 H 705.246 -3.70106 -1.14457 0
M  V30 7155 H 705.66 -5.22467 0.461347 0
M  V30 7156 H 707.134 -5.37848 -1.24191 0
M  V30 7157 H 707.611 -3.88564 -2.0473 0
M  V30 7158 H 708.217 -4.23304 -0.411585 0
M  V30 7159 N 706.532 -0.168513 -1.56696 0
M  V30 7160 C 707.778 0.477865 -1.9709 0
M  V30 7161 C 708.111 1.63084 -1.05438 0
M  V30 7162 O 707.386 1.94238 -0.10095 0
M  V30 7163 C 707.669 0.963521 -3.4697 0
M  V30 7164 C 707.522 -0.189443 -4.49401 0
M  V30 7165 C 708.841 1.83813 -3.99876 0
M  V30 7166 H 705.96 0.172229 -0.716593 0
M  V30 7167 H 708.602 -0.254083 -1.88293 0
M  V30 7168 H 706.752 1.58724 -3.54597 0
M  V30 7169 H 708.424 -0.826451 -4.53836 0
M  V30 7170 H 706.667 -0.845366 -4.25483 0
M  V30 7171 H 707.338 0.192446 -5.51664 0
M  V30 7172 H 709.814 1.31235 -3.94863 0
M  V30 7173 H 708.69 2.14697 -5.0517 0
M  V30 7174 H 708.951 2.78289 -3.43523 0
M  V30 7175 N 708.01 1.57248 0.105221 0
M  V30 7176 C 708.973 2.00388 1.11252 0
M  V30 7177 C 709.973 0.89594 1.33527 0
M  V30 7178 O 711.163 1.16166 1.29811 0
M  V30 7179 C 708.295 2.35589 2.46395 0
M  V30 7180 H 709.488 2.90591 0.741424 0
M  V30 7181 H 707.041 1.52332 0.349956 0
M  V30 7182 H 707.776 1.4831 2.884 0
M  V30 7183 H 707.561 3.16408 2.31578 0
M  V30 7184 H 709.051 2.69658 3.18864 0
M  V30 7185 N 709.488 -0.375779 1.53054 0
M  V30 7186 C 710.398 -1.48381 1.81715 0
M  V30 7187 C 711.414 -1.59087 0.704795 0
M  V30 7188 O 712.59 -1.75174 0.993785 0
M  V30 7189 C 709.655 -2.83767 1.99192 0
M  V30 7190 C 708.716 -2.82673 3.23102 0
M  V30 7191 C 707.949 -4.11601 3.39736 0
M  V30 7192 O 708.172 -5.07243 2.60885 0
M  V30 7193 O 707.106 -4.18034 4.33049 0
M  V30 7194 H 710.932 -1.27089 2.7583 0
M  V30 7195 H 708.517 -0.564902 1.38308 0
M  V30 7196 H 710.399 -3.64004 2.12318 0
M  V30 7197 H 709.074 -3.05057 1.08267 0
M  V30 7198 H 707.981 -2.0117 3.15407 0
M  V30 7199 H 709.314 -2.66335 4.13916 0
M  V30 7200 N 710.966 -1.44241 -0.634997 0
M  V30 7201 C 712.191 -1.50516 -1.42687 0
M  V30 7202 C 712.616 -0.129864 -1.87651 0
M  V30 7203 O 711.974 0.880164 -1.58502 0
M  V30 7204 C 712.022 -2.4714 -2.62591 0
M  V30 7205 O 711.126 -1.97025 -3.62291 0
M  V30 7206 H 710.467 -0.50841 -0.427101 0
M  V30 7207 H 712.997 -1.89337 -0.775408 0
M  V30 7208 H 713.007 -2.65048 -3.10183 0
M  V30 7209 H 711.682 -3.47039 -2.29209 0
M  V30 7210 H 710.259 -1.88866 -3.21534 0
M  V30 7211 N 712.444 0.87505 -1.31075 0
M  V30 7212 C 713.407 1.96333 -1.18263 0
M  V30 7213 C 714.407 1.60416 -0.111106 0
M  V30 7214 O 715.597 1.7044 -0.359987 0
M  V30 7215 C 712.729 3.31036 -0.81414 0
M  V30 7216 H 713.922 2.09125 -2.14958 0
M  V30 7217 H 711.475 1.06271 -1.14614 0
M  V30 7218 H 712.21 3.23944 0.151875 0
M  V30 7219 H 711.995 3.58476 -1.58862 0
M  V30 7220 H 713.485 4.10842 -0.748249 0
M  V30 7221 N 713.922 1.13953 1.08869 0
M  V30 7222 C 715.338 0.878924 1.33218 0
M  V30 7223 C 715.538 -0.482478 1.95638 0
M  V30 7224 O 714.594 -1.22778 2.2064 0
M  V30 7225 C 715.907 2.00798 2.23832 0
M  V30 7226 C 717.455 2.04073 2.37325 0
M  V30 7227 C 717.93 3.16258 3.31278 0
M  V30 7228 N 719.421 3.15805 3.38853 0
M  V30 7229 C 720.156 3.99249 4.11567 0
M  V30 7230 N 719.652 4.92721 4.87029 0
M  V30 7231 N 721.445 3.87327 4.0735 0
M  V30 7232 H 713.596 2.01645 0.66731 0
M  V30 7233 H 715.859 0.878395 0.356547 0
M  V30 7234 H 715.565 2.98986 1.85203 0
M  V30 7235 H 715.439 1.92704 3.24261 0
M  V30 7236 H 717.826 1.06495 2.75214 0
M  V30 7237 H 717.907 2.16239 1.36654 0
M  V30 7238 H 717.551 4.14079 2.9411 0
M  V30 7239 H 717.481 3.0133 4.31866 0
M  V30 7240 H 719.972 2.48102 2.8505 0
M  V30 7241 H 720.285 5.52867 5.39961 0
M  V30 7242 H 718.63 4.96723 4.86098 0
M  V30 7243 H 721.821 3.13627 3.475 0
M  V30 7244 H 721.994 4.52585 4.63757 0
M  V30 7245 N 715.4 -1.26948 0.933913 0
M  V30 7246 C 716.649 -1.93378 0.573409 0
M  V30 7247 C 716.962 -1.74148 -0.890614 0
M  V30 7248 O 718.168 -2.34971 -1.36017 0
M  V30 7249 C 716.624 -3.46449 0.974747 0
M  V30 7250 C 716.232 -3.74425 2.45988 0
M  V30 7251 C 717.976 -4.18924 0.685791 0
M  V30 7252 C 715.883 -5.209 2.8003 0
M  V30 7253 H 714.813 -0.723952 0.210736 0
M  V30 7254 H 717.464 -1.44143 1.13557 0
M  V30 7255 H 715.846 -3.94528 0.341181 0
M  V30 7256 H 717.02 -3.37079 3.14188 0
M  V30 7257 H 715.335 -3.15167 2.72138 0
M  V30 7258 H 717.932 -5.26786 0.916546 0
M  V30 7259 H 718.275 -4.14587 -0.377217 0
M  V30 7260 H 718.808 -3.76687 1.27874 0
M  V30 7261 H 715.547 -5.30332 3.85264 0
M  V30 7262 H 715.067 -5.59369 2.16485 0
M  V30 7263 H 716.746 -5.88837 2.68105 0
M  V30 7264 N 716.879 -0.700114 -1.41195 0
M  V30 7265 C 717.826 -0.0376652 -2.30769 0
M  V30 7266 C 718.796 0.766544 -1.47354 0
M  V30 7267 O 719.981 0.73365 -1.76131 0
M  V30 7268 C 717.121 0.889452 -3.33441 0
M  V30 7269 C 716.234 0.076373 -4.31932 0
M  V30 7270 C 715.369 1.00155 -5.21673 0
M  V30 7271 C 714.408 0.181644 -6.1183 0
M  V30 7272 N 713.545 1.06087 -6.94039 0
M  V30 7273 H 718.385 -0.80726 -2.86858 0
M  V30 7274 H 715.922 -0.409798 -1.41277 0
M  V30 7275 H 717.88 1.44107 -3.91522 0
M  V30 7276 H 716.51 1.6254 -2.78892 0
M  V30 7277 H 715.562 -0.592223 -3.75762 0
M  V30 7278 H 716.874 -0.559076 -4.95657 0
M  V30 7279 H 716.028 1.62223 -5.8461 0
M  V30 7280 H 714.767 1.67085 -4.58186 0
M  V30 7281 H 713.772 -0.452085 -5.47938 0
M  V30 7282 H 714.997 -0.483925 -6.77374 0
M  V30 7283 H 712.943 1.7161 -6.33156 0
M  V30 7284 H 712.86 0.481094 -7.54468 0
M  V30 7285 H 714.128 1.66822 -7.6144 0
M  V30 7286 N 718.357 1.51182 -0.445186 0
M  V30 7287 C 719.587 2.06269 0.116922 0
M  V30 7288 C 719.995 1.31188 1.36332 0
M  V30 7289 O 719.338 0.367067 1.79995 0
M  V30 7290 C 719.4 3.56051 0.496757 0
M  V30 7291 C 719.064 4.52441 -0.64394 0
M  V30 7292 C 720.061 4.97233 -1.5184 0
M  V30 7293 C 717.746 4.95447 -0.826905 0
M  V30 7294 C 719.74 5.83712 -2.56046 0
M  V30 7295 C 717.427 5.81714 -1.87222 0
M  V30 7296 C 718.425 6.25745 -2.73738 0
M  V30 7297 O 718.113 7.10298 -3.76474 0
M  V30 7298 H 717.845 0.675954 0.00785733 0
M  V30 7299 H 720.399 1.95648 -0.625371 0
M  V30 7300 H 718.629 3.64483 1.29187 0
M  V30 7301 H 720.318 3.93618 0.990928 0
M  V30 7302 H 721.084 4.64696 -1.38862 0
M  V30 7303 H 716.963 4.60712 -0.163052 0
M  V30 7304 H 720.507 6.18 -3.23607 0
M  V30 7305 H 716.404 6.13664 -2.00218 0
M  V30 7306 H 717.172 7.28493 -3.73149 0
M  V30 7307 N 719.835 0.176821 1.56605 0
M  V30 7308 C 720.782 -0.751312 2.18229 0
M  V30 7309 C 721.752 -1.22297 1.12395 0
M  V30 7310 O 722.937 -1.29015 1.40569 0
M  V30 7311 C 720.077 -1.97291 2.83143 0
M  V30 7312 C 719.19 -1.54431 4.03454 0
M  V30 7313 C 718.325 -2.72 4.56278 0
M  V30 7314 C 717.364 -2.25657 5.68986 0
M  V30 7315 N 716.501 -3.36338 6.16296 0
M  V30 7316 H 721.341 -0.219033 2.97194 0
M  V30 7317 H 718.878 -0.0963803 1.46784 0
M  V30 7318 H 720.836 -2.68949 3.1894 0
M  V30 7319 H 719.466 -2.4788 2.06773 0
M  V30 7320 H 718.518 -0.724273 3.73441 0
M  V30 7321 H 719.83 -1.16417 4.85024 0
M  V30 7322 H 718.984 -3.51806 4.94285 0
M  V30 7323 H 717.723 -3.13277 3.73777 0
M  V30 7324 H 716.728 -1.44299 5.30526 0
M  V30 7325 H 717.953 -1.85432 6.53293 0
M  V30 7326 H 715.899 -3.7718 5.36723 0
M  V30 7327 H 715.816 -3.02435 6.9287 0
M  V30 7328 H 717.084 -4.16413 6.58954 0
M  V30 7329 N 721.313 -1.57302 -0.09688 0
M  V30 7330 C 722.559 -1.86273 -0.801885 0
M  V30 7331 C 722.892 -0.765694 -1.78468 0
M  V30 7332 O 722.167 0.226495 -1.93177 0
M  V30 7333 C 722.45 -3.25876 -1.53221 0
M  V30 7334 C 722.303 -4.46205 -0.567529 0
M  V30 7335 C 723.622 -3.63352 -2.48321 0
M  V30 7336 H 720.741 -0.67752 -0.29006 0
M  V30 7337 H 723.383 -1.89887 -0.0655577 0
M  V30 7338 H 721.533 -3.22926 -2.15988 0
M  V30 7339 H 723.205 -4.6127 0.0529982 0
M  V30 7340 H 721.448 -4.33636 0.119233 0
M  V30 7341 H 722.119 -5.40608 -1.11564 0
M  V30 7342 H 724.595 -3.67234 -1.95648 0
M  V30 7343 H 723.471 -4.61968 -2.9644 0
M  V30 7344 H 723.732 -2.91941 -3.31998 0
M  V30 7345 N 722.791 0.367657 -1.53252 0
M  V30 7346 C 724.039 1.10832 -1.68999 0
M  V30 7347 C 724.36 1.89894 -0.443306 0
M  V30 7348 O 723.63 1.88235 0.54262 0
M  V30 7349 H 722.21 0.412153 -0.623008 0
M  V30 7350 H 724.872 0.414775 -1.90435 0
M  V30 7351 H 723.968 1.7993 -2.55013 0
M  V30 7352 N 724.269 1.44576 0.627338 0
M  V30 7353 C 725.68 1.42266 1.20902 0
M  V30 7354 C 726.031 0.139964 1.957 0
M  V30 7355 O 725.156 -0.759489 2.02634 0
M  V30 7356 C 725.751 2.57727 2.19914 0
M  V30 7357 C 724.31 2.58599 2.73502 0
M  V30 7358 C 723.457 2.34145 1.48564 0
M  V30 7359 H 726.408 1.53102 0.417791 0
M  V30 7360 H 726.429 2.30697 3.02588 0
M  V30 7361 H 725.941 3.51068 1.65447 0
M  V30 7362 H 724.042 1.6921 3.31962 0
M  V30 7363 H 724.155 3.57205 3.19282 0
M  V30 7364 H 722.519 1.83313 1.76829 0
M  V30 7365 H 723.302 3.29606 0.959935 0
M  V30 7366 N 725.747 -0.868086 1.31537 0
M  V30 7367 C 726.975 -1.65402 1.24298 0
M  V30 7368 C 727.39 -1.87827 -0.191389 0
M  V30 7369 O 726.747 -1.43776 -1.12404 0
M  V30 7370 C 726.798 -3.02093 1.9855 0
M  V30 7371 O 726.519 -2.80668 3.36388 0
M  V30 7372 C 728.02 -3.96538 1.98173 0
M  V30 7373 H 725.24 -0.515598 0.429417 0
M  V30 7374 H 727.784 -1.0834 1.73444 0
M  V30 7375 H 725.939 -3.55838 1.53161 0
M  V30 7376 H 726.353 -3.67504 3.74221 0
M  V30 7377 H 727.827 -4.8976 2.54635 0
M  V30 7378 H 728.304 -4.28474 0.964697 0
M  V30 7379 H 728.91 -3.48729 2.4345 0
M  V30 7380 N 727.225 -1.14528 -1.08264 0
M  V30 7381 C 728.474 -0.908992 -1.80056 0
M  V30 7382 C 728.787 0.565859 -1.87236 0
M  V30 7383 O 729.993 0.919454 -2.55457 0
M  V30 7384 C 728.449 -1.57681 -3.23519 0
M  V30 7385 C 728.057 -3.08803 -3.24569 0
M  V30 7386 C 729.801 -1.4217 -3.99985 0
M  V30 7387 C 727.708 -3.68414 -4.62629 0
M  V30 7388 H 726.638 -0.336432 -0.674781 0
M  V30 7389 H 729.289 -1.37437 -1.21587 0
M  V30 7390 H 727.671 -1.03911 -3.82124 0
M  V30 7391 H 728.845 -3.69252 -2.75663 0
M  V30 7392 H 727.16 -3.23968 -2.61598 0
M  V30 7393 H 729.757 -1.84106 -5.02005 0
M  V30 7394 H 730.1 -0.367989 -4.1467 0
M  V30 7395 H 730.633 -1.92984 -3.47853 0
M  V30 7396 H 727.372 -4.73644 -4.53147 0
M  V30 7397 H 726.892 -3.12746 -5.11811 0
M  V30 7398 H 728.571 -3.68793 -5.31602 0
M  V30 7399 N 728.703 1.26451 -0.940633 0
M  V30 7400 C 729.666 2.24651 -0.454378 0
M  V30 7401 C 730.666 1.54826 0.434222 0
M  V30 7402 O 731.856 1.72628 0.233477 0
M  V30 7403 C 728.988 3.39148 0.345192 0
M  V30 7404 H 730.181 2.69182 -1.32217 0
M  V30 7405 H 727.734 1.38596 -0.722547 0
M  V30 7406 H 728.469 3.00018 1.23125 0
M  V30 7407 H 728.254 3.9101 -0.292107 0
M  V30 7408 H 729.744 4.12103 0.675341 0
M  V30 7409 N 730.181 0.707592 1.40822 0
M  V30 7410 C 731.427 0.252828 2.01823 0
M  V30 7411 C 731.782 -1.13876 1.55081 0
M  V30 7412 O 731.075 -1.75993 0.757439 0
M  V30 7413 C 731.269 0.262892 3.56432 0
M  V30 7414 C 731.098 1.65392 4.18181 0
M  V30 7415 C 729.868 2.25966 4.5196 0
M  V30 7416 C 732.066 2.60272 4.4358 0
M  V30 7417 N 730.048 3.57508 4.9906 0
M  V30 7418 C 731.419 3.76509 4.92586 0
M  V30 7419 C 733.474 2.58386 4.25607 0
M  V30 7420 C 732.177 4.91157 5.25507 0
M  V30 7421 C 734.203 3.72155 4.59625 0
M  V30 7422 C 733.565 4.87123 5.08813 0
M  V30 7423 H 729.664 0.138172 0.769696 0
M  V30 7424 H 732.248 0.927667 1.7118 0
M  V30 7425 H 730.419 -0.381479 3.86522 0
M  V30 7426 H 732.151 -0.20783 4.04166 0
M  V30 7427 H 728.906 1.78138 4.38821 0
M  V30 7428 H 729.33 4.24968 5.27002 0
M  V30 7429 H 733.972 1.7071 3.86805 0
M  V30 7430 H 731.69 5.79483 5.63227 0
M  V30 7431 H 735.276 3.71961 4.47366 0
M  V30 7432 H 734.156 5.73698 5.3464 0
M  V30 7433 N 731.66 -1.50943 0.453197 0
M  V30 7434 C 732.89 -2.06328 -0.105981 0
M  V30 7435 C 733.298 -1.31909 -1.35634 0
M  V30 7436 O 732.641 -0.376607 -1.79798 0
M  V30 7437 C 732.703 -3.5631 -0.477868 0
M  V30 7438 C 732.367 -4.52093 0.667925 0
M  V30 7439 C 733.364 -4.96421 1.54475 0
M  V30 7440 C 731.049 -4.95001 0.853168 0
M  V30 7441 C 733.043 -5.82346 2.59138 0
M  V30 7442 C 730.73 -5.80713 1.90305 0
M  V30 7443 C 731.728 -6.24284 2.77053 0
M  V30 7444 O 731.416 -7.08291 3.80236 0
M  V30 7445 H 731.148 -0.675986 -0.00427247 0
M  V30 7446 H 733.702 -1.95314 0.635738 0
M  V30 7447 H 731.932 -3.65163 -1.27252 0
M  V30 7448 H 733.621 -3.94138 -0.970039 0
M  V30 7449 H 734.387 -4.63953 1.41324 0
M  V30 7450 H 730.266 -4.60619 0.187482 0
M  V30 7451 H 733.81 -6.16276 3.2688 0
M  V30 7452 H 729.707 -6.12593 2.03469 0
M  V30 7453 H 730.475 -7.26504 3.77007 0
M  V30 7454 N 733.138 -0.185124 -1.56509 0
M  V30 7455 C 734.07 0.771401 -2.15829 0
M  V30 7456 C 735.083 1.18392 -1.11747 0
M  V30 7457 O 736.272 1.12137 -1.38879 0
M  V30 7458 C 733.372 2.05169 -2.69739 0
M  V30 7459 C 732.545 1.80056 -3.98621 0
M  V30 7460 C 731.604 2.92435 -4.37456 0
M  V30 7461 O 730.63 2.62473 -5.05071 0
M  V30 7462 N 731.832 4.20554 -4.00143 0
M  V30 7463 H 734.597 0.264184 -2.98533 0
M  V30 7464 H 732.158 -0.00281069 -1.619 0
M  V30 7465 H 734.15 2.7947 -2.92709 0
M  V30 7466 H 732.72 2.47041 -1.91545 0
M  V30 7467 H 731.94 0.895862 -3.83885 0
M  V30 7468 H 733.228 1.60662 -4.82768 0
M  V30 7469 H 732.626 4.47753 -3.45736 0
M  V30 7470 H 731.183 4.91514 -4.28085 0
M  V30 7471 N 734.616 1.57351 0.0885366 0
M  V30 7472 C 735.893 1.77449 0.822873 0
M  V30 7473 C 736.273 0.768463 1.96616 0
M  V30 7474 O 735.621 -0.201757 2.27608 0
M  V30 7475 C 735.831 3.23425 1.31137 0
M  V30 7476 C 737.179 3.86791 1.75152 0
M  V30 7477 O 738.203 3.27215 1.40745 0
M  V30 7478 O 737.062 4.91568 2.38794 0
M  V30 7479 H 734.156 0.727653 0.393002 0
M  V30 7480 H 736.702 1.69556 0.0699095 0
M  V30 7481 H 735.474 3.88188 0.49254 0
M  V30 7482 H 735.097 3.35977 2.12615 0
M  V30 7483 N 736.094 -0.359525 1.53444 0
M  V30 7484 C 737.341 -1.10152 1.6992 0
M  V30 7485 C 737.669 -1.89125 0.4541 0
M  V30 7486 O 736.924 -1.87396 -0.564023 0
M  V30 7487 C 737.223 -2.08287 2.90433 0
M  V30 7488 C 736.889 -1.45749 4.26694 0
M  V30 7489 C 735.551 -1.28421 4.63747 0
M  V30 7490 C 737.903 -1.00557 5.11408 0
M  V30 7491 C 735.231 -0.644951 5.83144 0
M  V30 7492 C 737.583 -0.380288 6.31456 0
M  V30 7493 C 736.247 -0.194557 6.67216 0
M  V30 7494 H 735.517 -0.403076 0.621781 0
M  V30 7495 H 738.164 -0.382612 1.87639 0
M  V30 7496 H 736.469 -2.86503 2.67251 0
M  V30 7497 H 738.166 -2.65662 3.00374 0
M  V30 7498 H 734.756 -1.6023 3.97523 0
M  V30 7499 H 738.94 -1.12735 4.83326 0
M  V30 7500 H 734.196 -0.48952 6.09437 0
M  V30 7501 H 738.37 -0.0219455 6.96397 0
M  V30 7502 H 735.997 0.30285 7.59597 0
M  V30 7503 N 737.572 -1.44907 -0.619662 0
M  V30 7504 C 738.502 -1.55488 -1.742 0
M  V30 7505 C 739.483 -0.407143 -1.65156 0
M  V30 7506 O 740.668 -0.628743 -1.8374 0
M  V30 7507 C 737.798 -1.5097 -3.1277 0
M  V30 7508 C 736.752 -2.64337 -3.36615 0
M  V30 7509 C 736.078 -2.44872 -4.75333 0
M  V30 7510 C 737.378 -4.06423 -3.28051 0
M  V30 7511 H 739.072 -2.49432 -1.65602 0
M  V30 7512 H 736.618 -1.20047 -0.795281 0
M  V30 7513 H 738.571 -1.56971 -3.91073 0
M  V30 7514 H 737.295 -0.535486 -3.2218 0
M  V30 7515 H 735.954 -2.57744 -2.60698 0
M  V30 7516 H 735.602 -1.45617 -4.81461 0
M  V30 7517 H 735.302 -3.20888 -4.92244 0
M  V30 7518 H 736.826 -2.52709 -5.55851 0
M  V30 7519 H 738.24 -4.14324 -3.96243 0
M  V30 7520 H 736.637 -4.82733 -3.56495 0
M  V30 7521 H 737.707 -4.29183 -2.25676 0
M  V30 7522 N 739.05 0.861098 -1.31996 0
M  V30 7523 C 740.466 1.14827 -1.10846 0
M  V30 7524 C 740.666 2.0117 0.11528 0
M  V30 7525 O 739.722 2.39423 0.802048 0
M  V30 7526 C 741.035 1.83183 -2.38462 0
M  V30 7527 C 742.583 1.95847 -2.44158 0
M  V30 7528 C 743.058 2.67617 -3.71679 0
M  V30 7529 N 744.549 2.75147 -3.72624 0
M  V30 7530 C 745.284 3.31314 -4.67994 0
M  V30 7531 N 744.78 3.88343 -5.73726 0
M  V30 7532 N 746.573 3.29356 -4.55501 0
M  V30 7533 H 738.724 0.285951 -2.10466 0
M  V30 7534 H 740.987 0.189303 -0.928907 0
M  V30 7535 H 740.693 1.27193 -3.27895 0
M  V30 7536 H 740.567 2.83393 -2.48935 0
M  V30 7537 H 742.954 2.50999 -1.55189 0
M  V30 7538 H 743.035 0.94653 -2.37644 0
M  V30 7539 H 742.679 2.13131 -4.61018 0
M  V30 7540 H 742.609 3.69237 -3.75462 0
M  V30 7541 H 745.1 2.34682 -2.96197 0
M  V30 7542 H 745.413 4.29338 -6.42564 0
M  V30 7543 H 743.758 3.86693 -5.77489 0
M  V30 7544 H 746.949 2.84047 -3.72069 0
M  V30 7545 H 747.122 3.7283 -5.30001 0
M  V30 7546 N 740.528 1.15101 1.07655 0
M  V30 7547 C 741.758 0.946357 1.83651 0
M  V30 7548 C 742.166 -0.508641 1.82235 0
M  V30 7549 O 741.509 -1.36445 1.22997 0
M  V30 7550 C 741.571 1.37945 3.31981 0
M  V30 7551 C 741.235 2.85155 3.57122 0
M  V30 7552 C 742.232 3.83234 3.51323 0
M  V30 7553 C 739.917 3.2275 3.84887 0
M  V30 7554 C 741.911 5.16914 3.72932 0
M  V30 7555 C 739.598 4.56604 4.06148 0
M  V30 7556 C 740.596 5.53495 4.00165 0
M  V30 7557 O 740.284 6.84931 4.20861 0
M  V30 7558 H 740.016 0.336368 0.586372 0
M  V30 7559 H 742.57 1.53198 1.36819 0
M  V30 7560 H 740.8 0.737205 3.79608 0
M  V30 7561 H 742.489 1.14439 3.89434 0
M  V30 7562 H 743.255 3.55535 3.29878 0
M  V30 7563 H 739.134 2.47921 3.88659 0
M  V30 7564 H 742.678 5.92529 3.68178 0
M  V30 7565 H 738.575 4.84019 4.27078 0
M  V30 7566 H 739.343 6.91304 4.38226 0
M  V30 7567 N 742.006 -1.2595 0.947325 0
M  V30 7568 C 743.236 -1.97258 0.614235 0
M  V30 7569 C 743.644 -1.70682 -0.816355 0
M  V30 7570 O 742.987 -0.97527 -1.55673 0
M  V30 7571 C 743.049 -3.50845 0.784081 0
M  V30 7572 C 742.713 -4.01084 2.19045 0
M  V30 7573 C 743.71 -4.12347 3.16648 0
M  V30 7574 C 741.395 -4.34936 2.51268 0
M  V30 7575 C 743.389 -4.56766 4.44572 0
M  V30 7576 C 741.076 -4.79043 3.79422 0
M  V30 7577 C 742.074 -4.89919 4.75887 0
M  V30 7578 O 741.762 -5.3305 6.01758 0
M  V30 7579 H 741.494 -0.635738 0.22981 0
M  V30 7580 H 744.048 -1.61268 1.27207 0
M  V30 7581 H 742.278 -3.86638 0.069101 0
M  V30 7582 H 743.967 -4.03363 0.453135 0
M  V30 7583 H 744.733 -3.86432 2.93079 0
M  V30 7584 H 740.612 -4.25702 1.76916 0
M  V30 7585 H 744.156 -4.6517 5.19868 0
M  V30 7586 H 740.053 -5.04402 4.02802 0
M  V30 7587 H 740.821 -5.51255 6.05029 0
M  V30 7588 N 743.484 -0.715051 -1.40445 0
M  V30 7589 C 744.731 -0.254328 -2.00897 0
M  V30 7590 C 745.059 1.15228 -1.56693 0
M  V30 7591 O 744.314 1.7958 -0.777786 0
M  V30 7592 C 744.613 -0.281791 -3.56287 0
M  V30 7593 C 744.279 -1.63862 -4.20071 0
M  V30 7594 C 742.941 -2.01003 -4.37208 0
M  V30 7595 C 745.293 -2.53039 -4.55654 0
M  V30 7596 C 742.621 -3.26869 -4.8721 0
M  V30 7597 C 744.973 -3.78256 -5.07055 0
M  V30 7598 C 743.637 -4.15515 -5.22401 0
M  V30 7599 H 742.907 -0.0930652 -0.735133 0
M  V30 7600 H 745.554 -0.917977 -1.68064 0
M  V30 7601 H 743.859 0.465428 -3.89026 0
M  V30 7602 H 745.556 0.0925158 -4.00893 0
M  V30 7603 H 742.146 -1.33979 -4.07121 0
M  V30 7604 H 746.33 -2.2562 -4.42051 0
M  V30 7605 H 741.586 -3.55706 -4.97276 0
M  V30 7606 H 745.76 -4.47528 -5.33565 0
M  V30 7607 H 743.387 -5.13114 -5.60909 0
M  V30 7608 N 744.962 1.50701 -0.461195 0
M  V30 7609 C 745.892 2.31182 0.328184 0
M  V30 7610 C 746.873 1.37644 0.999408 0
M  V30 7611 O 748.058 1.66565 0.99848 0
M  V30 7612 C 745.188 3.17113 1.41621 0
M  V30 7613 C 744.142 4.19124 0.867148 0
M  V30 7614 C 743.468 4.93728 2.05272 0
M  V30 7615 C 744.768 5.22174 -0.114808 0
M  V30 7616 H 746.462 2.97423 -0.343501 0
M  V30 7617 H 744.008 1.43033 -0.166641 0
M  V30 7618 H 745.961 3.72208 1.97584 0
M  V30 7619 H 744.685 2.48739 2.11652 0
M  V30 7620 H 743.344 3.65116 0.329557 0
M  V30 7621 H 742.992 4.21835 2.73978 0
M  V30 7622 H 742.692 5.62724 1.69161 0
M  V30 7623 H 744.216 5.51654 2.61744 0
M  V30 7624 H 745.63 5.72198 0.355316 0
M  V30 7625 H 744.027 5.98833 -0.389689 0
M  V30 7626 H 745.097 4.7353 -1.04391 0
M  V30 7627 N 746.441 0.193421 1.56409 0
M  V30 7628 C 747.669 -0.451438 2.01915 0
M  V30 7629 C 748.084 -1.55306 1.07357 0
M  V30 7630 O 747.441 -1.82333 0.0781512 0
M  V30 7631 C 747.492 -1.00931 3.47124 0
M  V30 7632 O 747.213 0.0483623 4.38073 0
M  V30 7633 C 748.714 -1.73021 4.0814 0
M  V30 7634 H 745.934 -0.113495 0.661332 0
M  V30 7635 H 748.478 0.301636 2.02263 0
M  V30 7636 H 746.633 -1.71277 3.47481 0
M  V30 7637 H 747.047 -0.366644 5.23217 0
M  V30 7638 H 748.521 -2.07289 5.11601 0
M  V30 7639 H 748.998 -2.6333 3.51502 0
M  V30 7640 H 749.604 -1.07264 4.11551 0
M  V30 7641 N 747.919 -1.57396 -0.0801906 0
M  V30 7642 C 749.165 -1.87113 -0.782083 0
M  V30 7643 C 749.498 -0.78458 -1.77646 0
M  V30 7644 O 748.773 0.205993 -1.93406 0
M  V30 7645 C 749.056 -3.27483 -1.49756 0
M  V30 7646 C 748.909 -4.46782 -0.520171 0
M  V30 7647 C 750.228 -3.65965 -2.44454 0
M  V30 7648 H 747.347 -0.680559 -0.282858 0
M  V30 7649 H 749.989 -1.89946 -0.0454139 0
M  V30 7650 H 748.139 -3.25199 -2.12551 0
M  V30 7651 H 749.811 -4.61187 0.101919 0
M  V30 7652 H 748.054 -4.33485 0.165219 0
M  V30 7653 H 748.725 -5.41761 -1.05824 0
M  V30 7654 H 751.201 -3.69289 -1.91742 0
M  V30 7655 H 750.077 -4.65086 -2.91524 0
M  V30 7656 H 750.338 -2.95446 -3.28883 0
M  V30 7657 N 749.397 0.351382 -1.53633 0
M  V30 7658 C 750.307 1.45471 -1.84052 0
M  V30 7659 C 751.323 1.57945 -0.730015 0
M  V30 7660 O 752.499 1.73571 -1.02153 0
M  V30 7661 C 749.564 2.80562 -2.03681 0
M  V30 7662 C 748.625 2.77497 -3.27558 0
M  V30 7663 C 747.858 4.06144 -3.46241 0
M  V30 7664 O 748.081 5.03028 -2.68922 0
M  V30 7665 O 747.015 4.11092 -4.39645 0
M  V30 7666 H 750.841 1.22684 -2.77817 0
M  V30 7667 H 748.426 0.542827 -1.3919 0
M  V30 7668 H 750.308 3.6058 -2.18082 0
M  V30 7669 H 748.983 3.03296 -1.13106 0
M  V30 7670 H 747.89 1.96126 -3.18568 0
M  V30 7671 H 749.223 2.59716 -4.18101 0
M  V30 7672 N 750.875 1.45233 0.611969 0
M  V30 7673 C 752.1 1.52767 1.40274 0
M  V30 7674 C 752.525 0.159701 1.87421 0
M  V30 7675 O 751.883 -0.854837 1.59882 0
M  V30 7676 C 751.931 2.51286 2.58626 0
M  V30 7677 O 751.035 2.02764 3.59111 0
M  V30 7678 H 750.376 0.515141 0.418958 0
M  V30 7679 H 752.906 1.90547 0.745188 0
M  V30 7680 H 752.916 2.69949 3.05927 0
M  V30 7681 H 751.591 3.50641 2.23659 0
M  V30 7682 H 750.168 1.93957 3.18489 0
M  V30 7683 N 752.353 -0.854086 1.3245 0
M  V30 7684 C 753.301 -1.98411 1.21391 0
M  V30 7685 C 754.295 -1.68984 0.118586 0
M  V30 7686 O 755.501 -1.77784 0.281549 0
M  V30 7687 H 751.876 -0.651077 0.376301 0
M  V30 7688 H 753.847 -2.04867 2.16961 0
M  V30 7689 C 752.596 -3.34345 0.954407 0
M  V30 7690 H 751.919 -3.57518 1.78944 0
M  V30 7691 H 753.359 -4.13959 0.917269 0
M  V30 7692 C 751.818 -3.35151 -0.342838 0
M  V30 7693 O 752.348 -3.78174 -1.35452 0
M  V30 7694 N 750.554 -2.88298 -0.365012 0
M  V30 7695 H 750.101 -2.53481 0.4588 0
M  V30 7696 H 750.059 -2.8922 -1.23284 0
M  V30 7697 N 753.831 -1.1567 -1.07043 0
M  V30 7698 C 755.077 -0.9349 -1.79965 0
M  V30 7699 C 755.41 0.536464 -1.86643 0
M  V30 7700 O 754.685 1.39781 -1.35247 0
M  V30 7701 C 754.968 -1.55371 -3.24857 0
M  V30 7702 C 754.821 -3.09589 -3.26305 0
M  V30 7703 C 756.14 -1.24209 -4.22209 0
M  V30 7704 H 753.259 -0.341061 -0.653335 0
M  V30 7705 H 755.901 -1.42883 -1.25237 0
M  V30 7706 H 754.051 -1.13368 -3.71591 0
M  V30 7707 H 755.723 -3.60521 -2.87789 0
M  V30 7708 H 753.966 -3.43315 -2.65174 0
M  V30 7709 H 754.637 -3.48002 -4.28484 0
M  V30 7710 H 757.113 -1.60548 -3.8388 0
M  V30 7711 H 755.989 -1.70119 -5.21872 0
M  V30 7712 H 756.25 -0.15964 -4.41812 0
M  V30 7713 N 755.309 1.25446 -0.953992 0
M  V30 7714 C 756.219 2.29632 -0.480264 0
M  V30 7715 C 757.235 1.68025 0.452071 0
M  V30 7716 O 758.411 1.98703 0.328472 0
M  V30 7717 C 755.476 3.45903 0.234974 0
M  V30 7718 C 754.537 4.22953 -0.735495 0
M  V30 7719 C 753.77 5.33672 -0.0542957 0
M  V30 7720 O 753.993 5.58477 1.16018 0
M  V30 7721 O 752.927 5.9734 -0.739509 0
M  V30 7722 H 756.753 2.72242 -1.34602 0
M  V30 7723 H 754.338 1.30883 -0.720419 0
M  V30 7724 H 756.22 4.16552 0.637341 0
M  V30 7725 H 754.895 3.05296 1.07592 0
M  V30 7726 H 753.802 3.54734 -1.18806 0
M  V30 7727 H 755.135 4.67341 -1.54444 0
M  V30 7728 N 756.787 0.722489 1.40064 0
M  V30 7729 C 758.035 0.264455 2.00362 0
M  V30 7730 C 758.356 -1.14847 1.57592 0
M  V30 7731 O 757.626 -1.77982 0.818477 0
M  V30 7732 H 756.206 0.0947846 0.740962 0
M  V30 7733 H 758.868 0.929659 1.71299 0
M  V30 7734 H 757.964 0.302977 3.10626 0
M  V30 7735 N 758.265 -1.50454 0.469181 0
M  V30 7736 C 759.49 -2.0722 -0.0864892 0
M  V30 7737 C 759.915 -1.33098 -1.32916 0
M  V30 7738 O 759.273 -0.378084 -1.77314 0
M  V30 7739 C 759.321 -3.58845 -0.355384 0
M  V30 7740 O 758.425 -3.86583 -1.43622 0
M  V30 7741 H 757.766 -0.663889 0.0121414 0
M  V30 7742 H 760.296 -1.93674 0.659674 0
M  V30 7743 H 760.306 -4.03617 -0.596447 0
M  V30 7744 H 758.981 -4.12211 0.552698 0
M  V30 7745 H 757.558 -3.5365 -1.18262 0
M  V30 7746 N 759.743 -0.201713 -1.56304 0
M  V30 7747 C 760.676 0.755976 -2.15314 0
M  V30 7748 C 761.654 1.20497 -1.09175 0
M  V30 7749 O 762.838 1.2913 -1.37323 0
M  V30 7750 C 759.965 2.02177 -2.71739 0
M  V30 7751 C 759.011 1.71436 -3.90528 0
M  V30 7752 S 759.844 0.856624 -5.28604 0
M  V30 7753 C 761 2.13242 -5.88455 0
M  V30 7754 H 761.233 0.254348 -2.9621 0
M  V30 7755 H 758.766 0.0133669 -1.54394 0
M  V30 7756 H 760.724 2.74867 -3.04891 0
M  V30 7757 H 759.385 2.49452 -1.90873 0
M  V30 7758 H 758.578 2.65433 -4.28441 0
M  V30 7759 H 758.18 1.06823 -3.5842 0
M  V30 7760 H 760.472 3.08435 -6.0322 0
M  V30 7761 H 761.415 1.7975 -6.84905 0
M  V30 7762 H 761.823 2.2639 -5.17115 0
M  V30 7763 N 761.222 1.57436 0.0718424 0
M  V30 7764 C 762.447 1.91858 0.787745 0
M  V30 7765 C 762.872 0.798119 1.70328 0
M  V30 7766 O 762.23 -0.24905 1.79581 0
M  V30 7767 C 762.278 3.25232 1.55744 0
M  V30 7768 O 761.382 3.14462 2.6681 0
M  V30 7769 H 760.723 0.628258 0.214914 0
M  V30 7770 H 763.253 2.04561 0.0401012 0
M  V30 7771 H 763.263 3.59105 1.9367 0
M  V30 7772 H 761.938 4.0636 0.885691 0
M  V30 7773 H 760.515 2.92148 2.31741 0
M  V30 7774 N 762.7 -0.34323 1.53817 0
M  V30 7775 C 764.116 -0.686355 1.44088 0
M  V30 7776 C 764.316 -1.92426 0.597882 0
M  V30 7777 O 763.372 -2.52343 0.0889918 0
M  V30 7778 C 764.685 -0.878698 2.87575 0
M  V30 7779 C 766.233 -0.977296 2.97352 0
M  V30 7780 C 766.708 -1.20195 4.41947 0
M  V30 7781 N 768.199 -1.26915 4.45474 0
M  V30 7782 C 768.934 -1.46049 5.54488 0
M  V30 7783 N 768.43 -1.62354 6.73508 0
M  V30 7784 N 770.223 -1.48599 5.42102 0
M  V30 7785 H 762.374 0.470679 2.07119 0
M  V30 7786 H 764.637 0.148652 0.936273 0
M  V30 7787 H 764.343 -0.040602 3.51677 0
M  V30 7788 H 764.217 -1.78034 3.32541 0
M  V30 7789 H 766.604 -1.80591 2.3339 0
M  V30 7790 H 766.685 -0.0525498 2.55746 0
M  V30 7791 H 766.329 -0.378262 5.06489 0
M  V30 7792 H 766.259 -2.14027 4.81145 0
M  V30 7793 H 768.75 -1.15837 3.59708 0
M  V30 7794 H 769.063 -1.76591 7.52353 0
M  V30 7795 H 767.408 -1.5949 6.76453 0
M  V30 7796 H 770.599 -1.35443 4.48077 0
M  V30 7797 H 770.772 -1.6317 6.2712 0
M  V30 7798 N 764.178 -1.45556 -0.604258 0
M  V30 7799 C 765.594 -1.30035 -0.925368 0
M  V30 7800 C 765.794 -0.255833 -1.99869 0
M  V30 7801 O 764.85 0.349076 -2.50075 0
M  V30 7802 C 766.163 -2.68028 -1.36314 0
M  V30 7803 C 767.711 -2.75951 -1.47717 0
M  V30 7804 C 768.186 -4.14476 -1.94868 0
M  V30 7805 N 769.677 -4.16787 -2.02097 0
M  V30 7806 C 770.412 -5.20845 -2.39809 0
M  V30 7807 N 769.908 -6.35246 -2.76467 0
M  V30 7808 N 771.701 -5.08204 -2.40177 0
M  V30 7809 H 763.852 -2.1214 0.10512 0
M  V30 7810 H 766.115 -0.947871 -0.0156303 0
M  V30 7811 H 765.821 -3.45667 -0.648628 0
M  V30 7812 H 765.695 -2.96711 -2.329 0
M  V30 7813 H 768.082 -1.98613 -2.18258 0
M  V30 7814 H 768.163 -2.50977 -0.494371 0
M  V30 7815 H 767.807 -4.923 -1.24912 0
M  V30 7816 H 767.737 -4.36843 -2.94068 0
M  V30 7817 H 770.228 -3.34233 -1.76343 0
M  V30 7818 H 770.541 -7.10438 -3.04134 0
M  V30 7819 H 768.886 -6.38642 -2.74155 0
M  V30 7820 H 772.077 -4.17874 -2.10947 0
M  V30 7821 H 772.25 -5.89417 -2.69242 0
M  V30 7822 N 765.656 0.84705 -1.32902 0
M  V30 7823 C 766.903 1.60176 -1.23894 0
M  V30 7824 C 767.231 1.93496 0.197341 0
M  V30 7825 O 766.486 1.58173 1.15238 0
M  V30 7826 C 766.785 2.92663 -2.05142 0
M  V30 7827 C 766.451 2.7874 -3.54422 0
M  V30 7828 C 765.113 2.7465 -3.95121 0
M  V30 7829 C 767.465 2.64128 -4.49317 0
M  V30 7830 C 764.793 2.53837 -5.28946 0
M  V30 7831 C 767.145 2.44849 -5.83294 0
M  V30 7832 C 765.809 2.39156 -6.23186 0
M  V30 7833 H 765.079 0.586127 -0.453361 0
M  V30 7834 H 767.726 0.981994 -1.64405 0
M  V30 7835 H 766.031 3.588 -1.57383 0
M  V30 7836 H 767.728 3.50095 -1.95537 0
M  V30 7837 H 764.318 2.82751 -3.22102 0
M  V30 7838 H 768.502 2.66327 -4.18788 0
M  V30 7839 H 763.758 2.4787 -5.58901 0
M  V30 7840 H 767.932 2.32524 -6.56434 0
M  V30 7841 H 765.559 2.22789 -7.26821 0
M  V30 7842 N 767.134 1.16236 1.06428 0
M  V30 7843 C 768.097 0.870163 2.1204 0
M  V30 7844 C 769.097 -0.134239 1.60239 0
M  V30 7845 O 770.287 0.0964932 1.73933 0
M  V30 7846 C 767.419 0.301033 3.39568 0
M  V30 7847 H 768.612 1.8064 2.39394 0
M  V30 7848 H 766.165 0.971116 1.2247 0
M  V30 7849 H 766.9 -0.642948 3.17863 0
M  V30 7850 H 766.685 1.02475 3.78472 0
M  V30 7851 H 768.175 0.114494 4.17443 0
M  V30 7852 N 768.612 -1.24939 0.960631 0
M  V30 7853 C 769.858 -1.93104 0.61958 0
M  V30 7854 C 770.191 -1.74991 -0.84212 0
M  V30 7855 O 769.466 -1.09867 -1.60498 0
M  V30 7856 C 769.749 -3.46326 0.986422 0
M  V30 7857 C 769.602 -3.73638 2.50429 0
M  V30 7858 C 770.921 -4.37067 0.515827 0
M  V30 7859 H 768.04 -0.701311 0.226566 0
M  V30 7860 H 770.682 -1.47442 1.19836 0
M  V30 7861 H 768.832 -3.85348 0.493907 0
M  V30 7862 H 770.504 -3.44217 3.07103 0
M  V30 7863 H 768.747 -3.19035 2.93937 0
M  V30 7864 H 769.418 -4.80815 2.71147 0
M  V30 7865 H 771.894 -4.05381 0.938389 0
M  V30 7866 H 770.77 -5.43022 0.80114 0
M  V30 7867 H 771.031 -4.38224 -0.584171 0
M  V30 7868 N 770.09 -0.729906 -1.39679 0
M  V30 7869 C 771.02 -0.101618 -2.33279 0
M  V30 7870 C 772.001 0.729854 -1.53646 0
M  V30 7871 O 773.186 0.67587 -1.82059 0
M  V30 7872 C 770.316 0.81024 -3.37716 0
M  V30 7873 C 769.27 0.0833126 -4.27919 0
M  V30 7874 C 768.596 1.11185 -5.23012 0
M  V30 7875 C 769.896 -1.07107 -5.112 0
M  V30 7876 H 771.59 -0.883452 -2.86069 0
M  V30 7877 H 769.136 -0.426283 -1.37546 0
M  V30 7878 H 771.089 1.25927 -4.02145 0
M  V30 7879 H 769.813 1.62413 -2.83354 0
M  V30 7880 H 768.472 -0.346043 -3.64963 0
M  V30 7881 H 768.12 1.91917 -4.64948 0
M  V30 7882 H 767.82 0.63026 -5.8421 0
M  V30 7883 H 769.344 1.56068 -5.90318 0
M  V30 7884 H 770.758 -0.700726 -5.69002 0
M  V30 7885 H 769.155 -1.48196 -5.81514 0
M  V30 7886 H 770.225 -1.89513 -4.46332 0
M  V30 7887 N 771.568 1.50203 -0.477153 0
M  V30 7888 C 772.814 2.02658 0.0758507 0
M  V30 7889 C 773.147 1.358 1.38824 0
M  V30 7890 O 772.422 0.485696 1.88338 0
M  V30 7891 C 772.705 3.59208 0.253339 0
M  V30 7892 C 772.558 4.36629 -1.0805 0
M  V30 7893 C 773.877 4.28469 1.00509 0
M  V30 7894 H 770.996 0.736538 0.0260921 0
M  V30 7895 H 773.638 1.79464 -0.623925 0
M  V30 7896 H 771.788 3.79101 0.849378 0
M  V30 7897 H 773.46 4.28292 -1.71358 0
M  V30 7898 H 771.703 4.0013 -1.67566 0
M  V30 7899 H 772.374 5.44449 -0.909883 0
M  V30 7900 H 774.85 4.13087 0.499818 0
M  V30 7901 H 773.726 5.37804 1.09808 0
M  V30 7902 H 773.987 3.92057 2.04314 0
M  V30 7903 N 773.046 0.209999 1.56195 0
M  V30 7904 C 773.976 -0.699746 2.22769 0
M  V30 7905 C 774.957 -1.20993 1.1956 0
M  V30 7906 O 776.142 -1.25605 1.48112 0
M  V30 7907 C 773.272 -1.91302 2.89863 0
M  V30 7908 C 772.226 -1.53715 3.99444 0
M  V30 7909 C 771.552 -2.82826 4.53777 0
M  V30 7910 C 772.852 -0.735836 5.17091 0
M  V30 7911 H 774.546 -0.144716 2.9905 0
M  V30 7912 H 772.092 -0.0681645 1.43839 0
M  V30 7913 H 774.045 -2.5548 3.35124 0
M  V30 7914 H 772.769 -2.49283 2.11011 0
M  V30 7915 H 771.428 -0.918892 3.54897 0
M  V30 7916 H 771.076 -3.38927 3.71669 0
M  V30 7917 H 770.776 -2.58415 5.27727 0
M  V30 7918 H 772.3 -3.47966 5.01749 0
M  V30 7919 H 773.714 -1.28105 5.58804 0
M  V30 7920 H 772.111 -0.589272 5.972 0
M  V30 7921 H 773.181 0.260004 4.84202 0
M  V30 7922 N 774.524 -1.57472 -0.0634922 0
M  V30 7923 C 775.454 -2.07297 -1.07473 0
M  V30 7924 C 776.435 -0.968162 -1.39859 0
M  V30 7925 O 777.62 -1.24139 -1.49343 0
M  V30 7926 C 774.75 -2.52381 -2.38581 0
M  V30 7927 C 773.704 -3.66813 -2.20526 0
M  V30 7928 C 773.03 -3.97982 -3.57092 0
M  V30 7929 C 774.33 -4.96553 -1.61965 0
M  V30 7930 H 776.024 -2.92033 -0.660092 0
M  V30 7931 H 773.57 -1.40488 -0.316074 0
M  V30 7932 H 775.523 -2.85852 -3.09624 0
M  V30 7933 H 774.247 -1.64684 -2.8204 0
M  V30 7934 H 772.906 -3.33639 -1.51924 0
M  V30 7935 H 772.554 -3.07403 -3.98136 0
M  V30 7936 H 772.254 -4.7504 -3.45848 0
M  V30 7937 H 773.778 -4.33956 -4.29552 0
M  V30 7938 H 775.192 -5.28201 -2.22883 0
M  V30 7939 H 773.589 -5.7799 -1.61394 0
M  V30 7940 H 774.659 -4.81396 -0.581918 0
M  V30 7941 N 776.003 0.335068 -1.53997 0
M  V30 7942 C 777.25 1.07435 -1.71651 0
M  V30 7943 C 777.578 1.88378 -0.48413 0
M  V30 7944 O 776.833 1.8827 0.534139 0
M  V30 7945 C 777.132 2.0364 -2.9371 0
M  V30 7946 C 776.798 1.38942 -4.28959 0
M  V30 7947 C 775.46 1.21027 -4.65732 0
M  V30 7948 C 777.812 0.924083 -5.12943 0
M  V30 7949 C 775.14 0.552097 -5.84097 0
M  V30 7950 C 777.492 0.27978 -6.31981 0
M  V30 7951 C 776.156 0.0883843 -6.67441 0
M  V30 7952 H 775.426 0.393133 -0.628114 0
M  V30 7953 H 778.073 0.352712 -1.88224 0
M  V30 7954 H 776.378 2.82215 -2.71775 0
M  V30 7955 H 778.075 2.6085 -3.04562 0
M  V30 7956 H 774.665 1.53885 -4.00022 0
M  V30 7957 H 778.849 1.05032 -4.85059 0
M  V30 7958 H 774.105 0.392502 -6.10139 0
M  V30 7959 H 778.279 -0.0888479 -6.96343 0
M  V30 7960 H 775.906 -0.423657 -7.59019 0
M  V30 7961 N 777.481 1.45874 0.596531 0
M  V30 7962 C 778.721 1.52015 1.36641 0
M  V30 7963 C 779.085 0.16226 1.91313 0
M  V30 7964 O 780.286 0.0983889 2.6862 0
M  V30 7965 C 778.557 2.57776 2.4756 0
M  V30 7966 S 780.116 2.83223 3.35157 0
M  V30 7967 H 776.934 0.537251 0.465706 0
M  V30 7968 H 779.536 1.83024 0.687205 0
M  V30 7969 H 778.24 3.55091 2.05764 0
M  V30 7970 H 777.771 2.28455 3.20269 0
M  V30 7971 H 779.786 2.17442 4.4602 0
M  V30 7972 N 778.959 -0.83999 1.33349 0
M  V30 7973 C 779.889 -1.965 1.26135 0
M  V30 7974 C 780.87 -1.69505 0.142152 0
M  V30 7975 O 782.055 -1.91346 0.331743 0
M  V30 7976 C 779.185 -3.32632 0.99866 0
M  V30 7977 C 778.139 -3.74021 2.08068 0
M  V30 7978 C 777.465 -5.07947 1.67014 0
M  V30 7979 C 778.765 -3.87925 3.49731 0
M  V30 7980 H 780.459 -2.02793 2.20262 0
M  V30 7981 H 778.005 -0.974297 1.06035 0
M  V30 7982 H 779.958 -4.10903 0.934696 0
M  V30 7983 H 778.682 -3.26593 0.0217759 0
M  V30 7984 H 777.341 -2.98012 2.13505 0
M  V30 7985 H 776.989 -4.98378 0.680316 0
M  V30 7986 H 776.689 -5.36611 2.39422 0
M  V30 7987 H 778.213 -5.88695 1.62082 0
M  V30 7988 H 779.627 -4.5651 3.46802 0
M  V30 7989 H 778.024 -4.28023 4.20614 0
M  V30 7990 H 779.094 -2.90407 3.88319 0
M  V30 7991 N 780.437 -1.16799 -1.0581 0
M  V30 7992 C 781.684 -0.952524 -1.78699 0
M  V30 7993 C 782.012 0.51931 -1.87439 0
M  V30 7994 O 781.267 1.40151 -1.36587 0
M  V30 7995 C 781.566 -1.53111 -3.22942 0
M  V30 7996 C 781.232 -3.0261 -3.34273 0
M  V30 7997 C 779.894 -3.43418 -3.37072 0
M  V30 7998 C 782.246 -3.98611 -3.35795 0
M  V30 7999 C 779.574 -4.78838 -3.39015 0
M  V30 8000 C 781.926 -5.33923 -3.39277 0
M  V30 8001 C 780.59 -5.74205 -3.40361 0
M  V30 8002 H 779.86 -0.348553 -0.653905 0
M  V30 8003 H 782.507 -1.45591 -1.244 0
M  V30 8004 H 780.812 -0.949286 -3.80126 0
M  V30 8005 H 782.509 -1.34002 -3.77948 0
M  V30 8006 H 779.099 -2.70075 -3.32803 0
M  V30 8007 H 783.283 -3.68146 -3.32839 0
M  V30 8008 H 778.539 -5.09369 -3.38161 0
M  V30 8009 H 782.713 -6.08094 -3.39403 0
M  V30 8010 H 780.34 -6.79117 -3.4162 0
M  V30 8011 N 781.915 1.24427 -0.967243 0
M  V30 8012 C 783.163 1.92107 -0.627638 0
M  V30 8013 C 783.484 1.75991 0.83978 0
M  V30 8014 O 782.754 1.13118 1.59941 0
M  V30 8015 H 781.334 0.710986 -0.229145 0
M  V30 8016 H 783.996 1.51331 -1.22821 0
M  V30 8017 H 783.092 2.99791 -0.867844 0
M  V30 8018 N 783.393 0.737304 1.3929 0
M  V30 8019 C 784.639 0.286681 2.00763 0
M  V30 8020 C 784.972 -1.12388 1.58375 0
M  V30 8021 O 784.247 -1.76661 0.813699 0
M  V30 8022 C 784.53 0.391147 3.57969 0
M  V30 8023 C 784.383 1.84165 4.1037 0
M  V30 8024 C 785.702 -0.225072 4.39524 0
M  V30 8025 H 782.821 0.105642 0.729389 0
M  V30 8026 H 785.463 0.933892 1.65464 0
M  V30 8027 H 783.613 -0.159875 3.88171 0
M  V30 8028 H 785.285 2.44972 3.90879 0
M  V30 8029 H 783.528 2.3622 3.63844 0
M  V30 8030 H 784.199 1.866 5.19504 0
M  V30 8031 H 786.675 0.244677 4.1538 0
M  V30 8032 H 785.551 -0.121646 5.48765 0
M  V30 8033 H 785.812 -1.31141 4.22202 0
M  V30 8034 N 784.871 -1.49948 0.485112 0
M  V30 8035 C 785.801 -2.31675 -0.291364 0
M  V30 8036 C 786.782 -1.39216 -0.977383 0
M  V30 8037 O 787.967 -1.68133 -0.971855 0
M  V30 8038 C 785.097 -3.19326 -1.36558 0
M  V30 8039 C 784.051 -4.2045 -0.800359 0
M  V30 8040 C 783.377 -4.96931 -1.97391 0
M  V30 8041 C 784.677 -5.21925 0.197867 0
M  V30 8042 H 786.371 -2.96839 0.390775 0
M  V30 8043 H 783.917 -1.42749 0.189375 0
M  V30 8044 H 785.87 -3.75304 -1.91638 0
M  V30 8045 H 784.594 -2.52074 -2.07668 0
M  V30 8046 H 783.253 -3.65594 -0.271428 0
M  V30 8047 H 782.901 -4.26141 -2.67232 0
M  V30 8048 H 782.601 -5.65344 -1.60187 0
M  V30 8049 H 784.125 -5.55749 -2.52935 0
M  V30 8050 H 785.539 -5.72691 -0.264239 0
M  V30 8051 H 783.936 -5.98138 0.484908 0
M  V30 8052 H 785.006 -4.71809 1.11912 0
M  V30 8053 N 786.349 -0.21828 -1.56081 0
M  V30 8054 C 787.596 0.414307 -1.98216 0
M  V30 8055 C 787.924 1.60005 -1.10584 0
M  V30 8056 O 787.179 1.95124 -0.150043 0
M  V30 8057 C 787.478 0.894782 -3.46018 0
M  V30 8058 C 787.144 -0.180083 -4.5054 0
M  V30 8059 C 785.806 -0.475367 -4.78846 0
M  V30 8060 C 788.158 -0.907191 -5.13244 0
M  V30 8061 C 785.486 -1.50233 -5.67139 0
M  V30 8062 C 787.838 -1.92347 -6.02649 0
M  V30 8063 C 786.502 -2.22571 -6.293 0
M  V30 8064 H 785.772 0.151606 -0.725325 0
M  V30 8065 H 788.419 -0.320113 -1.88806 0
M  V30 8066 H 786.724 1.7079 -3.52616 0
M  V30 8067 H 788.421 1.39403 -3.75989 0
M  V30 8068 H 785.011 0.06022 -4.28558 0
M  V30 8069 H 789.195 -0.692303 -4.91448 0
M  V30 8070 H 784.451 -1.74215 -5.86054 0
M  V30 8071 H 788.625 -2.49197 -6.50288 0
M  V30 8072 H 786.252 -3.0229 -6.97513 0
M  V30 8073 N 787.827 1.57504 0.0551401 0
M  V30 8074 C 789.073 1.88334 0.752216 0
M  V30 8075 C 789.406 0.812742 1.76375 0
M  V30 8076 O 788.681 -0.175198 1.93709 0
M  V30 8077 C 788.964 3.29824 1.44528 0
M  V30 8078 C 788.817 4.47553 0.449026 0
M  V30 8079 C 790.136 3.69808 2.38601 0
M  V30 8080 H 787.255 0.684973 0.271995 0
M  V30 8081 H 789.897 1.89994 0.0151895 0
M  V30 8082 H 788.047 3.28539 2.07351 0
M  V30 8083 H 789.719 4.60967 -0.175277 0
M  V30 8084 H 787.962 4.33168 -0.234162 0
M  V30 8085 H 788.633 5.43376 0.971917 0
M  V30 8086 H 791.109 3.72293 1.85842 0
M  V30 8087 H 789.985 4.69665 2.84088 0
M  V30 8088 H 790.246 3.00641 3.24141 0
M  V30 8089 N 789.305 -0.326896 1.54172 0
M  V30 8090 C 790.235 -1.40741 1.86317 0
M  V30 8091 C 791.216 -1.54125 0.719684 0
M  V30 8092 O 792.401 -1.6806 0.973117 0
M  V30 8093 C 789.531 -2.77557 2.08757 0
M  V30 8094 C 788.485 -2.78965 3.24596 0
M  V30 8095 C 787.811 -4.18824 3.32401 0
M  V30 8096 C 789.111 -2.4301 4.62324 0
M  V30 8097 H 790.805 -1.14088 2.76811 0
M  V30 8098 H 788.351 -0.547389 1.3319 0
M  V30 8099 H 790.304 -3.53209 2.29829 0
M  V30 8100 H 789.028 -3.0568 1.15009 0
M  V30 8101 H 787.687 -2.05767 3.03406 0
M  V30 8102 H 787.335 -4.44083 2.36218 0
M  V30 8103 H 787.035 -4.20673 4.10253 0
M  V30 8104 H 788.559 -4.96294 3.55703 0
M  V30 8105 H 789.973 -3.08375 4.83299 0
M  V30 8106 H 788.37 -2.56116 5.42701 0
M  V30 8107 H 789.44 -1.38165 4.64799 0
M  V30 8108 N 790.784 -1.46188 -0.588786 0
M  V30 8109 C 791.714 -1.59148 -1.70863 0
M  V30 8110 C 792.695 -0.442083 -1.64255 0
M  V30 8111 O 793.88 -0.667575 -1.82365 0
M  V30 8112 C 791.01 -1.5757 -3.09498 0
M  V30 8113 C 789.964 -2.71418 -3.30932 0
M  V30 8114 C 789.29 -2.549 -4.70032 0
M  V30 8115 C 790.59 -4.1329 -3.19356 0
M  V30 8116 H 792.284 -2.52889 -1.60274 0
M  V30 8117 H 789.83 -1.21707 -0.769638 0
M  V30 8118 H 791.783 -1.65231 -3.87655 0
M  V30 8119 H 790.507 -0.603705 -3.20972 0
M  V30 8120 H 789.166 -2.63216 -2.55172 0
M  V30 8121 H 788.814 -1.55797 -4.78264 0
M  V30 8122 H 788.514 -3.31257 -4.85327 0
M  V30 8123 H 790.038 -2.64443 -5.50366 0
M  V30 8124 H 791.452 -4.22636 -3.87365 0
M  V30 8125 H 789.849 -4.90187 -3.46175 0
M  V30 8126 H 790.919 -4.33874 -2.16522 0
M  V30 8127 N 792.262 0.832906 -1.33792 0
M  V30 8128 C 793.678 1.1245 -1.13257 0
M  V30 8129 C 793.878 2.01369 0.0725832 0
M  V30 8130 O 792.934 2.41071 0.751082 0
M  V30 8131 C 794.247 1.78084 -2.42294 0
M  V30 8132 C 795.795 1.90624 -2.48257 0
M  V30 8133 C 796.27 2.59673 -3.77271 0
M  V30 8134 N 797.761 2.67181 -3.78376 0
M  V30 8135 C 798.496 3.21313 -4.74916 0
M  V30 8136 N 797.992 3.76086 -5.81835 0
M  V30 8137 N 799.785 3.19621 -4.62384 0
M  V30 8138 H 791.936 0.241244 -2.11026 0
M  V30 8139 H 794.199 0.169557 -0.932713 0
M  V30 8140 H 793.905 1.20209 -3.30519 0
M  V30 8141 H 793.779 2.78049 -2.5489 0
M  V30 8142 H 796.166 2.4765 -1.60478 0
M  V30 8143 H 796.247 0.89591 -2.39598 0
M  V30 8144 H 795.891 2.03304 -4.65435 0
M  V30 8145 H 795.821 3.61189 -3.8321 0
M  V30 8146 H 798.312 2.28346 -3.01108 0
M  V30 8147 H 798.625 4.15612 -6.51526 0
M  V30 8148 H 796.97 3.74357 -5.85561 0
M  V30 8149 H 800.161 2.76091 -3.7801 0
M  V30 8150 H 800.334 3.61504 -5.37791 0
M  V30 8151 N 793.74 1.17359 1.05189 0
M  V30 8152 C 795.156 0.920861 1.30355 0
M  V30 8153 C 795.356 -0.419993 1.97074 0
M  V30 8154 O 794.412 -1.15696 2.24434 0
M  V30 8155 C 795.725 2.07818 2.1733 0
M  V30 8156 C 797.273 2.1152 2.30712 0
M  V30 8157 C 797.748 3.26637 3.21048 0
M  V30 8158 N 799.239 3.26426 3.28634 0
M  V30 8159 C 799.974 4.12141 3.98657 0
M  V30 8160 N 799.47 5.07966 4.71107 0
M  V30 8161 N 801.263 4.00091 3.94821 0
M  V30 8162 H 793.414 2.03666 0.602821 0
M  V30 8163 H 795.677 0.889294 0.328421 0
M  V30 8164 H 795.383 3.04727 1.75597 0
M  V30 8165 H 795.257 2.02922 3.17966 0
M  V30 8166 H 797.644 1.15196 2.71687 0
M  V30 8167 H 797.725 2.20477 1.29706 0
M  V30 8168 H 797.369 4.23227 2.80788 0
M  V30 8169 H 797.299 3.14917 4.2206 0
M  V30 8170 H 799.79 2.57045 2.77013 0
M  V30 8171 H 800.103 5.69766 5.22099 0
M  V30 8172 H 798.448 5.11936 4.7005 0
M  V30 8173 H 801.639 3.24523 3.37346 0
M  V30 8174 H 801.812 4.6711 4.49123 0
M  V30 8175 N 795.218 -1.23913 0.973828 0
M  V30 8176 C 796.466 -1.91771 0.637817 0
M  V30 8177 C 796.787 -1.76434 -0.830435 0
M  V30 8178 O 796.057 -1.13965 -1.59339 0
M  V30 8179 H 794.637 -0.709761 0.232912 0
M  V30 8180 H 797.299 -1.50677 1.23622 0
M  V30 8181 H 796.395 -2.99327 0.883731 0
M  V30 8182 N 796.696 -0.74468 -1.38897 0
M  V30 8183 C 798.112 -0.421302 -1.53939 0
M  V30 8184 C 798.312 1.06668 -1.70951 0
M  V30 8185 O 797.368 1.85278 -1.71547 0
M  V30 8186 C 798.681 -1.21278 -2.75159 0
M  V30 8187 C 800.229 -1.20196 -2.89001 0
M  V30 8188 C 800.704 -1.97621 -4.13171 0
M  V30 8189 N 802.195 -1.94836 -4.2023 0
M  V30 8190 C 802.93 -2.51545 -5.15279 0
M  V30 8191 N 802.426 -3.1693 -6.16058 0
M  V30 8192 N 804.219 -2.41524 -5.07565 0
M  V30 8193 H 796.37 -1.70914 -1.26103 0
M  V30 8194 H 798.633 -0.724058 -0.611919 0
M  V30 8195 H 798.339 -2.26609 -2.68963 0
M  V30 8196 H 798.213 -0.823677 -3.68097 0
M  V30 8197 H 800.6 -0.156742 -2.94683 0
M  V30 8198 H 800.681 -1.63051 -1.97099 0
M  V30 8199 H 800.325 -3.02149 -4.0825 0
M  V30 8200 H 800.255 -1.52166 -5.04136 0
M  V30 8201 H 802.746 -1.4721 -3.48048 0
M  V30 8202 H 803.059 -3.57644 -6.85062 0
M  V30 8203 H 801.404 -3.21023 -6.16417 0
M  V30 8204 H 804.595 -1.90077 -4.27771 0
M  V30 8205 H 804.768 -2.86016 -5.81462 0
M  V30 8206 N 798.174 1.49689 -0.493057 0
M  V30 8207 C 799.42 2.02727 0.0543518 0
M  V30 8208 C 799.753 1.37264 1.37376 0
M  V30 8209 O 799.028 0.505644 1.87812 0
M  V30 8210 C 799.311 3.59456 0.215226 0
M  V30 8211 C 799.164 4.35459 -1.12675 0
M  V30 8212 C 800.483 4.29511 0.959586 0
M  V30 8213 H 797.602 0.736773 0.0182786 0
M  V30 8214 H 800.244 1.78792 -0.642924 0
M  V30 8215 H 798.394 3.79981 0.809122 0
M  V30 8216 H 800.066 4.2645 -1.75891 0
M  V30 8217 H 798.309 3.9833 -1.71801 0
M  V30 8218 H 798.98 5.43454 -0.967578 0
M  V30 8219 H 801.456 4.13594 0.455977 0
M  V30 8220 H 800.332 5.38939 1.04098 0
M  V30 8221 H 800.593 3.94202 2.00144 0
M  V30 8222 N 799.652 0.226554 1.55963 0
M  V30 8223 C 800.615 -0.668015 2.19249 0
M  V30 8224 C 801.615 -1.11794 1.1558 0
M  V30 8225 O 802.805 -1.02593 1.40784 0
M  V30 8226 C 799.937 -1.91571 2.81981 0
M  V30 8227 H 801.13 -0.116175 2.99675 0
M  V30 8228 H 798.683 -0.0230497 1.56283 0
M  V30 8229 H 799.418 -2.50929 2.05439 0
M  V30 8230 H 799.203 -1.6015 3.57903 0
M  V30 8231 H 800.693 -2.55294 3.30477 0
M  V30 8232 N 801.13 -1.57531 -0.0467866 0
M  V30 8233 C 802.378 -1.88078 -0.739656 0
M  V30 8234 C 802.699 -0.821936 -1.76831 0
M  V30 8235 O 801.969 0.146582 -1.95351 0
M  V30 8236 H 800.549 -0.694075 -0.276169 0
M  V30 8237 H 803.211 -1.94893 -0.0169391 0
M  V30 8238 H 802.307 -2.86396 -1.24031 0
M  V30 8239 N 802.608 0.318715 -1.54344 0
M  V30 8240 C 803.538 1.39751 -1.87061 0
M  V30 8241 C 804.519 1.53741 -0.727848 0
M  V30 8242 O 805.704 1.67541 -0.982016 0
M  V30 8243 C 802.834 2.76446 -2.10226 0
M  V30 8244 C 801.788 2.77239 -3.26071 0
M  V30 8245 C 801.114 4.17056 -3.34617 0
M  V30 8246 C 802.414 2.40555 -4.63606 0
M  V30 8247 H 804.108 1.12619 -2.77412 0
M  V30 8248 H 801.654 0.540318 -1.33479 0
M  V30 8249 H 803.607 3.51985 -2.31699 0
M  V30 8250 H 802.331 3.05066 -1.16629 0
M  V30 8251 H 800.99 2.04155 -3.04493 0
M  V30 8252 H 800.638 4.42824 -2.3857 0
M  V30 8253 H 800.338 4.18492 -4.12478 0
M  V30 8254 H 801.862 4.94401 -3.5833 0
M  V30 8255 H 803.276 3.05808 -4.84927 0
M  V30 8256 H 801.673 2.53234 -5.44052 0
M  V30 8257 H 802.743 1.35698 -4.65526 0
M  V30 8258 N 804.086 1.46499 0.581025 0
M  V30 8259 C 805.049 1.5677 1.672 0
M  V30 8260 C 806.049 0.444716 1.54528 0
M  V30 8261 O 807.239 0.709074 1.59116 0
M  V30 8262 C 804.371 1.4896 3.06633 0
M  V30 8263 H 805.564 2.54 1.5945 0
M  V30 8264 H 803.117 1.34334 0.799003 0
M  V30 8265 H 803.852 0.530168 3.19937 0
M  V30 8266 H 803.637 2.30439 3.17239 0
M  V30 8267 H 805.127 1.59237 3.86048 0
M  V30 8268 N 805.565 -0.825799 1.34232 0
M  V30 8269 C 806.79 -1.61883 1.29648 0
M  V30 8270 C 807.215 -1.87669 -0.127295 0
M  V30 8271 O 806.573 -1.45016 -1.08813 0
M  V30 8272 C 806.621 -2.93846 2.09014 0
M  V30 8273 O 805.725 -3.85778 1.4577 0
M  V30 8274 H 805.066 -0.492454 0.445405 0
M  V30 8275 H 807.596 -1.02641 1.76992 0
M  V30 8276 H 807.606 -3.43435 2.20264 0
M  V30 8277 H 806.281 -2.74401 3.12533 0
M  V30 8278 H 804.858 -3.4429 1.43245 0
M  V30 8279 N 807.043 -1.17915 -1.04565 0
M  V30 8280 C 808.291 -0.969505 -1.77327 0
M  V30 8281 C 808.612 0.502569 -1.88412 0
M  V30 8282 O 807.882 1.36467 -1.40547 0
M  V30 8283 H 806.462 -0.355723 -0.656864 0
M  V30 8284 H 809.124 -1.48506 -1.26223 0
M  V30 8285 H 808.22 -1.40324 -2.78775 0
M  V30 8286 N 808.521 1.23394 -0.980386 0
M  V30 8287 C 809.932 1.73631 -0.686239 0
M  V30 8288 C 810.283 1.79259 0.797541 0
M  V30 8289 O 809.408 1.43046 1.62379 0
M  V30 8290 C 810.003 3.15332 -1.239 0
M  V30 8291 C 808.562 3.63024 -0.994494 0
M  V30 8292 C 807.709 2.41279 -1.36673 0
M  V30 8293 H 810.66 1.08918 -1.15423 0
M  V30 8294 H 810.681 3.75556 -0.611414 0
M  V30 8295 H 810.193 3.11204 -2.31892 0
M  V30 8296 H 808.294 3.72535 0.0693492 0
M  V30 8297 H 808.407 4.49825 -1.64906 0
M  V30 8298 H 806.771 2.42295 -0.785195 0
M  V30 8299 H 807.554 2.39822 -2.45642 0
M  V30 8300 N 809.999 0.752036 1.385 0
M  V30 8301 C 810.962 0.131587 2.28822 0
M  V30 8302 C 811.962 -0.649149 1.47115 0
M  V30 8303 O 813.152 -0.475645 1.67581 0
M  V30 8304 C 810.284 -0.822101 3.30839 0
M  V30 8305 H 811.477 0.927551 2.85196 0
M  V30 8306 H 809.03 0.518945 1.47434 0
M  V30 8307 H 809.765 -1.6438 2.79553 0
M  V30 8308 H 809.55 -0.264689 3.91206 0
M  V30 8309 H 811.04 -1.25226 3.98382 0
M  V30 8310 N 811.477 -1.49425 0.500989 0
M  V30 8311 C 812.723 -2.03369 -0.0355945 0
M  V30 8312 C 813.078 -1.37387 -1.34694 0
M  V30 8313 O 812.371 -0.500516 -1.84947 0
M  V30 8314 C 812.565 -3.56562 -0.24463 0
M  V30 8315 C 812.394 -4.37392 1.04491 0
M  V30 8316 C 811.164 -4.7941 1.59669 0
M  V30 8317 C 813.362 -4.75974 1.94817 0
M  V30 8318 N 811.344 -5.44668 2.83214 0
M  V30 8319 C 812.715 -5.4095 3.0294 0
M  V30 8320 C 814.77 -4.57915 1.95495 0
M  V30 8321 C 813.473 -5.89779 4.11768 0
M  V30 8322 C 815.499 -5.07705 3.03298 0
M  V30 8323 C 814.861 -5.72682 4.1014 0
M  V30 8324 H 810.96 -0.781507 0.0277547 0
M  V30 8325 H 813.544 -1.82594 0.675844 0
M  V30 8326 H 811.715 -3.77221 -0.925126 0
M  V30 8327 H 813.447 -3.97147 -0.778219 0
M  V30 8328 H 810.202 -4.59629 1.14185 0
M  V30 8329 H 810.626 -5.81884 3.46035 0
M  V30 8330 H 815.268 -4.07085 1.14199 0
M  V30 8331 H 812.986 -6.3963 4.93862 0
M  V30 8332 H 816.572 -4.95542 3.04843 0
M  V30 8333 H 815.452 -6.10512 4.92184 0
M  V30 8334 N 812.955 -0.234822 -1.55841 0
M  V30 8335 C 814.371 0.120295 -1.59146 0
M  V30 8336 C 814.571 1.57896 -1.25184 0
M  V30 8337 O 813.627 2.32138 -0.993393 0
M  V30 8338 C 814.94 -0.217984 -2.99909 0
M  V30 8339 C 816.488 -0.161298 -3.12584 0
M  V30 8340 C 816.963 -0.473438 -4.55546 0
M  V30 8341 N 818.454 -0.423494 -4.6126 0
M  V30 8342 C 819.189 -0.638334 -5.69836 0
M  V30 8343 N 818.685 -0.915659 -6.86722 0
M  V30 8344 N 820.478 -0.569864 -5.59204 0
M  V30 8345 H 812.629 -1.18622 -1.76189 0
M  V30 8346 H 814.892 -0.476426 -0.819587 0
M  V30 8347 H 814.598 -1.2309 -3.29457 0
M  V30 8348 H 814.472 0.460707 -3.74376 0
M  V30 8349 H 816.859 0.842274 -2.82825 0
M  V30 8350 H 816.94 -0.873661 -2.40418 0
M  V30 8351 H 816.584 -1.47451 -4.86025 0
M  V30 8352 H 816.514 0.260268 -5.25956 0
M  V30 8353 H 819.005 -0.217383 -3.77274 0
M  V30 8354 H 819.318 -1.06734 -7.65394 0
M  V30 8355 H 817.663 -0.953 -6.88435 0
M  V30 8356 H 820.854 -0.35334 -4.66765 0
M  V30 8357 H 821.027 -0.740698 -6.43753 0
M  V30 8358 N 814.433 1.57553 0.0384317 0
M  V30 8359 C 815.363 2.0898 1.04161 0
M  V30 8360 C 816.344 0.99029 1.38301 0
M  V30 8361 O 817.529 1.26499 1.47349 0
M  V30 8362 C 814.659 2.56145 2.34536 0
M  V30 8363 C 813.613 3.70275 2.14663 0
M  V30 8364 C 812.939 4.03612 3.50715 0
M  V30 8365 C 814.239 4.99067 1.54045 0
M  V30 8366 H 815.933 2.93046 0.613548 0
M  V30 8367 H 813.479 1.40973 0.293684 0
M  V30 8368 H 815.432 2.90741 3.05037 0
M  V30 8369 H 814.156 1.6915 2.79385 0
M  V30 8370 H 812.815 3.36013 1.46597 0
M  V30 8371 H 812.463 3.13698 3.93195 0
M  V30 8372 H 812.163 4.80482 3.38247 0
M  V30 8373 H 813.687 4.40735 4.22593 0
M  V30 8374 H 815.101 5.3168 2.14451 0
M  V30 8375 H 813.498 5.80484 1.52178 0
M  V30 8376 H 814.568 4.8226 0.505259 0
M  V30 8377 N 815.911 -0.310526 1.54511 0
M  V30 8378 C 817.16 -1.0445 1.72549 0
M  V30 8379 C 817.473 -1.88748 0.513172 0
M  V30 8380 O 818.679 -2.65338 0.575165 0
M  V30 8381 C 817.135 -1.90665 3.05246 0
M  V30 8382 C 816.743 -1.11415 4.33925 0
M  V30 8383 C 818.487 -2.63719 3.32645 0
M  V30 8384 C 816.394 -1.96852 5.57677 0
M  V30 8385 H 815.324 -0.393676 0.643067 0
M  V30 8386 H 817.975 -0.302003 1.80998 0
M  V30 8387 H 816.357 -2.68864 2.90737 0
M  V30 8388 H 817.531 -0.378956 4.59239 0
M  V30 8389 H 815.846 -0.499853 4.13389 0
M  V30 8390 H 818.443 -3.27974 4.223 0
M  V30 8391 H 818.786 -3.32047 2.51098 0
M  V30 8392 H 819.319 -1.92574 3.48081 0
M  V30 8393 H 816.058 -1.33009 6.41864 0
M  V30 8394 H 815.578 -2.68069 5.36562 0
M  V30 8395 H 817.257 -2.55127 5.94575 0
M  V30 8396 N 817.389 -1.46805 -0.573248 0
M  V30 8397 C 818.637 -1.52302 -1.32847 0
M  V30 8398 C 818.958 -0.180159 -1.94166 0
M  V30 8399 O 818.228 0.794291 -1.79075 0
M  V30 8400 H 816.808 -0.56097 -0.493276 0
M  V30 8401 H 819.47 -1.82998 -0.670642 0
M  V30 8402 H 818.566 -2.28089 -2.13031 0
M  V30 8403 N 818.867 0.818669 -1.34668 0
M  V30 8404 C 820.095 1.60674 -1.30351 0
M  V30 8405 C 820.51 1.88408 0.121546 0
M  V30 8406 O 819.867 1.47849 1.06991 0
M  V30 8407 C 819.918 2.94516 -2.09625 0
M  V30 8408 O 819.639 2.6799 -3.46573 0
M  V30 8409 C 821.14 3.8891 -2.12754 0
M  V30 8410 H 818.36 0.499306 -0.448258 0
M  V30 8411 H 820.904 1.01828 -1.77345 0
M  V30 8412 H 819.059 3.49908 -1.66262 0
M  V30 8413 H 819.473 3.53361 -3.87603 0
M  V30 8414 H 820.947 4.79972 -2.72637 0
M  V30 8415 H 821.424 4.24599 -1.12306 0
M  V30 8416 H 822.03 3.39453 -2.56225 0
M  V30 8417 N 820.346 1.18468 1.03938 0
M  V30 8418 C 821.574 1.00576 1.80809 0
M  V30 8419 C 821.989 -0.445786 1.83462 0
M  V30 8420 O 821.346 -1.30964 1.27101 0
M  V30 8421 C 821.397 1.55491 3.26351 0
M  V30 8422 O 821.118 2.94963 3.23926 0
M  V30 8423 C 822.619 1.42236 4.19862 0
M  V30 8424 H 819.839 0.35508 0.56935 0
M  V30 8425 H 822.383 1.57046 1.30984 0
M  V30 8426 H 820.538 1.03195 3.73403 0
M  V30 8427 H 820.952 3.20598 4.15111 0
M  V30 8428 H 822.426 1.85455 5.19914 0
M  V30 8429 H 822.903 0.371267 4.37628 0
M  V30 8430 H 823.509 1.9361 3.78675 0
M  V30 8431 N 821.824 -1.22873 0.986916 0
M  V30 8432 C 822.787 -2.2281 0.537442 0
M  V30 8433 C 823.787 -1.56331 -0.37646 0
M  V30 8434 O 824.977 -1.73376 -0.169247 0
M  V30 8435 C 822.109 -3.40195 -0.219082 0
M  V30 8436 H 823.302 -2.64089 1.42116 0
M  V30 8437 H 820.855 -1.35819 0.773488 0
M  V30 8438 H 821.59 -3.04381 -1.11905 0
M  V30 8439 H 821.375 -3.89657 0.437026 0
M  V30 8440 H 822.865 -4.14326 -0.521926 0
M  V30 8441 N 823.302 -0.75937 -1.38099 0
M  V30 8442 C 824.548 -0.318584 -2.00282 0
M  V30 8443 C 824.881 1.09854 -1.60143 0
M  V30 8444 O 824.156 1.75344 -0.841702 0
M  V30 8445 C 824.439 -0.448047 -3.57302 0
M  V30 8446 C 824.292 -1.9067 -4.07388 0
M  V30 8447 C 825.611 0.155119 -4.39827 0
M  V30 8448 H 822.73 -0.117233 -0.727616 0
M  V30 8449 H 825.372 -0.960097 -1.63958 0
M  V30 8450 H 823.522 0.0981003 -3.88376 0
M  V30 8451 H 825.194 -2.5116 -3.86932 0
M  V30 8452 H 823.437 -2.41979 -3.6004 0
M  V30 8453 H 824.108 -1.94841 -5.1647 0
M  V30 8454 H 826.584 -0.31073 -4.14938 0
M  V30 8455 H 825.46 0.0343264 -5.48889 0
M  V30 8456 H 825.721 1.24407 -4.24235 0
M  V30 8457 N 824.78 1.49157 -0.508906 0
M  V30 8458 C 826.028 2.02073 0.0327335 0
M  V30 8459 C 826.349 1.39012 1.3675 0
M  V30 8460 O 825.619 0.548153 1.88075 0
M  V30 8461 H 824.199 0.746848 0.0150864 0
M  V30 8462 H 826.861 1.83097 -0.667946 0
M  V30 8463 H 825.957 3.11707 0.1566 0
M  V30 8464 N 826.258 0.243083 1.55714 0
M  V30 8465 C 827.188 -0.652336 2.24203 0
M  V30 8466 C 828.169 -1.1843 1.221 0
M  V30 8467 O 829.354 -1.22435 1.50743 0
M  V30 8468 C 826.484 -1.85111 2.93856 0
M  V30 8469 C 825.438 -1.45208 4.02615 0
M  V30 8470 C 824.764 -2.73137 4.59674 0
M  V30 8471 C 826.064 -0.625988 5.18535 0
M  V30 8472 H 827.758 -0.0812504 2.9929 0
M  V30 8473 H 825.304 -0.0376388 1.43951 0
M  V30 8474 H 827.257 -2.48314 3.40468 0
M  V30 8475 H 825.981 -2.44751 2.16251 0
M  V30 8476 H 824.64 -0.843406 3.56766 0
M  V30 8477 H 824.288 -3.30967 3.78774 0
M  V30 8478 H 823.988 -2.47163 5.33089 0
M  V30 8479 H 825.512 -3.37245 5.09017 0
M  V30 8480 H 826.926 -1.16223 5.61396 0
M  V30 8481 H 825.323 -0.462465 5.98315 0
M  V30 8482 H 826.393 0.362652 4.83542 0
M  V30 8483 N 827.736 -1.57571 -0.0300757 0
M  V30 8484 C 828.666 -2.0953 -1.03051 0
M  V30 8485 C 829.647 -0.99761 -1.37774 0
M  V30 8486 O 830.832 -1.27279 -1.46676 0
M  V30 8487 C 827.962 -2.57385 -2.33174 0
M  V30 8488 C 826.916 -3.71409 -2.12696 0
M  V30 8489 C 826.242 -4.05467 -3.4857 0
M  V30 8490 C 827.542 -4.99877 -1.51396 0
M  V30 8491 H 829.236 -2.93367 -0.597999 0
M  V30 8492 H 826.782 -1.41127 -0.286203 0
M  V30 8493 H 828.735 -2.92355 -3.03491 0
M  V30 8494 H 827.459 -1.70629 -2.78484 0
M  V30 8495 H 826.118 -3.36786 -1.44813 0
M  V30 8496 H 825.766 -3.15779 -3.91526 0
M  V30 8497 H 825.466 -4.82269 -3.35694 0
M  V30 8498 H 826.99 -4.4297 -4.2025 0
M  V30 8499 H 828.404 -5.3281 -2.11629 0
M  V30 8500 H 826.801 -5.81283 -1.49098 0
M  V30 8501 H 827.871 -4.82522 -0.479676 0
M  V30 8502 N 829.214 0.302327 -1.54673 0
M  V30 8503 C 830.144 1.37759 -1.88533 0
M  V30 8504 C 831.125 1.52961 -0.744113 0
M  V30 8505 O 832.31 1.6649 -0.999731 0
M  V30 8506 C 829.44 2.74201 -2.13146 0
M  V30 8507 C 828.394 2.73765 -3.28993 0
M  V30 8508 C 827.72 4.13483 -3.39022 0
M  V30 8509 C 829.02 2.35624 -4.66132 0
M  V30 8510 H 830.714 1.0967 -2.78591 0
M  V30 8511 H 828.26 0.52613 -1.34044 0
M  V30 8512 H 830.213 3.49508 -2.35419 0
M  V30 8513 H 828.937 3.03812 -1.19858 0
M  V30 8514 H 827.596 2.00914 -3.06642 0
M  V30 8515 H 827.244 4.40269 -2.43253 0
M  V30 8516 H 826.944 4.14093 -4.16894 0
M  V30 8517 H 828.468 4.90572 -3.63553 0
M  V30 8518 H 829.882 3.00647 -4.88143 0
M  V30 8519 H 828.279 2.47449 -5.46707 0
M  V30 8520 H 829.349 1.30753 -4.66939 0
M  V30 8521 N 830.692 1.47107 0.565454 0
M  V30 8522 C 831.622 1.61846 1.68309 0
M  V30 8523 C 832.603 0.468159 1.63531 0
M  V30 8524 O 833.788 0.696504 1.8128 0
M  V30 8525 C 830.918 1.62474 3.06952 0
M  V30 8526 C 829.872 2.76649 3.26572 0
M  V30 8527 C 829.198 2.62345 4.65917 0
M  V30 8528 C 830.498 4.18319 3.12741 0
M  V30 8529 H 832.192 2.55407 1.5623 0
M  V30 8530 H 829.738 1.22916 0.750179 0
M  V30 8531 H 831.691 1.71378 3.84977 0
M  V30 8532 H 830.415 0.654692 3.19971 0
M  V30 8533 H 829.074 2.67242 2.50952 0
M  V30 8534 H 828.722 1.63386 4.75725 0
M  V30 8535 H 828.422 3.38936 4.79996 0
M  V30 8536 H 829.946 2.73165 5.46089 0
M  V30 8537 H 831.36 4.28745 3.80593 0
M  V30 8538 H 829.757 4.95632 3.38333 0
M  V30 8539 H 830.827 4.37263 2.09592 0
M  V30 8540 N 832.17 -0.811516 1.35101 0
M  V30 8541 C 833.398 -1.59981 1.31201 0
M  V30 8542 C 833.813 -1.8847 -0.111552 0
M  V30 8543 O 833.17 -1.48414 -1.06205 0
M  V30 8544 C 833.221 -2.934 2.11184 0
M  V30 8545 O 832.942 -2.66148 3.4799 0
M  V30 8546 C 834.443 -3.87776 2.14813 0
M  V30 8547 H 831.663 -0.496921 0.450899 0
M  V30 8548 H 834.207 -1.00886 1.77883 0
M  V30 8549 H 832.362 -3.49022 1.68115 0
M  V30 8550 H 832.776 -3.51301 3.89471 0
M  V30 8551 H 834.25 -4.7852 2.75178 0
M  V30 8552 H 834.727 -4.23997 1.14556 0
M  V30 8553 H 835.333 -3.3809 2.58022 0
M  V30 8554 N 833.648 -1.19017 -1.03309 0
M  V30 8555 C 834.895 -0.990214 -1.76638 0
M  V30 8556 C 835.223 0.479435 -1.88498 0
M  V30 8557 O 834.478 1.37223 -1.39529 0
M  V30 8558 C 834.777 -1.59927 -3.19622 0
M  V30 8559 C 834.443 -3.09632 -3.27779 0
M  V30 8560 C 833.105 -3.50491 -3.29712 0
M  V30 8561 C 835.457 -4.05644 -3.27264 0
M  V30 8562 C 832.785 -4.85921 -3.28782 0
M  V30 8563 C 835.137 -5.41 -3.27875 0
M  V30 8564 C 833.801 -5.81295 -3.28104 0
M  V30 8565 H 833.071 -0.362345 -0.646364 0
M  V30 8566 H 835.718 -1.48197 -1.21284 0
M  V30 8567 H 834.023 -1.0297 -3.78027 0
M  V30 8568 H 835.72 -1.41989 -3.7502 0
M  V30 8569 H 832.31 -2.77073 -3.26999 0
M  V30 8570 H 836.494 -3.75124 -3.24955 0
M  V30 8571 H 831.75 -5.16427 -3.27281 0
M  V30 8572 H 835.924 -6.15157 -3.26428 0
M  V30 8573 H 833.551 -6.86211 -3.27138 0
M  V30 8574 N 835.127 1.22348 -0.993418 0
M  V30 8575 C 836.355 1.95125 -0.688021 0
M  V30 8576 C 836.77 1.73377 0.747388 0
M  V30 8577 O 836.127 1.03317 1.50439 0
M  V30 8578 C 836.178 3.47819 -0.985097 0
M  V30 8579 O 835.899 3.68838 -2.3641 0
M  V30 8580 C 837.4 4.37779 -0.697474 0
M  V30 8581 H 834.62 0.62087 -0.254481 0
M  V30 8582 H 837.164 1.55485 -1.32833 0
M  V30 8583 H 835.319 3.85426 -0.390583 0
M  V30 8584 H 835.733 4.63032 -2.46377 0
M  V30 8585 H 837.207 5.43666 -0.955604 0
M  V30 8586 H 837.684 4.37651 0.368524 0
M  V30 8587 H 838.29 4.05799 -1.27306 0
M  V30 8588 N 836.605 0.766683 1.37694 0
M  V30 8589 C 838.016 0.394761 1.82479 0
M  V30 8590 C 838.367 -1.07842 1.63904 0
M  V30 8591 O 837.492 -1.83479 1.14737 0
M  V30 8592 C 838.087 0.70974 3.31283 0
M  V30 8593 C 836.646 0.390936 3.74364 0
M  V30 8594 C 835.793 0.956192 2.60293 0
M  V30 8595 H 838.744 0.961756 1.26238 0
M  V30 8596 H 838.765 -0.00742144 3.80499 0
M  V30 8597 H 838.277 1.782 3.4477 0
M  V30 8598 H 836.378 -0.674213 3.66449 0
M  V30 8599 H 836.491 0.895645 4.70654 0
M  V30 8600 H 834.855 0.380744 2.51838 0
M  V30 8601 H 835.638 2.03375 2.76575 0
M  V30 8602 N 838.083 -1.48885 0.516809 0
M  V30 8603 C 839.311 -2.06892 -0.0184017 0
M  V30 8604 C 839.726 -1.37511 -1.29368 0
M  V30 8605 O 839.083 -0.458409 -1.76649 0
M  V30 8606 C 839.134 -3.60566 -0.259673 0
M  V30 8607 O 838.855 -4.27338 0.965065 0
M  V30 8608 C 840.356 -4.35331 -0.836751 0
M  V30 8609 H 837.576 -0.670433 0.0275743 0
M  V30 8610 H 840.12 -1.91455 0.718689 0
M  V30 8611 H 838.275 -3.75653 -0.94678 0
M  V30 8612 H 838.689 -5.19287 0.737647 0
M  V30 8613 H 840.163 -5.43675 -0.955065 0
M  V30 8614 H 840.64 -3.9887 -1.83845 0
M  V30 8615 H 841.246 -4.2489 -0.186622 0
M  V30 8616 N 839.561 -0.251338 -1.55583 0
M  V30 8617 C 840.508 0.646337 -2.21565 0
M  V30 8618 C 841.478 1.16796 -1.18102 0
M  V30 8619 O 842.663 1.22162 -1.46564 0
M  V30 8620 C 839.803 1.83557 -2.92234 0
M  V30 8621 C 838.916 1.35006 -4.10363 0
M  V30 8622 C 838.051 2.4992 -4.68736 0
M  V30 8623 C 837.09 1.98253 -5.79105 0
M  V30 8624 N 836.227 3.06551 -6.31642 0
M  V30 8625 H 841.067 0.0769881 -2.97901 0
M  V30 8626 H 838.604 0.026238 -1.47077 0
M  V30 8627 H 840.562 2.53425 -3.31408 0
M  V30 8628 H 839.192 2.37733 -2.18364 0
M  V30 8629 H 838.244 0.545274 -3.76472 0
M  V30 8630 H 839.556 0.931435 -4.90026 0
M  V30 8631 H 838.71 3.27823 -5.10507 0
M  V30 8632 H 837.449 2.95086 -3.88298 0
M  V30 8633 H 836.454 1.18822 -5.36807 0
M  V30 8634 H 837.679 1.54051 -6.61396 0
M  V30 8635 H 835.625 3.51143 -5.54107 0
M  V30 8636 H 835.542 2.69033 -7.06511 0
M  V30 8637 H 836.81 3.84499 -6.78071 0
M  V30 8638 N 841.039 1.57585 0.0217189 0
M  V30 8639 C 842.285 1.90733 0.706582 0
M  V30 8640 C 842.64 0.850732 1.7257 0
M  V30 8641 O 841.933 -0.139715 1.9109 0
M  V30 8642 C 842.127 3.28377 1.41079 0
M  V30 8643 C 841.956 4.47327 0.461395 0
M  V30 8644 C 840.726 5.05237 0.0797404 0
M  V30 8645 C 842.924 5.13626 -0.263302 0
M  V30 8646 N 840.906 6.07702 -0.870139 0
M  V30 8647 C 842.277 6.10722 -1.06859 0
M  V30 8648 C 844.332 4.96809 -0.329461 0
M  V30 8649 C 843.035 6.92813 -1.93397 0
M  V30 8650 C 845.061 5.79468 -1.18199 0
M  V30 8651 C 844.423 6.7614 -1.97519 0
M  V30 8652 H 840.522 0.74666 0.232427 0
M  V30 8653 H 843.106 1.94671 -0.0335228 0
M  V30 8654 H 841.277 3.25354 2.12131 0
M  V30 8655 H 843.009 3.49018 2.04862 0
M  V30 8656 H 839.764 4.71519 0.443498 0
M  V30 8657 H 840.188 6.6361 -1.33981 0
M  V30 8658 H 844.83 4.2194 0.269485 0
M  V30 8659 H 842.548 7.67022 -2.54369 0
M  V30 8660 H 846.134 5.68502 -1.23681 0
M  V30 8661 H 845.014 7.38989 -2.62421 0
M  V30 8662 N 842.517 -0.29412 1.54831 0
M  V30 8663 C 843.48 -1.3461 1.85507 0
M  V30 8664 C 844.48 -1.43359 0.728343 0
M  V30 8665 O 845.67 -1.42875 0.996609 0
M  V30 8666 C 842.802 -2.73012 2.0415 0
M  V30 8667 H 843.995 -1.08651 2.79526 0
M  V30 8668 H 841.548 -0.531138 1.46999 0
M  V30 8669 H 842.283 -3.04183 1.12441 0
M  V30 8670 H 842.068 -2.68051 2.86166 0
M  V30 8671 H 843.558 -3.49061 2.29229 0
M  V30 8672 N 843.995 -1.47404 -0.557645 0
M  V30 8673 C 845.241 -1.54235 -1.31679 0
M  V30 8674 C 845.574 -0.203782 -1.93128 0
M  V30 8675 O 844.849 0.787536 -1.77843 0
M  V30 8676 C 845.132 -2.66003 -2.42723 0
M  V30 8677 C 844.985 -4.09475 -1.86145 0
M  V30 8678 C 846.304 -2.73685 -3.44652 0
M  V30 8679 H 843.423 -0.561466 -0.477415 0
M  V30 8680 H 846.065 -1.79459 -0.624067 0
M  V30 8681 H 844.215 -2.44627 -3.01811 0
M  V30 8682 H 845.887 -4.42213 -1.31321 0
M  V30 8683 H 844.13 -4.17774 -1.16823 0
M  V30 8684 H 844.801 -4.83451 -2.66418 0
M  V30 8685 H 847.277 -2.92968 -2.95481 0
M  V30 8686 H 846.153 -3.53665 -4.19777 0
M  V30 8687 H 846.414 -1.80726 -4.03473 0
M  V30 8688 N 845.473 0.80434 -1.35529 0
M  V30 8689 C 846.405 1.92445 -1.2449 0
M  V30 8690 C 847.418 1.61934 -0.167685 0
M  V30 8691 O 848.607 1.73461 -0.42115 0
M  V30 8692 C 845.707 3.26875 -0.894751 0
M  V30 8693 C 844.88 3.85275 -2.07079 0
M  V30 8694 C 843.939 4.98116 -1.69607 0
M  V30 8695 O 842.965 5.15424 -2.41509 0
M  V30 8696 N 844.167 5.77169 -0.621012 0
M  V30 8697 H 846.932 2.02441 -2.20993 0
M  V30 8698 H 844.493 0.981874 -1.28728 0
M  V30 8699 H 846.485 3.99837 -0.625511 0
M  V30 8700 H 845.055 3.12594 -0.0193306 0
M  V30 8701 H 844.275 3.0448 -2.5037 0
M  V30 8702 H 845.563 4.21024 -2.85685 0
M  V30 8703 H 844.961 5.65695 -0.0236679 0
M  V30 8704 H 843.518 6.50499 -0.411558 0
M  V30 8705 N 846.951 1.19563 1.02676 0
M  V30 8706 C 848.198 0.999568 1.7611 0
M  V30 8707 C 848.526 -0.469432 1.8875 0
M  V30 8708 O 847.781 -1.36481 1.40255 0
M  V30 8709 C 848.08 1.61619 3.18769 0
M  V30 8710 C 847.746 3.11366 3.26132 0
M  V30 8711 C 846.408 3.52234 3.27848 0
M  V30 8712 C 848.76 4.07374 3.25109 0
M  V30 8713 C 846.088 4.87658 3.26201 0
M  V30 8714 C 848.44 5.42731 3.25002 0
M  V30 8715 C 847.104 5.83027 3.25017 0
M  V30 8716 H 846.374 0.365768 0.644434 0
M  V30 8717 H 849.021 1.48838 1.20497 0
M  V30 8718 H 847.326 1.04974 3.77476 0
M  V30 8719 H 849.023 1.43975 3.74262 0
M  V30 8720 H 845.613 2.78804 3.25525 0
M  V30 8721 H 849.797 3.76842 3.22961 0
M  V30 8722 H 845.053 5.18156 3.24537 0
M  V30 8723 H 849.227 6.16879 3.23161 0
M  V30 8724 H 846.854 6.87936 3.23494 0
M  V30 8725 N 848.429 -1.21819 0.999893 0
M  V30 8726 C 849.677 -1.90375 0.678351 0
M  V30 8727 C 849.998 -1.78155 -0.792824 0
M  V30 8728 O 849.268 -1.17319 -1.56885 0
M  V30 8729 H 847.848 -0.704661 0.247915 0
M  V30 8730 H 850.51 -1.48021 1.2679 0
M  V30 8731 H 849.606 -2.97385 0.947023 0
M  V30 8732 N 849.908 -0.773975 -1.37286 0
M  V30 8733 C 850.871 -0.167974 -2.28584 0
M  V30 8734 C 851.871 0.625662 -1.48129 0
M  V30 8735 O 853.061 0.448924 -1.68316 0
M  V30 8736 C 850.193 0.769364 -3.32105 0
M  V30 8737 H 851.386 -0.972806 -2.83684 0
M  V30 8738 H 848.939 -0.542335 -1.46589 0
M  V30 8739 H 849.674 1.59912 -2.82132 0
M  V30 8740 H 849.459 0.202419 -3.91577 0
M  V30 8741 H 850.949 1.18872 -4.00324 0
M  V30 8742 N 851.386 1.48609 -0.524698 0
M  V30 8743 C 852.633 2.02497 0.0113214 0
M  V30 8744 C 852.961 1.40229 1.34781 0
M  V30 8745 O 852.216 0.53557 1.88229 0
M  V30 8746 C 852.515 3.56906 0.187873 0
M  V30 8747 C 852.181 4.37932 -1.07359 0
M  V30 8748 C 850.843 4.59792 -1.41933 0
M  V30 8749 C 853.195 4.84902 -1.911 0
M  V30 8750 C 850.523 5.25868 -2.60154 0
M  V30 8751 C 852.875 5.52281 -3.08495 0
M  V30 8752 C 851.539 5.7238 -3.4342 0
M  V30 8753 H 850.809 0.740988 0.0041428 0
M  V30 8754 H 853.456 1.78651 -0.689652 0
M  V30 8755 H 851.761 3.79563 0.971572 0
M  V30 8756 H 853.458 3.96218 0.617443 0
M  V30 8757 H 850.048 4.21175 -0.794331 0
M  V30 8758 H 854.232 4.67821 -1.65701 0
M  V30 8759 H 849.488 5.39628 -2.87422 0
M  V30 8760 H 853.662 5.87645 -3.73692 0
M  V30 8761 H 851.289 6.23354 -4.35126 0
M  V30 8762 N 852.864 0.259585 1.55447 0
M  V30 8763 C 853.827 -0.621359 2.20617 0
M  V30 8764 C 854.827 -1.09317 1.17925 0
M  V30 8765 O 856.017 -0.995842 1.42929 0
M  V30 8766 C 853.149 -1.85546 2.85982 0
M  V30 8767 H 854.342 -0.0525833 2.99854 0
M  V30 8768 H 851.895 0.0101055 1.56297 0
M  V30 8769 H 852.63 -2.46515 2.10715 0
M  V30 8770 H 852.415 -1.52523 3.61219 0
M  V30 8771 H 853.905 -2.48227 3.35817 0
M  V30 8772 N 854.342 -1.57594 -0.0133615 0
M  V30 8773 C 855.59 -1.89605 -0.699596 0
M  V30 8774 C 855.911 -0.85926 -1.75048 0
M  V30 8775 O 855.181 0.105112 -1.95618 0
M  V30 8776 H 853.761 -0.699776 -0.261385 0
M  V30 8777 H 856.423 -1.94885 0.0244044 0
M  V30 8778 H 855.519 -2.88962 -1.17928 0
M  V30 8779 N 855.82 0.285905 -1.54985 0
M  V30 8780 C 856.75 1.35752 -1.89983 0
M  V30 8781 C 857.731 1.52163 -0.760295 0
M  V30 8782 O 858.916 1.65421 -1.01733 0
M  V30 8783 C 856.046 2.71925 -2.16042 0
M  V30 8784 C 855 2.70261 -3.31878 0
M  V30 8785 C 854.326 4.09864 -3.43388 0
M  V30 8786 C 855.626 2.30667 -4.68604 0
M  V30 8787 H 857.32 1.06709 -2.79738 0
M  V30 8788 H 854.866 0.511884 -1.34595 0
M  V30 8789 H 856.819 3.46992 -2.39113 0
M  V30 8790 H 855.543 3.02523 -1.23074 0
M  V30 8791 H 854.202 1.97651 -3.08755 0
M  V30 8792 H 853.85 4.37664 -2.47909 0
M  V30 8793 H 853.55 4.09648 -4.21262 0
M  V30 8794 H 855.074 4.86689 -3.68736 0
M  V30 8795 H 856.488 2.95453 -4.91305 0
M  V30 8796 H 854.885 2.41637 -5.49301 0
M  V30 8797 H 855.955 1.25793 -4.68299 0
M  V30 8798 N 857.298 1.47698 0.54982 0
M  V30 8799 C 858.261 1.60282 1.63837 0
M  V30 8800 C 859.261 0.477394 1.5355 0
M  V30 8801 O 860.451 0.742665 1.57576 0
M  V30 8802 C 857.583 1.55431 3.03404 0
M  V30 8803 H 858.776 2.57325 1.54026 0
M  V30 8804 H 856.329 1.35999 0.770329 0
M  V30 8805 H 857.064 0.597912 3.1874 0
M  V30 8806 H 856.849 2.37116 3.12279 0
M  V30 8807 H 858.339 1.6739 3.82584 0
M  V30 8808 N 858.776 -0.797141 1.35954 0
M  V30 8809 C 860.024 -1.55161 1.29497 0
M  V30 8810 C 860.345 -1.94582 -0.127659 0
M  V30 8811 O 859.615 -1.64343 -1.06622 0
M  V30 8812 H 858.195 -0.575413 0.47635 0
M  V30 8813 H 860.857 -0.950282 1.70164 0
M  V30 8814 H 859.953 -2.46272 1.9172 0
M  V30 8815 N 860.254 -1.20106 -1.0204 0
M  V30 8816 C 861.5 -1.01039 -1.75838 0
M  V30 8817 C 861.833 0.456819 -1.88751 0
M  V30 8818 O 861.108 1.33919 -1.41053 0
M  V30 8819 C 861.391 -1.69009 -3.17975 0
M  V30 8820 C 861.244 -3.2315 -3.1288 0
M  V30 8821 C 862.563 -1.42005 -4.16561 0
M  V30 8822 H 859.682 -0.368465 -0.638281 0
M  V30 8823 H 862.324 -1.48066 -1.19064 0
M  V30 8824 H 860.474 -1.29026 -3.66449 0
M  V30 8825 H 862.146 -3.72402 -2.72239 0
M  V30 8826 H 860.389 -3.54253 -2.50374 0
M  V30 8827 H 861.06 -3.65862 -4.13339 0
M  V30 8828 H 863.536 -1.76685 -3.76725 0
M  V30 8829 H 862.412 -1.92101 -5.14187 0
M  V30 8830 H 862.673 -0.346884 -4.40737 0
M  V30 8831 N 861.732 1.21287 -1.00634 0
M  V30 8832 C 862.662 2.25973 -0.588089 0
M  V30 8833 C 863.643 1.65527 0.391764 0
M  V30 8834 O 864.828 1.92179 0.279452 0
M  V30 8835 C 861.958 3.47197 0.0847336 0
M  V30 8836 C 860.912 4.20168 -0.815039 0
M  V30 8837 C 860.238 5.34699 -0.00855393 0
M  V30 8838 C 861.538 4.77416 -2.11828 0
M  V30 8839 H 863.232 2.61212 -1.46317 0
M  V30 8840 H 860.778 1.25563 -0.704985 0
M  V30 8841 H 862.731 4.19602 0.388821 0
M  V30 8842 H 861.455 3.11092 0.994456 0
M  V30 8843 H 860.114 3.49614 -1.10297 0
M  V30 8844 H 859.762 4.94837 0.902499 0
M  V30 8845 H 859.462 5.84449 -0.607664 0
M  V30 8846 H 860.986 6.09914 0.289317 0
M  V30 8847 H 862.4 5.41694 -1.87725 0
M  V30 8848 H 860.797 5.37561 -2.66736 0
M  V30 8849 H 861.867 3.96724 -2.78816 0
M  V30 8850 N 863.21 0.781244 1.36873 0
M  V30 8851 C 864.458 0.349198 1.9906 0
M  V30 8852 C 864.779 -1.0806 1.62321 0
M  V30 8853 O 864.049 -1.74351 0.893229 0
M  V30 8854 H 862.629 0.126126 0.736275 0
M  V30 8855 H 865.291 1.00148 1.67202 0
M  V30 8856 H 864.387 0.434451 3.09061 0
M  V30 8857 N 864.689 -1.48329 0.532571 0
M  V30 8858 C 865.652 -2.2816 -0.218069 0
M  V30 8859 C 866.652 -1.35526 -0.865409 0
M  V30 8860 O 867.842 -1.58394 -0.725061 0
M  V30 8861 C 864.974 -3.1448 -1.31586 0
M  V30 8862 H 866.167 -2.95987 0.482865 0
M  V30 8863 H 863.72 -1.53612 0.288603 0
M  V30 8864 H 864.455 -2.5129 -2.04997 0
M  V30 8865 H 864.24 -3.82625 -0.856779 0
M  V30 8866 H 865.73 -3.74693 -1.84377 0
M  V30 8867 N 866.167 -0.267825 -1.55308 0
M  V30 8868 C 867.413 0.351556 -1.9973 0
M  V30 8869 C 867.746 1.56049 -1.15596 0
M  V30 8870 O 867.021 1.93203 -0.224274 0
M  V30 8871 C 867.304 0.74091 -3.52395 0
M  V30 8872 C 867.157 -0.474861 -4.47286 0
M  V30 8873 C 868.476 1.5801 -4.10756 0
M  V30 8874 H 865.595 0.126308 -0.726096 0
M  V30 8875 H 868.237 -0.373316 -1.86296 0
M  V30 8876 H 866.387 1.35851 -3.63973 0
M  V30 8877 H 868.059 -1.1134 -4.47662 0
M  V30 8878 H 866.302 -1.11425 -4.19246 0
M  V30 8879 H 866.973 -0.158782 -5.51772 0
M  V30 8880 H 869.449 1.05857 -4.0241 0
M  V30 8881 H 868.325 1.82135 -5.17801 0
M  V30 8882 H 868.586 2.55878 -3.60526 0
M  V30 8883 N 867.645 1.57599 0.00500368 0
M  V30 8884 C 868.873 1.94626 0.702016 0
M  V30 8885 C 869.288 0.86953 1.67585 0
M  V30 8886 O 868.645 -0.15199 1.81866 0
M  V30 8887 C 868.696 3.31658 1.43824 0
M  V30 8888 O 868.417 4.35197 0.503467 0
M  V30 8889 C 869.918 3.83114 2.23021 0
M  V30 8890 H 867.138 0.641785 0.195841 0
M  V30 8891 H 869.682 2.04451 -0.0446287 0
M  V30 8892 H 867.837 3.23156 2.13655 0
M  V30 8893 H 868.251 5.1444 1.02235 0
M  V30 8894 H 869.725 4.81438 2.7004 0
M  V30 8895 H 870.202 3.15559 3.05482 0
M  V30 8896 H 870.808 3.94775 1.58216 0
M  V30 8897 N 869.123 -0.277682 1.55134 0
M  V30 8898 C 870.086 -1.32635 1.86924 0
M  V30 8899 C 871.086 -1.42578 0.743507 0
M  V30 8900 O 872.276 -1.4181 1.01171 0
M  V30 8901 C 869.408 -2.70832 2.07034 0
M  V30 8902 H 870.601 -1.0568 2.80663 0
M  V30 8903 H 868.154 -0.515517 1.47554 0
M  V30 8904 H 868.889 -3.02974 1.15661 0
M  V30 8905 H 868.674 -2.65001 2.88993 0
M  V30 8906 H 870.164 -3.46611 2.32918 0
M  V30 8907 N 870.601 -1.47988 -0.541979 0
M  V30 8908 C 871.848 -1.55393 -1.29843 0
M  V30 8909 C 872.176 -0.222668 -1.93221 0
M  V30 8910 O 871.431 0.785936 -1.79225 0
M  V30 8911 C 871.73 -2.63189 -2.41798 0
M  V30 8912 C 871.396 -4.05999 -1.96151 0
M  V30 8913 C 870.058 -4.44872 -1.83419 0
M  V30 8914 C 872.41 -4.95545 -1.61507 0
M  V30 8915 C 869.738 -5.71108 -1.34361 0
M  V30 8916 C 872.09 -6.22259 -1.13915 0
M  V30 8917 C 870.754 -6.59998 -0.997911 0
M  V30 8918 H 870.024 -0.568623 -0.47513 0
M  V30 8919 H 872.671 -1.81654 -0.606142 0
M  V30 8920 H 870.976 -2.30743 -3.16647 0
M  V30 8921 H 872.673 -2.66138 -2.99953 0
M  V30 8922 H 869.263 -3.75294 -2.07008 0
M  V30 8923 H 873.447 -4.662 -1.70209 0
M  V30 8924 H 868.703 -5.99083 -1.22103 0
M  V30 8925 H 872.877 -6.91048 -0.861755 0
M  V30 8926 H 870.504 -7.57704 -0.615561 0
M  V30 8927 N 872.079 0.78992 -1.36375 0
M  V30 8928 C 873.307 1.57873 -1.3373 0
M  V30 8929 C 873.722 1.88624 0.0815544 0
M  V30 8930 O 873.079 1.50085 1.03831 0
M  V30 8931 C 873.13 2.90003 -2.15825 0
M  V30 8932 O 872.851 2.60578 -3.5218 0
M  V30 8933 C 874.352 3.84309 -2.20955 0
M  V30 8934 H 871.572 0.489685 -0.458748 0
M  V30 8935 H 874.116 0.980436 -1.79465 0
M  V30 8936 H 872.271 3.46303 -1.73646 0
M  V30 8937 H 872.685 3.4506 -3.95011 0
M  V30 8938 H 874.159 4.74081 -2.82756 0
M  V30 8939 H 874.636 4.22121 -1.21287 0
M  V30 8940 H 875.242 3.33942 -2.63368 0
M  V30 8941 N 873.557 1.20646 1.01402 0
M  V30 8942 C 874.804 1.01819 1.7504 0
M  V30 8943 C 875.132 -0.449386 1.89237 0
M  V30 8944 O 874.387 -1.34985 1.41695 0
M  V30 8945 C 874.686 1.64991 3.17037 0
M  V30 8946 C 874.352 3.14808 3.22811 0
M  V30 8947 C 873.014 3.55692 3.24094 0
M  V30 8948 C 875.366 4.108 3.2077 0
M  V30 8949 C 872.694 4.9109 3.2101 0
M  V30 8950 C 875.046 5.46147 3.19227 0
M  V30 8951 C 873.71 5.86441 3.18815 0
M  V30 8952 H 872.98 0.372582 0.640518 0
M  V30 8953 H 875.627 1.50108 1.18911 0
M  V30 8954 H 873.932 1.08971 3.76341 0
M  V30 8955 H 875.629 1.47937 3.72714 0
M  V30 8956 H 872.219 2.8224 3.2255 0
M  V30 8957 H 876.403 3.80246 3.18946 0
M  V30 8958 H 871.659 5.21569 3.19023 0
M  V30 8959 H 875.833 6.20272 3.166 0
M  V30 8960 H 873.46 6.91328 3.16179 0
M  V30 8961 N 875.035 -1.20752 1.01276 0
M  V30 8962 C 875.998 -2.2162 0.584583 0
M  V30 8963 C 876.998 -1.57094 -0.343215 0
M  V30 8964 O 878.188 -1.73696 -0.132433 0
M  V30 8965 C 875.32 -3.40583 -0.146872 0
M  V30 8966 H 876.513 -2.61015 1.47686 0
M  V30 8967 H 874.066 -1.34148 0.802123 0
M  V30 8968 H 874.801 -3.06686 -1.05424 0
M  V30 8969 H 874.586 -3.88642 0.51958 0
M  V30 8970 H 876.076 -4.15339 -0.433924 0
M  V30 8971 N 876.513 -0.788492 -1.36457 0
M  V30 8972 C 877.929 -0.470063 -1.52521 0
M  V30 8973 C 878.129 1.01176 -1.74258 0
M  V30 8974 O 877.185 1.79726 -1.77355 0
M  V30 8975 C 878.498 -1.2997 -2.71161 0
M  V30 8976 C 880.046 -1.2933 -2.85031 0
M  V30 8977 C 880.521 -2.10665 -4.06674 0
M  V30 8978 N 882.012 -2.08107 -4.13819 0
M  V30 8979 C 882.747 -2.6781 -5.07016 0
M  V30 8980 N 882.243 -3.36369 -6.05663 0
M  V30 8981 N 884.036 -2.57549 -4.99625 0
M  V30 8982 H 876.187 -1.7484 -1.20602 0
M  V30 8983 H 878.45 -0.743159 -0.588574 0
M  V30 8984 H 878.156 -2.35051 -2.61618 0
M  V30 8985 H 878.03 -0.940367 -3.6529 0
M  V30 8986 H 880.417 -0.250414 -2.94036 0
M  V30 8987 H 880.498 -1.69239 -1.91812 0
M  V30 8988 H 880.142 -3.14984 -3.98431 0
M  V30 8989 H 880.072 -1.68128 -4.9904 0
M  V30 8990 H 882.563 -1.58208 -3.43189 0
M  V30 8991 H 882.876 -3.79258 -6.73338 0
M  V30 8992 H 881.221 -3.40471 -6.05891 0
M  V30 8993 H 884.412 -2.0359 -4.21508 0
M  V30 8994 H 884.585 -3.0437 -5.72069 0
M  V30 8995 N 877.991 1.48044 -0.54043 0
M  V30 8996 C 879.24 2.01698 -0.00809961 0
M  V30 8997 C 879.553 1.42184 1.34325 0
M  V30 8998 O 880.759 1.87398 1.96454 0
M  V30 8999 C 879.215 3.59882 0.035933 0
M  V30 9000 C 878.823 4.28384 -1.31115 0
M  V30 9001 C 880.567 4.21346 0.51654 0
M  V30 9002 C 878.474 5.78529 -1.22714 0
M  V30 9003 H 877.404 0.754 0.000742174 0
M  V30 9004 H 880.055 1.70204 -0.685775 0
M  V30 9005 H 878.437 3.88264 0.778906 0
M  V30 9006 H 879.611 4.11663 -2.07051 0
M  V30 9007 H 877.926 3.78837 -1.72834 0
M  V30 9008 H 880.523 5.31351 0.597529 0
M  V30 9009 H 880.866 3.87373 1.52473 0
M  V30 9010 H 881.399 3.97432 -0.171064 0
M  V30 9011 H 878.138 6.17093 -2.21081 0
M  V30 9012 H 877.658 5.97634 -0.50931 0
M  V30 9013 H 879.337 6.40395 -0.92216 0
M  V30 9014 N 879.47 0.276058 1.55163 0
M  V30 9015 C 880.718 -0.339782 1.99223 0
M  V30 9016 C 881.039 -1.56307 1.16589 0
M  V30 9017 O 880.309 -1.94225 0.25564 0
M  V30 9018 H 878.889 -0.128534 0.735859 0
M  V30 9019 H 881.551 0.381612 1.91128 0
M  V30 9020 H 880.647 -0.629 3.05696 0
M  V30 9021 N 880.948 -1.576 0.00335426 0
M  V30 9022 C 881.878 -2.11668 -0.985839 0
M  V30 9023 C 882.859 -1.02661 -1.35627 0
M  V30 9024 O 884.044 -1.30361 -1.43943 0
M  V30 9025 C 881.174 -2.62273 -2.27662 0
M  V30 9026 C 880.128 -3.75837 -2.0477 0
M  V30 9027 C 879.454 -4.12769 -3.39891 0
M  V30 9028 C 880.754 -5.02975 -1.40759 0
M  V30 9029 H 882.448 -2.9457 -0.535637 0
M  V30 9030 H 879.994 -1.41702 -0.256204 0
M  V30 9031 H 881.947 -2.98727 -2.97221 0
M  V30 9032 H 880.671 -1.76498 -2.74802 0
M  V30 9033 H 879.33 -3.39782 -1.37636 0
M  V30 9034 H 878.978 -3.24013 -3.8474 0
M  V30 9035 H 878.678 -4.89281 -3.25389 0
M  V30 9036 H 880.202 -4.51784 -4.1076 0
M  V30 9037 H 881.616 -5.37179 -2.00279 0
M  V30 9038 H 880.013 -5.84315 -1.36734 0
M  V30 9039 H 881.083 -4.83431 -0.377218 0
M  V30 9040 N 882.426 0.269451 -1.5528 0
M  V30 9041 C 883.376 1.33553 -1.84791 0
M  V30 9042 C 884.36 1.44532 -0.707067 0
M  V30 9043 O 885.552 1.48153 -0.968493 0
M  V30 9044 C 882.681 2.69516 -2.12641 0
M  V30 9045 C 881.767 2.62633 -3.32993 0
M  V30 9046 N 882.158 2.25371 -4.52815 0
M  V30 9047 C 880.456 2.93688 -3.35654 0
M  V30 9048 C 881.157 2.28567 -5.34913 0
M  V30 9049 N 880.133 2.67181 -4.73408 0
M  V30 9050 H 883.935 1.03758 -2.74976 0
M  V30 9051 H 881.449 0.478087 -1.55203 0
M  V30 9052 H 883.446 3.46424 -2.3194 0
M  V30 9053 H 882.106 3.00197 -1.23742 0
M  V30 9054 H 883.117 1.9729 -4.7885 0
M  V30 9055 H 879.794 3.29057 -2.56958 0
M  V30 9056 H 881.184 2.02289 -6.40725 0
M  V30 9057 N 883.904 1.48273 0.534124 0
M  V30 9058 C 885.129 1.59988 1.31979 0
M  V30 9059 C 885.554 0.258824 1.86311 0
M  V30 9060 O 884.912 -0.768885 1.64188 0
M  V30 9061 C 884.96 2.64642 2.44943 0
M  V30 9062 O 884.064 2.21515 3.47858 0
M  V30 9063 H 883.405 0.536625 0.391063 0
M  V30 9064 H 885.935 1.94229 0.643135 0
M  V30 9065 H 885.945 2.85786 2.91187 0
M  V30 9066 H 884.62 3.62004 2.04758 0
M  V30 9067 H 883.197 2.10567 3.0776 0
M  V30 9068 N 885.382 -0.782676 1.36792 0
M  V30 9069 C 886.798 -1.08169 1.17352 0
M  V30 9070 C 886.998 -2.015 0.0022037 0
M  V30 9071 O 886.054 -2.43692 -0.661093 0
M  V30 9072 C 887.367 -1.68969 2.48737 0
M  V30 9073 C 888.915 -1.81278 2.55161 0
M  V30 9074 C 889.39 -2.45492 3.86649 0
M  V30 9075 N 890.881 -2.52954 3.88032 0
M  V30 9076 C 891.616 -3.03465 4.86515 0
M  V30 9077 N 891.112 -3.54232 5.95392 0
M  V30 9078 N 892.905 -3.02239 4.73928 0
M  V30 9079 H 885.056 -0.162757 2.11775 0
M  V30 9080 H 887.319 -0.134823 0.938364 0
M  V30 9081 H 887.025 -1.07859 3.34753 0
M  V30 9082 H 886.899 -2.68397 2.65034 0
M  V30 9083 H 889.286 -2.41524 1.69559 0
M  V30 9084 H 889.367 -0.806367 2.42758 0
M  V30 9085 H 889.011 -1.85889 4.7266 0
M  V30 9086 H 888.941 -3.46718 3.96351 0
M  V30 9087 H 891.432 -2.17014 3.09376 0
M  V30 9088 H 891.745 -3.91145 6.66503 0
M  V30 9089 H 890.09 -3.52366 5.99052 0
M  V30 9090 H 893.281 -2.61871 3.87996 0
M  V30 9091 H 893.454 -3.41295 5.50837 0
M  V30 9092 N 886.86 -1.21182 -1.00761 0
M  V30 9093 C 888.276 -0.968607 -1.26847 0
M  V30 9094 C 888.476 0.346561 -1.98497 0
M  V30 9095 O 887.532 1.07287 -2.28573 0
M  V30 9096 C 888.845 -2.1574 -2.09467 0
M  V30 9097 C 890.393 -2.19937 -2.22703 0
M  V30 9098 C 890.868 -3.38328 -3.08704 0
M  V30 9099 N 892.359 -3.38398 -3.16293 0
M  V30 9100 C 893.094 -4.26653 -3.83086 0
M  V30 9101 N 892.59 -5.25101 -4.5193 0
M  V30 9102 N 894.383 -4.14469 -3.797 0
M  V30 9103 H 886.534 -2.05763 -0.526816 0
M  V30 9104 H 888.797 -0.90087 -0.29519 0
M  V30 9105 H 888.503 -3.11034 -1.64167 0
M  V30 9106 H 888.377 -2.14584 -3.10216 0
M  V30 9107 H 890.764 -1.25201 -2.67224 0
M  V30 9108 H 890.845 -2.25139 -1.21433 0
M  V30 9109 H 890.489 -4.33356 -2.64886 0
M  V30 9110 H 890.419 -3.30364 -4.10082 0
M  V30 9111 H 892.91 -2.67149 -2.67282 0
M  V30 9112 H 893.223 -5.8875 -5.00592 0
M  V30 9113 H 891.568 -5.29029 -4.50726 0
M  V30 9114 H 894.759 -3.3682 -3.25069 0
M  V30 9115 H 894.932 -4.83458 -4.31477 0
M  V30 9116 N 888.338 1.20213 -1.01915 0
M  V30 9117 C 889.286 2.25125 -0.584936 0
M  V30 9118 C 890.28 1.65138 0.377602 0
M  V30 9119 O 891.486 1.78294 0.247245 0
M  V30 9120 H 887.861 0.732333 -0.170858 0
M  V30 9121 H 889.832 2.59075 -1.48063 0
M  V30 9122 C 888.581 3.47651 0.058389 0
M  V30 9123 H 887.904 3.9409 -0.673263 0
M  V30 9124 H 889.344 4.2275 0.325285 0
M  V30 9125 C 887.803 3.10725 1.30199 0
M  V30 9126 O 888.333 3.22491 2.39505 0
M  V30 9127 N 886.539 2.6525 1.18706 0
M  V30 9128 H 886.086 2.55875 0.297618 0
M  V30 9129 H 886.044 2.40913 2.02011 0
M  V30 9130 N 889.816 0.795718 1.36037 0
M  V30 9131 C 890.746 0.212803 2.32528 0
M  V30 9132 C 891.727 -0.655716 1.56953 0
M  V30 9133 O 892.912 -0.588238 1.85077 0
M  V30 9134 C 890.042 -0.648189 3.41198 0
M  V30 9135 C 888.996 0.120948 4.27829 0
M  V30 9136 C 888.322 -0.861044 5.27722 0
M  V30 9137 C 889.622 1.31375 5.05508 0
M  V30 9138 H 891.316 1.01893 2.81528 0
M  V30 9139 H 888.862 0.491422 1.35355 0
M  V30 9140 H 890.815 -1.06597 4.07695 0
M  V30 9141 H 889.539 -1.48709 2.9078 0
M  V30 9142 H 888.198 0.519777 3.62897 0
M  V30 9143 H 887.846 -1.69515 4.73575 0
M  V30 9144 H 887.546 -0.350808 5.86552 0
M  V30 9145 H 889.07 -1.27726 5.97092 0
M  V30 9146 H 890.484 0.971406 5.6501 0
M  V30 9147 H 888.881 1.75772 5.73781 0
M  V30 9148 H 889.951 2.10593 4.36782 0
M  V30 9149 N 891.294 -1.47756 0.548274 0
M  V30 9150 C 892.522 -2.06884 0.0254873 0
M  V30 9151 C 892.937 -1.40225 -1.26422 0
M  V30 9152 O 892.294 -0.495776 -1.75637 0
M  V30 9153 C 892.345 -3.61036 -0.183134 0
M  V30 9154 O 892.066 -4.25195 1.05549 0
M  V30 9155 C 893.567 -4.37008 -0.744222 0
M  V30 9156 H 890.787 -0.669697 0.041789 0
M  V30 9157 H 893.331 -1.89888 0.759138 0
M  V30 9158 H 891.486 -3.77576 -0.866886 0
M  V30 9159 H 891.9 -5.17606 0.847629 0
M  V30 9160 H 893.374 -5.45579 -0.839529 0
M  V30 9161 H 893.851 -4.0268 -1.75344 0
M  V30 9162 H 894.457 -4.25191 -0.0964542 0
M  V30 9163 N 892.772 -0.284283 -1.55015 0
M  V30 9164 C 893.702 0.592663 -2.25853 0
M  V30 9165 C 894.683 1.15151 -1.25197 0
M  V30 9166 O 895.868 1.18395 -1.53936 0
M  V30 9167 C 892.998 1.77254 -2.98661 0
M  V30 9168 C 891.952 1.34482 -4.06323 0
M  V30 9169 C 891.278 2.60853 -4.66754 0
M  V30 9170 C 892.578 0.488288 -5.20013 0
M  V30 9171 H 894.272 0.00187041 -2.994 0
M  V30 9172 H 891.818 -0.000540402 -1.44 0
M  V30 9173 H 893.771 2.39199 -3.46932 0
M  V30 9174 H 892.495 2.38931 -2.22664 0
M  V30 9175 H 891.154 0.748519 -3.58877 0
M  V30 9176 H 890.802 3.20808 -3.87416 0
M  V30 9177 H 890.502 2.32942 -5.39455 0
M  V30 9178 H 892.026 3.23631 -5.1778 0
M  V30 9179 H 893.44 1.01298 -5.6428 0
M  V30 9180 H 891.837 0.303669 -5.99331 0
M  V30 9181 H 892.907 -0.490727 -4.8241 0
M  V30 9182 N 894.251 1.57596 -0.0117121 0
M  V30 9183 C 895.481 1.95077 0.680346 0
M  V30 9184 C 895.889 0.885793 1.67184 0
M  V30 9185 O 895.232 -0.142723 1.83145 0
M  V30 9186 C 895.294 3.28611 1.45791 0
M  V30 9187 C 894.958 4.52682 0.626706 0
M  V30 9188 C 895.955 5.19821 -0.0906223 0
M  V30 9189 C 893.64 4.99064 0.569229 0
M  V30 9190 C 895.634 6.31649 -0.854289 0
M  V30 9191 C 893.321 6.10779 -0.198155 0
M  V30 9192 C 894.319 6.76929 -0.908636 0
M  V30 9193 O 894.007 7.86501 -1.66348 0
M  V30 9194 H 893.739 0.647663 0.193672 0
M  V30 9195 H 896.293 2.05305 -0.0624969 0
M  V30 9196 H 894.523 3.14824 2.2455 0
M  V30 9197 H 896.212 3.51119 2.03642 0
M  V30 9198 H 896.978 4.84968 -0.0554421 0
M  V30 9199 H 892.857 4.47393 1.11178 0
M  V30 9200 H 896.401 6.83215 -1.40937 0
M  V30 9201 H 892.298 6.45072 -0.235114 0
M  V30 9202 H 893.066 8.03078 -1.58141 0
M  V30 9203 N 895.729 -0.261212 1.5542 0
M  V30 9204 C 896.975 -0.992699 1.76843 0
M  V30 9205 C 897.308 -1.8551 0.574428 0
M  V30 9206 O 896.583 -1.89739 -0.427713 0
M  V30 9207 C 896.866 -1.86532 3.08022 0
M  V30 9208 C 896.719 -1.03206 4.378 0
M  V30 9209 C 898.038 -2.85036 3.35324 0
M  V30 9210 H 895.157 -0.359473 0.643388 0
M  V30 9211 H 897.799 -0.264214 1.88154 0
M  V30 9212 H 895.949 -2.48644 2.9851 0
M  V30 9213 H 897.621 -0.430743 4.59285 0
M  V30 9214 H 895.864 -0.335911 4.32497 0
M  V30 9215 H 896.535 -1.6761 5.25938 0
M  V30 9216 H 899.011 -2.3306 3.44706 0
M  V30 9217 H 897.887 -3.43226 4.28354 0
M  V30 9218 H 898.148 -3.60768 2.55537 0
M  V30 9219 N 897.207 -1.48554 -0.526253 0
M  V30 9220 C 898.435 -1.60429 -1.30652 0
M  V30 9221 C 898.85 -0.265963 -1.86917 0
M  V30 9222 O 898.207 0.745262 -1.6659 0
M  V30 9223 C 898.258 -2.65377 -2.45473 0
M  V30 9224 O 897.979 -3.94017 -1.91527 0
M  V30 9225 C 899.48 -2.87726 -3.37237 0
M  V30 9226 H 896.7 -0.540817 -0.397187 0
M  V30 9227 H 899.244 -1.94409 -0.634461 0
M  V30 9228 H 897.399 -2.34246 -3.08557 0
M  V30 9229 H 897.813 -4.51623 -2.66715 0
M  V30 9230 H 899.287 -3.64951 -4.14144 0
M  V30 9231 H 899.764 -1.96688 -3.92696 0
M  V30 9232 H 900.37 -3.20176 -2.79942 0
M  V30 9233 N 898.685 0.775411 -1.37205 0
M  V30 9234 C 899.648 1.8702 -1.325 0
M  V30 9235 C 900.648 1.5915 -0.229793 0
M  V30 9236 O 901.838 1.673 -0.485423 0
M  V30 9237 C 898.97 3.24085 -1.05745 0
M  V30 9238 H 900.163 1.92604 -2.29878 0
M  V30 9239 H 897.716 0.97476 -1.22181 0
M  V30 9240 H 898.451 3.24178 -0.0888371 0
M  V30 9241 H 898.236 3.45705 -1.85016 0
M  V30 9242 H 899.726 4.0416 -1.05094 0
M  V30 9243 N 900.163 1.21714 1.00117 0
M  V30 9244 C 901.093 1.00397 2.10815 0
M  V30 9245 C 902.074 -0.0723502 1.69946 0
M  V30 9246 O 903.259 0.0882398 1.93999 0
M  V30 9247 C 900.389 0.572001 3.42557 0
M  V30 9248 C 899.343 1.59331 3.97237 0
M  V30 9249 C 898.669 1.01746 5.2493 0
M  V30 9250 C 899.969 2.98117 4.28863 0
M  V30 9251 H 901.663 1.92983 2.28906 0
M  V30 9252 H 899.209 0.929273 1.10002 0
M  V30 9253 H 901.162 0.410018 4.19401 0
M  V30 9254 H 899.886 -0.38951 3.24269 0
M  V30 9255 H 898.545 1.74293 3.22518 0
M  V30 9256 H 898.193 0.0475491 5.02978 0
M  V30 9257 H 897.893 1.69969 5.62481 0
M  V30 9258 H 899.417 0.866881 6.04415 0
M  V30 9259 H 900.831 2.86578 4.96534 0
M  V30 9260 H 899.228 3.63389 4.77565 0
M  V30 9261 H 900.298 3.48674 3.36979 0
M  V30 9262 N 901.641 -1.19671 1.02551 0
M  V30 9263 C 902.571 -2.25009 0.623965 0
M  V30 9264 C 903.552 -1.66129 -0.36538 0
M  V30 9265 O 904.737 -1.92599 -0.248842 0
M  V30 9266 C 901.867 -3.47287 -0.0294869 0
M  V30 9267 C 900.821 -4.18818 0.881781 0
M  V30 9268 C 900.147 -5.34618 0.0936189 0
M  V30 9269 C 901.447 -4.73986 2.19396 0
M  V30 9270 H 903.141 -2.58851 1.50454 0
M  V30 9271 H 900.687 -1.24425 0.724872 0
M  V30 9272 H 902.64 -4.20168 -0.322016 0
M  V30 9273 H 901.364 -3.12635 -0.944838 0
M  V30 9274 H 900.023 -3.47815 1.15845 0
M  V30 9275 H 899.671 -4.9621 -0.823661 0
M  V30 9276 H 899.371 -5.83409 0.700568 0
M  V30 9277 H 900.895 -6.10297 -0.192249 0
M  V30 9278 H 902.309 -5.38639 1.96319 0
M  V30 9279 H 900.706 -5.3325 2.75254 0
M  V30 9280 H 901.776 -3.92238 2.85092 0
M  V30 9281 N 903.119 -0.802921 -1.35613 0
M  V30 9282 C 904.366 -0.381576 -1.98872 0
M  V30 9283 C 904.694 1.0503 -1.63704 0
M  V30 9284 O 903.949 1.7427 -0.890418 0
M  V30 9285 C 904.248 -0.507806 -3.53774 0
M  V30 9286 C 903.914 -1.90245 -4.088 0
M  V30 9287 C 902.576 -2.28401 -4.2354 0
M  V30 9288 C 904.928 -2.81504 -4.3864 0
M  V30 9289 C 902.256 -3.57192 -4.65436 0
M  V30 9290 C 904.608 -4.09737 -4.81973 0
M  V30 9291 C 903.272 -4.47897 -4.94919 0
M  V30 9292 H 902.542 -0.139629 -0.727726 0
M  V30 9293 H 905.189 -1.023 -1.61886 0
M  V30 9294 H 903.494 0.21708 -3.91198 0
M  V30 9295 H 905.191 -0.162625 -4.0067 0
M  V30 9296 H 901.781 -1.596 -3.97776 0
M  V30 9297 H 905.965 -2.53276 -4.26808 0
M  V30 9298 H 901.221 -3.86611 -4.73648 0
M  V30 9299 H 905.395 -4.80555 -5.04024 0
M  V30 9300 H 903.022 -5.47747 -5.27141 0
M  V30 9301 N 904.597 1.47463 -0.556102 0
M  V30 9302 C 905.843 2.02775 -0.0316806 0
M  V30 9303 C 906.176 1.42967 1.3143 0
M  V30 9304 O 905.451 0.584847 1.85499 0
M  V30 9305 C 905.734 3.60046 0.0625742 0
M  V30 9306 C 905.587 4.30288 -1.31043 0
M  V30 9307 C 906.906 4.33195 0.776553 0
M  V30 9308 H 904.025 0.736886 -0.0129869 0
M  V30 9309 H 906.667 1.75904 -0.718177 0
M  V30 9310 H 904.817 3.83071 0.647231 0
M  V30 9311 H 906.489 4.18607 -1.9382 0
M  V30 9312 H 904.732 3.90685 -1.8854 0
M  V30 9313 H 905.403 5.38861 -1.1972 0
M  V30 9314 H 907.879 4.15156 0.280147 0
M  V30 9315 H 906.755 5.42869 0.81146 0
M  V30 9316 H 907.016 4.02336 1.83244 0
M  V30 9317 N 906.075 0.2925 1.54862 0
M  V30 9318 C 907.005 -0.580677 2.26165 0
M  V30 9319 C 907.986 -1.14485 1.25806 0
M  V30 9320 O 909.171 -1.17577 1.54562 0
M  V30 9321 C 906.301 -1.75668 2.99596 0
M  V30 9322 C 905.255 -1.32325 4.07031 0
M  V30 9323 C 904.581 -2.58374 4.68131 0
M  V30 9324 C 905.881 -0.460703 5.20264 0
M  V30 9325 H 907.575 0.0140075 2.99397 0
M  V30 9326 H 905.121 0.00817706 1.43998 0
M  V30 9327 H 907.074 -2.37356 3.48195 0
M  V30 9328 H 905.798 -2.37747 2.23928 0
M  V30 9329 H 904.457 -0.729477 3.59269 0
M  V30 9330 H 904.105 -3.18749 3.89112 0
M  V30 9331 H 903.805 -2.30078 5.40683 0
M  V30 9332 H 905.329 -3.2088 5.19489 0
M  V30 9333 H 906.743 -0.983037 5.64809 0
M  V30 9334 H 905.14 -0.271881 5.99484 0
M  V30 9335 H 906.21 0.516304 4.82143 0
M  V30 9336 N 907.553 -1.57587 0.0200696 0
M  V30 9337 C 908.516 -2.08595 -0.949767 0
M  V30 9338 C 909.516 -0.999215 -1.25985 0
M  V30 9339 O 910.706 -1.26115 -1.2017 0
M  V30 9340 C 907.838 -2.54424 -2.26895 0
M  V30 9341 H 909.031 -2.95563 -0.508161 0
M  V30 9342 H 906.584 -1.54631 -0.227798 0
M  V30 9343 H 907.319 -1.70758 -2.75703 0
M  V30 9344 H 907.104 -3.3381 -2.05702 0
M  V30 9345 H 908.594 -2.94144 -2.96427 0
M  V30 9346 N 909.032 0.252966 -1.55557 0
M  V30 9347 C 910.278 0.979092 -1.78284 0
M  V30 9348 C 910.633 1.83194 -0.588009 0
M  V30 9349 O 909.926 1.86965 0.418899 0
M  V30 9350 C 910.12 1.87785 -3.04091 0
M  V30 9351 C 909.949 1.11349 -4.35697 0
M  V30 9352 C 908.719 0.821038 -4.98585 0
M  V30 9353 C 910.917 0.494039 -5.11922 0
M  V30 9354 N 908.899 0.0319767 -6.13892 0
M  V30 9355 C 910.27 -0.159888 -6.19794 0
M  V30 9356 C 912.325 0.403894 -4.96259 0
M  V30 9357 C 911.028 -0.895295 -7.13706 0
M  V30 9358 C 913.054 -0.317968 -5.90545 0
M  V30 9359 C 912.416 -0.960555 -6.9782 0
M  V30 9360 H 908.515 0.339586 -0.704419 0
M  V30 9361 H 911.099 0.252801 -1.93052 0
M  V30 9362 H 909.27 2.57623 -2.90663 0
M  V30 9363 H 911.002 2.53908 -3.15139 0
M  V30 9364 H 907.757 1.13132 -4.59889 0
M  V30 9365 H 908.181 -0.35047 -6.76092 0
M  V30 9366 H 912.823 0.886366 -4.13405 0
M  V30 9367 H 910.541 -1.38939 -7.96066 0
M  V30 9368 H 914.127 -0.388302 -5.80503 0
M  V30 9369 H 913.007 -1.51022 -7.69521 0
M  V30 9370 N 910.51 1.48831 0.518367 0
M  V30 9371 C 911.473 1.63721 1.604 0
M  V30 9372 C 912.473 0.509857 1.52503 0
M  V30 9373 O 913.663 0.775922 1.55965 0
M  V30 9374 C 910.795 1.61831 3.00039 0
M  V30 9375 H 911.988 2.60534 1.48533 0
M  V30 9376 H 909.541 1.37602 0.741309 0
M  V30 9377 H 910.276 0.665387 3.17401 0
M  V30 9378 H 910.061 2.43686 3.0718 0
M  V30 9379 H 911.551 1.75467 3.78947 0
M  V30 9380 N 911.988 -0.768124 1.37614 0
M  V30 9381 C 913.216 -1.55726 1.36224 0
M  V30 9382 C 913.631 -1.8873 -0.0515357 0
M  V30 9383 O 912.988 -1.51718 -1.0143 0
M  V30 9384 C 913.039 -2.86533 2.20412 0
M  V30 9385 O 912.76 -2.54942 3.56281 0
M  V30 9386 C 914.261 -3.80745 2.27041 0
M  V30 9387 H 911.481 -0.482325 0.46648 0
M  V30 9388 H 914.025 -0.95176 1.81002 0
M  V30 9389 H 912.18 -3.43496 1.79134 0
M  V30 9390 H 912.594 -3.38732 4.00451 0
M  V30 9391 H 914.068 -4.69523 2.90263 0
M  V30 9392 H 914.545 -4.20138 1.27987 0
M  V30 9393 H 915.151 -3.2971 2.68647 0
M  V30 9394 N 913.466 -1.22244 -0.994698 0
M  V30 9395 C 914.691 -1.07299 -1.77487 0
M  V30 9396 C 915.116 0.372302 -1.84379 0
M  V30 9397 O 914.474 1.2689 -1.29494 0
M  V30 9398 C 914.522 -1.68675 -3.18718 0
M  V30 9399 O 913.626 -0.939202 -4.01563 0
M  V30 9400 H 912.967 -0.376979 -0.546611 0
M  V30 9401 H 915.497 -1.62003 -1.24965 0
M  V30 9402 H 915.507 -1.73324 -3.69354 0
M  V30 9403 H 914.182 -2.73849 -3.13017 0
M  V30 9404 H 912.759 -0.968583 -3.60101 0
M  V30 9405 N 914.944 1.19125 -1.03184 0
M  V30 9406 C 916.192 1.8851 -0.728587 0
M  V30 9407 C 916.513 1.80195 0.74531 0
M  V30 9408 O 915.783 1.21437 1.5372 0
M  V30 9409 H 914.363 0.69784 -0.266511 0
M  V30 9410 H 917.025 1.44607 -1.3067 0
M  V30 9411 H 916.121 2.9477 -1.02554 0
M  V30 9412 N 916.422 0.810101 1.35185 0
M  V30 9413 C 917.671 0.388589 1.97921 0
M  V30 9414 C 917.984 -1.05079 1.64978 0
M  V30 9415 O 919.19 -1.57559 2.21105 0
M  V30 9416 C 917.646 0.643864 3.54094 0
M  V30 9417 C 917.254 2.09602 3.95943 0
M  V30 9418 C 918.998 0.287883 4.23523 0
M  V30 9419 C 916.905 2.29686 5.44976 0
M  V30 9420 H 915.835 0.141562 0.740592 0
M  V30 9421 H 918.486 0.994653 1.54204 0
M  V30 9422 H 916.868 -0.0321978 3.95987 0
M  V30 9423 H 918.042 2.81018 3.65192 0
M  V30 9424 H 916.357 2.4122 3.39414 0
M  V30 9425 H 918.954 0.415946 5.3308 0
M  V30 9426 H 919.297 -0.766305 4.09186 0
M  V30 9427 H 919.83 0.918004 3.87063 0
M  V30 9428 H 916.569 3.33563 5.64284 0
M  V30 9429 H 916.089 1.62798 5.77284 0
M  V30 9430 H 917.768 2.11411 6.11485 0
M  V30 9431 N 917.9 -1.47166 0.563914 0
M  V30 9432 C 918.848 -2.31798 -0.193009 0
M  V30 9433 C 919.842 -1.43338 -0.902805 0
M  V30 9434 O 921.048 -1.60067 -0.823328 0
M  V30 9435 H 917.423 -0.747613 -0.0811139 0
M  V30 9436 H 919.394 -2.93476 0.539876 0
M  V30 9437 C 918.143 -3.26131 -1.20555 0
M  V30 9438 H 917.466 -3.94166 -0.668803 0
M  V30 9439 H 918.906 -3.88167 -1.70593 0
M  V30 9440 C 917.365 -2.50132 -2.25689 0
M  V30 9441 O 917.895 -2.25064 -3.3273 0
M  V30 9442 N 916.101 -2.11022 -1.99795 0
M  V30 9443 H 915.648 -2.3161 -1.1276 0
M  V30 9444 H 915.606 -1.60489 -2.70353 0
M  V30 9445 N 919.378 -0.300708 -1.54705 0
M  V30 9446 C 920.626 0.308044 -1.99739 0
M  V30 9447 C 920.947 1.54433 -1.19061 0
M  V30 9448 O 920.217 1.93794 -0.286507 0
M  V30 9449 H 918.797 0.116811 -0.73781 0
M  V30 9450 H 921.459 -0.41197 -1.90496 0
M  V30 9451 H 920.555 0.580287 -3.06658 0
M  V30 9452 N 920.856 1.57574 -0.0284266 0
M  V30 9453 C 922.102 1.92884 0.645544 0
M  V30 9454 C 922.457 0.905203 1.69776 0
M  V30 9455 O 921.75 -0.0788509 1.91438 0
M  V30 9456 C 921.944 3.32699 1.3056 0
M  V30 9457 C 921.773 4.48568 0.318848 0
M  V30 9458 C 920.543 5.05235 -0.0810373 0
M  V30 9459 C 922.741 5.12528 -0.426575 0
M  V30 9460 N 920.723 6.04626 -1.06303 0
M  V30 9461 C 922.094 6.07013 -1.26235 0
M  V30 9462 C 924.149 4.95509 -0.48735 0
M  V30 9463 C 922.852 6.8631 -2.15341 0
M  V30 9464 C 924.878 5.75414 -1.36575 0
M  V30 9465 C 924.24 6.69514 -2.1893 0
M  V30 9466 H 920.339 0.753677 0.208555 0
M  V30 9467 H 922.923 1.94466 -0.095439 0
M  V30 9468 H 921.094 3.31938 2.01673 0
M  V30 9469 H 922.826 3.55359 1.93655 0
M  V30 9470 H 919.581 4.72691 0.293264 0
M  V30 9471 H 920.005 6.59012 -1.55025 0
M  V30 9472 H 924.647 4.22584 0.135112 0
M  V30 9473 H 922.365 7.58541 -2.78642 0
M  V30 9474 H 925.951 5.64279 -1.41705 0
M  V30 9475 H 924.831 7.30266 -2.85799 0
M  V30 9476 N 922.334 -0.244713 1.55689 0
M  V30 9477 C 923.581 -0.972446 1.77622 0
M  V30 9478 C 923.909 -1.85235 0.593137 0
M  V30 9479 O 923.164 -1.91064 -0.423464 0
M  V30 9480 C 923.463 -1.8617 3.05083 0
M  V30 9481 C 923.129 -1.13696 4.3633 0
M  V30 9482 C 921.791 -0.936679 4.71996 0
M  V30 9483 C 924.143 -0.623451 5.17458 0
M  V30 9484 C 921.471 -0.210612 5.86322 0
M  V30 9485 C 923.823 0.0891587 6.32537 0
M  V30 9486 C 922.487 0.300904 6.66821 0
M  V30 9487 H 921.757 -0.355843 0.649967 0
M  V30 9488 H 924.404 -0.242372 1.8996 0
M  V30 9489 H 922.709 -2.6589 2.87767 0
M  V30 9490 H 924.406 -2.4265 3.19253 0
M  V30 9491 H 920.996 -1.30301 4.08313 0
M  V30 9492 H 925.18 -0.765725 4.90357 0
M  V30 9493 H 920.436 -0.0361062 6.11389 0
M  V30 9494 H 924.61 0.494685 6.94641 0
M  V30 9495 H 922.237 0.865466 7.55257 0
M  V30 9496 N 923.813 -1.49104 -0.510467 0
M  V30 9497 C 925.043 -1.61571 -1.28757 0
M  V30 9498 C 925.451 -0.282638 -1.87077 0
M  V30 9499 O 924.794 0.740749 -1.68103 0
M  V30 9500 C 924.856 -2.61851 -2.46322 0
M  V30 9501 C 924.52 -4.06438 -2.08942 0
M  V30 9502 C 925.517 -4.93532 -1.63469 0
M  V30 9503 C 923.202 -4.52109 -2.18867 0
M  V30 9504 C 925.196 -6.24331 -1.28411 0
M  V30 9505 C 922.883 -5.82924 -1.83421 0
M  V30 9506 C 923.881 -6.68858 -1.38267 0
M  V30 9507 O 923.569 -7.97236 -1.03296 0
M  V30 9508 H 923.301 -0.547082 -0.397086 0
M  V30 9509 H 925.855 -1.95806 -0.620424 0
M  V30 9510 H 924.085 -2.22777 -3.16081 0
M  V30 9511 H 925.774 -2.63947 -3.08362 0
M  V30 9512 H 926.54 -4.59479 -1.55255 0
M  V30 9513 H 922.419 -3.85395 -2.52966 0
M  V30 9514 H 925.963 -6.9136 -0.930946 0
M  V30 9515 H 921.86 -6.16507 -1.91282 0
M  V30 9516 H 922.628 -8.10163 -1.16525 0
M  V30 9517 N 925.291 0.760815 -1.38019 0
M  V30 9518 C 926.537 1.52198 -1.34028 0
M  V30 9519 C 926.87 1.94067 0.0718309 0
M  V30 9520 O 926.145 1.64895 1.0315 0
M  V30 9521 C 926.428 2.77954 -2.2894 0
M  V30 9522 C 926.281 2.42269 -3.7898 0
M  V30 9523 C 927.6 3.79943 -2.22107 0
M  V30 9524 H 924.719 0.552131 -0.488181 0
M  V30 9525 H 927.361 0.871971 -1.6881 0
M  V30 9526 H 925.511 3.33419 -1.9941 0
M  V30 9527 H 927.183 1.92635 -4.19153 0
M  V30 9528 H 925.426 1.74822 -3.97014 0
M  V30 9529 H 926.097 3.32211 -4.4084 0
M  V30 9530 H 928.573 3.34 -2.4816 0
M  V30 9531 H 927.449 4.6564 -2.90639 0
M  V30 9532 H 927.71 4.25004 -1.21753 0
M  V30 9533 N 926.769 1.22769 0.988202 0
M  V30 9534 C 928.017 1.05301 1.725 0
M  V30 9535 C 928.338 -0.412103 1.90596 0
M  V30 9536 O 927.608 -1.29606 1.46898 0
M  V30 9537 H 926.188 0.386658 0.639144 0
M  V30 9538 H 928.85 1.54359 1.18993 0
M  V30 9539 H 927.946 1.53465 2.71763 0
M  V30 9540 N 928.247 -1.18576 1.03814 0
M  V30 9541 C 929.195 -2.24166 0.620678 0
M  V30 9542 C 930.189 -1.65718 -0.351282 0
M  V30 9543 O 931.395 -1.78665 -0.218848 0
M  V30 9544 H 927.77 -0.729522 0.182487 0
M  V30 9545 H 929.741 -2.56686 1.52166 0
M  V30 9546 C 928.49 -3.477 -0.00307331 0
M  V30 9547 H 927.813 -3.92969 0.735874 0
M  V30 9548 H 929.253 -4.23214 -0.257988 0
M  V30 9549 C 927.712 -3.12757 -1.2524 0
M  V30 9550 O 928.242 -3.26261 -2.34344 0
M  V30 9551 N 926.448 -2.67104 -1.14471 0
M  V30 9552 H 925.995 -2.56316 -0.256873 0
M  V30 9553 H 925.953 -2.44096 -1.98153 0
M  V30 9554 N 929.725 -0.817259 -1.34754 0
M  V30 9555 C 930.955 -0.414849 -2.02392 0
M  V30 9556 C 931.363 0.982186 -1.61709 0
M  V30 9557 O 930.706 1.64607 -0.815481 0
M  V30 9558 C 930.768 -0.430981 -3.56907 0
M  V30 9559 C 930.432 -1.78037 -4.20894 0
M  V30 9560 C 931.429 -2.74034 -4.41816 0
M  V30 9561 C 929.114 -2.0673 -4.57786 0
M  V30 9562 C 931.108 -3.96901 -4.98747 0
M  V30 9563 C 928.795 -3.29858 -5.14429 0
M  V30 9564 C 929.793 -4.24761 -5.34853 0
M  V30 9565 O 929.481 -5.45714 -5.90298 0
M  V30 9566 H 929.213 -0.165392 -0.655455 0
M  V30 9567 H 931.767 -1.10524 -1.73129 0
M  V30 9568 H 929.997 0.316074 -3.85406 0
M  V30 9569 H 931.686 -0.0494067 -4.0587 0
M  V30 9570 H 932.452 -2.53161 -4.13684 0
M  V30 9571 H 928.331 -1.33666 -4.41197 0
M  V30 9572 H 931.875 -4.70987 -5.14604 0
M  V30 9573 H 927.772 -3.50597 -5.41989 0
M  V30 9574 H 928.54 -5.47157 -6.08738 0
M  V30 9575 N 931.203 1.46865 -0.571711 0
M  V30 9576 C 932.451 2.0203 -0.0530022 0
M  V30 9577 C 932.772 1.44687 1.30731 0
M  V30 9578 O 932.042 0.627429 1.85581 0
M  V30 9579 H 930.622 0.746815 -0.0166035 0
M  V30 9580 H 933.284 1.80099 -0.745003 0
M  V30 9581 H 932.38 3.12091 0.0242538 0
M  V30 9582 N 932.681 0.308908 1.54543 0
M  V30 9583 C 933.927 -0.298478 2.00592 0
M  V30 9584 C 934.26 -1.52929 1.19692 0
M  V30 9585 O 933.535 -1.9254 0.27542 0
M  V30 9586 C 933.818 -0.647218 3.54236 0
M  V30 9587 C 933.671 0.593284 4.4587 0
M  V30 9588 C 934.99 -1.47064 4.14801 0
M  V30 9589 H 932.109 -0.107012 0.72919 0
M  V30 9590 H 934.751 0.422578 1.85241 0
M  V30 9591 H 932.901 -1.26153 3.67447 0
M  V30 9592 H 934.573 1.2317 4.44552 0
M  V30 9593 H 932.816 1.22501 4.16144 0
M  V30 9594 H 933.487 0.305018 5.51157 0
M  V30 9595 H 935.963 -0.951511 4.05075 0
M  V30 9596 H 934.839 -1.68343 5.22448 0
M  V30 9597 H 935.1 -2.4623 3.67183 0
M  V30 9598 N 934.159 -1.57557 0.0367827 0
M  V30 9599 C 935.57 -1.79853 -0.500971 0
M  V30 9600 C 935.921 -0.947749 -1.71791 0
M  V30 9601 O 935.046 -0.160287 -2.15806 0
M  V30 9602 C 935.641 -3.26193 -0.915626 0
M  V30 9603 C 934.2 -3.49457 -1.39845 0
M  V30 9604 C 933.347 -2.74864 -0.366784 0
M  V30 9605 H 936.298 -1.56509 0.262768 0
M  V30 9606 H 936.319 -3.36324 -1.7795 0
M  V30 9607 H 935.831 -3.88089 -0.0297227 0
M  V30 9608 H 933.932 -2.92823 -2.30402 0
M  V30 9609 H 934.045 -4.58172 -1.40054 0
M  V30 9610 H 932.409 -2.4057 -0.836554 0
M  V30 9611 H 933.192 -3.39479 0.510785 0
M  V30 9612 N 935.637 0.236453 -1.55816 0
M  V30 9613 C 936.883 0.960127 -1.79313 0
M  V30 9614 C 937.238 1.8256 -0.607406 0
M  V30 9615 O 936.531 1.87398 0.399046 0
M  V30 9616 C 936.725 1.84549 -3.06066 0
M  V30 9617 C 936.554 1.06721 -4.36853 0
M  V30 9618 C 935.324 0.76811 -4.99428 0
M  V30 9619 C 937.522 0.439715 -5.12417 0
M  V30 9620 N 935.504 -0.0331365 -6.13891 0
M  V30 9621 C 936.875 -0.225616 -6.19589 0
M  V30 9622 C 938.93 0.351237 -4.9666 0
M  V30 9623 C 937.633 -0.970943 -7.12717 0
M  V30 9624 C 939.659 -0.380585 -5.90174 0
M  V30 9625 C 939.021 -1.03451 -6.96762 0
M  V30 9626 H 935.12 0.332095 -0.707981 0
M  V30 9627 H 937.704 0.232311 -1.93309 0
M  V30 9628 H 935.875 2.54525 -2.93379 0
M  V30 9629 H 937.607 2.50552 -3.17814 0
M  V30 9630 H 934.362 1.08248 -4.61063 0
M  V30 9631 H 934.786 -0.422159 -6.75682 0
M  V30 9632 H 939.428 0.842469 -4.14321 0
M  V30 9633 H 937.146 -1.47374 -7.94548 0
M  V30 9634 H 940.732 -0.449851 -5.80058 0
M  V30 9635 H 939.612 -1.59175 -7.67876 0
M  V30 9636 N 937.115 1.49373 0.502552 0
M  V30 9637 C 938.345 1.62252 1.27898 0
M  V30 9638 C 938.753 0.292555 1.86924 0
M  V30 9639 O 938.096 -0.731823 1.68493 0
M  V30 9640 C 938.158 2.63153 2.4493 0
M  V30 9641 C 937.822 4.07541 2.06784 0
M  V30 9642 C 938.819 4.94392 1.60849 0
M  V30 9643 C 936.504 4.53263 2.16466 0
M  V30 9644 C 938.498 6.25003 1.25098 0
M  V30 9645 C 936.185 5.83888 1.80327 0
M  V30 9646 C 937.183 6.69582 1.34718 0
M  V30 9647 O 936.871 7.97773 0.990661 0
M  V30 9648 H 936.603 0.54918 0.394179 0
M  V30 9649 H 939.157 1.96132 0.610031 0
M  V30 9650 H 937.387 2.2445 3.14895 0
M  V30 9651 H 939.076 2.65578 3.06957 0
M  V30 9652 H 939.842 4.60296 1.52816 0
M  V30 9653 H 935.721 3.86731 2.50919 0
M  V30 9654 H 939.265 6.91844 0.894269 0
M  V30 9655 H 935.162 6.17513 1.8801 0
M  V30 9656 H 935.93 8.1077 1.12227 0
M  V30 9657 N 938.594 -0.753485 1.38421 0
M  V30 9658 C 939.871 -1.50318 1.25155 0
M  V30 9659 C 940.251 -2.10588 -0.147003 0
M  V30 9660 O 939.599 -1.97071 -1.15651 0
M  V30 9661 C 939.809 -2.56946 2.36177 0
M  V30 9662 C 941.157 -3.23846 2.74607 0
M  V30 9663 O 942.181 -2.67251 2.3549 0
M  V30 9664 O 941.04 -4.2621 3.42064 0
M  V30 9665 H 938.134 -0.666624 0.48943 0
M  V30 9666 H 940.68 -0.788887 1.50249 0
M  V30 9667 H 939.452 -2.1066 3.29754 0
M  V30 9668 H 939.075 -3.35956 2.12648 0
M  V30 9669 N 940.072 -1.23292 -0.981677 0
M  V30 9670 C 941.321 -1.05832 -1.71705 0
M  V30 9671 C 941.634 0.40514 -1.91358 0
M  V30 9672 O 942.84 0.699645 -2.6233 0
M  V30 9673 C 941.296 -1.84532 -3.08992 0
M  V30 9674 C 940.904 -3.35199 -2.9723 0
M  V30 9675 C 942.648 -1.75557 -3.86497 0
M  V30 9676 C 940.555 -4.06296 -4.29741 0
M  V30 9677 H 939.485 -0.39241 -0.64384 0
M  V30 9678 H 942.136 -1.47247 -1.09502 0
M  V30 9679 H 940.518 -1.35923 -3.71942 0
M  V30 9680 H 941.692 -3.91286 -2.43377 0
M  V30 9681 H 940.007 -3.44973 -2.332 0
M  V30 9682 H 942.604 -2.25989 -4.84596 0
M  V30 9683 H 942.947 -0.718101 -4.1006 0
M  V30 9684 H 943.48 -2.21771 -3.30246 0
M  V30 9685 H 940.219 -5.10344 -4.11375 0
M  V30 9686 H 939.739 -3.54997 -4.83464 0
M  V30 9687 H 941.418 -4.12519 -4.98434 0
M  V30 9688 N 941.55 1.18024 -1.04442 0
M  V30 9689 C 942.482 2.21294 -0.596799 0
M  V30 9690 C 943.495 1.59305 0.33552 0
M  V30 9691 O 944.684 1.7803 0.129443 0
M  V30 9692 C 941.784 3.38578 0.147648 0
M  V30 9693 C 940.957 4.30143 -0.793484 0
M  V30 9694 C 940.016 5.2612 -0.0916561 0
M  V30 9695 O 939.042 5.64586 -0.72331 0
M  V30 9696 N 940.244 5.68512 1.17364 0
M  V30 9697 H 943.009 2.6032 -1.48504 0
M  V30 9698 H 940.57 1.32847 -0.925374 0
M  V30 9699 H 942.562 3.99812 0.627098 0
M  V30 9700 H 941.132 2.98212 0.937466 0
M  V30 9701 H 940.352 3.66456 -1.45272 0
M  V30 9702 H 941.64 4.88216 -1.43258 0
M  V30 9703 H 941.038 5.39322 1.70729 0
M  V30 9704 H 939.595 6.31925 1.5973 0
M  V30 9705 N 943.028 0.824394 1.34319 0
M  V30 9706 C 944.439 0.471802 1.8064 0
M  V30 9707 C 944.79 -1.00793 1.6833 0
M  V30 9708 O 943.915 -1.78447 1.22416 0
M  V30 9709 C 944.51 0.849609 3.27974 0
M  V30 9710 C 943.069 0.549365 3.72369 0
M  V30 9711 C 942.216 1.06573 2.56003 0
M  V30 9712 H 945.167 1.01443 1.22045 0
M  V30 9713 H 945.188 0.153968 3.80188 0
M  V30 9714 H 944.7 1.92663 3.36902 0
M  V30 9715 H 942.801 -0.518182 3.68979 0
M  V30 9716 H 942.914 1.09446 4.66432 0
M  V30 9717 H 941.278 0.487214 2.49997 0
M  V30 9718 H 942.061 2.14923 2.677 0
M  V30 9719 N 944.506 -1.46559 0.579492 0
M  V30 9720 C 945.752 -2.02699 0.0639363 0
M  V30 9721 C 946.085 -1.4504 -1.29139 0
M  V30 9722 O 945.36 -0.614284 -1.84545 0
M  V30 9723 C 945.643 -3.601 -0.00528618 0
M  V30 9724 C 945.496 -4.28149 1.37871 0
M  V30 9725 C 946.815 -4.34375 -0.707537 0
M  V30 9726 H 943.934 -0.736586 0.0247085 0
M  V30 9727 H 946.576 -1.74739 0.746071 0
M  V30 9728 H 944.726 -3.84052 -0.586206 0
M  V30 9729 H 946.398 -4.1547 2.00455 0
M  V30 9730 H 944.641 -3.87636 1.94732 0
M  V30 9731 H 945.312 -5.36888 1.28278 0
M  V30 9732 H 947.788 -4.15549 -0.214064 0
M  V30 9733 H 946.664 -5.44091 -0.724992 0
M  V30 9734 H 946.925 -4.052 -1.7682 0
M  V30 9735 N 945.984 -0.3171 -1.54377 0
M  V30 9736 C 947.233 0.288271 -1.99629 0
M  V30 9737 C 947.546 1.53754 -1.2091 0
M  V30 9738 O 948.752 2.2185 -1.56508 0
M  V30 9739 C 947.208 0.564188 -3.5545 0
M  V30 9740 C 946.816 -0.667659 -4.42997 0
M  V30 9741 C 948.56 1.12987 -4.09187 0
M  V30 9742 C 946.467 -0.364003 -5.90279 0
M  V30 9743 H 945.397 0.111492 -0.745711 0
M  V30 9744 H 948.048 -0.428317 -1.78431 0
M  V30 9745 H 946.43 1.34079 -3.72611 0
M  V30 9746 H 947.604 -1.44335 -4.37612 0
M  V30 9747 H 945.919 -1.1531 -4.00116 0
M  V30 9748 H 948.516 1.37157 -5.1681 0
M  V30 9749 H 948.859 2.07722 -3.60773 0
M  V30 9750 H 949.392 0.414595 -3.95634 0
M  V30 9751 H 946.131 -1.28035 -6.42874 0
M  V30 9752 H 945.651 0.374102 -5.98632 0
M  V30 9753 H 947.33 0.0285433 -6.46994 0
M  V30 9754 N 947.462 1.57535 -0.0451378 0
M  V30 9755 C 948.425 2.1008 0.916461 0
M  V30 9756 C 949.425 1.01913 1.2438 0
M  V30 9757 O 950.615 1.2801 1.18148 0
M  V30 9758 C 947.747 2.58001 2.22818 0
M  V30 9759 H 948.94 2.96334 0.461076 0
M  V30 9760 H 946.493 1.54974 0.203169 0
M  V30 9761 H 947.228 1.75123 2.72951 0
M  V30 9762 H 947.013 3.3704 2.00366 0
M  V30 9763 H 948.503 2.98822 2.9171 0
M  V30 9764 N 948.94 -0.228186 1.55939 0
M  V30 9765 C 950.165 -0.974795 1.83064 0
M  V30 9766 C 950.59 -1.77426 0.624624 0
M  V30 9767 O 949.948 -1.76211 -0.426556 0
M  V30 9768 C 949.996 -1.87342 3.08116 0
M  V30 9769 O 949.1 -2.96784 2.86344 0
M  V30 9770 H 948.441 -0.276379 0.603747 0
M  V30 9771 H 950.971 -0.243507 2.03146 0
M  V30 9772 H 950.981 -2.28451 3.38045 0
M  V30 9773 H 949.656 -1.28575 3.95526 0
M  V30 9774 H 948.233 -2.59669 2.67631 0
M  V30 9775 N 950.418 -1.49637 -0.494624 0
M  V30 9776 C 951.368 -1.63168 -1.59249 0
M  V30 9777 C 952.352 -0.487089 -1.5335 0
M  V30 9778 O 953.544 -0.74036 -1.60772 0
M  V30 9779 C 950.673 -1.70744 -2.97828 0
M  V30 9780 C 949.759 -2.90802 -3.08699 0
M  V30 9781 N 950.15 -4.14797 -2.89442 0
M  V30 9782 C 948.448 -2.88871 -3.39808 0
M  V30 9783 C 949.149 -4.95535 -3.04663 0
M  V30 9784 N 948.125 -4.29025 -3.33824 0
M  V30 9785 H 951.927 -2.56751 -1.43024 0
M  V30 9786 H 949.441 -1.46497 -0.700885 0
M  V30 9787 H 951.438 -1.78537 -3.76736 0
M  V30 9788 H 950.098 -0.783024 -3.15117 0
M  V30 9789 H 951.109 -4.44675 -2.6549 0
M  V30 9790 H 947.786 -2.05834 -3.63233 0
M  V30 9791 H 949.176 -6.0406 -2.94214 0
M  V30 9792 N 951.896 0.746133 -1.38819 0
M  V30 9793 C 953.307 1.32384 -1.31648 0
M  V30 9794 C 953.658 1.96185 0.0243086 0
M  V30 9795 O 952.783 1.95567 0.92641 0
M  V30 9796 C 953.378 2.40712 -2.38418 0
M  V30 9797 C 951.937 2.94185 -2.34803 0
M  V30 9798 C 951.084 1.67639 -2.20891 0
M  V30 9799 H 954.035 0.544457 -1.49068 0
M  V30 9800 H 954.056 3.20833 -2.04564 0
M  V30 9801 H 953.568 1.94247 -3.3599 0
M  V30 9802 H 951.669 3.44959 -1.40834 0
M  V30 9803 H 951.782 3.48057 -3.29231 0
M  V30 9804 H 950.146 1.9155 -1.67871 0
M  V30 9805 H 950.929 1.23242 -3.20416 0
M  V30 9806 N 953.375 1.23811 0.975125 0
M  V30 9807 C 954.621 1.07495 1.71967 0
M  V30 9808 C 954.954 -0.386451 1.90316 0
M  V30 9809 O 954.229 -1.28591 1.45927 0
M  V30 9810 C 954.512 1.80694 3.11483 0
M  V30 9811 C 954.365 3.3454 3.00671 0
M  V30 9812 C 955.684 1.57367 4.11003 0
M  V30 9813 H 952.803 0.3919 0.624166 0
M  V30 9814 H 955.445 1.52383 1.13487 0
M  V30 9815 H 953.595 1.42538 3.61407 0
M  V30 9816 H 955.267 3.8225 2.5823 0
M  V30 9817 H 953.51 3.63301 2.37054 0
M  V30 9818 H 954.181 3.80951 3.99475 0
M  V30 9819 H 956.657 1.90545 3.69908 0
M  V30 9820 H 955.533 2.11052 5.06703 0
M  V30 9821 H 955.794 0.510221 4.39146 0
M  V30 9822 N 954.853 -1.17469 1.05066 0
M  V30 9823 C 956.081 -1.9162 0.780334 0
M  V30 9824 C 956.496 -1.76745 -0.663817 0
M  V30 9825 O 955.853 -1.10377 -1.45338 0
M  V30 9826 C 955.904 -3.42723 1.14992 0
M  V30 9827 O 955.625 -3.57139 2.53739 0
M  V30 9828 C 957.126 -4.33952 0.905549 0
M  V30 9829 H 954.346 -0.608022 0.283814 0
M  V30 9830 H 956.89 -1.4897 1.401 0
M  V30 9831 H 955.045 -3.83124 0.57403 0
M  V30 9832 H 955.459 -4.5075 2.68189 0
M  V30 9833 H 956.933 -5.38487 1.21391 0
M  V30 9834 H 957.41 -4.38911 -0.159295 0
M  V30 9835 H 958.016 -3.99263 1.46522 0
M  V30 9836 N 956.331 -0.831506 -1.3388 0
M  V30 9837 C 957.556 -0.435954 -2.02766 0
M  V30 9838 C 957.981 0.952889 -1.62178 0
M  V30 9839 O 957.339 1.62166 -0.810681 0
M  V30 9840 C 957.387 -0.555907 -3.56289 0
M  V30 9841 O 956.491 0.420826 -4.10247 0
M  V30 9842 H 955.832 -0.178248 -0.639628 0
M  V30 9843 H 958.362 -1.1243 -1.70941 0
M  V30 9844 H 958.372 -0.434831 -4.05676 0
M  V30 9845 H 957.047 -1.56881 -3.85177 0
M  V30 9846 H 955.624 0.257919 -3.72007 0
M  V30 9847 N 957.809 1.4625 -0.587256 0
M  V30 9848 C 958.742 2.27392 0.191837 0
M  V30 9849 C 959.72 1.35905 0.89267 0
M  V30 9850 O 960.904 1.65319 0.905643 0
M  V30 9851 C 958.031 3.13758 1.27567 0
M  V30 9852 C 957.077 4.21041 0.680186 0
M  V30 9853 S 957.91 5.33194 -0.496419 0
M  V30 9854 C 959.066 6.23127 0.588506 0
M  V30 9855 H 959.299 2.93123 -0.496635 0
M  V30 9856 H 956.832 1.49795 -0.37426 0
M  V30 9857 H 958.79 3.6408 1.8962 0
M  V30 9858 H 957.451 2.47332 1.93612 0
M  V30 9859 H 956.644 4.81316 1.49503 0
M  V30 9860 H 956.246 3.73755 0.135227 0
M  V30 9861 H 958.538 6.61294 1.47298 0
M  V30 9862 H 959.481 7.08096 0.0224093 0
M  V30 9863 H 959.889 5.57365 0.894696 0
M  V30 9864 N 959.287 0.325282 1.54207 0
M  V30 9865 C 960.534 -0.276775 2.006 0
M  V30 9866 C 960.862 -1.52007 1.21343 0
M  V30 9867 O 960.117 -1.93627 0.284104 0
M  V30 9868 C 960.416 -0.654292 3.5136 0
M  V30 9869 C 960.082 0.490023 4.48229 0
M  V30 9870 C 958.744 0.804104 4.74434 0
M  V30 9871 C 961.096 1.2586 5.05775 0
M  V30 9872 C 958.424 1.88945 5.55443 0
M  V30 9873 C 960.776 2.33405 5.87967 0
M  V30 9874 C 959.44 2.65393 6.12473 0
M  V30 9875 H 958.71 -0.101279 0.734046 0
M  V30 9876 H 961.357 0.449416 1.86152 0
M  V30 9877 H 959.662 -1.46093 3.63544 0
M  V30 9878 H 961.359 -1.13171 3.84699 0
M  V30 9879 H 957.949 0.235147 4.27954 0
M  V30 9880 H 962.133 1.02921 4.85511 0
M  V30 9881 H 957.389 2.14174 5.7266 0
M  V30 9882 H 961.563 2.93402 6.31576 0
M  V30 9883 H 959.19 3.49622 6.75032 0
M  V30 9884 N 960.765 -1.57509 0.0534917 0
M  V30 9885 C 961.695 -2.14698 -0.917999 0
M  V30 9886 C 962.676 -1.06924 -1.32292 0
M  V30 9887 O 963.861 -1.34875 -1.39723 0
M  V30 9888 C 960.991 -2.69383 -2.19203 0
M  V30 9889 C 959.945 -3.82161 -1.9271 0
M  V30 9890 C 959.271 -4.23373 -3.26587 0
M  V30 9891 C 960.571 -5.07199 -1.24686 0
M  V30 9892 H 962.265 -2.96125 -0.44165 0
M  V30 9893 H 959.811 -1.42446 -0.210993 0
M  V30 9894 H 961.764 -3.08031 -2.87567 0
M  V30 9895 H 960.488 -1.85151 -2.69048 0
M  V30 9896 H 959.147 -3.43989 -1.26757 0
M  V30 9897 H 958.795 -3.36089 -3.74237 0
M  V30 9898 H 958.495 -4.99385 -3.09658 0
M  V30 9899 H 960.019 -4.64623 -3.96178 0
M  V30 9900 H 961.433 -5.43279 -1.83088 0
M  V30 9901 H 959.83 -5.88369 -1.18076 0
M  V30 9902 H 960.9 -4.84386 -0.223227 0
M  V30 9903 N 962.243 0.219913 -1.56058 0
M  V30 9904 C 963.471 0.960915 -1.83232 0
M  V30 9905 C 963.886 1.77878 -0.632828 0
M  V30 9906 O 963.243 1.78093 0.398624 0
M  V30 9907 C 963.294 1.87716 -3.08942 0
M  V30 9908 O 963.015 1.09235 -4.24263 0
M  V30 9909 C 964.516 2.73192 -3.49115 0
M  V30 9910 H 961.736 0.281546 -0.609075 0
M  V30 9911 H 964.28 0.234648 -2.03149 0
M  V30 9912 H 962.435 2.55736 -2.90995 0
M  V30 9913 H 962.849 1.71446 -4.95688 0
M  V30 9914 H 964.323 3.33181 -4.40107 0
M  V30 9915 H 964.8 3.45668 -2.70943 0
M  V30 9916 H 965.406 2.10583 -3.69506 0
M  V30 9917 N 963.721 1.49897 0.486681 0
M  V30 9918 C 964.651 1.7054 1.59494 0
M  V30 9919 C 965.632 0.554184 1.60819 0
M  V30 9920 O 966.817 0.791617 1.77333 0
M  V30 9921 C 963.947 1.78517 2.97908 0
M  V30 9922 C 962.901 2.93571 3.11449 0
M  V30 9923 C 962.227 2.86674 4.51356 0
M  V30 9924 C 963.527 4.34308 2.90127 0
M  V30 9925 H 965.221 2.63329 1.42472 0
M  V30 9926 H 962.767 1.2672 0.683969 0
M  V30 9927 H 964.72 1.91544 3.75352 0
M  V30 9928 H 963.444 0.823381 3.16051 0
M  V30 9929 H 962.103 2.80169 2.36433 0
M  V30 9930 H 961.751 1.88373 4.66395 0
M  V30 9931 H 961.451 3.63903 4.61355 0
M  V30 9932 H 962.975 3.01728 5.30841 0
M  V30 9933 H 964.389 4.48317 3.57331 0
M  V30 9934 H 962.786 5.12869 3.11585 0
M  V30 9935 H 963.856 4.47759 1.86119 0
M  V30 9936 N 965.199 -0.738761 1.39212 0
M  V30 9937 C 966.424 -1.5331 1.39681 0
M  V30 9938 C 966.849 -1.88098 -0.00768715 0
M  V30 9939 O 966.207 -1.51642 -0.993699 0
M  V30 9940 C 966.255 -2.79958 2.27279 0
M  V30 9941 O 965.359 -3.75727 1.70008 0
M  V30 9942 H 964.7 -0.463131 0.475821 0
M  V30 9943 H 967.23 -0.911768 1.83161 0
M  V30 9944 H 967.24 -3.28732 2.41659 0
M  V30 9945 H 965.915 -2.5397 3.29351 0
M  V30 9946 H 964.492 -3.34483 1.64851 0
M  V30 9947 N 966.677 -1.24326 -0.968545 0
M  V30 9948 C 967.926 -1.07647 -1.70572 0
M  V30 9949 C 968.239 0.384821 -1.91777 0
M  V30 9950 O 969.445 0.671782 -2.63058 0
M  V30 9951 C 967.901 -1.87799 -3.07017 0
M  V30 9952 C 967.509 -3.38333 -2.93658 0
M  V30 9953 C 969.253 -1.79647 -3.84613 0
M  V30 9954 C 967.16 -4.10831 -4.25407 0
M  V30 9955 H 966.09 -0.399216 -0.639642 0
M  V30 9956 H 968.741 -1.484 -1.07934 0
M  V30 9957 H 967.123 -1.3986 -3.7048 0
M  V30 9958 H 968.297 -3.93845 -2.39213 0
M  V30 9959 H 966.612 -3.47427 -2.29528 0
M  V30 9960 H 969.209 -2.31116 -4.82172 0
M  V30 9961 H 969.552 -0.761553 -4.09275 0
M  V30 9962 H 970.085 -2.25261 -3.27875 0
M  V30 9963 H 966.824 -5.14679 -4.05939 0
M  V30 9964 H 966.344 -3.60105 -4.79671 0
M  V30 9965 H 968.023 -4.17783 -4.94031 0
M  V30 9966 N 968.156 1.1691 -1.05688 0
M  V30 9967 C 969.086 2.23275 -0.683402 0
M  V30 9968 C 970.067 1.6704 0.321206 0
M  V30 9969 O 971.252 1.93191 0.197691 0
M  V30 9970 C 968.382 3.47244 -0.0626006 0
M  V30 9971 C 967.336 4.16333 -0.992513 0
M  V30 9972 C 966.662 5.34182 -0.23533 0
M  V30 9973 C 967.962 4.68002 -2.31886 0
M  V30 9974 H 969.656 2.54771 -1.57264 0
M  V30 9975 H 967.202 1.2246 -0.757606 0
M  V30 9976 H 969.155 4.20874 0.210503 0
M  V30 9977 H 967.879 3.1503 0.861616 0
M  V30 9978 H 966.538 3.44622 -1.25026 0
M  V30 9979 H 966.186 4.9822 0.69181 0
M  V30 9980 H 965.886 5.81346 -0.855002 0
M  V30 9981 H 967.41 6.10592 0.0303717 0
M  V30 9982 H 968.824 5.33244 -2.10531 0
M  V30 9983 H 967.221 5.25764 -2.89296 0
M  V30 9984 H 968.291 3.84541 -2.95391 0
M  V30 9985 N 969.634 0.838594 1.33437 0
M  V30 9986 C 970.862 0.447644 2.01999 0
M  V30 9987 C 971.277 -0.951053 1.63096 0
M  V30 9988 O 970.634 -1.61802 0.844169 0
M  V30 9989 C 970.685 0.558378 3.57162 0
M  V30 9990 O 970.406 1.90196 3.94661 0
M  V30 9991 C 971.907 0.164348 4.42995 0
M  V30 9992 H 969.127 0.177736 0.647032 0
M  V30 9993 H 971.671 1.13109 1.70372 0
M  V30 9994 H 969.826 -0.0771563 3.87323 0
M  V30 9995 H 970.24 1.88729 4.89369 0
M  V30 9996 H 971.714 0.292876 5.51222 0
M  V30 9997 H 972.191 -0.893713 4.30011 0
M  V30 9998 H 972.797 0.774306 4.18192 0
M  V30 9999 N 971.112 -1.45937 0.595003 0
M  V30 10000 C 972.36 -2.01921 0.0851368 0
M  V30 10001 C 972.681 -1.46748 -1.28413 0
M  V30 10002 O 971.951 -0.656873 -1.84559 0
M  V30 10003 H 970.531 -0.746457 0.0284826 0
M  V30 10004 H 973.193 -1.78891 0.773561 0
M  V30 10005 H 972.289 -3.1209 0.0254002 0
M  V30 10006 N 972.59 -0.333456 -1.54032 0
M  V30 10007 C 973.52 0.52051 -2.27625 0
M  V30 10008 C 974.501 1.1111 -1.28797 0
M  V30 10009 O 975.686 1.13438 -1.57625 0
M  V30 10010 C 972.816 1.67663 -3.04149 0
M  V30 10011 C 971.77 1.21487 -4.10396 0
M  V30 10012 C 971.096 2.45872 -4.74817 0
M  V30 10013 C 972.396 0.322603 -5.21303 0
M  V30 10014 H 974.09 -0.0933823 -2.99254 0
M  V30 10015 H 971.636 -0.0463526 -1.43925 0
M  V30 10016 H 973.589 2.28041 -3.54366 0
M  V30 10017 H 972.313 2.31727 -2.30153 0
M  V30 10018 H 970.972 0.633966 -3.61077 0
M  V30 10019 H 970.62 3.0832 -3.97426 0
M  V30 10020 H 970.32 2.15662 -5.46593 0
M  V30 10021 H 971.844 3.06994 -5.27814 0
M  V30 10022 H 973.258 0.832942 -5.67217 0
M  V30 10023 H 971.655 0.112843 -5.99994 0
M  V30 10024 H 972.725 -0.643954 -4.80605 0
M  V30 10025 N 974.068 1.57479 -0.061844 0
M  V30 10026 C 974.998 2.15181 0.9066 0
M  V30 10027 C 975.979 1.07624 1.31724 0
M  V30 10028 O 977.164 1.35614 1.39006 0
M  V30 10029 C 974.294 2.70542 2.17771 0
M  V30 10030 C 973.248 3.83178 1.9068 0
M  V30 10031 C 972.574 4.25099 3.24337 0
M  V30 10032 C 973.874 5.07853 1.21994 0
M  V30 10033 H 975.568 2.96355 0.42594 0
M  V30 10034 H 973.114 1.42556 0.203435 0
M  V30 10035 H 975.067 3.09552 2.85929 0
M  V30 10036 H 973.791 1.86575 2.68062 0
M  V30 10037 H 972.45 3.44656 1.24931 0
M  V30 10038 H 972.098 3.38069 3.72449 0
M  V30 10039 H 971.798 5.01021 3.07005 0
M  V30 10040 H 973.322 4.66718 3.93709 0
M  V30 10041 H 974.736 5.44242 1.80204 0
M  V30 10042 H 973.133 5.88987 1.14954 0
M  V30 10043 H 974.203 4.84497 0.197536 0
M  V30 10044 N 975.546 -0.211634 1.56173 0
M  V30 10045 C 976.509 -1.24588 1.92381 0
M  V30 10046 C 977.509 -1.39297 0.803311 0
M  V30 10047 O 978.699 -1.37392 1.07094 0
M  V30 10048 C 975.831 -2.61807 2.18335 0
M  V30 10049 H 977.024 -0.936814 2.84893 0
M  V30 10050 H 974.577 -0.452471 1.49607 0
M  V30 10051 H 975.312 -2.97795 1.28407 0
M  V30 10052 H 975.097 -2.52506 2.99972 0
M  V30 10053 H 976.587 -3.3642 2.4741 0
M  V30 10054 N 977.024 -1.50153 -0.478725 0
M  V30 10055 C 977.987 -1.67916 -1.56003 0
M  V30 10056 C 978.987 -0.550111 -1.51097 0
M  V30 10057 O 980.177 -0.817001 -1.53853 0
M  V30 10058 C 977.309 -1.6973 -2.95643 0
M  V30 10059 H 978.502 -2.6438 -1.41573 0
M  V30 10060 H 976.055 -1.39519 -0.704565 0
M  V30 10061 H 976.79 -0.749306 -3.15525 0
M  V30 10062 H 976.575 -2.51745 -3.00611 0
M  V30 10063 H 978.065 -1.85453 -3.74162 0
M  V30 10064 N 978.502 0.731368 -1.39602 0
M  V30 10065 C 979.748 1.49211 -1.38231 0
M  V30 10066 C 980.103 1.92389 0.020747 0
M  V30 10067 O 979.396 1.64161 0.988014 0
M  V30 10068 C 979.59 2.74224 -2.29208 0
M  V30 10069 C 979.419 2.4327 -3.78219 0
M  V30 10070 C 978.189 2.35387 -4.47125 0
M  V30 10071 C 980.387 2.08574 -4.70108 0
M  V30 10072 N 978.369 1.96942 -5.81452 0
M  V30 10073 C 979.74 1.80603 -5.93113 0
M  V30 10074 C 981.795 1.95074 -4.58095 0
M  V30 10075 C 980.498 1.40491 -7.05447 0
M  V30 10076 C 982.524 1.56365 -5.70354 0
M  V30 10077 C 981.886 1.29281 -6.92435 0
M  V30 10078 H 977.985 0.544703 -0.56109 0
M  V30 10079 H 980.569 0.849647 -1.75183 0
M  V30 10080 H 978.74 3.36244 -1.94408 0
M  V30 10081 H 980.472 3.40451 -2.18803 0
M  V30 10082 H 977.227 2.52604 -4.0061 0
M  V30 10083 H 977.651 1.80303 -6.52549 0
M  V30 10084 H 982.293 2.1468 -3.64242 0
M  V30 10085 H 980.011 1.19626 -7.99197 0
M  V30 10086 H 983.597 1.4652 -5.63048 0
M  V30 10087 H 982.477 0.997769 -7.77827 0
M  V30 10088 N 979.98 1.24838 0.961938 0
M  V30 10089 C 981.21 1.11709 1.73795 0
M  V30 10090 C 981.618 -0.33263 1.86253 0
M  V30 10091 O 980.961 -1.24101 1.35443 0
M  V30 10092 C 981.023 1.68959 3.17322 0
M  V30 10093 C 980.687 3.17895 3.28316 0
M  V30 10094 C 981.684 4.14975 3.13196 0
M  V30 10095 C 979.369 3.57966 3.52372 0
M  V30 10096 C 981.363 5.50107 3.21965 0
M  V30 10097 C 979.05 4.93237 3.60778 0
M  V30 10098 C 980.048 5.89116 3.45588 0
M  V30 10099 O 979.736 7.21927 3.53662 0
M  V30 10100 H 979.468 0.390726 0.551642 0
M  V30 10101 H 982.022 1.65541 1.21594 0
M  V30 10102 H 980.252 1.09567 3.70853 0
M  V30 10103 H 981.941 1.51036 3.76753 0
M  V30 10104 H 982.707 3.85359 2.94489 0
M  V30 10105 H 978.586 2.83837 3.63259 0
M  V30 10106 H 982.13 6.24924 3.10025 0
M  V30 10107 H 978.027 5.22522 3.79 0
M  V30 10108 H 978.795 7.29925 3.7034 0
M  V30 10109 N 981.458 -1.16348 1.06306 0
M  V30 10110 C 982.408 -2.18717 0.643947 0
M  V30 10111 C 983.392 -1.57574 -0.325445 0
M  V30 10112 O 984.584 -1.76439 -0.140868 0
M  V30 10113 C 981.713 -3.43285 0.0320266 0
M  V30 10114 C 980.799 -4.11504 1.02592 0
M  V30 10115 N 981.19 -4.55374 2.20155 0
M  V30 10116 C 979.488 -4.37691 0.856887 0
M  V30 10117 C 980.189 -5.08149 2.83124 0
M  V30 10118 N 979.165 -5.01042 2.10851 0
M  V30 10119 H 982.967 -2.50353 1.53951 0
M  V30 10120 H 980.481 -1.328 0.934763 0
M  V30 10121 H 982.478 -4.15917 -0.286064 0
M  V30 10122 H 981.138 -3.13137 -0.858786 0
M  V30 10123 H 982.149 -4.49101 2.57931 0
M  V30 10124 H 978.826 -4.17496 0.0180742 0
M  V30 10125 H 980.216 -5.52131 3.82885 0
M  V30 10126 N 982.937 -0.845659 -1.3299 0
M  V30 10127 C 984.184 -0.444653 -1.97558 0
M  V30 10128 C 984.512 0.997682 -1.66963 0
M  V30 10129 O 983.767 1.71349 -0.94541 0
M  V30 10130 C 984.066 -0.6201 -3.51979 0
M  V30 10131 C 983.732 -2.03155 -4.02541 0
M  V30 10132 C 982.394 -2.4176 -4.16059 0
M  V30 10133 C 984.746 -2.95317 -4.29462 0
M  V30 10134 C 982.074 -3.71818 -4.53837 0
M  V30 10135 C 984.426 -4.24863 -4.68694 0
M  V30 10136 C 983.09 -4.63416 -4.80419 0
M  V30 10137 H 982.36 -0.16271 -0.722915 0
M  V30 10138 H 985.007 -1.07399 -1.58549 0
M  V30 10139 H 983.312 0.092513 -3.91691 0
M  V30 10140 H 985.009 -0.290012 -3.9995 0
M  V30 10141 H 981.599 -1.72174 -3.92497 0
M  V30 10142 H 985.783 -2.66726 -4.18534 0
M  V30 10143 H 981.039 -4.01484 -4.61108 0
M  V30 10144 H 985.213 -4.96347 -4.8848 0
M  V30 10145 H 982.84 -5.6424 -5.09448 0
M  V30 10146 N 984.415 1.45619 -0.602734 0
M  V30 10147 C 985.831 1.57368 -0.26599 0
M  V30 10148 C 986.031 1.59485 1.23154 0
M  V30 10149 O 985.087 1.52254 2.01432 0
M  V30 10150 C 986.4 2.85863 -0.932881 0
M  V30 10151 C 987.948 2.9953 -0.908344 0
M  V30 10152 C 988.423 4.30789 -1.55515 0
M  V30 10153 N 989.914 4.37536 -1.52042 0
M  V30 10154 C 990.649 5.37758 -1.99008 0
M  V30 10155 N 990.145 6.44544 -2.54038 0
M  V30 10156 N 991.938 5.29085 -1.89805 0
M  V30 10157 H 984.089 1.42489 -1.57514 0
M  V30 10158 H 986.352 0.680948 -0.659556 0
M  V30 10159 H 986.058 2.90183 -1.98713 0
M  V30 10160 H 985.932 3.74467 -0.453209 0
M  V30 10161 H 988.319 2.9478 0.137344 0
M  V30 10162 H 988.4 2.12349 -1.42623 0
M  V30 10163 H 988.044 4.36297 -2.60014 0
M  V30 10164 H 987.974 5.16778 -1.01232 0
M  V30 10165 H 990.465 3.60972 -1.11837 0
M  V30 10166 H 990.778 7.17258 -2.87682 0
M  V30 10167 H 989.123 6.45308 -2.58075 0
M  V30 10168 H 992.314 4.44566 -1.46556 0
M  V30 10169 H 992.487 6.07043 -2.26722 0
M  V30 10170 N 985.893 0.34162 1.53853 0
M  V30 10171 C 986.826 -0.559051 2.21246 0
M  V30 10172 C 987.804 -1.10179 1.1958 0
M  V30 10173 O 988.988 -1.16242 1.48392 0
M  V30 10174 C 986.115 -1.7689 2.88838 0
M  V30 10175 C 985.161 -1.3558 4.04377 0
M  V30 10176 S 985.994 -0.377225 5.3417 0
M  V30 10177 C 987.15 -1.59395 6.05264 0
M  V30 10178 H 987.383 0.013373 2.97297 0
M  V30 10179 H 984.916 0.125694 1.53888 0
M  V30 10180 H 986.874 -2.463 3.284 0
M  V30 10181 H 985.535 -2.31254 2.12557 0
M  V30 10182 H 984.728 -2.25781 4.50599 0
M  V30 10183 H 984.33 -0.741197 3.66582 0
M  V30 10184 H 986.622 -2.52872 6.2854 0
M  V30 10185 H 987.565 -1.17356 6.98307 0
M  V30 10186 H 987.973 -1.78913 5.35397 0
M  V30 10187 N 987.371 -1.57444 0.0701946 0
M  V30 10188 C 988.648 -1.84826 -0.6402 0
M  V30 10189 C 989.028 -0.962344 -1.87889 0
M  V30 10190 O 988.376 -0.0282209 -2.28483 0
M  V30 10191 C 988.586 -3.34976 -0.979382 0
M  V30 10192 C 989.934 -4.02448 -1.35355 0
M  V30 10193 O 990.958 -3.39713 -1.07116 0
M  V30 10194 O 989.817 -5.13096 -1.88136 0
M  V30 10195 H 986.911 -0.763494 -0.317813 0
M  V30 10196 H 989.457 -1.69399 0.101004 0
M  V30 10197 H 988.229 -3.91173 -0.0995576 0
M  V30 10198 H 987.852 -3.5566 -1.7774 0
M  V30 10199 N 988.849 0.203349 -1.56283 0
M  V30 10200 C 990.079 0.940061 -1.83974 0
M  V30 10201 C 990.487 1.77703 -0.649486 0
M  V30 10202 O 989.83 1.79487 0.391189 0
M  V30 10203 C 989.892 1.89249 -3.05655 0
M  V30 10204 C 989.556 1.23828 -4.39904 0
M  V30 10205 C 990.553 0.619231 -5.16199 0
M  V30 10206 C 988.238 1.2446 -4.86636 0
M  V30 10207 C 990.232 0.0152287 -6.37398 0
M  V30 10208 C 987.919 0.636764 -6.07773 0
M  V30 10209 C 988.917 0.0231481 -6.82996 0
M  V30 10210 O 988.605 -0.575187 -8.0184 0
M  V30 10211 H 988.337 0.280199 -0.615194 0
M  V30 10212 H 990.891 0.218111 -2.04239 0
M  V30 10213 H 989.121 2.65392 -2.81254 0
M  V30 10214 H 990.81 2.4963 -3.20062 0
M  V30 10215 H 991.576 0.606545 -4.81192 0
M  V30 10216 H 987.455 1.71161 -4.28048 0
M  V30 10217 H 990.999 -0.464333 -6.96053 0
M  V30 10218 H 986.896 0.646924 -6.4225 0
M  V30 10219 H 987.664 -0.471284 -8.17142 0
M  V30 10220 N 990.327 1.50405 0.470755 0
M  V30 10221 C 991.29 1.68741 1.5511 0
M  V30 10222 C 992.29 0.558116 1.50804 0
M  V30 10223 O 993.48 0.825149 1.53418 0
M  V30 10224 C 990.612 1.71295 2.94739 0
M  V30 10225 H 991.805 2.65127 1.40169 0
M  V30 10226 H 989.358 1.39891 0.697156 0
M  V30 10227 H 990.093 0.766029 3.15123 0
M  V30 10228 H 989.878 2.53336 2.99271 0
M  V30 10229 H 991.368 1.87434 3.73173 0
M  V30 10230 N 991.805 -0.723954 1.39988 0
M  V30 10231 C 993.053 -1.48078 1.3754 0
M  V30 10232 C 993.374 -1.94985 -0.0243358 0
M  V30 10233 O 992.644 -1.69764 -0.977602 0
M  V30 10234 H 991.224 -0.549354 0.506181 0
M  V30 10235 H 993.886 -0.858746 1.74962 0
M  V30 10236 H 992.982 -2.35763 2.04505 0
M  V30 10237 N 993.283 -1.25346 -0.955304 0
M  V30 10238 C 994.233 -1.02358 -2.03732 0
M  V30 10239 C 995.217 0.0392941 -1.60852 0
M  V30 10240 O 996.409 -0.175959 -1.76123 0
M  V30 10241 C 993.538 -0.643552 -3.37214 0
M  V30 10242 C 992.624 -1.74315 -3.8662 0
M  V30 10243 N 993.015 -2.97816 -4.08827 0
M  V30 10244 C 991.313 -1.62351 -4.15401 0
M  V30 10245 C 992.014 -3.69185 -4.4953 0
M  V30 10246 N 990.99 -2.96803 -4.55422 0
M  V30 10247 H 994.792 -1.96119 -2.18894 0
M  V30 10248 H 992.306 -1.15655 -1.14007 0
M  V30 10249 H 994.303 -0.460053 -4.14354 0
M  V30 10250 H 992.963 0.286738 -3.23431 0
M  V30 10251 H 993.974 -3.33868 -3.95919 0
M  V30 10252 H 990.651 -0.762133 -4.10485 0
M  V30 10253 H 992.041 -4.7519 -4.7502 0
M  V30 10254 N 994.761 1.15782 -1.06922 0
M  V30 10255 C 995.989 1.90355 -0.81072 0
M  V30 10256 C 996.404 1.77779 0.635614 0
M  V30 10257 O 995.761 1.12675 1.43564 0
M  V30 10258 C 995.812 3.4085 -1.2043 0
M  V30 10259 O 995.533 3.53057 -2.59388 0
M  V30 10260 C 997.034 4.32457 -0.974473 0
M  V30 10261 H 994.254 0.60343 -0.293451 0
M  V30 10262 H 996.798 1.46723 -1.42452 0
M  V30 10263 H 994.953 3.82162 -0.634909 0
M  V30 10264 H 995.367 4.46426 -2.75326 0
M  V30 10265 H 996.841 5.36488 -1.29942 0
M  V30 10266 H 997.318 4.39109 0.0894481 0
M  V30 10267 H 997.924 3.96882 -1.52856 0
M  V30 10268 N 996.239 0.8527 1.3254 0
M  V30 10269 C 997.149 0.298744 2.3269 0
M  V30 10270 C 998.165 -0.582418 1.63963 0
M  V30 10271 O 999.341 -0.483253 1.95516 0
M  V30 10272 C 996.406 -0.505453 3.42996 0
M  V30 10273 C 995.467 0.401618 4.27417 0
M  V30 10274 C 994.7 -0.364294 5.32455 0
M  V30 10275 O 994.923 -1.59448 5.47661 0
M  V30 10276 O 993.857 0.268892 6.01299 0
M  V30 10277 H 997.683 1.12843 2.81958 0
M  V30 10278 H 995.268 0.615584 1.36128 0
M  V30 10279 H 997.15 -0.961974 4.10273 0
M  V30 10280 H 995.825 -1.31197 2.95921 0
M  V30 10281 H 994.732 0.906274 3.62957 0
M  V30 10282 H 996.065 1.17327 4.78012 0
M  V30 10283 N 997.718 -1.45297 0.610449 0
M  V30 10284 C 998.964 -2.02518 0.106917 0
M  V30 10285 C 999.297 -1.47747 -1.26034 0
M  V30 10286 O 998.572 -0.65329 -1.832 0
M  V30 10287 C 998.855 -3.6003 0.0710975 0
M  V30 10288 C 998.708 -4.25128 1.46922 0
M  V30 10289 C 1000.03 -4.35778 -0.61524 0
M  V30 10290 H 997.146 -0.735896 0.040327 0
M  V30 10291 H 999.788 -1.73117 0.782968 0
M  V30 10292 H 997.938 -3.85209 -0.504611 0
M  V30 10293 H 999.61 -4.11125 2.09223 0
M  V30 10294 H 997.853 -3.83418 2.02911 0
M  V30 10295 H 998.524 -5.34046 1.39637 0
M  V30 10296 H 1001 -4.1591 -0.125871 0
M  V30 10297 H 999.876 -5.45506 -0.609419 0
M  V30 10298 H 1000.14 -4.08859 -1.68186 0
M  V30 10299 N 999.196 -0.349774 -1.5367 0
M  V30 10300 C 1000.14 0.504121 -2.25227 0
M  V30 10301 C 1001.11 1.09048 -1.2529 0
M  V30 10302 O 1002.3 1.12594 -1.54037 0
M  V30 10303 C 999.438 1.64601 -3.03316 0
M  V30 10304 C 998.551 1.08635 -4.18118 0
M  V30 10305 C 997.686 2.19605 -4.83681 0
M  V30 10306 C 996.725 1.61023 -5.90541 0
M  V30 10307 N 995.862 2.6576 -6.49858 0
M  V30 10308 H 1000.7 -0.112621 -2.97787 0
M  V30 10309 H 998.239 -0.0673503 -1.46946 0
M  V30 10310 H 1000.2 2.31836 -3.46854 0
M  V30 10311 H 998.827 2.23364 -2.33041 0
M  V30 10312 H 997.879 0.304748 -3.79177 0
M  V30 10313 H 999.191 0.617911 -4.94958 0
M  V30 10314 H 998.345 2.94693 -5.30322 0
M  V30 10315 H 997.084 2.69795 -4.06278 0
M  V30 10316 H 996.089 0.844428 -5.43277 0
M  V30 10317 H 997.314 1.11677 -6.69855 0
M  V30 10318 H 995.26 3.15193 -5.75317 0
M  V30 10319 H 995.177 2.23557 -7.2219 0
M  V30 10320 H 996.445 3.40598 -7.01151 0
M  V30 10321 N 1000.67 1.57404 -0.0785433 0
M  V30 10322 C 1001.95 1.85163 0.630389 0
M  V30 10323 C 1002.33 0.972295 1.87376 0
M  V30 10324 O 1001.68 0.0403375 2.28464 0
M  V30 10325 C 1001.89 3.35491 0.961604 0
M  V30 10326 C 1003.24 4.0316 1.33219 0
M  V30 10327 O 1004.26 3.40276 1.05313 0
M  V30 10328 O 1003.12 5.14086 1.85412 0
M  V30 10329 H 1000.21 0.765169 0.31376 0
M  V30 10330 H 1002.76 1.69343 -0.109986 0
M  V30 10331 H 1001.53 3.91221 0.0788113 0
M  V30 10332 H 1001.15 3.56598 1.75852 0
M  V30 10333 N 1002.15 -0.195058 1.56388 0
M  V30 10334 C 1003.1 -1.26122 1.95438 0
M  V30 10335 C 1004.09 -1.47117 0.839818 0
M  V30 10336 O 1005.3 -1.47978 1.02482 0
M  V30 10337 H 1001.67 -0.423422 0.621464 0
M  V30 10338 H 1003.65 -0.904854 2.8435 0
M  V30 10339 C 1002.39 -2.59858 2.31017 0
M  V30 10340 H 1001.72 -2.44519 3.16308 0
M  V30 10341 H 1003.16 -3.33205 2.62203 0
M  V30 10342 C 1001.62 -3.16853 1.14481 0
M  V30 10343 O 1002.15 -3.995 0.419853 0
M  V30 10344 N 1000.35 -2.75599 0.921604 0
M  V30 10345 H 999.9 -2.08495 1.51287 0
M  V30 10346 H 999.858 -3.14072 0.143663 0
M  V30 10347 N 1003.63 -1.50653 -0.462772 0
M  V30 10348 C 1005.05 -1.38263 -0.797213 0
M  V30 10349 C 1005.25 -0.445172 -1.96521 0
M  V30 10350 O 1004.3 0.10913 -2.52264 0
M  V30 10351 C 1005.61 -2.798 -1.10146 0
M  V30 10352 C 1007.16 -2.88774 -1.20742 0
M  V30 10353 C 1007.64 -4.31163 -1.54476 0
M  V30 10354 N 1009.13 -4.34152 -1.61451 0
M  V30 10355 C 1009.86 -5.4133 -1.89074 0
M  V30 10356 N 1009.36 -6.58705 -2.1466 0
M  V30 10357 N 1011.15 -5.28783 -1.90645 0
M  V30 10358 H 1003.3 -2.10172 0.30684 0
M  V30 10359 H 1005.57 -0.945046 0.0747862 0
M  V30 10360 H 1005.27 -3.50276 -0.316207 0
M  V30 10361 H 1005.15 -3.17559 -2.03559 0
M  V30 10362 H 1007.53 -2.18512 -1.98334 0
M  V30 10363 H 1007.61 -2.54547 -0.252904 0
M  V30 10364 H 1007.26 -5.01965 -0.774207 0
M  V30 10365 H 1007.19 -4.62883 -2.51092 0
M  V30 10366 H 1009.68 -3.49519 -1.43684 0
M  V30 10367 H 1009.99 -7.36192 -2.35035 0
M  V30 10368 H 1008.34 -6.61866 -2.12035 0
M  V30 10369 H 1011.53 -4.36078 -1.70158 0
M  V30 10370 H 1011.7 -6.12396 -2.11836 0
M  V30 10371 N 1005.11 0.71652 -1.4037 0
M  V30 10372 C 1006.52 1.02447 -1.22379 0
M  V30 10373 C 1006.72 2.0126 -0.0983394 0
M  V30 10374 O 1005.78 2.46569 0.544071 0
M  V30 10375 C 1007.09 1.56909 -2.56515 0
M  V30 10376 C 1008.64 1.68898 -2.6352 0
M  V30 10377 C 1009.12 2.26765 -3.97922 0
M  V30 10378 N 1010.61 2.34152 -3.99658 0
M  V30 10379 C 1011.34 2.79907 -5.00439 0
M  V30 10380 N 1010.84 3.25422 -6.11615 0
M  V30 10381 N 1012.63 2.79283 -4.87809 0
M  V30 10382 H 1004.78 0.0615306 -2.12311 0
M  V30 10383 H 1007.05 0.0898994 -0.943728 0
M  V30 10384 H 1006.75 0.917649 -3.39517 0
M  V30 10385 H 1006.63 2.55446 -2.77538 0
M  V30 10386 H 1009.01 2.33159 -1.8089 0
M  V30 10387 H 1009.09 0.689626 -2.46329 0
M  V30 10388 H 1008.74 1.63126 -4.80991 0
M  V30 10389 H 1008.67 3.27413 -4.12442 0
M  V30 10390 H 1011.16 2.02006 -3.19378 0
M  V30 10391 H 1011.47 3.58899 -6.84406 0
M  V30 10392 H 1009.82 3.23383 -6.15181 0
M  V30 10393 H 1013.01 2.43061 -4.00049 0
M  V30 10394 H 1013.18 3.14626 -5.66493 0
M  V30 10395 N 1006.59 1.25851 0.948643 0
M  V30 10396 C 1007.53 1.06559 2.06756 0
M  V30 10397 C 1008.53 -0.00528632 1.69399 0
M  V30 10398 O 1009.73 0.150806 1.79367 0
M  V30 10399 H 1006.11 0.327689 0.676848 0
M  V30 10400 H 1008.08 2.01401 2.20182 0
M  V30 10401 C 1006.83 0.707392 3.40428 0
M  V30 10402 H 1006.15 1.52324 3.69645 0
M  V30 10403 H 1007.59 0.612142 4.19558 0
M  V30 10404 C 1006.05 -0.58697 3.31747 0
M  V30 10405 O 1006.58 -1.62741 3.67258 0
M  V30 10406 N 1004.79 -0.574828 2.84858 0
M  V30 10407 H 1004.33 0.272236 2.56157 0
M  V30 10408 H 1004.29 -1.441 2.79432 0
M  V30 10409 N 1008.06 -1.15214 1.07534 0
M  V30 10410 C 1009.48 -1.38031 0.801228 0
M  V30 10411 C 1009.68 -1.92556 -0.593672 0
M  V30 10412 O 1008.74 -2.1325 -1.35206 0
M  V30 10413 C 1010.05 -2.34958 1.87657 0
M  V30 10414 C 1011.6 -2.48617 1.90154 0
M  V30 10415 C 1012.07 -3.48837 2.96777 0
M  V30 10416 N 1013.56 -3.56374 2.95892 0
M  V30 10417 C 1014.3 -4.33746 3.75036 0
M  V30 10418 N 1013.79 -5.14435 4.64036 0
M  V30 10419 N 1015.59 -4.28853 3.63375 0
M  V30 10420 H 1007.74 -0.781639 1.97495 0
M  V30 10421 H 1010 -0.406243 0.856546 0
M  V30 10422 H 1009.71 -2.02013 2.87895 0
M  V30 10423 H 1009.58 -3.3476 1.73827 0
M  V30 10424 H 1011.97 -2.80859 0.905666 0
M  V30 10425 H 1012.05 -1.48808 2.08062 0
M  V30 10426 H 1011.69 -3.1733 3.96565 0
M  V30 10427 H 1011.62 -4.48406 2.76116 0
M  V30 10428 H 1014.11 -2.98784 2.31379 0
M  V30 10429 H 1014.43 -5.70722 5.21053 0
M  V30 10430 H 1012.77 -5.13734 4.68084 0
M  V30 10431 H 1015.96 -3.64882 2.93221 0
M  V30 10432 H 1016.14 -4.88903 4.25298 0
M  V30 10433 N 1009.54 -0.859717 -1.32086 0
M  V30 10434 C 1010.79 -0.461779 -1.96343 0
M  V30 10435 C 1011.1 0.988837 -1.68764 0
M  V30 10436 O 1012.31 1.49244 -2.268 0
M  V30 10437 C 1010.77 -0.77484 -3.5146 0
M  V30 10438 C 1010.37 -2.24153 -3.87891 0
M  V30 10439 C 1012.12 -0.444873 -4.22162 0
M  V30 10440 C 1010.03 -2.49754 -5.36075 0
M  V30 10441 H 1008.96 -0.168951 -0.734828 0
M  V30 10442 H 1011.61 -1.0512 -1.50406 0
M  V30 10443 H 1009.99 -0.114792 -3.95834 0
M  V30 10444 H 1011.16 -2.94378 -3.54511 0
M  V30 10445 H 1009.48 -2.53651 -3.30227 0
M  V30 10446 H 1012.07 -0.613508 -5.31169 0
M  V30 10447 H 1012.42 0.61391 -4.11749 0
M  V30 10448 H 1012.95 -1.06103 -3.83389 0
M  V30 10449 H 1009.69 -3.54276 -5.51515 0
M  V30 10450 H 1009.21 -1.84112 -5.70844 0
M  V30 10451 H 1010.89 -2.3396 -6.03218 0
M  V30 10452 N 1011.02 1.44971 -0.618145 0
M  V30 10453 C 1011.95 2.33357 0.0815955 0
M  V30 10454 C 1012.93 1.47451 0.848072 0
M  V30 10455 O 1014.12 1.762 0.816532 0
M  V30 10456 C 1011.25 3.30324 1.07253 0
M  V30 10457 C 1010.2 4.25948 0.418563 0
M  V30 10458 C 1009.53 5.12685 1.51849 0
M  V30 10459 C 1010.83 5.18024 -0.66697 0
M  V30 10460 H 1012.52 2.92115 -0.656442 0
M  V30 10461 H 1010.07 1.40465 -0.317129 0
M  V30 10462 H 1012.02 3.91033 1.57069 0
M  V30 10463 H 1010.74 2.69748 1.8413 0
M  V30 10464 H 1009.4 3.66553 -0.0588308 0
M  V30 10465 H 1009.05 4.4847 2.2778 0
M  V30 10466 H 1008.75 5.7747 1.08637 0
M  V30 10467 H 1010.27 5.76264 2.01871 0
M  V30 10468 H 1011.69 5.72744 -0.252448 0
M  V30 10469 H 1010.09 5.91343 -1.02146 0
M  V30 10470 H 1011.16 4.59817 -1.53936 0
M  V30 10471 N 1012.5 0.357919 1.53482 0
M  V30 10472 C 1013.46 -0.479797 2.24122 0
M  V30 10473 C 1014.46 -1.01596 1.24639 0
M  V30 10474 O 1015.65 -0.902928 1.48973 0
M  V30 10475 C 1012.78 -1.66983 2.97203 0
M  V30 10476 H 1013.98 0.138219 2.99581 0
M  V30 10477 H 1011.53 0.109484 1.55916 0
M  V30 10478 H 1012.26 -2.32615 2.25966 0
M  V30 10479 H 1012.05 -1.29242 3.70188 0
M  V30 10480 H 1013.54 -2.26367 3.50924 0
M  V30 10481 N 1013.98 -1.5736 0.0868897 0
M  V30 10482 C 1015.2 -1.98809 -0.590757 0
M  V30 10483 C 1015.63 -0.965407 -1.61436 0
M  V30 10484 O 1014.98 0.067143 -1.81176 0
M  V30 10485 C 1015.03 -3.39249 -1.22238 0
M  V30 10486 O 1014.14 -3.39706 -2.33824 0
M  V30 10487 H 1013.48 -0.64669 -0.150626 0
M  V30 10488 H 1016.01 -2.03927 0.165873 0
M  V30 10489 H 1016.02 -3.76765 -1.56564 0
M  V30 10490 H 1014.69 -4.13208 -0.472434 0
M  V30 10491 H 1013.27 -3.13977 -2.01178 0
M  V30 10492 N 1015.45 0.186762 -1.56489 0
M  V30 10493 C 1016.68 0.921832 -1.85229 0
M  V30 10494 C 1017.1 1.76496 -0.670416 0
M  V30 10495 O 1016.45 1.78899 0.360758 0
M  V30 10496 C 1016.51 1.81121 -3.12854 0
M  V30 10497 O 1016.23 1.00211 -4.26485 0
M  V30 10498 C 1017.73 2.65725 -3.54831 0
M  V30 10499 H 1014.95 0.268563 -0.61491 0
M  V30 10500 H 1017.49 0.191505 -2.03601 0
M  V30 10501 H 1015.65 2.49506 -2.96354 0
M  V30 10502 H 1016.06 1.60893 -4.99213 0
M  V30 10503 H 1017.53 3.23771 -4.47075 0
M  V30 10504 H 1018.01 3.39843 -2.78215 0
M  V30 10505 H 1018.62 2.02698 -3.7389 0
M  V30 10506 N 1016.93 1.50896 0.454776 0
M  V30 10507 C 1018.34 1.55372 1.0352 0
M  V30 10508 C 1018.69 0.366822 1.9274 0
M  V30 10509 O 1017.82 -0.518444 2.10098 0
M  V30 10510 C 1018.41 2.81574 1.88418 0
M  V30 10511 C 1016.97 2.88679 2.4154 0
M  V30 10512 C 1016.12 2.49847 1.20298 0
M  V30 10513 H 1019.07 1.56924 0.236729 0
M  V30 10514 H 1019.09 2.64352 2.73676 0
M  V30 10515 H 1018.6 3.67941 1.23455 0
M  V30 10516 H 1016.71 2.06702 3.10008 0
M  V30 10517 H 1016.82 3.91944 2.7553 0
M  V30 10518 H 1015.18 2.02651 1.54288 0
M  V30 10519 H 1015.97 3.3854 0.569723 0
M  V30 10520 N 1018.41 -0.709066 1.40748 0
M  V30 10521 C 1019.34 -1.83583 1.4429 0
M  V30 10522 C 1020.32 -1.67378 0.303067 0
M  V30 10523 O 1021.51 -1.87312 0.512612 0
M  V30 10524 C 1018.64 -3.21599 1.31116 0
M  V30 10525 C 1017.59 -3.52486 2.4277 0
M  V30 10526 C 1016.92 -4.89716 2.14668 0
M  V30 10527 C 1018.22 -3.52824 3.85113 0
M  V30 10528 H 1019.91 -1.80876 2.38588 0
M  V30 10529 H 1017.46 -0.868795 1.14839 0
M  V30 10530 H 1019.41 -4.00123 1.32209 0
M  V30 10531 H 1018.13 -3.24898 0.332965 0
M  V30 10532 H 1016.79 -2.76305 2.40937 0
M  V30 10533 H 1016.44 -4.89625 1.15224 0
M  V30 10534 H 1016.14 -5.11347 2.89478 0
M  V30 10535 H 1017.66 -5.70566 2.17455 0
M  V30 10536 H 1019.08 -4.21377 3.88734 0
M  V30 10537 H 1017.48 -3.85984 4.59496 0
M  V30 10538 H 1018.55 -2.52073 4.14231 0
M  V30 10539 N 1019.89 -1.26353 -0.941956 0
M  V30 10540 C 1020.82 -1.10341 -2.05784 0
M  V30 10541 C 1021.8 -0.00881565 -1.70098 0
M  V30 10542 O 1022.99 -0.180699 -1.93357 0
M  V30 10543 C 1020.12 -0.734788 -3.39438 0
M  V30 10544 C 1019.07 -1.78103 -3.89183 0
M  V30 10545 C 1018.4 -1.26675 -5.19478 0
M  V30 10546 C 1019.7 -3.1824 -4.14151 0
M  V30 10547 H 1021.39 -2.03684 -2.19438 0
M  V30 10548 H 1018.94 -0.980698 -1.05443 0
M  V30 10549 H 1020.89 -0.609653 -4.16967 0
M  V30 10550 H 1019.61 0.234354 -3.25758 0
M  V30 10551 H 1018.27 -1.89482 -3.13835 0
M  V30 10552 H 1017.92 -0.287472 -5.02178 0
M  V30 10553 H 1017.62 -1.96612 -5.53731 0
M  V30 10554 H 1019.14 -1.15427 -5.99591 0
M  V30 10555 H 1020.56 -3.09942 -4.82296 0
M  V30 10556 H 1018.95 -3.8576 -4.59684 0
M  V30 10557 H 1020.02 -3.64354 -3.19959 0
M  V30 10558 N 1021.37 1.14642 -1.08144 0
M  V30 10559 C 1022.61 1.85892 -0.810683 0
M  V30 10560 C 1022.95 1.82575 0.661821 0
M  V30 10561 O 1022.22 1.25454 1.48632 0
M  V30 10562 C 1022.5 3.34647 -1.32979 0
M  V30 10563 C 1022.36 3.46551 -2.86744 0
M  V30 10564 C 1023.68 4.29661 -0.952864 0
M  V30 10565 H 1020.8 0.674963 -0.295963 0
M  V30 10566 H 1023.44 1.3464 -1.3406 0
M  V30 10567 H 1021.59 3.78425 -0.87903 0
M  V30 10568 H 1023.26 3.11579 -3.40171 0
M  V30 10569 H 1021.5 2.87849 -3.24539 0
M  V30 10570 H 1022.17 4.51101 -3.18138 0
M  V30 10571 H 1024.65 3.93885 -1.34141 0
M  V30 10572 H 1023.53 5.32209 -1.34331 0
M  V30 10573 H 1023.79 4.41877 0.140392 0
M  V30 10574 N 1022.85 0.866709 1.31628 0
M  V30 10575 C 1024.09 0.476731 1.97117 0
M  V30 10576 C 1024.42 -0.967813 1.68366 0
M  V30 10577 O 1023.7 -1.68101 0.978377 0
M  V30 10578 C 1023.98 0.730561 3.52611 0
M  V30 10579 C 1023.84 2.2244 3.90948 0
M  V30 10580 C 1025.15 0.19488 4.39668 0
M  V30 10581 H 1022.27 0.174682 0.715999 0
M  V30 10582 H 1024.92 1.08735 1.5581 0
M  V30 10583 H 1023.07 0.210834 3.87927 0
M  V30 10584 H 1024.74 2.81113 3.6575 0
M  V30 10585 H 1022.98 2.69824 3.39673 0
M  V30 10586 H 1023.65 2.35266 4.99353 0
M  V30 10587 H 1026.13 0.639478 4.11157 0
M  V30 10588 H 1025 0.401958 5.47426 0
M  V30 10589 H 1025.26 -0.90302 4.32779 0
M  V30 10590 N 1024.32 -1.44642 0.625825 0
M  V30 10591 C 1025.29 -2.29085 -0.072526 0
M  V30 10592 C 1026.29 -1.40755 -0.777467 0
M  V30 10593 O 1027.48 -1.62684 -0.622861 0
M  V30 10594 C 1024.61 -3.22212 -1.1132 0
M  V30 10595 H 1025.8 -2.92317 0.670124 0
M  V30 10596 H 1023.35 -1.51466 0.38571 0
M  V30 10597 H 1024.09 -2.63819 -1.88601 0
M  V30 10598 H 1023.87 -3.87299 -0.611709 0
M  V30 10599 H 1025.36 -3.8566 -1.60175 0
M  V30 10600 N 1025.8 -0.366053 -1.5329 0
M  V30 10601 C 1027.05 0.223824 -2.01561 0
M  V30 10602 C 1027.38 1.48382 -1.25286 0
M  V30 10603 O 1026.66 1.91385 -0.34669 0
M  V30 10604 C 1026.94 0.5153 -3.56394 0
M  V30 10605 C 1026.79 -0.758357 -4.43361 0
M  V30 10606 C 1028.11 1.31568 -4.19974 0
M  V30 10607 H 1025.23 0.0798751 -0.732659 0
M  V30 10608 H 1027.87 -0.491038 -1.83545 0
M  V30 10609 H 1026.02 1.12429 -3.71876 0
M  V30 10610 H 1027.69 -1.39584 -4.39675 0
M  V30 10611 H 1025.94 -1.37862 -4.11311 0
M  V30 10612 H 1026.61 -0.509366 -5.49645 0
M  V30 10613 H 1029.08 0.800514 -4.08327 0
M  V30 10614 H 1027.96 1.48837 -5.28336 0
M  V30 10615 H 1028.22 2.32432 -3.76069 0
M  V30 10616 N 1027.28 1.57312 -0.0952337 0
M  V30 10617 C 1028.53 1.93533 0.568131 0
M  V30 10618 C 1028.84 0.979121 1.6933 0
M  V30 10619 O 1030.05 1.23506 2.41782 0
M  V30 10620 C 1028.5 3.43875 1.06198 0
M  V30 10621 C 1028.11 4.47988 -0.0334397 0
M  V30 10622 C 1029.86 3.89057 1.69807 0
M  V30 10623 C 1027.76 5.89483 0.475774 0
M  V30 10624 H 1026.69 0.7224 0.215995 0
M  V30 10625 H 1029.34 1.82699 -0.171257 0
M  V30 10626 H 1027.73 3.49862 1.85506 0
M  V30 10627 H 1028.9 4.53644 -0.808934 0
M  V30 10628 H 1027.21 4.12415 -0.574725 0
M  V30 10629 H 1029.81 4.92171 2.08978 0
M  V30 10630 H 1030.15 3.27713 2.5673 0
M  V30 10631 H 1030.69 3.85772 0.970815 0
M  V30 10632 H 1027.43 6.54528 -0.356837 0
M  V30 10633 H 1026.95 5.87297 1.21827 0
M  V30 10634 H 1028.63 6.40066 0.944697 0
M  V30 10635 N 1028.76 -0.17846 1.56586 0
M  V30 10636 C 1029.69 -1.2496 1.90946 0
M  V30 10637 C 1030.67 -1.43136 0.771424 0
M  V30 10638 O 1031.85 -1.58258 1.02405 0
M  V30 10639 C 1028.98 -2.61368 2.15417 0
M  V30 10640 C 1028.03 -2.59969 3.3811 0
M  V30 10641 S 1028.86 -2.09756 4.9271 0
M  V30 10642 C 1030.01 -3.47956 5.20267 0
M  V30 10643 H 1030.25 -0.956287 2.815 0
M  V30 10644 H 1027.78 -0.382709 1.49582 0
M  V30 10645 H 1029.74 -3.39882 2.30197 0
M  V30 10646 H 1028.4 -2.87903 1.25582 0
M  V30 10647 H 1027.59 -3.60309 3.52411 0
M  V30 10648 H 1027.19 -1.89547 3.2241 0
M  V30 10649 H 1029.49 -4.43914 5.11807 0
M  V30 10650 H 1030.43 -3.38536 6.21932 0
M  V30 10651 H 1030.84 -3.43637 4.47855 0
M  V30 10652 N 1030.24 -1.51135 -0.446768 0
M  V30 10653 C 1031.48 -1.63578 -1.19875 0
M  V30 10654 C 1031.81 -0.346478 -1.91084 0
M  V30 10655 O 1031.09 0.653447 -1.83195 0
M  V30 10656 C 1031.37 -2.83275 -2.22323 0
M  V30 10657 C 1031.23 -4.22155 -1.55259 0
M  V30 10658 C 1032.54 -2.98496 -3.23401 0
M  V30 10659 H 1029.66 -0.595333 -0.434452 0
M  V30 10660 H 1032.31 -1.83593 -0.48923 0
M  V30 10661 H 1030.46 -2.6634 -2.82834 0
M  V30 10662 H 1032.13 -4.50736 -0.981571 0
M  V30 10663 H 1030.37 -4.25288 -0.855122 0
M  V30 10664 H 1031.04 -5.01882 -2.29823 0
M  V30 10665 H 1033.52 -3.14079 -2.72935 0
M  V30 10666 H 1032.39 -3.83828 -3.92386 0
M  V30 10667 H 1032.65 -2.10157 -3.88956 0
M  V30 10668 N 1031.71 0.701592 -1.41122 0
M  V30 10669 C 1032.68 1.79733 -1.42227 0
M  V30 10670 C 1033.68 1.57708 -0.313831 0
M  V30 10671 O 1034.87 1.64492 -0.573423 0
M  V30 10672 C 1032 3.18024 -1.22775 0
M  V30 10673 H 1033.19 1.80148 -2.39764 0
M  V30 10674 H 1030.74 0.908624 -1.27176 0
M  V30 10675 H 1031.48 3.23252 -0.260552 0
M  V30 10676 H 1031.26 3.35411 -2.0308 0
M  V30 10677 H 1032.75 3.98021 -1.2637 0
M  V30 10678 N 1033.19 1.2685 0.935242 0
M  V30 10679 C 1034.44 1.12522 1.67878 0
M  V30 10680 C 1034.76 -0.330894 1.92172 0
M  V30 10681 O 1034.03 -1.23259 1.52263 0
M  V30 10682 H 1032.61 0.413418 0.622169 0
M  V30 10683 H 1035.27 1.59267 1.12339 0
M  V30 10684 H 1034.37 1.64853 2.65009 0
M  V30 10685 N 1034.67 -1.14067 1.0875 0
M  V30 10686 C 1035.58 -2.22871 0.732498 0
M  V30 10687 C 1036.6 -1.72008 -0.26253 0
M  V30 10688 O 1037.77 -2.01123 -0.105601 0
M  V30 10689 C 1034.84 -3.46371 0.150913 0
M  V30 10690 C 1033.9 -4.12158 1.201 0
M  V30 10691 C 1033.13 -5.29763 0.647075 0
M  V30 10692 O 1033.35 -5.67911 -0.532307 0
M  V30 10693 O 1032.29 -5.8542 1.3988 0
M  V30 10694 H 1036.11 -2.55596 1.64025 0
M  V30 10695 H 1033.7 -1.22065 0.861417 0
M  V30 10696 H 1035.58 -4.21055 -0.170442 0
M  V30 10697 H 1034.26 -3.15362 -0.729948 0
M  V30 10698 H 1033.16 -3.39332 1.57494 0
M  V30 10699 H 1034.5 -4.47282 2.05426 0
M  V30 10700 N 1036.15 -0.873678 -1.31166 0
M  V30 10701 C 1037.39 -0.487178 -1.96861 0
M  V30 10702 C 1037.73 0.95887 -1.68877 0
M  V30 10703 O 1037 1.6758 -0.987279 0
M  V30 10704 C 1037.29 -0.74925 -3.52219 0
M  V30 10705 C 1037.14 -2.2451 -3.89763 0
M  V30 10706 C 1038.46 -0.218194 -4.39559 0
M  V30 10707 H 1035.58 -0.178477 -0.715063 0
M  V30 10708 H 1038.22 -1.0956 -1.55231 0
M  V30 10709 H 1036.37 -0.231403 -3.8781 0
M  V30 10710 H 1038.04 -2.83049 -3.64254 0
M  V30 10711 H 1036.28 -2.71621 -3.38237 0
M  V30 10712 H 1036.95 -2.37911 -4.98099 0
M  V30 10713 H 1039.43 -0.661274 -4.10812 0
M  V30 10714 H 1038.31 -0.430983 -5.47205 0
M  V30 10715 H 1038.57 0.880056 -4.33252 0
M  V30 10716 N 1037.63 1.44308 -0.633487 0
M  V30 10717 C 1038.87 2.01624 -0.138643 0
M  V30 10718 C 1039.2 1.50101 1.24477 0
M  V30 10719 O 1038.47 0.705575 1.82752 0
M  V30 10720 H 1037.05 0.745439 -0.0482636 0
M  V30 10721 H 1039.71 1.76777 -0.820719 0
M  V30 10722 H 1038.8 3.11913 -0.108136 0
M  V30 10723 N 1039.1 0.374177 1.53094 0
M  V30 10724 C 1040.33 -0.215903 2.06273 0
M  V30 10725 C 1040.75 -1.40979 1.24526 0
M  V30 10726 O 1040.11 -1.79331 0.266462 0
M  V30 10727 C 1040.16 -0.579089 3.5592 0
M  V30 10728 O 1039.26 -1.67516 3.76845 0
M  V30 10729 H 1038.61 -0.0293981 0.663349 0
M  V30 10730 H 1041.14 0.537271 1.9742 0
M  V30 10731 H 1041.15 -0.847678 3.99097 0
M  V30 10732 H 1039.82 0.293843 4.14861 0
M  V30 10733 H 1038.4 -1.40146 3.45563 0
M  V30 10734 N 1040.58 -1.57259 0.103575 0
M  V30 10735 C 1041.52 -2.10165 -0.889141 0
M  V30 10736 C 1042.49 -1.01426 -1.27089 0
M  V30 10737 O 1043.68 -1.2898 -1.37465 0
M  V30 10738 C 1040.8 -2.58564 -2.18774 0
M  V30 10739 C 1039.85 -3.79043 -1.95522 0
M  V30 10740 S 1040.68 -5.22213 -1.18551 0
M  V30 10741 C 1041.84 -5.73968 -2.49623 0
M  V30 10742 H 1042.07 -2.9404 -0.439083 0
M  V30 10743 H 1039.61 -1.54008 -0.10989 0
M  V30 10744 H 1041.56 -2.87106 -2.93395 0
M  V30 10745 H 1040.22 -1.749 -2.609 0
M  V30 10746 H 1039.42 -4.11004 -2.91705 0
M  V30 10747 H 1039.02 -3.51038 -1.29028 0
M  V30 10748 H 1041.31 -5.82752 -3.45553 0
M  V30 10749 H 1042.25 -6.72324 -2.22229 0
M  V30 10750 H 1042.66 -5.01946 -2.58284 0
M  V30 10751 N 1042.06 0.170153 -1.56679 0
M  V30 10752 C 1043.02 1.19443 -1.95617 0
M  V30 10753 C 1044.02 1.37118 -0.83996 0
M  V30 10754 O 1045.21 1.34504 -1.10699 0
M  V30 10755 C 1042.35 2.55926 -2.25199 0
M  V30 10756 H 1043.54 0.86095 -2.87276 0
M  V30 10757 H 1041.09 0.412646 -1.50755 0
M  V30 10758 H 1041.83 2.94286 -1.36257 0
M  V30 10759 H 1041.61 2.44464 -3.06562 0
M  V30 10760 H 1043.1 3.29742 -2.56242 0
M  V30 10761 N 1043.54 1.5137 0.438746 0
M  V30 10762 C 1044.49 1.72582 1.53245 0
M  V30 10763 C 1045.46 0.567488 1.56105 0
M  V30 10764 O 1046.64 0.80176 1.73137 0
M  V30 10765 C 1043.78 1.85551 2.90972 0
M  V30 10766 C 1042.89 3.13094 2.97652 0
M  V30 10767 C 1042.03 3.16666 4.26493 0
M  V30 10768 C 1041.07 4.38529 4.27035 0
M  V30 10769 N 1040.2 4.39659 5.47398 0
M  V30 10770 H 1045.04 2.65941 1.3446 0
M  V30 10771 H 1042.58 1.31801 0.653206 0
M  V30 10772 H 1044.54 1.91053 3.70884 0
M  V30 10773 H 1043.17 0.956025 3.08318 0
M  V30 10774 H 1042.22 3.16909 2.10412 0
M  V30 10775 H 1043.53 4.03009 2.93914 0
M  V30 10776 H 1042.69 3.21075 5.14777 0
M  V30 10777 H 1041.43 2.24637 4.32885 0
M  V30 10778 H 1040.43 4.34297 3.37144 0
M  V30 10779 H 1041.66 5.31821 4.22307 0
M  V30 10780 H 1039.6 3.50499 5.54514 0
M  V30 10781 H 1039.52 5.23382 5.45534 0
M  V30 10782 H 1040.79 4.48259 6.37718 0
M  V30 10783 N 1045.02 -0.694098 1.41492 0
M  V30 10784 C 1045.98 -1.78976 1.43179 0
M  V30 10785 C 1046.98 -1.57539 0.322191 0
M  V30 10786 O 1048.17 -1.64185 0.582138 0
M  V30 10787 C 1045.3 -3.17368 1.2446 0
M  V30 10788 H 1046.49 -1.78874 2.40716 0
M  V30 10789 H 1044.05 -0.901867 1.27656 0
M  V30 10790 H 1044.78 -3.23109 0.277691 0
M  V30 10791 H 1044.57 -3.3433 2.04856 0
M  V30 10792 H 1046.06 -3.97345 1.28479 0
M  V30 10793 N 1046.49 -1.27344 -0.928501 0
M  V30 10794 C 1047.46 -1.10043 -2.01055 0
M  V30 10795 C 1048.46 -0.0446793 -1.60738 0
M  V30 10796 O 1049.65 -0.289202 -1.71783 0
M  V30 10797 C 1046.78 -0.676559 -3.34119 0
M  V30 10798 H 1047.97 -2.06126 -2.17835 0
M  V30 10799 H 1045.53 -1.10121 -1.10919 0
M  V30 10800 H 1046.26 0.285697 -3.23039 0
M  V30 10801 H 1046.05 -1.43903 -3.64739 0
M  V30 10802 H 1047.54 -0.577725 -4.13584 0
M  V30 10803 N 1047.97 1.13488 -1.09353 0
M  V30 10804 C 1049.22 1.85022 -0.830354 0
M  V30 10805 C 1049.55 1.83266 0.64242 0
M  V30 10806 O 1048.83 1.27024 1.47293 0
M  V30 10807 C 1049.11 3.33218 -1.36521 0
M  V30 10808 C 1048.96 3.43491 -2.90404 0
M  V30 10809 C 1050.28 4.28626 -0.998381 0
M  V30 10810 H 1047.4 0.671786 -0.303105 0
M  V30 10811 H 1050.04 1.33211 -1.3548 0
M  V30 10812 H 1048.19 3.77471 -0.919117 0
M  V30 10813 H 1049.86 3.07954 -3.43456 0
M  V30 10814 H 1048.11 2.84391 -3.27573 0
M  V30 10815 H 1048.78 4.47702 -3.22905 0
M  V30 10816 H 1051.25 3.9244 -1.38311 0
M  V30 10817 H 1050.13 5.30754 -1.39968 0
M  V30 10818 H 1050.39 4.42001 0.093517 0
M  V30 10819 N 1049.45 0.880621 1.30701 0
M  V30 10820 C 1050.7 0.496875 1.96309 0
M  V30 10821 C 1051.03 -0.953064 1.69549 0
M  V30 10822 O 1050.28 -1.68782 0.990507 0
M  V30 10823 C 1050.58 0.713203 3.50212 0
M  V30 10824 C 1050.25 2.13756 3.97013 0
M  V30 10825 C 1048.91 2.52706 4.09503 0
M  V30 10826 C 1051.26 3.066 4.21481 0
M  V30 10827 C 1048.59 3.8372 4.43819 0
M  V30 10828 C 1050.94 4.3714 4.57265 0
M  V30 10829 C 1049.6 4.7599 4.67963 0
M  V30 10830 H 1048.87 0.18182 0.718347 0
M  V30 10831 H 1051.52 1.11564 1.55646 0
M  V30 10832 H 1049.83 0.0113694 3.91798 0
M  V30 10833 H 1051.52 0.39595 3.9904 0
M  V30 10834 H 1048.11 1.8252 3.87794 0
M  V30 10835 H 1052.3 2.77729 4.11315 0
M  V30 10836 H 1047.55 4.13568 4.50301 0
M  V30 10837 H 1051.73 5.09123 4.75149 0
M  V30 10838 H 1049.35 5.77549 4.94309 0
M  V30 10839 N 1050.93 -1.4397 0.641131 0
M  V30 10840 C 1052.35 -1.56607 0.30762 0
M  V30 10841 C 1052.55 -1.62694 -1.18882 0
M  V30 10842 O 1051.6 -1.57541 -1.97325 0
M  V30 10843 C 1052.91 -2.83289 1.00834 0
M  V30 10844 C 1054.46 -2.97016 0.98744 0
M  V30 10845 C 1054.94 -4.26514 1.66882 0
M  V30 10846 N 1056.43 -4.33351 1.63589 0
M  V30 10847 C 1057.16 -5.32292 2.13196 0
M  V30 10848 N 1056.66 -6.37582 2.71038 0
M  V30 10849 N 1058.45 -5.23866 2.03766 0
M  V30 10850 H 1050.6 -1.38262 1.61237 0
M  V30 10851 H 1052.87 -0.663221 0.677378 0
M  V30 10852 H 1052.57 -2.84812 2.06337 0
M  V30 10853 H 1052.45 -3.73134 0.552333 0
M  V30 10854 H 1054.83 -2.95041 -0.0591395 0
M  V30 10855 H 1054.91 -2.08493 1.48203 0
M  V30 10856 H 1054.56 -4.2925 2.71491 0
M  V30 10857 H 1054.49 -5.13912 1.14898 0
M  V30 10858 H 1056.98 -3.5788 1.21368 0
M  V30 10859 H 1057.29 -7.09378 3.06597 0
M  V30 10860 H 1055.64 -6.38239 2.75093 0
M  V30 10861 H 1058.83 -4.40524 1.58291 0
M  V30 10862 H 1059 -6.00819 2.42737 0
M  V30 10863 N 1052.41 -0.382291 -1.52893 0
M  V30 10864 C 1053.64 0.202114 -2.05609 0
M  V30 10865 C 1054.05 1.4164 -1.25438 0
M  V30 10866 O 1053.39 1.81359 -0.292324 0
M  V30 10867 C 1053.45 0.64356 -3.53693 0
M  V30 10868 C 1053.11 -0.456305 -4.54716 0
M  V30 10869 C 1054.11 -1.3115 -5.03086 0
M  V30 10870 C 1051.8 -0.621329 -4.98442 0
M  V30 10871 C 1053.79 -2.3169 -5.938 0
M  V30 10872 C 1051.48 -1.63008 -5.88958 0
M  V30 10873 C 1052.48 -2.47629 -6.36529 0
M  V30 10874 O 1052.16 -3.46781 -7.25257 0
M  V30 10875 H 1051.9 0.0358014 -0.675051 0
M  V30 10876 H 1054.45 -0.543935 -1.98067 0
M  V30 10877 H 1052.68 1.44148 -3.58829 0
M  V30 10878 H 1054.37 1.15284 -3.89184 0
M  V30 10879 H 1055.13 -1.19528 -4.70041 0
M  V30 10880 H 1051.01 0.027593 -4.60992 0
M  V30 10881 H 1054.56 -2.97776 -6.30853 0
M  V30 10882 H 1050.45 -1.74671 -6.21418 0
M  V30 10883 H 1051.22 -3.42707 -7.433 0
M  V30 10884 N 1053.89 1.57202 -0.111913 0
M  V30 10885 C 1055.3 1.82039 0.414591 0
M  V30 10886 C 1055.65 1.02863 1.67074 0
M  V30 10887 O 1054.77 0.263068 2.14795 0
M  V30 10888 C 1055.37 3.3019 0.758953 0
M  V30 10889 C 1053.93 3.55732 1.23012 0
M  V30 10890 C 1053.07 2.76301 0.235226 0
M  V30 10891 H 1056.02 1.55078 -0.337142 0
M  V30 10892 H 1056.05 3.44431 1.61701 0
M  V30 10893 H 1055.56 3.87788 -0.155473 0
M  V30 10894 H 1053.66 3.03483 2.16169 0
M  V30 10895 H 1053.77 4.64333 1.18034 0
M  V30 10896 H 1052.14 2.44287 0.720822 0
M  V30 10897 H 1052.92 3.36655 -0.672173 0
M  V30 10898 N 1055.36 -0.161842 1.56767 0
M  V30 10899 C 1056.29 -1.20226 2.0017 0
M  V30 10900 C 1057.27 -1.4564 0.878807 0
M  V30 10901 O 1058.46 -1.56813 1.14557 0
M  V30 10902 C 1055.59 -2.53897 2.36968 0
M  V30 10903 C 1054.54 -2.43033 3.52305 0
M  V30 10904 C 1053.87 -3.81281 3.74872 0
M  V30 10905 C 1055.17 -1.927 4.85453 0
M  V30 10906 H 1056.86 -0.84142 2.87333 0
M  V30 10907 H 1054.41 -0.403309 1.38237 0
M  V30 10908 H 1056.36 -3.26893 2.6593 0
M  V30 10909 H 1055.09 -2.91787 1.46724 0
M  V30 10910 H 1053.75 -1.7249 3.23485 0
M  V30 10911 H 1053.39 -4.1658 2.81904 0
M  V30 10912 H 1053.09 -3.74877 4.52483 0
M  V30 10913 H 1054.62 -4.55848 4.06245 0
M  V30 10914 H 1056.03 -2.55477 5.13229 0
M  V30 10915 H 1054.43 -1.97222 5.66766 0
M  V30 10916 H 1055.5 -0.881816 4.76814 0
M  V30 10917 N 1056.84 -1.516 -0.430713 0
M  V30 10918 C 1058.07 -1.68169 -1.20011 0
M  V30 10919 C 1058.48 -0.381406 -1.85316 0
M  V30 10920 O 1057.82 0.6506 -1.71793 0
M  V30 10921 C 1057.88 -2.7454 -2.32095 0
M  V30 10922 C 1057.55 -4.16942 -1.87104 0
M  V30 10923 C 1058.55 -5.01503 -1.37078 0
M  V30 10924 C 1056.23 -4.63075 -1.94594 0
M  V30 10925 C 1058.22 -6.3026 -0.951362 0
M  V30 10926 C 1055.91 -5.91827 -1.52264 0
M  V30 10927 C 1056.91 -6.75247 -1.02618 0
M  V30 10928 O 1056.6 -8.01591 -0.608905 0
M  V30 10929 H 1056.33 -0.567361 -0.367528 0
M  V30 10930 H 1058.88 -1.98819 -0.515759 0
M  V30 10931 H 1057.11 -2.39219 -3.03828 0
M  V30 10932 H 1058.8 -2.79921 -2.93937 0
M  V30 10933 H 1059.57 -4.67063 -1.30681 0
M  V30 10934 H 1055.45 -3.98262 -2.32182 0
M  V30 10935 H 1058.99 -6.95323 -0.563163 0
M  V30 10936 H 1054.89 -6.2578 -1.58333 0
M  V30 10937 H 1055.66 -8.15201 -0.73416 0
M  V30 10938 N 1058.32 0.686584 -1.41858 0
M  V30 10939 C 1059.55 1.47519 -1.45072 0
M  V30 10940 C 1059.96 1.88709 -0.0585868 0
M  V30 10941 O 1059.32 1.57373 0.924116 0
M  V30 10942 C 1059.37 2.73195 -2.36742 0
M  V30 10943 O 1059.09 2.33736 -3.70539 0
M  V30 10944 C 1060.59 3.66861 -2.48854 0
M  V30 10945 H 1057.81 0.454307 -0.493808 0
M  V30 10946 H 1060.36 0.844612 -1.86243 0
M  V30 10947 H 1058.51 3.32468 -1.98856 0
M  V30 10948 H 1058.93 3.14809 -4.19518 0
M  V30 10949 H 1060.4 4.51801 -3.17143 0
M  V30 10950 H 1060.88 4.11961 -1.52265 0
M  V30 10951 H 1061.48 3.13486 -2.87414 0
M  V30 10952 N 1059.8 1.27835 0.921735 0
M  V30 10953 C 1061.03 1.17352 1.704 0
M  V30 10954 C 1061.44 -0.268892 1.86875 0
M  V30 10955 O 1060.8 -1.18253 1.39005 0
M  V30 10956 C 1060.85 1.85889 3.10045 0
M  V30 10957 O 1060.57 3.24495 2.94338 0
M  V30 10958 C 1062.07 1.81607 4.04393 0
M  V30 10959 H 1059.29 0.40773 0.532914 0
M  V30 10960 H 1061.83 1.68815 1.15419 0
M  V30 10961 H 1059.99 1.38316 3.61867 0
M  V30 10962 H 1060.4 3.58705 3.82663 0
M  V30 10963 H 1061.88 2.34165 4.99871 0
M  V30 10964 H 1062.35 0.786697 4.32097 0
M  V30 10965 H 1062.96 2.28822 3.58498 0
M  V30 10966 N 1061.28 -1.12907 1.09954 0
M  V30 10967 C 1062.24 -2.16673 0.747364 0
M  V30 10968 C 1063.24 -1.59208 -0.225741 0
M  V30 10969 O 1064.43 -1.742 -0.00322482 0
M  V30 10970 C 1061.56 -3.40735 0.106169 0
M  V30 10971 H 1062.75 -2.49341 1.6664 0
M  V30 10972 H 1060.31 -1.27828 0.899421 0
M  V30 10973 H 1061.04 -3.13661 -0.82384 0
M  V30 10974 H 1060.83 -3.83717 0.806434 0
M  V30 10975 H 1062.32 -4.17414 -0.12464 0
M  V30 10976 N 1062.75 -0.88754 -1.30232 0
M  V30 10977 C 1063.7 -0.354497 -2.28061 0
M  V30 10978 C 1064.67 0.556732 -1.56492 0
M  V30 10979 O 1065.86 0.484597 -1.84543 0
M  V30 10980 C 1063 0.422701 -3.42501 0
M  V30 10981 C 1062.11 -0.518036 -4.28883 0
M  V30 10982 C 1061.24 0.275011 -5.30488 0
M  V30 10983 C 1060.28 -0.661032 -6.0852 0
M  V30 10984 N 1059.42 0.0968509 -7.02033 0
M  V30 10985 H 1064.26 -1.19388 -2.73039 0
M  V30 10986 H 1061.8 -0.600091 -1.34303 0
M  V30 10987 H 1063.75 0.889249 -4.07613 0
M  V30 10988 H 1062.38 1.22664 -2.98586 0
M  V30 10989 H 1061.44 -1.10308 -3.64055 0
M  V30 10990 H 1062.75 -1.23504 -4.83268 0
M  V30 10991 H 1061.9 0.803301 -6.01358 0
M  V30 10992 H 1060.64 1.02522 -4.76802 0
M  V30 10993 H 1059.65 -1.20093 -5.36524 0
M  V30 10994 H 1060.87 -1.41037 -6.64293 0
M  V30 10995 H 1058.82 0.829548 -6.50734 0
M  V30 10996 H 1058.73 -0.560476 -7.5392 0
M  V30 10997 H 1060 0.6058 -7.77142 0
M  V30 10998 N 1064.23 1.43628 -0.648757 0
M  V30 10999 C 1065.2 2.29172 0.0360713 0
M  V30 11000 C 1066.2 1.41974 0.754976 0
M  V30 11001 O 1067.39 1.63654 0.5969 0
M  V30 11002 C 1064.52 3.23942 1.0618 0
M  V30 11003 H 1065.71 2.91214 -0.716544 0
M  V30 11004 H 1063.26 1.50833 -0.409759 0
M  V30 11005 H 1064 2.66786 1.8438 0
M  V30 11006 H 1063.78 3.88223 0.550016 0
M  V30 11007 H 1065.27 3.8816 1.54019 0
M  V30 11008 N 1065.71 0.390394 1.52688 0
M  V30 11009 C 1066.66 -0.4591 2.28024 0
M  V30 11010 C 1067.65 -1.06212 1.31967 0
M  V30 11011 O 1068.86 -1.00247 1.49501 0
M  V30 11012 H 1065.23 -0.16681 0.733266 0
M  V30 11013 H 1067.2 0.197747 2.97744 0
M  V30 11014 C 1065.95 -1.5737 3.10048 0
M  V30 11015 H 1065.28 -1.11901 3.83821 0
M  V30 11016 H 1066.72 -2.1423 3.65898 0
M  V30 11017 C 1065.18 -2.53036 2.22429 0
M  V30 11018 O 1065.71 -3.5647 1.85181 0
M  V30 11019 N 1063.91 -2.22802 1.86567 0
M  V30 11020 H 1063.46 -1.38723 2.17057 0
M  V30 11021 H 1063.42 -2.87061 1.28233 0
M  V30 11022 N 1067.19 -1.57141 0.120249 0
M  V30 11023 C 1068.12 -2.18398 -0.826112 0
M  V30 11024 C 1069.1 -1.12439 -1.27638 0
M  V30 11025 O 1070.28 -1.40679 -1.33877 0
M  V30 11026 C 1067.41 -2.78438 -2.0758 0
M  V30 11027 C 1066.37 -3.89991 -1.76327 0
M  V30 11028 C 1065.69 -4.36844 -3.08336 0
M  V30 11029 C 1066.99 -5.12031 -1.03062 0
M  V30 11030 H 1068.69 -2.97731 -0.315656 0
M  V30 11031 H 1066.23 -1.43213 -0.150387 0
M  V30 11032 H 1068.19 -3.19951 -2.74243 0
M  V30 11033 H 1066.91 -1.96396 -2.60953 0
M  V30 11034 H 1065.57 -3.49055 -1.12053 0
M  V30 11035 H 1065.22 -3.51659 -3.59646 0
M  V30 11036 H 1064.92 -5.1207 -2.88199 0
M  V30 11037 H 1066.44 -4.81009 -3.76116 0
M  V30 11038 H 1067.86 -5.50555 -1.59881 0
M  V30 11039 H 1066.25 -5.92848 -0.930146 0
M  V30 11040 H 1067.32 -4.84897 -0.017582 0
M  V30 11041 N 1068.67 0.153526 -1.5685 0
M  V30 11042 C 1069.89 0.882335 -1.87143 0
M  V30 11043 C 1070.31 1.75034 -0.707702 0
M  V30 11044 O 1069.67 1.79624 0.32273 0
M  V30 11045 C 1069.72 1.74444 -3.16625 0
M  V30 11046 O 1069.44 0.911419 -4.28515 0
M  V30 11047 C 1070.94 2.58139 -3.60388 0
M  V30 11048 H 1068.16 0.25546 -0.620469 0
M  V30 11049 H 1070.7 0.148275 -2.03962 0
M  V30 11050 H 1068.86 2.43163 -3.0158 0
M  V30 11051 H 1069.27 1.50268 -5.02513 0
M  V30 11052 H 1070.75 3.14215 -4.53842 0
M  V30 11053 H 1071.22 3.33865 -2.85361 0
M  V30 11054 H 1071.83 1.94721 -3.78105 0
M  V30 11055 N 1070.14 1.51827 0.422667 0
M  V30 11056 C 1071.11 1.7359 1.49663 0
M  V30 11057 C 1072.11 0.605811 1.48952 0
M  V30 11058 O 1073.3 0.87354 1.50715 0
M  V30 11059 C 1070.43 1.80585 2.8914 0
M  V30 11060 H 1071.62 2.69453 1.31664 0
M  V30 11061 H 1069.18 1.42038 0.652298 0
M  V30 11062 H 1069.91 0.865895 3.12526 0
M  V30 11063 H 1069.7 2.62729 2.9106 0
M  V30 11064 H 1071.19 1.99212 3.67021 0
M  V30 11065 N 1071.62 -0.679052 1.4222 0
M  V30 11066 C 1072.55 -1.80481 1.48152 0
M  V30 11067 C 1073.53 -1.66698 0.338502 0
M  V30 11068 O 1074.72 -1.86183 0.552228 0
M  V30 11069 C 1071.85 -3.18746 1.37908 0
M  V30 11070 C 1070.8 -3.47258 2.50192 0
M  V30 11071 C 1070.13 -4.85052 2.25008 0
M  V30 11072 C 1071.43 -3.44576 3.92511 0
M  V30 11073 H 1073.12 -1.75774 2.42371 0
M  V30 11074 H 1070.67 -0.844241 1.16656 0
M  V30 11075 H 1072.62 -3.97229 1.40666 0
M  V30 11076 H 1071.35 -3.24119 0.401806 0
M  V30 11077 H 1070 -2.71133 2.46744 0
M  V30 11078 H 1069.65 -4.8707 1.25584 0
M  V30 11079 H 1069.35 -5.05092 3.00259 0
M  V30 11080 H 1070.88 -5.65825 2.29508 0
M  V30 11081 H 1072.29 -4.13036 3.97585 0
M  V30 11082 H 1070.69 -3.76151 4.67579 0
M  V30 11083 H 1071.76 -2.4323 4.19484 0
M  V30 11084 N 1073.1 -1.28322 -0.914942 0
M  V30 11085 C 1074.33 -1.1837 -1.70304 0
M  V30 11086 C 1074.75 0.254291 -1.86373 0
M  V30 11087 O 1074.11 1.18398 -1.37301 0
M  V30 11088 C 1074.16 -1.88603 -3.07346 0
M  V30 11089 O 1073.26 -1.19268 -3.94777 0
M  V30 11090 H 1072.6 -0.410978 -0.52153 0
M  V30 11091 H 1075.13 -1.69622 -1.14409 0
M  V30 11092 H 1075.14 -1.96463 -3.57584 0
M  V30 11093 H 1073.82 -2.93201 -2.94967 0
M  V30 11094 H 1072.39 -1.19563 -3.53212 0
M  V30 11095 N 1074.58 1.12322 -1.10551 0
M  V30 11096 C 1075.81 1.87679 -0.87087 0
M  V30 11097 C 1076.22 1.79711 0.578733 0
M  V30 11098 O 1075.58 1.17185 1.39907 0
M  V30 11099 C 1075.63 3.36846 -1.31213 0
M  V30 11100 O 1075.35 3.44626 -2.70489 0
M  V30 11101 C 1076.85 4.29138 -1.11156 0
M  V30 11102 H 1074.07 0.593788 -0.3125 0
M  V30 11103 H 1076.62 1.42116 -1.47048 0
M  V30 11104 H 1074.77 3.79948 -0.756169 0
M  V30 11105 H 1075.18 4.37441 -2.89389 0
M  V30 11106 H 1076.66 5.32082 -1.46944 0
M  V30 11107 H 1077.14 4.39171 -0.0502963 0
M  V30 11108 H 1077.74 3.91818 -1.65405 0
M  V30 11109 N 1076.06 0.894434 1.2976 0
M  V30 11110 C 1077.3 0.516646 1.95385 0
M  V30 11111 C 1077.63 -0.939141 1.70895 0
M  V30 11112 O 1076.9 -1.66153 1.03778 0
M  V30 11113 H 1075.48 0.188072 0.722937 0
M  V30 11114 H 1078.14 1.13958 1.58113 0
M  V30 11115 H 1077.23 0.694819 3.04267 0
M  V30 11116 N 1077.53 -1.43282 0.656365 0
M  V30 11117 C 1078.46 -2.33492 -0.0196962 0
M  V30 11118 C 1079.45 -1.49647 -0.80868 0
M  V30 11119 O 1080.63 -1.78303 -0.769529 0
M  V30 11120 C 1077.76 -3.33052 -0.984574 0
M  V30 11121 C 1076.71 -4.26908 -0.305483 0
M  V30 11122 C 1076.04 -5.16531 -1.38202 0
M  V30 11123 C 1077.34 -5.16073 0.804081 0
M  V30 11124 H 1079.03 -2.90272 0.733661 0
M  V30 11125 H 1076.58 -1.39574 0.354259 0
M  V30 11126 H 1078.53 -3.9506 -1.46647 0
M  V30 11127 H 1077.26 -2.74535 -1.76913 0
M  V30 11128 H 1075.92 -3.66268 0.155995 0
M  V30 11129 H 1075.56 -4.54351 -2.1581 0
M  V30 11130 H 1075.26 -5.80148 -0.932878 0
M  V30 11131 H 1076.79 -5.81414 -1.86522 0
M  V30 11132 H 1078.2 -5.71873 0.404212 0
M  V30 11133 H 1076.6 -5.88427 1.17789 0
M  V30 11134 H 1077.67 -4.55574 1.66073 0
M  V30 11135 N 1079.01 -0.398486 -1.52479 0
M  V30 11136 C 1080.24 0.183059 -2.06591 0
M  V30 11137 C 1080.66 1.3898 -1.26753 0
M  V30 11138 O 1080.02 1.78885 -0.294959 0
M  V30 11139 C 1080.07 0.522392 -3.56796 0
M  V30 11140 O 1079.17 1.61499 -3.79462 0
M  V30 11141 H 1078.51 0.0188411 -0.663733 0
M  V30 11142 H 1081.04 -0.56861 -1.9654 0
M  V30 11143 H 1081.05 0.784078 -4.00395 0
M  V30 11144 H 1079.73 -0.359807 -4.14341 0
M  V30 11145 H 1078.31 1.3463 -3.47749 0
M  V30 11146 N 1080.49 1.57075 -0.12858 0
M  V30 11147 C 1081.72 2.00305 0.537839 0
M  V30 11148 C 1082.14 1.00787 1.58819 0
M  V30 11149 O 1081.5 -0.0190839 1.8129 0
M  V30 11150 C 1081.55 3.42371 1.13201 0
M  V30 11151 O 1080.65 3.45786 2.24735 0
M  V30 11152 H 1079.99 0.650456 0.133428 0
M  V30 11153 H 1082.52 2.03415 -0.219882 0
M  V30 11154 H 1082.53 3.80783 1.4652 0
M  V30 11155 H 1081.21 4.14315 0.362713 0
M  V30 11156 H 1079.78 3.19201 1.92783 0
M  V30 11157 N 1081.97 -0.145205 1.5693 0
M  V30 11158 C 1083.21 -0.863709 1.85255 0
M  V30 11159 C 1083.57 -1.78266 0.713112 0
M  V30 11160 O 1084.77 -2.54075 0.877459 0
M  V30 11161 C 1083.05 -1.61628 3.18765 0
M  V30 11162 S 1084.6 -2.37996 3.68651 0
M  V30 11163 H 1081.42 -0.288792 0.649708 0
M  V30 11164 H 1084.02 -0.123603 1.95109 0
M  V30 11165 H 1082.73 -0.932688 3.99661 0
M  V30 11166 H 1082.26 -2.39726 3.11921 0
M  V30 11167 H 1084.27 -3.63223 3.38058 0
M  V30 11168 N 1083.45 -1.52049 -0.414609 0
M  V30 11169 C 1084.41 -1.74382 -1.4874 0
M  V30 11170 C 1085.41 -0.613701 -1.48628 0
M  V30 11171 O 1086.6 -0.88152 -1.50249 0
M  V30 11172 C 1083.73 -1.82116 -2.88178 0
M  V30 11173 H 1084.93 -2.70147 -1.30233 0
M  V30 11174 H 1082.48 -1.42382 -0.644756 0
M  V30 11175 H 1083.21 -0.882457 -3.12063 0
M  V30 11176 H 1083 -2.64268 -2.89663 0
M  V30 11177 H 1084.49 -2.01155 -3.65959 0
M  V30 11178 N 1084.93 0.6715 -1.42579 0
M  V30 11179 C 1085.86 1.79625 -1.40749 0
M  V30 11180 C 1086.84 1.6032 -0.271312 0
M  V30 11181 O 1088.02 1.82749 -0.46205 0
M  V30 11182 C 1085.15 3.16672 -1.20153 0
M  V30 11183 C 1084.19 3.54718 -2.36807 0
M  V30 11184 S 1085.03 3.56771 -3.99343 0
M  V30 11185 C 1086.18 4.96505 -3.81095 0
M  V30 11186 H 1086.42 1.80903 -2.35926 0
M  V30 11187 H 1083.95 0.842469 -1.2939 0
M  V30 11188 H 1085.91 3.95776 -1.08956 0
M  V30 11189 H 1084.57 3.12976 -0.265545 0
M  V30 11190 H 1083.76 4.54341 -2.18152 0
M  V30 11191 H 1083.36 2.82982 -2.44535 0
M  V30 11192 H 1085.65 5.84674 -3.4229 0
M  V30 11193 H 1086.6 5.20207 -4.80406 0
M  V30 11194 H 1087.01 4.69178 -3.13898 0
M  V30 11195 N 1086.4 1.28806 0.908124 0
M  V30 11196 C 1087.37 1.13228 1.99279 0
M  V30 11197 C 1088.37 0.0702456 1.60646 0
M  V30 11198 O 1089.56 0.316494 1.71301 0
M  V30 11199 C 1086.69 0.729629 3.33 0
M  V30 11200 H 1087.88 2.09566 2.14528 0
M  V30 11201 H 1085.43 1.11872 1.09153 0
M  V30 11202 H 1086.17 -0.234268 3.23453 0
M  V30 11203 H 1085.95 1.49688 3.62403 0
M  V30 11204 H 1087.44 0.643449 4.12613 0
M  V30 11205 N 1087.88 -1.11734 1.11145 0
M  V30 11206 C 1089.16 -1.79795 0.770261 0
M  V30 11207 C 1089.54 -1.97624 -0.742158 0
M  V30 11208 O 1088.89 -1.55847 -1.67105 0
M  V30 11209 C 1089.1 -3.13684 1.52982 0
M  V30 11210 C 1090.44 -3.88771 1.70711 0
M  V30 11211 O 1091.47 -3.23363 1.49381 0
M  V30 11212 O 1090.33 -5.06134 2.06132 0
M  V30 11213 H 1087.42 -0.778617 0.27872 0
M  V30 11214 H 1089.97 -1.18504 1.2147 0
M  V30 11215 H 1088.74 -2.96043 2.55879 0
M  V30 11216 H 1088.36 -3.82687 1.07873 0
M  V30 11217 N 1089.36 -0.901303 -1.29284 0
M  V30 11218 C 1090.64 -0.44747 -1.90413 0
M  V30 11219 C 1091.02 1.07298 -1.81797 0
M  V30 11220 O 1090.36 1.91555 -1.24574 0
M  V30 11221 C 1090.57 -0.963849 -3.35427 0
M  V30 11222 C 1091.92 -1.00851 -4.12449 0
M  V30 11223 O 1092.95 -0.91163 -3.44337 0
M  V30 11224 O 1091.81 -1.15426 -5.34171 0
M  V30 11225 H 1088.9 -0.13976 -0.815105 0
M  V30 11226 H 1091.45 -0.991274 -1.37738 0
M  V30 11227 H 1090.22 -2.00782 -3.3586 0
M  V30 11228 H 1089.84 -0.400149 -3.95581 0
M  V30 11229 N 1090.84 1.42931 -0.663954 0
M  V30 11230 C 1092.08 2.01982 -0.182007 0
M  V30 11231 C 1092.42 1.52323 1.20463 0
M  V30 11232 O 1091.69 0.720834 1.80649 0
M  V30 11233 C 1091.97 3.59518 -0.204671 0
M  V30 11234 C 1091.83 4.19382 -1.62599 0
M  V30 11235 C 1093.15 4.37762 0.45308 0
M  V30 11236 H 1090.27 0.733892 -0.0676115 0
M  V30 11237 H 1092.91 1.70092 -0.84668 0
M  V30 11238 H 1091.06 3.86816 0.361295 0
M  V30 11239 H 1092.73 4.03076 -2.24337 0
M  V30 11240 H 1090.97 3.75623 -2.17001 0
M  V30 11241 H 1091.64 5.28496 -1.59362 0
M  V30 11242 H 1094.12 4.1609 -0.0285774 0
M  V30 11243 H 1093 5.47392 0.406538 0
M  V30 11244 H 1093.26 4.1482 1.52895 0
M  V30 11245 N 1092.32 0.406567 1.52266 0
M  V30 11246 C 1093.25 -0.411314 2.29849 0
M  V30 11247 C 1094.23 -1.04838 1.33952 0
M  V30 11248 O 1095.41 -1.05788 1.62857 0
M  V30 11249 C 1092.54 -1.52961 3.11802 0
M  V30 11250 C 1091.5 -1.01768 4.15725 0
M  V30 11251 C 1090.82 -2.22938 4.86007 0
M  V30 11252 C 1092.12 -0.073515 5.22248 0
M  V30 11253 H 1093.82 0.236054 2.98468 0
M  V30 11254 H 1091.36 0.114968 1.4354 0
M  V30 11255 H 1093.31 -2.10874 3.64843 0
M  V30 11256 H 1092.04 -2.20482 2.40947 0
M  V30 11257 H 1090.7 -0.46097 3.6369 0
M  V30 11258 H 1090.35 -2.89007 4.11684 0
M  V30 11259 H 1090.05 -1.89338 5.5626 0
M  V30 11260 H 1091.57 -2.81462 5.41859 0
M  V30 11261 H 1092.98 -0.561367 5.70545 0
M  V30 11262 H 1091.38 0.173551 5.99849 0
M  V30 11263 H 1092.45 0.872524 4.76985 0
M  V30 11264 N 1093.79 -1.57004 0.136909 0
M  V30 11265 C 1094.76 -2.15066 -0.792419 0
M  V30 11266 C 1095.76 -1.08991 -1.18226 0
M  V30 11267 O 1096.95 -1.34681 -1.10484 0
M  V30 11268 C 1094.08 -2.70554 -2.07397 0
M  V30 11269 H 1095.27 -2.98519 -0.28752 0
M  V30 11270 H 1092.83 -1.55895 -0.112469 0
M  V30 11271 H 1093.56 -1.90739 -2.62277 0
M  V30 11272 H 1093.35 -3.48149 -1.80374 0
M  V30 11273 H 1094.84 -3.15322 -2.73792 0
M  V30 11274 N 1095.27 0.136881 -1.57004 0
M  V30 11275 C 1096.18 1.18793 -2.023 0
M  V30 11276 C 1097.2 1.46412 -0.94018 0
M  V30 11277 O 1098.37 1.57883 -1.2504 0
M  V30 11278 C 1095.44 2.49903 -2.40311 0
M  V30 11279 C 1094.5 2.29841 -3.6259 0
M  V30 11280 C 1093.73 3.54699 -3.98779 0
M  V30 11281 O 1093.96 4.61291 -3.3551 0
M  V30 11282 O 1092.89 3.46761 -4.91976 0
M  V30 11283 H 1096.72 0.833345 -2.92043 0
M  V30 11284 H 1094.3 0.346361 -1.4533 0
M  V30 11285 H 1096.18 3.27183 -2.65574 0
M  V30 11286 H 1094.86 2.84872 -1.5372 0
M  V30 11287 H 1093.77 1.50478 -3.42501 0
M  V30 11288 H 1095.1 1.99784 -4.4983 0
M  V30 11289 N 1096.75 1.52266 0.40654 0
M  V30 11290 C 1098.16 1.58587 0.985241 0
M  V30 11291 C 1098.51 0.427955 1.91476 0
M  V30 11292 O 1097.64 -0.451341 2.11641 0
M  V30 11293 C 1098.23 2.87426 1.79365 0
M  V30 11294 C 1096.79 2.96217 2.32233 0
M  V30 11295 C 1095.94 2.53548 1.12288 0
M  V30 11296 H 1098.89 1.57598 0.186685 0
M  V30 11297 H 1098.91 2.72925 2.65127 0
M  V30 11298 H 1098.42 3.71682 1.11687 0
M  V30 11299 H 1096.52 2.1646 3.03275 0
M  V30 11300 H 1096.64 4.00511 2.62922 0
M  V30 11301 H 1095 2.07457 1.47763 0
M  V30 11302 H 1095.78 3.40181 0.461731 0
M  V30 11303 N 1098.23 -0.663929 1.42933 0
M  V30 11304 C 1099.51 -1.42054 1.34462 0
M  V30 11305 C 1099.89 -2.11096 -0.0127801 0
M  V30 11306 O 1099.23 -2.04027 -1.02884 0
M  V30 11307 C 1099.44 -2.41406 2.5204 0
M  V30 11308 C 1100.79 -3.05726 2.94647 0
M  V30 11309 O 1101.82 -2.51733 2.52009 0
M  V30 11310 O 1100.67 -4.03593 3.68477 0
M  V30 11311 H 1097.77 -0.634149 0.530834 0
M  V30 11312 H 1100.31 -0.691738 1.54962 0
M  V30 11313 H 1099.09 -1.89263 3.42484 0
M  V30 11314 H 1098.71 -3.21752 2.33584 0
M  V30 11315 N 1099.71 -1.29285 -0.901281 0
M  V30 11316 C 1101.12 -1.15499 -1.46686 0
M  V30 11317 C 1101.47 0.250446 -1.94595 0
M  V30 11318 O 1100.59 1.14581 -1.83576 0
M  V30 11319 C 1101.19 -2.0906 -2.66607 0
M  V30 11320 C 1099.75 -1.99301 -3.19306 0
M  V30 11321 C 1098.89 -2.00079 -1.91999 0
M  V30 11322 H 1101.85 -1.41793 -0.712773 0
M  V30 11323 H 1101.87 -1.6619 -3.42288 0
M  V30 11324 H 1101.38 -3.11341 -2.31707 0
M  V30 11325 H 1099.48 -1.00103 -3.58901 0
M  V30 11326 H 1099.59 -2.86885 -3.8371 0
M  V30 11327 H 1097.96 -1.44655 -2.09636 0
M  V30 11328 H 1098.74 -3.04061 -1.59379 0
M  V30 11329 N 1101.18 1.11143 -1.11736 0
M  V30 11330 C 1102.13 2.19358 -0.773626 0
M  V30 11331 C 1103.13 1.67744 0.236288 0
M  V30 11332 O 1104.33 1.79748 0.09525 0
M  V30 11333 H 1100.71 0.715218 -0.232309 0
M  V30 11334 H 1102.68 2.45594 -1.69487 0
M  V30 11335 C 1101.43 3.46895 -0.236457 0
M  V30 11336 H 1100.75 3.86967 -1.00483 0
M  V30 11337 H 1102.19 4.23986 -0.034168 0
M  V30 11338 C 1100.65 3.20641 1.03397 0
M  V30 11339 O 1101.18 3.41629 2.11312 0
M  V30 11340 N 1099.39 2.74356 0.957986 0
M  V30 11341 H 1098.93 2.57477 0.0796924 0
M  V30 11342 H 1098.89 2.57166 1.80867 0
M  V30 11343 N 1102.66 0.908147 1.28804 0
M  V30 11344 C 1103.63 0.397058 2.25735 0
M  V30 11345 C 1104.63 -0.473483 1.53671 0
M  V30 11346 O 1105.82 -0.277335 1.71978 0
M  V30 11347 C 1102.95 -0.431392 3.38159 0
M  V30 11348 H 1104.14 1.25323 2.72459 0
M  V30 11349 H 1101.69 0.687041 1.4039 0
M  V30 11350 H 1102.43 -1.3072 2.96787 0
M  V30 11351 H 1102.21 0.192502 3.91627 0
M  V30 11352 H 1103.7 -0.78 4.10251 0
M  V30 11353 N 1104.14 -1.42577 0.671525 0
M  V30 11354 C 1105.39 -2.01185 0.192051 0
M  V30 11355 C 1105.71 -1.53349 -1.20454 0
M  V30 11356 O 1104.98 -0.753781 -1.80817 0
M  V30 11357 H 1103.56 -0.743898 0.0680106 0
M  V30 11358 H 1106.22 -1.74539 0.8673 0
M  V30 11359 H 1105.32 -3.11516 0.190796 0
M  V30 11360 N 1105.62 -0.414636 -1.52048 0
M  V30 11361 C 1106.55 0.452854 -2.23662 0
M  V30 11362 C 1107.53 1.04348 -1.24701 0
M  V30 11363 O 1108.71 1.09029 -1.53769 0
M  V30 11364 C 1105.84 1.62908 -2.96949 0
M  V30 11365 C 1104.89 1.16132 -4.10385 0
M  V30 11366 S 1105.72 0.121936 -5.35361 0
M  V30 11367 C 1106.88 1.30336 -6.12179 0
M  V30 11368 H 1107.11 -0.155202 -2.96895 0
M  V30 11369 H 1104.64 -0.198972 -1.53113 0
M  V30 11370 H 1106.6 2.30351 -3.39777 0
M  V30 11371 H 1105.26 2.20849 -2.23348 0
M  V30 11372 H 1104.45 2.04025 -4.60858 0
M  V30 11373 H 1104.06 0.565452 -3.69701 0
M  V30 11374 H 1106.35 2.22596 -6.39889 0
M  V30 11375 H 1107.29 0.839052 -7.03111 0
M  V30 11376 H 1107.7 1.53165 -5.43324 0
M  V30 11377 N 1107.1 1.56929 -0.145233 0
M  V30 11378 C 1108.03 2.19685 0.791263 0
M  V30 11379 C 1109.01 1.14455 1.25833 0
M  V30 11380 O 1110.19 1.42791 1.31622 0
M  V30 11381 C 1107.32 2.81705 2.03124 0
M  V30 11382 C 1106.28 3.92746 1.70101 0
M  V30 11383 C 1105.6 4.41694 3.01347 0
M  V30 11384 C 1106.9 5.13606 0.949025 0
M  V30 11385 H 1108.6 2.98196 0.26825 0
M  V30 11386 H 1106.14 1.43434 0.127584 0
M  V30 11387 H 1108.1 3.24273 2.69119 0
M  V30 11388 H 1106.82 2.00523 2.57795 0
M  V30 11389 H 1105.48 3.50794 1.06486 0
M  V30 11390 H 1105.13 3.57336 3.54006 0
M  V30 11391 H 1104.83 5.1659 2.80016 0
M  V30 11392 H 1106.35 4.86931 3.68416 0
M  V30 11393 H 1107.76 5.53029 1.51102 0
M  V30 11394 H 1106.16 5.94252 0.835711 0
M  V30 11395 H 1107.23 4.84863 -0.0595631 0
M  V30 11396 N 1108.58 -0.128553 1.57075 0
M  V30 11397 C 1109.51 -1.18362 1.96273 0
M  V30 11398 C 1110.52 -1.3818 0.860818 0
M  V30 11399 O 1111.71 -1.37424 1.13916 0
M  V30 11400 C 1108.81 -2.54533 2.23755 0
M  V30 11401 C 1107.98 -2.55446 3.55058 0
M  V30 11402 C 1107.04 -3.73291 3.70864 0
M  V30 11403 O 1106.07 -3.57315 4.43074 0
M  V30 11404 N 1107.27 -4.91481 3.08912 0
M  V30 11405 H 1110.03 -0.850276 2.87385 0
M  V30 11406 H 1107.6 -0.317931 1.58748 0
M  V30 11407 H 1109.59 -3.31912 2.31553 0
M  V30 11408 H 1108.16 -2.80087 1.38816 0
M  V30 11409 H 1107.38 -1.6385 3.58534 0
M  V30 11410 H 1108.67 -2.53104 4.4138 0
M  V30 11411 H 1108.06 -5.07364 2.50196 0
M  V30 11412 H 1106.62 -5.6657 3.22245 0
M  V30 11413 N 1110.05 -1.5248 -0.398459 0
M  V30 11414 C 1111.46 -1.59107 -0.976817 0
M  V30 11415 C 1111.82 -0.438104 -1.91246 0
M  V30 11416 O 1110.94 0.440111 -2.11877 0
M  V30 11417 C 1111.54 -2.88373 -1.77838 0
M  V30 11418 C 1110.09 -2.97445 -2.30659 0
M  V30 11419 C 1109.24 -2.5414 -1.10942 0
M  V30 11420 H 1112.19 -1.57695 -0.178324 0
M  V30 11421 H 1112.21 -2.74327 -2.63676 0
M  V30 11422 H 1111.73 -3.72269 -1.09714 0
M  V30 11423 H 1109.83 -2.18066 -3.02123 0
M  V30 11424 H 1109.94 -4.019 -2.60794 0
M  V30 11425 H 1108.3 -2.08237 -1.46661 0
M  V30 11426 H 1109.09 -3.40421 -0.443684 0
M  V30 11427 N 1111.53 0.65634 -1.43283 0
M  V30 11428 C 1112.78 1.41837 -1.44949 0
M  V30 11429 C 1113.11 1.94065 -0.0723212 0
M  V30 11430 O 1112.39 1.72092 0.906346 0
M  V30 11431 C 1112.67 2.60206 -2.48927 0
M  V30 11432 C 1112.52 2.1349 -3.95907 0
M  V30 11433 C 1113.84 3.62421 -2.49678 0
M  V30 11434 H 1110.96 0.514398 -0.527792 0
M  V30 11435 H 1113.6 0.74435 -1.74813 0
M  V30 11436 H 1111.75 3.17708 -2.23592 0
M  V30 11437 H 1113.42 1.61012 -4.32288 0
M  V30 11438 H 1111.67 1.4489 -4.08888 0
M  V30 11439 H 1112.34 2.98596 -4.64268 0
M  V30 11440 H 1114.81 3.14671 -2.72252 0
M  V30 11441 H 1113.69 4.42798 -3.24378 0
M  V30 11442 H 1113.95 4.14802 -1.52944 0
M  V30 11443 N 1113.01 1.29761 0.894412 0
M  V30 11444 C 1114.42 1.16275 1.46072 0
M  V30 11445 C 1114.77 -0.240123 1.94725 0
M  V30 11446 O 1113.9 -1.13606 1.84181 0
M  V30 11447 C 1114.49 2.10471 2.65494 0
M  V30 11448 C 1113.05 2.00992 3.18244 0
M  V30 11449 C 1112.2 2.01094 1.90936 0
M  V30 11450 H 1115.15 1.42169 0.705243 0
M  V30 11451 H 1115.17 1.68003 3.41402 0
M  V30 11452 H 1114.68 3.12566 2.30053 0
M  V30 11453 H 1112.78 1.02005 3.58365 0
M  V30 11454 H 1112.9 2.88916 3.82184 0
M  V30 11455 H 1111.26 1.45764 2.08866 0
M  V30 11456 H 1112.04 3.04902 1.57764 0
M  V30 11457 N 1114.49 -1.10549 1.12324 0
M  V30 11458 C 1115.74 -1.82124 0.876083 0
M  V30 11459 C 1116.06 -1.85547 -0.599761 0
M  V30 11460 O 1115.33 -1.33269 -1.43584 0
M  V30 11461 H 1113.91 -0.674455 0.321122 0
M  V30 11462 H 1116.57 -1.33766 1.41748 0
M  V30 11463 H 1115.66 -2.85688 1.25653 0
M  V30 11464 N 1115.97 -0.914965 -1.28321 0
M  V30 11465 C 1116.9 -0.361578 -2.2633 0
M  V30 11466 C 1117.91 0.500637 -1.54911 0
M  V30 11467 O 1119.1 0.31532 -1.75693 0
M  V30 11468 C 1116.2 0.501693 -3.35166 0
M  V30 11469 C 1115.37 -0.338289 -4.3609 0
M  V30 11470 C 1114.43 0.460267 -5.24183 0
M  V30 11471 O 1113.46 -0.127594 -5.69057 0
M  V30 11472 N 1114.66 1.76302 -5.5308 0
M  V30 11473 H 1117.42 -1.20402 -2.74451 0
M  V30 11474 H 1114.99 -0.781042 -1.41814 0
M  V30 11475 H 1116.98 1.04268 -3.91037 0
M  V30 11476 H 1115.55 1.24485 -2.86744 0
M  V30 11477 H 1114.77 -1.06064 -3.79663 0
M  V30 11478 H 1116.06 -0.912996 -5.00542 0
M  V30 11479 H 1115.45 2.26314 -5.18458 0
M  V30 11480 H 1114.01 2.25081 -6.11704 0
M  V30 11481 N 1117.44 1.42219 -0.679077 0
M  V30 11482 C 1118.41 2.29197 -0.0125475 0
M  V30 11483 C 1119.41 1.43544 0.724691 0
M  V30 11484 O 1120.6 1.64884 0.562052 0
M  V30 11485 C 1117.73 3.26122 0.992846 0
M  V30 11486 H 1118.92 2.89629 -0.778154 0
M  V30 11487 H 1116.47 1.4993 -0.44166 0
M  V30 11488 H 1117.21 2.70637 1.78679 0
M  V30 11489 H 1116.99 3.89302 0.467544 0
M  V30 11490 H 1118.48 3.91339 1.45751 0
M  V30 11491 N 1118.92 0.422693 1.51826 0
M  V30 11492 C 1120.17 -0.148641 2.01954 0
M  V30 11493 C 1120.5 -1.43982 1.30765 0
M  V30 11494 O 1119.75 -1.91428 0.406668 0
M  V30 11495 C 1120.05 -0.429516 3.5481 0
M  V30 11496 C 1119.72 0.774088 4.44206 0
M  V30 11497 C 1118.38 1.1042 4.6836 0
M  V30 11498 C 1120.73 1.5777 4.96747 0
M  V30 11499 C 1118.06 2.23887 5.42302 0
M  V30 11500 C 1120.41 2.70325 5.71933 0
M  V30 11501 C 1119.07 3.03807 5.94355 0
M  V30 11502 H 1118.34 -0.0543917 0.739001 0
M  V30 11503 H 1120.99 0.566892 1.82917 0
M  V30 11504 H 1119.3 -1.22678 3.72099 0
M  V30 11505 H 1120.99 -0.884761 3.91118 0
M  V30 11506 H 1117.58 0.506834 4.25593 0
M  V30 11507 H 1121.77 1.33589 4.77983 0
M  V30 11508 H 1117.02 2.50159 5.5788 0
M  V30 11509 H 1121.2 3.32974 6.11638 0
M  V30 11510 H 1118.82 3.91844 6.51431 0
M  V30 11511 N 1120.4 -1.5685 0.153553 0
M  V30 11512 C 1121.65 -1.95946 -0.494936 0
M  V30 11513 C 1121.97 -1.03975 -1.64967 0
M  V30 11514 O 1121.24 -0.102572 -1.95631 0
M  V30 11515 H 1119.82 -0.723516 -0.185833 0
M  V30 11516 H 1122.48 -1.93531 0.230585 0
M  V30 11517 H 1121.58 -2.99823 -0.866743 0
M  V30 11518 N 1121.88 0.120221 -1.57141 0
M  V30 11519 C 1123.29 0.677497 -1.73974 0
M  V30 11520 C 1123.64 1.80371 -0.772055 0
M  V30 11521 O 1122.76 2.16329 0.0553062 0
M  V30 11522 C 1123.36 1.23575 -3.1546 0
M  V30 11523 C 1121.92 1.73933 -3.33803 0
M  V30 11524 C 1121.07 0.638542 -2.69848 0
M  V30 11525 H 1124.02 -0.105685 -1.58348 0
M  V30 11526 H 1124.04 2.10542 -3.16942 0
M  V30 11527 H 1123.55 0.415851 -3.85866 0
M  V30 11528 H 1121.65 2.58404 -2.68437 0
M  V30 11529 H 1121.76 1.84961 -4.41957 0
M  V30 11530 H 1120.13 1.07185 -2.31049 0
M  V30 11531 H 1120.91 -0.170356 -3.42877 0
M  V30 11532 N 1123.36 1.52689 0.390367 0
M  V30 11533 C 1124.63 1.58246 1.14968 0
M  V30 11534 C 1125.01 0.374808 2.07746 0
M  V30 11535 O 1124.36 -0.636969 2.19442 0
M  V30 11536 C 1124.57 2.92059 1.91056 0
M  V30 11537 C 1125.92 3.45745 2.46466 0
M  V30 11538 O 1126.94 2.93924 2.01214 0
M  V30 11539 O 1125.8 4.3628 3.29122 0
M  V30 11540 H 1122.9 0.638189 0.52597 0
M  V30 11541 H 1125.44 1.65024 0.39563 0
M  V30 11542 H 1124.21 3.71399 1.23201 0
M  V30 11543 H 1123.84 2.8866 2.73425 0
M  V30 11544 N 1124.83 -0.648732 1.43629 0
M  V30 11545 C 1126.08 -1.40579 1.45196 0
M  V30 11546 C 1126.4 -1.9484 0.0790556 0
M  V30 11547 O 1125.67 -1.74707 -0.886239 0
M  V30 11548 H 1124.25 -0.52175 0.53459 0
M  V30 11549 H 1126.92 -0.764796 1.79268 0
M  V30 11550 H 1126.01 -2.24591 2.16715 0
M  V30 11551 N 1126.31 -1.30234 -0.887518 0
M  V30 11552 C 1127.72 -1.17048 -1.45453 0
M  V30 11553 C 1128.07 0.229793 -1.9485 0
M  V30 11554 O 1127.2 1.12628 -1.84781 0
M  V30 11555 C 1127.79 -2.11876 -2.64375 0
M  V30 11556 C 1126.35 -2.02676 -3.17174 0
M  V30 11557 C 1125.5 -2.02104 -1.89866 0
M  V30 11558 H 1128.45 -1.42541 -0.697694 0
M  V30 11559 H 1128.47 -1.69811 -3.40506 0
M  V30 11560 H 1127.98 -3.13781 -2.28392 0
M  V30 11561 H 1126.09 -1.03904 -3.57819 0
M  V30 11562 H 1126.2 -2.90939 -3.80646 0
M  V30 11563 H 1124.56 -1.4687 -2.0809 0
M  V30 11564 H 1125.35 -3.05735 -1.56145 0
M  V30 11565 N 1127.79 1.09952 -1.12909 0
M  V30 11566 C 1128.72 2.18477 -0.824014 0
M  V30 11567 C 1129.7 1.68744 0.214324 0
M  V30 11568 O 1130.89 1.94057 0.0744281 0
M  V30 11569 C 1128.02 3.46143 -0.283308 0
M  V30 11570 C 1126.97 4.09178 -1.25528 0
M  V30 11571 C 1126.3 5.31604 -0.574574 0
M  V30 11572 C 1127.6 4.52308 -2.6118 0
M  V30 11573 H 1129.29 2.44254 -1.73148 0
M  V30 11574 H 1126.84 1.17394 -0.833952 0
M  V30 11575 H 1128.79 4.21361 -0.057583 0
M  V30 11576 H 1127.51 3.19872 0.659525 0
M  V30 11577 H 1126.17 3.35973 -1.4669 0
M  V30 11578 H 1125.82 5.01611 0.37356 0
M  V30 11579 H 1125.52 5.74732 -1.22299 0
M  V30 11580 H 1127.04 6.0955 -0.358004 0
M  V30 11581 H 1128.46 5.18776 -2.44017 0
M  V30 11582 H 1126.86 5.06302 -3.22147 0
M  V30 11583 H 1127.93 3.64977 -3.19249 0
M  V30 11584 N 1129.27 0.921757 1.27833 0
M  V30 11585 C 1130.52 0.557974 1.94245 0
M  V30 11586 C 1130.84 -0.90268 1.72849 0
M  V30 11587 O 1130.11 -1.63915 1.07279 0
M  V30 11588 H 1128.69 0.203364 0.718785 0
M  V30 11589 H 1131.35 1.17286 1.5566 0
M  V30 11590 H 1130.45 0.759202 3.02725 0
M  V30 11591 N 1130.75 -1.41857 0.686609 0
M  V30 11592 C 1131.99 -2.0097 0.213378 0
M  V30 11593 C 1132.32 -1.54618 -1.1882 0
M  V30 11594 O 1131.59 -0.772916 -1.80008 0
M  V30 11595 H 1130.17 -0.743134 0.0758968 0
M  V30 11596 H 1132.83 -1.73609 0.885763 0
M  V30 11597 H 1131.92 -3.11296 0.223826 0
M  V30 11598 N 1132.22 -0.430739 -1.51599 0
M  V30 11599 C 1133.47 0.139396 -2.01218 0
M  V30 11600 C 1133.79 1.44361 -1.31982 0
M  V30 11601 O 1134.99 2.0963 -1.72533 0
M  V30 11602 C 1133.45 0.298969 -3.58656 0
M  V30 11603 C 1133.06 -0.994424 -4.36824 0
M  V30 11604 C 1134.8 0.82323 -4.16441 0
M  V30 11605 C 1132.71 -0.800855 -5.85952 0
M  V30 11606 H 1131.64 0.0558698 -0.751927 0
M  V30 11607 H 1134.29 -0.559493 -1.74762 0
M  V30 11608 H 1132.67 1.06071 -3.8153 0
M  V30 11609 H 1133.84 -1.76398 -4.257 0
M  V30 11610 H 1132.16 -1.44672 -3.9046 0
M  V30 11611 H 1134.76 0.984434 -5.2556 0
M  V30 11612 H 1135.1 1.80388 -3.75188 0
M  V30 11613 H 1135.63 0.119982 -3.97619 0
M  V30 11614 H 1132.37 -1.75369 -6.31606 0
M  V30 11615 H 1131.89 -0.0709793 -5.99758 0
M  V30 11616 H 1133.57 -0.451459 -6.45423 0
M  V30 11617 N 1133.7 1.56767 -0.161869 0
M  V30 11618 C 1134.93 2.01401 0.49523 0
M  V30 11619 C 1135.35 1.04133 1.56646 0
M  V30 11620 O 1134.71 0.0193747 1.8129 0
M  V30 11621 C 1134.76 3.44695 1.05913 0
M  V30 11622 O 1133.86 3.50475 2.1735 0
M  V30 11623 H 1133.2 0.65314 0.1196 0
M  V30 11624 H 1135.73 2.02903 -0.26298 0
M  V30 11625 H 1135.74 3.83805 1.3841 0
M  V30 11626 H 1134.42 4.14991 0.274749 0
M  V30 11627 H 1133 3.23218 1.85969 0
M  V30 11628 N 1135.18 -0.111886 1.57202 0
M  V30 11629 C 1136.59 -0.668261 1.74331 0
M  V30 11630 C 1136.94 -1.79959 0.781609 0
M  V30 11631 O 1136.07 -2.16356 -0.043833 0
M  V30 11632 C 1136.66 -1.219 3.1611 0
M  V30 11633 C 1135.22 -1.7216 3.34721 0
M  V30 11634 C 1134.37 -0.624223 2.70183 0
M  V30 11635 H 1137.32 0.114081 1.58289 0
M  V30 11636 H 1137.34 -2.08858 3.18054 0
M  V30 11637 H 1136.85 -0.395381 3.86081 0
M  V30 11638 H 1134.95 -2.56976 2.69803 0
M  V30 11639 H 1135.07 -1.82615 4.42932 0
M  V30 11640 H 1133.43 -1.05958 2.31614 0
M  V30 11641 H 1134.21 0.188537 3.42782 0
M  V30 11642 N 1136.66 -1.52894 -0.382264 0
M  V30 11643 C 1137.9 -1.68515 -1.12829 0
M  V30 11644 C 1138.24 -0.427211 -1.89443 0
M  V30 11645 O 1137.51 0.57516 -1.85801 0
M  V30 11646 C 1137.8 -2.92449 -2.10108 0
M  V30 11647 C 1137.65 -4.2836 -1.37214 0
M  V30 11648 C 1138.97 -3.11944 -3.1045 0
M  V30 11649 H 1136.09 -0.613223 -0.408811 0
M  V30 11650 H 1138.73 -1.85503 -0.410921 0
M  V30 11651 H 1136.88 -2.78097 -2.71283 0
M  V30 11652 H 1138.55 -4.54493 -0.789516 0
M  V30 11653 H 1136.79 -4.28532 -0.673973 0
M  V30 11654 H 1137.46 -5.11178 -2.0833 0
M  V30 11655 H 1139.94 -3.25372 -2.59369 0
M  V30 11656 H 1138.82 -4.00125 -3.75754 0
M  V30 11657 H 1139.08 -2.26465 -3.79692 0
M  V30 11658 N 1138.14 0.641106 -1.43971 0
M  V30 11659 C 1139.39 1.39807 -1.4594 0
M  V30 11660 C 1139.71 1.94795 -0.0893874 0
M  V30 11661 O 1138.98 1.75175 0.876962 0
M  V30 11662 H 1137.56 0.518908 -0.537349 0
M  V30 11663 H 1140.22 0.755278 -1.79671 0
M  V30 11664 H 1139.31 2.23439 -2.17903 0
M  V30 11665 N 1139.62 1.30703 0.880598 0
M  V30 11666 C 1140.86 1.19778 1.63277 0
M  V30 11667 C 1141.19 -0.246521 1.92931 0
M  V30 11668 O 1140.45 -1.19226 1.55189 0
M  V30 11669 C 1140.74 1.97628 2.97789 0
M  V30 11670 C 1140.41 3.47213 2.87669 0
M  V30 11671 C 1139.07 3.88004 2.84617 0
M  V30 11672 C 1141.42 4.4245 2.75477 0
M  V30 11673 C 1138.75 5.22315 2.67216 0
M  V30 11674 C 1141.1 5.76874 2.59614 0
M  V30 11675 C 1139.77 6.16898 2.54939 0
M  V30 11676 H 1139.04 0.438298 0.597475 0
M  V30 11677 H 1141.69 1.61853 1.02352 0
M  V30 11678 H 1139.99 1.48201 3.6269 0
M  V30 11679 H 1141.69 1.86563 3.54958 0
M  V30 11680 H 1138.28 3.14802 2.90857 0
M  V30 11681 H 1142.46 4.11875 2.76899 0
M  V30 11682 H 1137.72 5.52412 2.62014 0
M  V30 11683 H 1141.89 6.50304 2.49155 0
M  V30 11684 H 1139.52 7.20916 2.41214 0
M  V30 11685 N 1141.09 -1.09351 1.1349 0
M  V30 11686 C 1142.04 -2.16008 0.812981 0
M  V30 11687 C 1143.01 -1.64566 -0.225252 0
M  V30 11688 O 1144.2 -1.90552 -0.0973261 0
M  V30 11689 C 1141.34 -3.43913 0.285996 0
M  V30 11690 C 1140.45 -4.09251 1.38338 0
M  V30 11691 C 1139.58 -5.24916 0.814652 0
M  V30 11692 C 1138.62 -5.82178 1.89038 0
M  V30 11693 N 1137.76 -6.89203 1.33955 0
M  V30 11694 H 1142.6 -2.42887 1.72655 0
M  V30 11695 H 1140.14 -1.19209 0.861833 0
M  V30 11696 H 1142.09 -4.17183 -0.0376794 0
M  V30 11697 H 1140.72 -3.17349 -0.590707 0
M  V30 11698 H 1139.78 -3.33838 1.82363 0
M  V30 11699 H 1141.09 -4.4784 2.19638 0
M  V30 11700 H 1140.24 -6.05086 0.442306 0
M  V30 11701 H 1138.98 -4.87691 -0.029416 0
M  V30 11702 H 1137.99 -5.00669 2.27179 0
M  V30 11703 H 1139.21 -6.21464 2.73787 0
M  V30 11704 H 1137.16 -6.53956 0.517494 0
M  V30 11705 H 1137.07 -7.26565 2.08902 0
M  V30 11706 H 1138.34 -7.73126 0.994793 0
M  V30 11707 N 1142.57 -0.928524 -1.27343 0
M  V30 11708 C 1143.98 -0.613856 -1.7632 0
M  V30 11709 C 1144.33 0.870983 -1.75808 0
M  V30 11710 O 1143.46 1.68155 -1.36209 0
M  V30 11711 C 1144.05 -1.10755 -3.20186 0
M  V30 11712 C 1142.61 -0.843532 -3.66826 0
M  V30 11713 C 1141.76 -1.26579 -2.46724 0
M  V30 11714 H 1144.71 -1.10821 -1.13598 0
M  V30 11715 H 1144.73 -0.455598 -3.77763 0
M  V30 11716 H 1144.24 -2.18825 -3.20526 0
M  V30 11717 H 1142.34 0.223334 -3.7193 0
M  V30 11718 H 1142.46 -1.46165 -4.56259 0
M  V30 11719 H 1140.82 -0.684334 -2.45334 0
M  V30 11720 H 1141.6 -2.35516 -2.49774 0
M  V30 11721 N 1144.05 1.41491 -0.694123 0
M  V30 11722 C 1144.96 2.34583 -0.0283414 0
M  V30 11723 C 1145.98 1.5615 0.767662 0
M  V30 11724 O 1147.15 1.88637 0.705556 0
M  V30 11725 C 1144.22 3.34876 0.897726 0
M  V30 11726 C 1143.28 4.29197 0.0940905 0
M  V30 11727 C 1142.51 5.24699 0.976051 0
M  V30 11728 O 1142.73 5.25613 2.21556 0
M  V30 11729 O 1141.67 6.00387 0.426503 0
M  V30 11730 H 1145.49 2.93092 -0.795656 0
M  V30 11731 H 1143.08 1.4232 -0.45445 0
M  V30 11732 H 1144.96 3.96438 1.4288 0
M  V30 11733 H 1143.64 2.78812 1.64456 0
M  V30 11734 H 1142.54 3.70988 -0.481552 0
M  V30 11735 H 1143.88 4.88355 -0.614045 0
M  V30 11736 N 1145.53 0.438773 1.51369 0
M  V30 11737 C 1146.78 -0.126962 2.01701 0
M  V30 11738 C 1147.1 -1.43086 1.32481 0
M  V30 11739 O 1146.37 -1.90427 0.459823 0
M  V30 11740 H 1144.95 -0.0499092 0.745331 0
M  V30 11741 H 1147.61 0.581808 1.86013 0
M  V30 11742 H 1146.7 -0.301836 3.10637 0
M  V30 11743 N 1147.01 -1.56678 0.170181 0
M  V30 11744 C 1148.25 -1.9714 -0.475767 0
M  V30 11745 C 1148.58 -1.05611 -1.62972 0
M  V30 11746 O 1147.86 -0.103017 -1.94227 0
M  V30 11747 C 1148.14 -3.47072 -0.959828 0
M  V30 11748 C 1148 -4.4938 0.194225 0
M  V30 11749 C 1149.31 -4.00071 -1.83387 0
M  V30 11750 H 1146.43 -0.716776 -0.171466 0
M  V30 11751 H 1149.08 -1.88266 0.256086 0
M  V30 11752 H 1147.23 -3.54766 -1.58346 0
M  V30 11753 H 1148.9 -4.53748 0.83128 0
M  V30 11754 H 1147.14 -4.25393 0.849893 0
M  V30 11755 H 1147.81 -5.51685 -0.186575 0
M  V30 11756 H 1150.29 -3.95002 -1.30815 0
M  V30 11757 H 1149.16 -5.05398 -2.14159 0
M  V30 11758 H 1149.42 -3.43819 -2.77923 0
M  V30 11759 N 1148.48 0.103547 -1.57259 0
M  V30 11760 C 1149.73 0.806979 -1.8529 0
M  V30 11761 C 1150.05 1.79679 -0.757653 0
M  V30 11762 O 1149.32 1.94695 0.216913 0
M  V30 11763 H 1147.9 0.301012 -0.683667 0
M  V30 11764 H 1150.56 0.0871886 -1.94705 0
M  V30 11765 H 1149.66 1.34275 -2.81738 0
M  V30 11766 N 1149.96 1.53094 0.37415 0
M  V30 11767 C 1150.87 1.81872 1.48188 0
M  V30 11768 C 1151.89 0.706487 1.59012 0
M  V30 11769 O 1153.06 0.995648 1.75068 0
M  V30 11770 C 1150.13 1.99494 2.83554 0
M  V30 11771 C 1149.19 3.23402 2.82329 0
M  V30 11772 C 1148.42 3.40174 4.11239 0
M  V30 11773 O 1148.65 2.61425 5.06965 0
M  V30 11774 O 1147.58 4.33493 4.17573 0
M  V30 11775 H 1151.41 2.75965 1.26795 0
M  V30 11776 H 1148.99 1.38368 0.56343 0
M  V30 11777 H 1150.87 2.12705 3.63778 0
M  V30 11778 H 1149.55 1.08591 3.04942 0
M  V30 11779 H 1148.45 3.15621 2.00834 0
M  V30 11780 H 1149.79 4.14199 2.65894 0
M  V30 11781 N 1151.44 -0.633461 1.44309 0
M  V30 11782 C 1152.72 -1.3917 1.37444 0
M  V30 11783 C 1153.1 -2.11076 0.0319994 0
M  V30 11784 O 1152.44 -2.06164 -0.98533 0
M  V30 11785 C 1152.65 -2.36005 2.57104 0
M  V30 11786 C 1154 -2.99407 3.01065 0
M  V30 11787 O 1155.03 -2.46331 2.57292 0
M  V30 11788 O 1153.89 -3.95686 3.76954 0
M  V30 11789 H 1150.98 -0.622746 0.544166 0
M  V30 11790 H 1153.53 -0.658712 1.56394 0
M  V30 11791 H 1152.3 -1.81955 3.46422 0
M  V30 11792 H 1151.92 -3.16725 2.40356 0
M  V30 11793 N 1152.92 -1.31168 -0.873655 0
M  V30 11794 C 1153.85 -1.21094 -1.99646 0
M  V30 11795 C 1154.83 -0.0989684 -1.69812 0
M  V30 11796 O 1156.01 -0.282939 -1.92128 0
M  V30 11797 C 1153.14 -0.913684 -3.35066 0
M  V30 11798 C 1152.1 -1.98482 -3.79195 0
M  V30 11799 C 1151.42 -1.54033 -5.12033 0
M  V30 11800 C 1152.72 -3.39745 -3.96699 0
M  V30 11801 H 1154.42 -2.1503 -2.08333 0
M  V30 11802 H 1151.96 -1.03521 -1.00097 0
M  V30 11803 H 1153.92 -0.829821 -4.13149 0
M  V30 11804 H 1152.64 0.0613471 -3.26542 0
M  V30 11805 H 1151.3 -2.05851 -3.03349 0
M  V30 11806 H 1150.95 -0.553261 -4.99948 0
M  V30 11807 H 1150.65 -2.25688 -5.4253 0
M  V30 11808 H 1152.17 -1.47047 -5.92629 0
M  V30 11809 H 1153.59 -3.35071 -4.65188 0
M  V30 11810 H 1151.98 -4.09585 -4.38589 0
M  V30 11811 H 1153.05 -3.80802 -3.00196 0
M  V30 11812 N 1154.4 1.08748 -1.14068 0
M  V30 11813 C 1155.34 2.15573 -0.824425 0
M  V30 11814 C 1156.31 1.64683 0.216522 0
M  V30 11815 O 1157.5 1.90601 0.0872193 0
M  V30 11816 C 1154.64 3.43756 -0.30423 0
M  V30 11817 C 1153.75 4.08512 -1.40506 0
M  V30 11818 C 1152.89 5.24477 -0.842479 0
M  V30 11819 C 1151.93 5.81167 -1.92123 0
M  V30 11820 N 1151.06 6.88483 -1.37608 0
M  V30 11821 H 1155.9 2.41968 -1.73941 0
M  V30 11822 H 1153.44 1.18751 -0.868143 0
M  V30 11823 H 1155.4 4.17197 0.0155546 0
M  V30 11824 H 1154.03 3.17658 0.573868 0
M  V30 11825 H 1153.08 3.32866 -1.84131 0
M  V30 11826 H 1154.39 4.46669 -2.2201 0
M  V30 11827 H 1153.55 6.04842 -0.474389 0
M  V30 11828 H 1152.28 4.877 0.00355212 0
M  V30 11829 H 1151.29 4.99458 -2.29831 0
M  V30 11830 H 1152.51 6.20003 -2.77079 0
M  V30 11831 H 1150.46 6.53672 -0.552168 0
M  V30 11832 H 1150.38 7.25446 -2.12752 0
M  V30 11833 H 1151.65 7.72588 -1.03578 0
M  V30 11834 N 1155.87 0.935264 1.26849 0
M  V30 11835 C 1157.1 0.595704 1.98661 0
M  V30 11836 C 1157.52 -0.821001 1.69237 0
M  V30 11837 O 1156.88 -1.55211 0.936982 0
M  V30 11838 C 1156.93 0.837275 3.50745 0
M  V30 11839 O 1156.03 -0.0934914 4.12294 0
M  V30 11840 H 1155.38 0.228512 0.623441 0
M  V30 11841 H 1157.91 1.25658 1.61466 0
M  V30 11842 H 1157.92 0.755827 4.00938 0
M  V30 11843 H 1156.59 1.86993 3.71492 0
M  V30 11844 H 1155.17 0.0385124 3.7288 0
M  V30 11845 N 1157.35 -1.41121 0.701616 0
M  V30 11846 C 1158.63 -1.9492 0.162911 0
M  V30 11847 C 1159.01 -1.64064 -1.32839 0
M  V30 11848 O 1158.36 -0.950848 -2.07777 0
M  V30 11849 C 1158.57 -3.45946 0.460673 0
M  V30 11850 C 1159.92 -4.22789 0.391706 0
M  V30 11851 O 1160.94 -3.53993 0.395931 0
M  V30 11852 O 1159.8 -5.45332 0.357071 0
M  V30 11853 H 1156.89 -0.826793 0.0185103 0
M  V30 11854 H 1159.44 -1.50805 0.778192 0
M  V30 11855 H 1158.21 -3.61711 1.49269 0
M  V30 11856 H 1157.83 -3.97168 -0.185277 0
M  V30 11857 N 1158.83 -0.446794 -1.51134 0
M  V30 11858 C 1160.24 0.0141132 -1.86695 0
M  V30 11859 C 1160.59 1.41095 -1.36333 0
M  V30 11860 O 1159.72 2.04139 -0.718068 0
M  V30 11861 C 1160.31 0.0323866 -3.38785 0
M  V30 11862 C 1158.87 0.437737 -3.73846 0
M  V30 11863 C 1158.02 -0.363436 -2.74908 0
M  V30 11864 H 1160.97 -0.66221 -1.44224 0
M  V30 11865 H 1160.99 0.839865 -3.71115 0
M  V30 11866 H 1160.5 -0.984374 -3.75409 0
M  V30 11867 H 1158.6 1.45975 -3.42815 0
M  V30 11868 H 1158.72 0.155964 -4.78846 0
M  V30 11869 H 1157.08 0.179566 -2.54066 0
M  V30 11870 H 1157.86 -1.37925 -3.14375 0
M  V30 11871 N 1160.31 1.56586 -0.178487 0
M  V30 11872 C 1161.55 1.9739 0.465306 0
M  V30 11873 C 1161.89 1.06474 1.6241 0
M  V30 11874 O 1161.16 0.113316 1.9417 0
M  V30 11875 C 1161.45 3.47577 0.941408 0
M  V30 11876 C 1161.3 4.49271 -0.218054 0
M  V30 11877 C 1162.62 4.01038 1.81263 0
M  V30 11878 H 1159.74 0.717676 0.167663 0
M  V30 11879 H 1162.38 1.88128 -0.266067 0
M  V30 11880 H 1160.53 3.556 1.56463 0
M  V30 11881 H 1162.2 4.53301 -0.855332 0
M  V30 11882 H 1160.44 4.24936 -0.872441 0
M  V30 11883 H 1161.11 5.51776 0.157315 0
M  V30 11884 H 1163.59 3.9569 1.28718 0
M  V30 11885 H 1162.47 5.06526 2.11476 0
M  V30 11886 H 1162.73 3.45288 2.76096 0
M  V30 11887 N 1161.79 -0.095206 1.57312 0
M  V30 11888 C 1163.03 -0.799903 1.86358 0
M  V30 11889 C 1163.37 -1.78386 0.767593 0
M  V30 11890 O 1162.64 -1.93201 -0.224439 0
M  V30 11891 C 1162.92 -1.52875 3.26039 0
M  V30 11892 C 1162.78 -0.562781 4.46265 0
M  V30 11893 C 1164.1 -2.47935 3.63616 0
M  V30 11894 H 1161.21 -0.289339 0.677829 0
M  V30 11895 H 1163.86 -0.0635369 1.89894 0
M  V30 11896 H 1162.01 -2.15645 3.23156 0
M  V30 11897 H 1163.68 0.0579068 4.61264 0
M  V30 11898 H 1161.92 0.123847 4.33623 0
M  V30 11899 H 1162.59 -1.10989 5.40727 0
M  V30 11900 H 1165.07 -1.95257 3.67442 0
M  V30 11901 H 1163.94 -2.95948 4.62283 0
M  V30 11902 H 1164.21 -3.31687 2.92294 0
M  V30 11903 N 1163.26 -1.53291 -0.366026 0
M  V30 11904 C 1164.49 -1.73665 -1.13381 0
M  V30 11905 C 1164.91 -0.464284 -1.8228 0
M  V30 11906 O 1164.27 0.581645 -1.71717 0
M  V30 11907 C 1164.32 -2.90225 -2.14013 0
M  V30 11908 O 1163.42 -2.58803 -3.21084 0
M  V30 11909 H 1162.77 -0.576762 -0.329 0
M  V30 11910 H 1165.3 -2.00174 -0.423287 0
M  V30 11911 H 1165.31 -3.16378 -2.57622 0
M  V30 11912 H 1163.98 -3.82518 -1.63257 0
M  V30 11913 H 1162.56 -2.43466 -2.82451 0
M  V30 11914 N 1164.74 0.6258 -1.44643 0
M  V30 11915 C 1165.69 1.73751 -1.51919 0
M  V30 11916 C 1166.66 1.62007 -0.36647 0
M  V30 11917 O 1167.84 1.81852 -0.577439 0
M  V30 11918 C 1164.98 3.12015 -1.47448 0
M  V30 11919 C 1164.1 3.34696 -2.73135 0
M  V30 11920 C 1163.23 4.62962 -2.6046 0
M  V30 11921 C 1162.27 4.7884 -3.81286 0
M  V30 11922 N 1161.41 5.98388 -3.67255 0
M  V30 11923 H 1166.25 1.66867 -2.46899 0
M  V30 11924 H 1163.79 0.813921 -1.22531 0
M  V30 11925 H 1165.74 3.91983 -1.42846 0
M  V30 11926 H 1164.37 3.179 -0.560312 0
M  V30 11927 H 1163.43 2.4863 -2.87901 0
M  V30 11928 H 1164.74 3.42306 -3.62806 0
M  V30 11929 H 1163.89 5.51099 -2.53722 0
M  V30 11930 H 1162.63 4.57719 -1.68359 0
M  V30 11931 H 1161.64 3.89131 -3.88403 0
M  V30 11932 H 1162.86 4.85893 -4.74431 0
M  V30 11933 H 1160.81 5.94224 -2.77909 0
M  V30 11934 H 1160.72 6.07078 -4.50547 0
M  V30 11935 H 1161.99 6.89072 -3.64417 0
M  V30 11936 N 1166.22 1.31629 0.866686 0
M  V30 11937 C 1167.63 1.19347 1.43573 0
M  V30 11938 C 1167.98 -0.198765 1.95191 0
M  V30 11939 O 1167.11 -1.09674 1.86549 0
M  V30 11940 C 1167.7 2.16055 2.6097 0
M  V30 11941 C 1166.26 2.07697 3.13909 0
M  V30 11942 C 1165.41 2.05099 1.86627 0
M  V30 11943 H 1168.36 1.43633 0.674929 0
M  V30 11944 H 1168.38 1.75207 3.37761 0
M  V30 11945 H 1167.89 3.17375 2.23371 0
M  V30 11946 H 1165.99 1.09583 3.56121 0
M  V30 11947 H 1166.11 2.96958 3.75969 0
M  V30 11948 H 1164.47 1.50162 2.05727 0
M  V30 11949 H 1165.25 3.0818 1.51261 0
M  V30 11950 N 1167.7 -1.08142 1.14644 0
M  V30 11951 C 1168.95 -1.80225 0.914517 0
M  V30 11952 C 1169.27 -1.86778 -0.560269 0
M  V30 11953 O 1168.54 -1.36284 -1.40724 0
M  V30 11954 H 1167.12 -0.667492 0.335356 0
M  V30 11955 H 1169.78 -1.30729 1.44554 0
M  V30 11956 H 1168.88 -2.82958 1.31685 0
M  V30 11957 N 1169.18 -0.941978 -1.26351 0
M  V30 11958 C 1170.11 -0.469913 -2.28723 0
M  V30 11959 C 1171.09 0.477218 -1.63269 0
M  V30 11960 O 1172.27 0.378902 -1.90468 0
M  V30 11961 C 1169.4 0.264971 -3.46288 0
M  V30 11962 C 1168.36 -0.595682 -4.23834 0
M  V30 11963 C 1167.68 0.269208 -5.34022 0
M  V30 11964 C 1168.98 -1.86743 -4.87775 0
M  V30 11965 H 1170.68 -1.32551 -2.6846 0
M  V30 11966 H 1168.22 -0.638809 -1.29055 0
M  V30 11967 H 1170.18 0.606259 -4.17016 0
M  V30 11968 H 1168.9 1.15471 -3.05506 0
M  V30 11969 H 1167.56 -0.919875 -3.54872 0
M  V30 11970 H 1167.21 1.15832 -4.89481 0
M  V30 11971 H 1166.91 -0.30325 -5.86817 0
M  V30 11972 H 1168.43 0.605748 -6.07588 0
M  V30 11973 H 1169.85 -1.59333 -5.50714 0
M  V30 11974 H 1168.24 -2.38452 -5.50691 0
M  V30 11975 H 1169.31 -2.57831 -4.10671 0
M  V30 11976 N 1170.66 1.40747 -0.709091 0
M  V30 11977 C 1171.9 2.013 -0.246174 0
M  V30 11978 C 1172.23 1.56078 1.15556 0
M  V30 11979 O 1171.51 0.777941 1.78265 0
M  V30 11980 C 1171.79 3.58685 -0.318945 0
M  V30 11981 C 1171.65 4.13997 -1.75859 0
M  V30 11982 C 1172.96 4.38981 0.31358 0
M  V30 11983 H 1170.08 0.73137 -0.0909255 0
M  V30 11984 H 1172.73 1.67312 -0.900365 0
M  V30 11985 H 1170.88 3.8777 0.23805 0
M  V30 11986 H 1172.55 3.95735 -2.37047 0
M  V30 11987 H 1170.79 3.6853 -2.28841 0
M  V30 11988 H 1171.46 5.23158 -1.76095 0
M  V30 11989 H 1173.94 4.15789 -0.160939 0
M  V30 11990 H 1172.81 5.48409 0.232184 0
M  V30 11991 H 1173.07 4.19474 1.39621 0
M  V30 11992 N 1172.13 0.454803 1.50895 0
M  V30 11993 C 1173.08 -0.361974 2.29766 0
M  V30 11994 C 1174.08 -1.00519 1.36353 0
M  V30 11995 O 1175.28 -0.938159 1.53618 0
M  V30 11996 H 1171.66 -0.135559 0.739681 0
M  V30 11997 H 1173.63 0.323853 2.96637 0
M  V30 11998 C 1172.38 -1.44078 3.16444 0
M  V30 11999 H 1171.7 -0.955212 3.88221 0
M  V30 12000 H 1173.14 -1.98518 3.74655 0
M  V30 12001 C 1171.6 -2.43374 2.32961 0
M  V30 12002 O 1172.13 -3.48295 2.00133 0
M  V30 12003 N 1170.33 -2.14689 1.95849 0
M  V30 12004 H 1169.88 -1.29392 2.22745 0
M  V30 12005 H 1169.84 -2.81363 1.40292 0
M  V30 12006 N 1173.61 -1.56489 0.186789 0
M  V30 12007 C 1174.84 -2.02163 -0.463126 0
M  V30 12008 C 1175.26 -1.06612 -1.54969 0
M  V30 12009 O 1174.62 -0.0482139 -1.81236 0
M  V30 12010 C 1174.67 -3.46337 -1.00416 0
M  V30 12011 O 1173.77 -3.53889 -2.11747 0
M  V30 12012 H 1173.11 -0.65496 -0.109194 0
M  V30 12013 H 1175.64 -2.02459 0.295227 0
M  V30 12014 H 1175.65 -3.85959 -1.32287 0
M  V30 12015 H 1174.33 -4.15376 -0.208693 0
M  V30 12016 H 1172.9 -3.26136 -1.80803 0
M  V30 12017 N 1175.09 0.086862 -1.5736 0
M  V30 12018 C 1176.37 0.820984 -1.77537 0
M  V30 12019 C 1176.75 1.96534 -0.770554 0
M  V30 12020 O 1176.09 2.27629 0.199334 0
M  V30 12021 C 1176.3 1.30793 -3.23565 0
M  V30 12022 C 1177.65 1.7474 -3.86977 0
M  V30 12023 O 1178.68 1.40396 -3.27364 0
M  V30 12024 O 1177.54 2.38271 -4.91822 0
M  V30 12025 H 1174.63 0.392228 -0.72807 0
M  V30 12026 H 1177.18 0.0681051 -1.69563 0
M  V30 12027 H 1175.95 0.488409 -3.8824 0
M  V30 12028 H 1175.57 2.12258 -3.36203 0
M  V30 12029 N 1176.57 1.53483 0.357892 0
M  V30 12030 C 1177.53 1.79782 1.42166 0
M  V30 12031 C 1178.53 0.668441 1.46248 0
M  V30 12032 O 1179.72 0.936677 1.46874 0
M  V30 12033 C 1176.85 1.92686 2.8122 0
M  V30 12034 H 1178.05 2.74794 1.20117 0
M  V30 12035 H 1175.6 1.44677 0.591468 0
M  V30 12036 H 1176.33 0.997669 3.08573 0
M  V30 12037 H 1176.12 2.74837 2.79655 0
M  V30 12038 H 1177.61 2.14599 3.58242 0
M  V30 12039 N 1178.05 -0.61812 1.44973 0
M  V30 12040 C 1179.27 -1.40921 1.52171 0
M  V30 12041 C 1179.7 -1.87487 0.151755 0
M  V30 12042 O 1179.05 -1.59518 -0.861606 0
M  V30 12043 C 1179.1 -2.59689 2.50188 0
M  V30 12044 O 1178.21 -3.59967 2.0124 0
M  V30 12045 H 1177.55 -0.421138 0.51336 0
M  V30 12046 H 1180.08 -0.753258 1.90229 0
M  V30 12047 H 1180.09 -3.07069 2.6865 0
M  V30 12048 H 1178.76 -2.25144 3.4969 0
M  V30 12049 H 1177.34 -3.19308 1.92605 0
M  V30 12050 N 1179.52 -1.32087 -0.859693 0
M  V30 12051 C 1180.93 -1.20107 -1.42938 0
M  V30 12052 C 1181.29 0.188411 -1.95293 0
M  V30 12053 O 1180.41 1.08683 -1.87128 0
M  V30 12054 C 1181.01 -2.17436 -2.59821 0
M  V30 12055 C 1179.56 -2.09359 -3.12803 0
M  V30 12056 C 1178.71 -2.06086 -1.85537 0
M  V30 12057 H 1181.66 -1.43989 -0.667302 0
M  V30 12058 H 1181.68 -1.76996 -3.36828 0
M  V30 12059 H 1181.2 -3.18555 -2.21685 0
M  V30 12060 H 1179.3 -1.1147 -3.55535 0
M  V30 12061 H 1179.41 -2.98947 -3.74389 0
M  V30 12062 H 1177.77 -1.51251 -2.04928 0
M  V30 12063 H 1178.56 -3.08978 -1.49625 0
M  V30 12064 N 1181 1.07532 -1.15215 0
M  V30 12065 C 1181.95 2.16785 -0.843022 0
M  V30 12066 C 1182.94 1.68411 0.182802 0
M  V30 12067 O 1184.15 1.7996 0.0380164 0
M  V30 12068 H 1180.52 0.707465 -0.254945 0
M  V30 12069 H 1182.5 2.40078 -1.77215 0
M  V30 12070 C 1181.24 3.45967 -0.346699 0
M  V30 12071 H 1180.57 3.83574 -1.12744 0
M  V30 12072 H 1182.01 4.23663 -0.169039 0
M  V30 12073 C 1180.47 3.23768 0.931437 0
M  V30 12074 O 1181 3.48179 2.00336 0
M  V30 12075 N 1179.2 2.77264 0.870217 0
M  V30 12076 H 1178.75 2.576 -0.00226223 0
M  V30 12077 H 1178.71 2.6279 1.72594 0
M  V30 12078 N 1182.48 0.948665 1.2585 0
M  V30 12079 C 1183.43 0.462904 2.2611 0
M  V30 12080 C 1184.4 -0.481433 1.5897 0
M  V30 12081 O 1185.58 -0.395997 1.86645 0
M  V30 12082 C 1182.72 -0.258808 3.44128 0
M  V30 12083 C 1181.84 0.722072 4.25923 0
M  V30 12084 C 1180.97 -0.0215958 5.31196 0
M  V30 12085 C 1180.01 0.950612 6.04673 0
M  V30 12086 N 1179.15 0.238209 7.01696 0
M  V30 12087 H 1183.99 1.32279 2.67032 0
M  V30 12088 H 1181.52 0.663485 1.31287 0
M  V30 12089 H 1183.48 -0.693759 4.11391 0
M  V30 12090 H 1182.11 -1.08278 3.04098 0
M  V30 12091 H 1181.16 1.27552 3.58378 0
M  V30 12092 H 1182.48 1.46421 4.76825 0
M  V30 12093 H 1181.63 -0.51547 6.04506 0
M  V30 12094 H 1180.37 -0.796563 4.81151 0
M  V30 12095 H 1179.37 1.45554 5.30183 0
M  V30 12096 H 1180.6 1.72571 6.56808 0
M  V30 12097 H 1178.54 -0.518129 6.53951 0
M  V30 12098 H 1178.46 0.919542 7.50387 0
M  V30 12099 H 1179.73 -0.234325 7.79148 0
M  V30 12100 N 1183.96 -1.40369 0.716545 0
M  V30 12101 C 1185.37 -1.83783 0.328719 0
M  V30 12102 C 1185.72 -1.5991 -1.13681 0
M  V30 12103 O 1184.85 -1.08048 -1.87496 0
M  V30 12104 C 1185.44 -3.33626 0.589848 0
M  V30 12105 C 1184 -3.7553 0.25572 0
M  V30 12106 C 1183.15 -2.63571 0.861733 0
M  V30 12107 H 1186.1 -1.29623 0.915621 0
M  V30 12108 H 1186.12 -3.80225 -0.14459 0
M  V30 12109 H 1185.63 -3.5097 1.65655 0
M  V30 12110 H 1183.73 -3.63781 -0.805883 0
M  V30 12111 H 1183.84 -4.73577 0.725388 0
M  V30 12112 H 1182.21 -2.53047 0.289706 0
M  V30 12113 H 1182.99 -2.83727 1.93272 0
M  V30 12114 N 1185.44 -0.462799 -1.50652 0
M  V30 12115 C 1186.38 0.349784 -2.29955 0
M  V30 12116 C 1187.38 0.997947 -1.36885 0
M  V30 12117 O 1188.58 0.93 -1.54114 0
M  V30 12118 H 1184.96 0.131635 -0.740389 0
M  V30 12119 H 1186.93 -0.33958 -2.96461 0
M  V30 12120 C 1185.68 1.42398 -3.17204 0
M  V30 12121 H 1185 0.934611 -3.88722 0
M  V30 12122 H 1186.44 1.96528 -3.75703 0
M  V30 12123 C 1184.9 2.42135 -2.34248 0
M  V30 12124 O 1185.43 3.47229 -2.01978 0
M  V30 12125 N 1183.64 2.13647 -1.96985 0
M  V30 12126 H 1183.18 1.28209 -2.23428 0
M  V30 12127 H 1183.14 2.80615 -1.41783 0
M  V30 12128 N 1186.91 1.56388 -0.195085 0
M  V30 12129 C 1187.88 2.17859 0.712053 0
M  V30 12130 C 1188.88 1.13304 1.141 0
M  V30 12131 O 1190.07 1.38689 1.05409 0
M  V30 12132 C 1187.2 2.78065 1.97213 0
M  V30 12133 H 1188.39 2.9938 0.176529 0
M  V30 12134 H 1185.95 1.56205 0.0545322 0
M  V30 12135 H 1186.68 2.00342 2.55017 0
M  V30 12136 H 1186.47 3.54603 1.67329 0
M  V30 12137 H 1187.96 3.25266 2.619 0
M  V30 12138 N 1188.39 -0.0785156 1.57404 0
M  V30 12139 C 1189.36 -1.07835 2.02248 0
M  V30 12140 C 1190.36 -1.31987 0.918475 0
M  V30 12141 O 1191.55 -1.27821 1.18353 0
M  V30 12142 C 1188.68 -2.42361 2.39737 0
M  V30 12143 H 1189.87 -0.691995 2.91807 0
M  V30 12144 H 1187.42 -0.32405 1.52904 0
M  V30 12145 H 1188.16 -2.85841 1.53183 0
M  V30 12146 H 1187.94 -2.26174 3.20293 0
M  V30 12147 H 1189.43 -3.14241 2.75031 0
M  V30 12148 N 1189.87 -1.5367 -0.349747 0
M  V30 12149 C 1191.12 -1.69835 -1.08807 0
M  V30 12150 C 1191.43 -0.46497 -1.89993 0
M  V30 12151 O 1192.64 -0.507452 -2.66716 0
M  V30 12152 C 1191.09 -3.00294 -1.98372 0
M  V30 12153 C 1190.7 -4.30949 -1.22422 0
M  V30 12154 C 1192.45 -3.25826 -2.72099 0
M  V30 12155 C 1190.35 -5.52486 -2.1098 0
M  V30 12156 H 1189.28 -0.63284 -0.409915 0
M  V30 12157 H 1191.93 -1.80171 -0.347968 0
M  V30 12158 H 1190.32 -2.838 -2.76176 0
M  V30 12159 H 1191.49 -4.58126 -0.495707 0
M  V30 12160 H 1189.81 -4.11983 -0.604896 0
M  V30 12161 H 1192.4 -4.13817 -3.38615 0
M  V30 12162 H 1192.75 -2.42566 -3.3833 0
M  V30 12163 H 1193.28 -3.43067 -2.0137 0
M  V30 12164 H 1190.02 -6.38271 -1.49301 0
M  V30 12165 H 1189.54 -5.29566 -2.81638 0
M  V30 12166 H 1191.22 -5.87889 -2.70176 0
M  V30 12167 N 1191.35 0.610423 -1.45298 0
M  V30 12168 C 1192.58 1.39621 -1.52688 0
M  V30 12169 C 1192.99 1.88133 -0.158535 0
M  V30 12170 O 1192.35 1.62051 0.839396 0
M  V30 12171 C 1192.4 2.60261 -2.50891 0
M  V30 12172 O 1192.12 2.13766 -3.82408 0
M  V30 12173 C 1193.62 3.53154 -2.6795 0
M  V30 12174 H 1190.84 0.427493 -0.517195 0
M  V30 12175 H 1193.39 0.744701 -1.90459 0
M  V30 12176 H 1191.54 3.2146 -2.162 0
M  V30 12177 H 1191.95 2.92128 -4.35616 0
M  V30 12178 H 1193.43 4.34355 -3.40647 0
M  V30 12179 H 1193.91 4.03311 -1.73888 0
M  V30 12180 H 1194.51 2.9781 -3.03627 0
M  V30 12181 N 1192.83 1.32541 0.852676 0
M  V30 12182 C 1194.1 1.1383 1.59067 0
M  V30 12183 C 1194.48 -0.300584 2.08949 0
M  V30 12184 O 1193.83 -1.29751 1.88088 0
M  V30 12185 C 1194.04 2.16758 2.73527 0
M  V30 12186 C 1195.39 2.50194 3.43057 0
M  V30 12187 O 1196.41 2.15319 2.83754 0
M  V30 12188 O 1195.27 3.09985 4.50079 0
M  V30 12189 H 1192.37 0.439379 0.700625 0
M  V30 12190 H 1194.91 1.44078 0.896632 0
M  V30 12191 H 1193.68 3.13469 2.34207 0
M  V30 12192 H 1193.31 1.87515 3.50605 0
M  V30 12193 N 1194.3 -1.0692 1.15784 0
M  V30 12194 C 1195.53 -1.83849 0.959903 0
M  V30 12195 C 1195.95 -1.8169 -0.486873 0
M  V30 12196 O 1195.31 -1.21305 -1.34739 0
M  V30 12197 C 1195.36 -3.28642 1.48414 0
M  V30 12198 O 1194.46 -4.0665 0.686249 0
M  V30 12199 H 1193.81 -0.569115 0.342059 0
M  V30 12200 H 1196.34 -1.34851 1.53871 0
M  V30 12201 H 1196.35 -3.7947 1.49888 0
M  V30 12202 H 1195.02 -3.29529 2.53739 0
M  V30 12203 H 1193.6 -3.65453 0.741501 0
M  V30 12204 N 1195.78 -0.955326 -1.25345 0
M  V30 12205 C 1196.75 -0.480564 -2.24105 0
M  V30 12206 C 1197.75 0.416123 -1.55322 0
M  V30 12207 O 1198.94 0.213315 -1.72889 0
M  V30 12208 C 1196.07 0.305589 -3.39528 0
M  V30 12209 H 1197.26 -1.35349 -2.6762 0
M  V30 12210 H 1194.81 -0.738673 -1.37744 0
M  V30 12211 H 1195.55 1.19615 -3.01434 0
M  V30 12212 H 1195.33 -0.337719 -3.90643 0
M  V30 12213 H 1196.82 0.627201 -4.12863 0
M  V30 12214 N 1197.26 1.39987 -0.723979 0
M  V30 12215 C 1198.51 2.00334 -0.266587 0
M  V30 12216 C 1198.83 1.57714 1.14679 0
M  V30 12217 O 1198.1 0.82037 1.77895 0
M  V30 12218 H 1196.68 0.740861 -0.095573 0
M  V30 12219 H 1199.34 1.712 -0.931481 0
M  V30 12220 H 1198.44 3.10594 -0.306282 0
M  V30 12221 N 1198.74 0.470782 1.50404 0
M  V30 12222 C 1199.97 -0.0820134 2.06737 0
M  V30 12223 C 1200.38 -1.33535 1.33468 0
M  V30 12224 O 1199.74 -1.77975 0.403872 0
M  V30 12225 C 1199.79 -0.370427 3.59597 0
M  V30 12226 O 1199.51 0.8332 4.30104 0
M  V30 12227 C 1201.01 -0.970222 4.32552 0
M  V30 12228 H 1198.23 0.00694502 0.670964 0
M  V30 12229 H 1200.78 0.659476 1.93575 0
M  V30 12230 H 1198.93 -1.06185 3.72563 0
M  V30 12231 H 1199.35 0.577614 5.2131 0
M  V30 12232 H 1200.82 -1.1218 5.40481 0
M  V30 12233 H 1201.3 -1.96024 3.93028 0
M  V30 12234 H 1201.9 -0.31719 4.24116 0
M  V30 12235 N 1200.22 -1.56282 0.203376 0
M  V30 12236 C 1201.18 -2.18233 -0.700489 0
M  V30 12237 C 1202.18 -1.13908 -1.13497 0
M  V30 12238 O 1203.37 -1.39246 -1.04672 0
M  V30 12239 C 1200.5 -2.79107 -1.95735 0
M  V30 12240 H 1201.7 -2.99469 -0.160649 0
M  V30 12241 H 1199.25 -1.56232 -0.0462475 0
M  V30 12242 H 1199.98 -2.01691 -2.53951 0
M  V30 12243 H 1199.77 -3.55486 -1.65446 0
M  V30 12244 H 1201.26 -3.2665 -2.60172 0
M  V30 12245 N 1201.7 0.070167 -1.57444 0
M  V30 12246 C 1202.94 0.767495 -1.8696 0
M  V30 12247 C 1203.26 1.78032 -0.795595 0
M  V30 12248 O 1202.53 1.95112 0.175566 0
M  V30 12249 H 1201.11 0.286443 -0.689898 0
M  V30 12250 H 1203.78 0.0458692 -1.94846 0
M  V30 12251 H 1202.87 1.28269 -2.84523 0
M  V30 12252 N 1203.17 1.53854 0.341593 0
M  V30 12253 C 1204.42 1.70856 1.07948 0
M  V30 12254 C 1204.74 0.475474 1.89114 0
M  V30 12255 O 1204.01 -0.510592 1.89129 0
M  V30 12256 H 1202.59 0.629914 0.401519 0
M  V30 12257 H 1205.25 1.91112 0.382393 0
M  V30 12258 H 1204.35 2.5803 1.75575 0
M  V30 12259 N 1204.65 -0.602709 1.4562 0
M  V30 12260 C 1205.6 -1.71312 1.54664 0
M  V30 12261 C 1206.57 -1.61403 0.392197 0
M  V30 12262 O 1207.75 -1.80911 0.606297 0
M  V30 12263 C 1204.89 -3.09629 1.52393 0
M  V30 12264 C 1204.01 -3.30308 2.78425 0
M  V30 12265 C 1203.14 -4.5876 2.67793 0
M  V30 12266 C 1202.18 -4.72713 3.88855 0
M  V30 12267 N 1201.32 -5.92469 3.76729 0
M  V30 12268 H 1206.16 -1.62918 2.49523 0
M  V30 12269 H 1203.69 -0.794324 1.2381 0
M  V30 12270 H 1205.65 -3.89661 1.49064 0
M  V30 12271 H 1204.28 -3.16968 0.610816 0
M  V30 12272 H 1203.33 -2.44018 2.9182 0
M  V30 12273 H 1204.65 -3.36491 3.68205 0
M  V30 12274 H 1203.8 -5.46993 2.62457 0
M  V30 12275 H 1202.54 -4.54983 1.75619 0
M  V30 12276 H 1201.54 -3.82903 3.94545 0
M  V30 12277 H 1202.77 -4.78284 4.82101 0
M  V30 12278 H 1200.72 -5.89728 2.87328 0
M  V30 12279 H 1200.63 -5.99833 4.60148 0
M  V30 12280 H 1201.9 -6.83187 3.75334 0
M  V30 12281 N 1206.13 -1.32992 -0.845635 0
M  V30 12282 C 1207.38 -1.2382 -1.59728 0
M  V30 12283 C 1207.7 0.197724 -1.93995 0
M  V30 12284 O 1206.97 1.12477 -1.60392 0
M  V30 12285 H 1205.55 -0.455296 -0.592212 0
M  V30 12286 H 1208.21 -1.66627 -1.01101 0
M  V30 12287 H 1207.31 -1.82717 -2.53023 0
M  V30 12288 N 1207.61 1.06304 -1.1635 0
M  V30 12289 C 1209.02 1.60566 -0.952652 0
M  V30 12290 C 1209.37 1.8963 0.503473 0
M  V30 12291 O 1208.49 1.66964 1.37666 0
M  V30 12292 C 1209.09 2.9172 -1.72292 0
M  V30 12293 C 1207.65 3.42684 -1.55707 0
M  V30 12294 C 1206.8 2.16579 -1.73172 0
M  V30 12295 H 1209.75 0.892563 -1.31221 0
M  V30 12296 H 1209.77 3.61126 -1.19868 0
M  V30 12297 H 1209.28 2.70535 -2.78267 0
M  V30 12298 H 1207.38 3.68929 -0.521726 0
M  V30 12299 H 1207.49 4.18018 -2.34088 0
M  V30 12300 H 1205.86 2.26795 -1.15914 0
M  V30 12301 H 1206.64 1.97877 -2.80535 0
M  V30 12302 N 1209.09 0.96196 1.24836 0
M  V30 12303 C 1210.33 0.621634 1.93038 0
M  V30 12304 C 1210.66 -0.840257 1.75081 0
M  V30 12305 O 1209.94 -1.60381 1.10038 0
M  V30 12306 C 1210.22 0.990107 3.46221 0
M  V30 12307 C 1210.08 2.50827 3.73371 0
M  V30 12308 C 1211.39 0.520478 4.37011 0
M  V30 12309 H 1208.51 0.227312 0.701069 0
M  V30 12310 H 1211.16 1.19993 1.47315 0
M  V30 12311 H 1209.31 0.498008 3.85295 0
M  V30 12312 H 1210.98 3.07469 3.4389 0
M  V30 12313 H 1209.22 2.94277 3.18722 0
M  V30 12314 H 1209.89 2.71659 4.80526 0
M  V30 12315 H 1212.37 0.942703 4.05281 0
M  V30 12316 H 1211.24 0.806918 5.42937 0
M  V30 12317 H 1211.5 -0.579507 4.38285 0
M  V30 12318 N 1210.56 -1.39601 0.731392 0
M  V30 12319 C 1211.81 -2.0019 0.277208 0
M  V30 12320 C 1212.13 -1.5832 -1.13841 0
M  V30 12321 O 1211.4 -0.829793 -1.77458 0
M  V30 12322 H 1209.98 -0.740344 0.0995006 0
M  V30 12323 H 1212.64 -1.70704 0.940547 0
M  V30 12324 H 1211.74 -3.10427 0.322749 0
M  V30 12325 N 1212.04 -0.478751 -1.50152 0
M  V30 12326 C 1213.29 0.07531 -2.01559 0
M  V30 12327 C 1213.6 1.40089 -1.36508 0
M  V30 12328 O 1214.81 2.04035 -1.79115 0
M  V30 12329 C 1213.27 0.184714 -3.59426 0
M  V30 12330 C 1212.87 -1.13289 -4.33439 0
M  V30 12331 C 1214.62 0.690326 -4.18849 0
M  V30 12332 C 1212.53 -0.986866 -5.83108 0
M  V30 12333 H 1211.46 0.0319196 -0.753324 0
M  V30 12334 H 1214.11 -0.614809 -1.72894 0
M  V30 12335 H 1212.49 0.938788 -3.84711 0
M  V30 12336 H 1213.66 -1.89852 -4.19872 0
M  V30 12337 H 1211.98 -1.57021 -3.8566 0
M  V30 12338 H 1214.57 0.816733 -5.28426 0
M  V30 12339 H 1214.92 1.68361 -3.80737 0
M  V30 12340 H 1215.45 -0.00657846 -3.97799 0
M  V30 12341 H 1212.19 -1.95375 -6.25707 0
M  V30 12342 H 1211.71 -0.261752 -5.99229 0
M  V30 12343 H 1213.39 -0.656567 -6.4366 0
M  V30 12344 N 1213.52 1.56172 -0.211661 0
M  V30 12345 C 1214.47 2.21206 0.719063 0
M  V30 12346 C 1215.46 1.18835 1.20725 0
M  V30 12347 O 1216.67 1.36939 1.16823 0
M  V30 12348 H 1213.04 0.709129 0.250279 0
M  V30 12349 H 1215.01 2.98038 0.147022 0
M  V30 12350 C 1213.76 2.89826 1.92084 0
M  V30 12351 H 1213.09 3.68351 1.55428 0
M  V30 12352 H 1214.53 3.38744 2.55006 0
M  V30 12353 C 1212.99 1.91756 2.77004 0
M  V30 12354 O 1213.52 1.42826 3.75451 0
M  V30 12355 N 1211.72 1.59622 2.42836 0
M  V30 12356 H 1211.27 1.99606 1.62835 0
M  V30 12357 H 1211.23 0.942641 2.99936 0
M  V30 12358 N 1215 -0.0618163 1.57479 0
M  V30 12359 C 1216.25 -0.757569 1.87364 0
M  V30 12360 C 1216.57 -1.77607 0.805025 0
M  V30 12361 O 1215.84 -1.95202 -0.165216 0
M  V30 12362 H 1214.42 -0.28278 0.691408 0
M  V30 12363 H 1217.08 -0.0355354 1.94868 0
M  V30 12364 H 1216.18 -1.26758 2.85199 0
M  V30 12365 N 1216.48 -1.54033 -0.333429 0
M  V30 12366 C 1217.7 -1.76031 -1.09672 0
M  V30 12367 C 1218.13 -0.502844 -1.81254 0
M  V30 12368 O 1217.48 0.54509 -1.72912 0
M  V30 12369 C 1217.53 -2.947 -2.07809 0
M  V30 12370 O 1216.64 -2.65555 -3.15522 0
M  V30 12371 H 1215.98 -0.583611 -0.316692 0
M  V30 12372 H 1218.51 -2.01026 -0.380732 0
M  V30 12373 H 1218.52 -3.21771 -2.50853 0
M  V30 12374 H 1217.19 -3.85895 -1.55106 0
M  V30 12375 H 1215.77 -2.49403 -2.77223 0
M  V30 12376 N 1217.95 0.594978 -1.45938 0
M  V30 12377 C 1218.9 1.69949 -1.51991 0
M  V30 12378 C 1219.89 1.56301 -0.381956 0
M  V30 12379 O 1221.08 1.65423 -0.62961 0
M  V30 12380 C 1218.21 3.08723 -1.5015 0
M  V30 12381 C 1217.3 3.27712 -2.69194 0
M  V30 12382 N 1217.69 3.1691 -3.9421 0
M  V30 12383 C 1215.98 3.58618 -2.65158 0
M  V30 12384 C 1216.69 3.37572 -4.7373 0
M  V30 12385 N 1215.66 3.62154 -4.05395 0
M  V30 12386 H 1219.46 1.60109 -2.46459 0
M  V30 12387 H 1216.98 0.798634 -1.41406 0
M  V30 12388 H 1218.97 3.87978 -1.52573 0
M  V30 12389 H 1217.63 3.19702 -0.567488 0
M  V30 12390 H 1218.65 2.95039 -4.25643 0
M  V30 12391 H 1215.32 3.76358 -1.80724 0
M  V30 12392 H 1216.71 3.34507 -5.82713 0
M  V30 12393 N 1219.43 1.33438 0.838571 0
M  V30 12394 C 1220.4 1.23632 1.92997 0
M  V30 12395 C 1221.4 0.155302 1.60048 0
M  V30 12396 O 1222.59 0.406852 1.69382 0
M  V30 12397 C 1219.72 0.90512 3.28665 0
M  V30 12398 H 1220.91 2.20643 2.03117 0
M  V30 12399 H 1218.46 1.17501 1.03069 0
M  V30 12400 H 1219.2 -0.0624833 3.2424 0
M  V30 12401 H 1218.98 1.68688 3.53959 0
M  V30 12402 H 1220.47 0.861262 4.08622 0
M  V30 12403 N 1220.91 -1.05686 1.16912 0
M  V30 12404 C 1221.87 -2.11481 0.883647 0
M  V30 12405 C 1222.87 -1.60321 -0.124034 0
M  V30 12406 O 1224.06 -1.73868 0.107566 0
M  V30 12407 C 1221.2 -3.3937 0.322649 0
M  V30 12408 H 1222.39 -2.38239 1.8216 0
M  V30 12409 H 1219.94 -1.2185 0.978895 0
M  V30 12410 H 1220.68 -3.18266 -0.622695 0
M  V30 12411 H 1220.46 -3.77812 1.04883 0
M  V30 12412 H 1221.95 -4.17362 0.141072 0
M  V30 12413 N 1222.39 -0.968567 -1.24324 0
M  V30 12414 C 1223.32 -0.518323 -2.27674 0
M  V30 12415 C 1224.3 0.442479 -1.64244 0
M  V30 12416 O 1225.48 0.338416 -1.91229 0
M  V30 12417 C 1222.61 0.191459 -3.46772 0
M  V30 12418 C 1221.57 -0.685449 -4.22476 0
M  V30 12419 C 1220.89 0.155873 -5.34473 0
M  V30 12420 C 1222.19 -1.97047 -4.83704 0
M  V30 12421 H 1223.89 -1.38215 -2.65588 0
M  V30 12422 H 1221.43 -0.66604 -1.27671 0
M  V30 12423 H 1223.39 0.517667 -4.18208 0
M  V30 12424 H 1222.11 1.08965 -3.07887 0
M  V30 12425 H 1220.77 -0.994942 -3.52841 0
M  V30 12426 H 1220.42 1.05424 -4.91828 0
M  V30 12427 H 1220.12 -0.427655 -5.86042 0
M  V30 12428 H 1221.64 0.476733 -6.08736 0
M  V30 12429 H 1223.06 -1.70979 -5.4721 0
M  V30 12430 H 1221.45 -2.50079 -5.45509 0
M  V30 12431 H 1222.52 -2.66484 -4.0511 0
M  V30 12432 N 1223.87 1.39211 -0.738786 0
M  V30 12433 C 1225.28 1.83237 -0.357916 0
M  V30 12434 C 1225.63 1.61698 1.11123 0
M  V30 12435 O 1224.75 1.11017 1.85753 0
M  V30 12436 C 1225.35 3.32645 -0.64285 0
M  V30 12437 C 1223.91 3.75076 -0.315432 0
M  V30 12438 C 1223.05 2.62166 -0.903556 0
M  V30 12439 H 1226.01 1.2815 -0.936127 0
M  V30 12440 H 1226.03 3.80407 0.0840812 0
M  V30 12441 H 1225.54 3.4829 -1.71218 0
M  V30 12442 H 1223.64 3.65017 0.747907 0
M  V30 12443 H 1223.75 4.72363 -0.800638 0
M  V30 12444 H 1222.12 2.52554 -0.329927 0
M  V30 12445 H 1222.9 2.80616 -1.97761 0
M  V30 12446 N 1225.34 0.486708 1.49896 0
M  V30 12447 C 1226.59 -0.062852 2.02402 0
M  V30 12448 C 1226.92 -1.38306 1.36754 0
M  V30 12449 O 1226.17 -1.89531 0.487493 0
M  V30 12450 C 1226.47 -0.278643 3.56312 0
M  V30 12451 C 1226.14 0.961794 4.40523 0
M  V30 12452 C 1224.8 1.30185 4.63255 0
M  V30 12453 C 1227.15 1.78697 4.89609 0
M  V30 12454 C 1224.48 2.46686 5.32318 0
M  V30 12455 C 1226.83 2.9434 5.59953 0
M  V30 12456 C 1225.5 3.28742 5.80935 0
M  V30 12457 H 1224.77 -0.0229992 0.740643 0
M  V30 12458 H 1227.41 0.643963 1.80348 0
M  V30 12459 H 1225.72 -1.06785 3.76967 0
M  V30 12460 H 1227.42 -0.718078 3.94518 0
M  V30 12461 H 1224.01 0.686887 4.2306 0
M  V30 12462 H 1228.19 1.53742 4.71887 0
M  V30 12463 H 1223.45 2.73596 5.46768 0
M  V30 12464 H 1227.62 3.58616 5.96965 0
M  V30 12465 H 1225.25 4.19121 6.34225 0
M  V30 12466 N 1226.82 -1.56058 0.219941 0
M  V30 12467 C 1228.07 -1.97869 -0.411383 0
M  V30 12468 C 1228.39 -1.10878 -1.60409 0
M  V30 12469 O 1227.66 -0.185454 -1.9502 0
M  V30 12470 H 1226.24 -0.730747 -0.154979 0
M  V30 12471 H 1228.9 -1.92379 0.312461 0
M  V30 12472 H 1228 -3.0323 -0.738798 0
M  V30 12473 N 1228.3 0.053464 -1.57509 0
M  V30 12474 C 1229.23 1.06151 -2.07977 0
M  V30 12475 C 1230.21 1.3924 -0.977047 0
M  V30 12476 O 1231.4 1.48549 -1.25087 0
M  V30 12477 C 1228.53 2.36969 -2.53895 0
M  V30 12478 C 1227.48 2.18186 -3.6821 0
M  V30 12479 C 1226.81 3.54551 -4.00247 0
M  V30 12480 C 1228.11 1.588 -4.97574 0
M  V30 12481 H 1229.8 0.641483 -2.92447 0
M  V30 12482 H 1227.35 0.307122 -1.40687 0
M  V30 12483 H 1229.3 3.07797 -2.87817 0
M  V30 12484 H 1228.02 2.80986 -1.66476 0
M  V30 12485 H 1226.68 1.49796 -3.34599 0
M  V30 12486 H 1226.33 3.96171 -3.09932 0
M  V30 12487 H 1226.03 3.42816 -4.77232 0
M  V30 12488 H 1227.56 4.2678 -4.36682 0
M  V30 12489 H 1228.97 2.19515 -5.29609 0
M  V30 12490 H 1227.37 1.57711 -5.79006 0
M  V30 12491 H 1228.44 0.551254 -4.81756 0
M  V30 12492 N 1229.78 1.54207 0.325255 0
M  V30 12493 C 1231.06 1.6298 1.08153 0
M  V30 12494 C 1231.44 0.462583 2.05969 0
M  V30 12495 O 1230.78 -0.543323 2.21947 0
M  V30 12496 C 1230.99 2.999 1.78497 0
M  V30 12497 C 1232.34 3.55888 2.3158 0
M  V30 12498 O 1233.37 3.02194 1.88566 0
M  V30 12499 O 1232.23 4.49847 3.10322 0
M  V30 12500 H 1229.32 0.659923 0.498429 0
M  V30 12501 H 1231.87 1.66553 0.325282 0
M  V30 12502 H 1230.64 3.7629 1.07338 0
M  V30 12503 H 1230.26 2.99997 2.60936 0
M  V30 12504 N 1231.26 -0.58723 1.46251 0
M  V30 12505 C 1232.67 -1.16933 1.45546 0
M  V30 12506 C 1233.02 -1.9524 0.193879 0
M  V30 12507 O 1232.14 -2.04652 -0.70332 0
M  V30 12508 C 1232.74 -2.12723 2.63693 0
M  V30 12509 C 1231.3 -2.66267 2.66043 0
M  V30 12510 C 1230.45 -1.42051 2.38153 0
M  V30 12511 H 1233.4 -0.375411 1.54196 0
M  V30 12512 H 1233.42 -2.96111 2.38953 0
M  V30 12513 H 1232.93 -1.55703 3.55497 0
M  V30 12514 H 1231.03 -3.2717 1.783 0
M  V30 12515 H 1231.14 -3.0931 3.65874 0
M  V30 12516 H 1229.51 -1.71707 1.88119 0
M  V30 12517 H 1230.29 -0.868675 3.32128 0
M  V30 12518 N 1232.74 -1.33881 -0.831482 0
M  V30 12519 C 1233.7 -1.24654 -1.92339 0
M  V30 12520 C 1234.7 -0.163788 -1.59964 0
M  V30 12521 O 1235.89 -0.415829 -1.69164 0
M  V30 12522 C 1233.02 -0.922537 -3.2818 0
M  V30 12523 H 1234.21 -2.21717 -2.01944 0
M  V30 12524 H 1231.77 -1.18046 -1.02445 0
M  V30 12525 H 1232.5 0.0452872 -3.24268 0
M  V30 12526 H 1232.29 -1.70562 -3.53059 0
M  V30 12527 H 1233.78 -0.88292 -4.0816 0
M  V30 12528 N 1234.21 1.05064 -1.1747 0
M  V30 12529 C 1235.63 1.30256 -0.922248 0
M  V30 12530 C 1235.83 1.97119 0.417896 0
M  V30 12531 O 1234.89 2.24557 1.15457 0
M  V30 12532 C 1236.2 2.17109 -2.08049 0
M  V30 12533 C 1237.75 2.30487 -2.11766 0
M  V30 12534 C 1238.22 3.20701 -3.26979 0
M  V30 12535 N 1239.71 3.28287 -3.26775 0
M  V30 12536 C 1240.45 3.98218 -4.12565 0
M  V30 12537 N 1239.94 4.70567 -5.08467 0
M  V30 12538 N 1241.74 3.94395 -4.00511 0
M  V30 12539 H 1233.89 0.600653 -2.0373 0
M  V30 12540 H 1236.15 0.327475 -0.889643 0
M  V30 12541 H 1235.86 1.75273 -3.04914 0
M  V30 12542 H 1235.73 3.1775 -2.03261 0
M  V30 12543 H 1238.12 2.71564 -1.15486 0
M  V30 12544 H 1238.2 1.29471 -2.20615 0
M  V30 12545 H 1237.84 2.80337 -4.23525 0
M  V30 12546 H 1237.77 4.21725 -3.15366 0
M  V30 12547 H 1240.26 2.76739 -2.5734 0
M  V30 12548 H 1240.58 5.21492 -5.70321 0
M  V30 12549 H 1238.92 4.69505 -5.12436 0
M  V30 12550 H 1242.11 3.37 -3.24882 0
M  V30 12551 H 1242.29 4.48626 -4.67588 0
M  V30 12552 N 1235.69 0.975146 1.23809 0
M  V30 12553 C 1236.92 0.658978 1.96125 0
M  V30 12554 C 1237.33 -0.773044 1.72248 0
M  V30 12555 O 1236.69 -1.51956 1.01072 0
M  V30 12556 C 1236.74 0.933355 3.49243 0
M  V30 12557 O 1236.46 2.30909 3.72307 0
M  V30 12558 C 1237.96 0.632408 4.38766 0
M  V30 12559 H 1235.18 0.245237 0.62458 0
M  V30 12560 H 1237.73 1.3051 1.5744 0
M  V30 12561 H 1235.88 0.333323 3.85963 0
M  V30 12562 H 1236.3 2.39476 4.66638 0
M  V30 12563 H 1237.77 0.874791 5.45024 0
M  V30 12564 H 1238.25 -0.433453 4.37056 0
M  V30 12565 H 1238.85 1.21268 4.07645 0
M  V30 12566 N 1237.17 -1.38817 0.746158 0
M  V30 12567 C 1238.58 -1.83045 0.367629 0
M  V30 12568 C 1238.93 -1.62285 -1.10263 0
M  V30 12569 O 1238.06 -1.12001 -1.85162 0
M  V30 12570 C 1238.65 -3.323 0.660482 0
M  V30 12571 C 1237.21 -3.74903 0.335318 0
M  V30 12572 C 1236.36 -2.61683 0.917446 0
M  V30 12573 H 1239.31 -1.27651 0.94291 0
M  V30 12574 H 1239.33 -3.80446 -0.0639061 0
M  V30 12575 H 1238.84 -3.47377 1.73062 0
M  V30 12576 H 1236.94 -3.65408 -0.728538 0
M  V30 12577 H 1237.06 -4.71932 0.825677 0
M  V30 12578 H 1235.42 -2.52376 0.343316 0
M  V30 12579 H 1236.2 -2.79563 1.99247 0
M  V30 12580 N 1238.65 -0.49465 -1.49636 0
M  V30 12581 C 1239.89 0.0521945 -2.02733 0
M  V30 12582 C 1240.23 1.3723 -1.37411 0
M  V30 12583 O 1239.5 1.87758 -0.507642 0
M  V30 12584 C 1239.78 0.2114 -3.59479 0
M  V30 12585 C 1239.64 -1.13138 -4.35339 0
M  V30 12586 C 1240.96 0.955015 -4.29613 0
M  V30 12587 H 1238.08 0.0174946 -0.736792 0
M  V30 12588 H 1240.72 -0.644827 -1.78723 0
M  V30 12589 H 1238.87 0.805078 -3.80067 0
M  V30 12590 H 1240.54 -1.76345 -4.26263 0
M  V30 12591 H 1238.78 -1.72224 -3.98147 0
M  V30 12592 H 1239.45 -0.97336 -5.4335 0
M  V30 12593 H 1241.93 0.451575 -4.13642 0
M  V30 12594 H 1240.81 1.03524 -5.39049 0
M  V30 12595 H 1241.07 1.99724 -3.94414 0
M  V30 12596 N 1240.13 1.55939 -0.228214 0
M  V30 12597 C 1241.06 2.16566 0.719321 0
M  V30 12598 C 1242.04 1.11204 1.18627 0
M  V30 12599 O 1243.22 1.39495 1.2678 0
M  V30 12600 C 1240.35 2.75132 1.97536 0
M  V30 12601 C 1239.39 3.93381 1.64783 0
M  V30 12602 S 1240.23 5.29982 0.76678 0
M  V30 12603 C 1241.38 5.91989 2.03223 0
M  V30 12604 H 1241.62 2.96599 0.204035 0
M  V30 12605 H 1239.15 1.54395 -0.0128406 0
M  V30 12606 H 1241.11 3.09512 2.69652 0
M  V30 12607 H 1239.77 1.95079 2.46176 0
M  V30 12608 H 1238.96 4.32884 2.58122 0
M  V30 12609 H 1238.56 3.60181 1.00724 0
M  V30 12610 H 1240.85 6.08368 2.98152 0
M  V30 12611 H 1241.8 6.87858 1.68099 0
M  V30 12612 H 1242.21 5.20883 2.1758 0
M  V30 12613 N 1241.6 -0.0451101 1.57535 0
M  V30 12614 C 1242.85 -0.737654 1.88157 0
M  V30 12615 C 1243.17 -1.76743 0.823817 0
M  V30 12616 O 1242.44 -1.95366 -0.144503 0
M  V30 12617 H 1241.02 -0.275431 0.694368 0
M  V30 12618 H 1243.69 -0.0148651 1.94894 0
M  V30 12619 H 1242.78 -1.23726 2.86528 0
M  V30 12620 N 1243.08 -1.54377 -0.317073 0
M  V30 12621 C 1244.31 -1.77184 -1.07798 0
M  V30 12622 C 1244.73 -0.52204 -1.80711 0
M  V30 12623 O 1244.09 0.52672 -1.7348 0
M  V30 12624 C 1244.14 -2.96887 -2.04671 0
M  V30 12625 O 1243.24 -2.68887 -3.12688 0
M  V30 12626 H 1242.58 -0.586937 -0.310485 0
M  V30 12627 H 1245.11 -2.01419 -0.35939 0
M  V30 12628 H 1245.12 -3.24414 -2.47426 0
M  V30 12629 H 1243.8 -3.87518 -1.51005 0
M  V30 12630 H 1242.38 -2.52329 -2.74562 0
M  V30 12631 N 1244.56 0.579466 -1.4656 0
M  V30 12632 C 1245.79 1.36153 -1.55389 0
M  V30 12633 C 1246.2 1.88192 -0.195062 0
M  V30 12634 O 1245.54 1.64464 0.81836 0
M  V30 12635 C 1245.6 2.58269 -2.50075 0
M  V30 12636 C 1245.27 2.27675 -3.96249 0
M  V30 12637 C 1246.26 1.86313 -4.85369 0
M  V30 12638 C 1243.95 2.39719 -4.41407 0
M  V30 12639 C 1245.94 1.57395 -6.17661 0
M  V30 12640 C 1243.63 2.10414 -5.73733 0
M  V30 12641 C 1244.63 1.69317 -6.6168 0
M  V30 12642 O 1244.32 1.40373 -7.9155 0
M  V30 12643 H 1244.05 0.422174 -0.527963 0
M  V30 12644 H 1246.6 0.711089 -1.92698 0
M  V30 12645 H 1244.83 3.26129 -2.0779 0
M  V30 12646 H 1246.52 3.20339 -2.49275 0
M  V30 12647 H 1247.29 1.7652 -4.51736 0
M  V30 12648 H 1243.17 2.70669 -3.73175 0
M  V30 12649 H 1246.71 1.25244 -6.86265 0
M  V30 12650 H 1242.61 2.19833 -6.06913 0
M  V30 12651 H 1243.38 1.54191 -8.03845 0
M  V30 12652 N 1246.04 1.3432 0.824371 0
M  V30 12653 C 1247.29 1.26345 1.57738 0
M  V30 12654 C 1247.61 -0.166836 1.94285 0
M  V30 12655 O 1246.88 -1.09911 1.62162 0
M  V30 12656 H 1245.46 0.46466 0.584893 0
M  V30 12657 H 1248.12 1.68214 0.984373 0
M  V30 12658 H 1247.22 1.8672 2.50084 0
M  V30 12659 N 1247.52 -1.0444 1.18026 0
M  V30 12660 C 1248.43 -2.15862 0.918747 0
M  V30 12661 C 1249.44 -1.73614 -0.115808 0
M  V30 12662 O 1250.62 -2.01294 0.0652312 0
M  V30 12663 C 1247.68 -3.43846 0.443922 0
M  V30 12664 C 1246.74 -4.00497 1.54599 0
M  V30 12665 C 1245.98 -5.22373 1.09372 0
M  V30 12666 O 1246.2 -5.70379 -0.049085 0
M  V30 12667 O 1245.13 -5.71459 1.88992 0
M  V30 12668 H 1248.96 -2.40776 1.85097 0
M  V30 12669 H 1246.55 -1.14326 0.961769 0
M  V30 12670 H 1248.43 -4.20985 0.187017 0
M  V30 12671 H 1247.1 -3.20414 -0.460051 0
M  V30 12672 H 1246.01 -3.24764 1.85686 0
M  V30 12673 H 1247.34 -4.28262 2.42595 0
M  V30 12674 N 1248.99 -0.981699 -1.2329 0
M  V30 12675 C 1249.94 -0.515432 -2.26817 0
M  V30 12676 C 1250.94 0.428204 -1.63899 0
M  V30 12677 O 1252.14 0.301954 -1.77449 0
M  V30 12678 H 1248.52 -0.148257 -0.737241 0
M  V30 12679 H 1250.49 -1.40027 -2.63505 0
M  V30 12680 C 1249.24 0.165266 -3.47307 0
M  V30 12681 H 1248.56 -0.55176 -3.95974 0
M  V30 12682 H 1250 0.45513 -4.2155 0
M  V30 12683 C 1248.46 1.39693 -3.06574 0
M  V30 12684 O 1248.99 2.49308 -3.14974 0
M  V30 12685 N 1247.2 1.26806 -2.61474 0
M  V30 12686 H 1246.74 0.376161 -2.54839 0
M  V30 12687 H 1246.7 2.09324 -2.34587 0
M  V30 12688 N 1250.47 1.3842 -0.753509 0
M  V30 12689 C 1251.42 2.32315 -0.115107 0
M  V30 12690 C 1252.41 1.54015 0.705398 0
M  V30 12691 O 1253.62 1.69546 0.604505 0
M  V30 12692 H 1250 0.751774 -0.0184276 0
M  V30 12693 H 1251.97 2.83763 -0.923094 0
M  V30 12694 C 1250.72 3.39206 0.763849 0
M  V30 12695 H 1250.04 3.99548 0.14187 0
M  V30 12696 H 1251.48 4.07312 1.17783 0
M  V30 12697 C 1249.94 2.77771 1.90643 0
M  V30 12698 O 1250.47 2.67073 3.00058 0
M  V30 12699 N 1248.67 2.35582 1.70145 0
M  V30 12700 H 1248.22 2.44483 0.811528 0
M  V30 12701 H 1248.18 1.9482 2.46764 0
M  V30 12702 N 1251.95 0.502579 1.49372 0
M  V30 12703 C 1252.88 -0.264307 2.31999 0
M  V30 12704 C 1253.86 -0.96107 1.40348 0
M  V30 12705 O 1255.05 -0.952167 1.69255 0
M  V30 12706 C 1252.18 -1.32822 3.20898 0
M  V30 12707 C 1251.13 -0.751236 4.21355 0
M  V30 12708 C 1250.46 -1.91578 4.99201 0
M  V30 12709 C 1251.76 0.258764 5.21659 0
M  V30 12710 H 1253.45 0.425391 2.96363 0
M  V30 12711 H 1251 0.206022 1.42519 0
M  V30 12712 H 1252.95 -1.87245 3.77515 0
M  V30 12713 H 1251.67 -2.04712 2.54481 0
M  V30 12714 H 1250.33 -0.228743 3.65886 0
M  V30 12715 H 1249.98 -2.62241 4.2923 0
M  V30 12716 H 1249.68 -1.53578 5.67175 0
M  V30 12717 H 1251.2 -2.46432 5.58663 0
M  V30 12718 H 1252.62 -0.197385 5.7296 0
M  V30 12719 H 1251.02 0.554681 5.97531 0
M  V30 12720 H 1252.09 1.1741 4.70471 0
M  V30 12721 N 1253.43 -1.55816 0.23648 0
M  V30 12722 C 1254.39 -2.1967 -0.654041 0
M  V30 12723 C 1255.39 -1.1629 -1.11056 0
M  V30 12724 O 1256.58 -1.41435 -1.01695 0
M  V30 12725 C 1253.71 -2.83196 -1.89771 0
M  V30 12726 H 1254.91 -2.99743 -0.0970911 0
M  V30 12727 H 1252.46 -1.56295 -0.013098 0
M  V30 12728 H 1253.19 -2.07033 -2.49616 0
M  V30 12729 H 1252.98 -3.58915 -1.57868 0
M  V30 12730 H 1254.47 -3.32095 -2.53184 0
M  V30 12731 N 1254.91 0.036755 -1.57557 0
M  V30 12732 C 1255.87 1.02435 -2.05036 0
M  V30 12733 C 1256.87 1.29506 -0.953146 0
M  V30 12734 O 1258.06 1.24638 -1.217 0
M  V30 12735 C 1255.19 2.3592 -2.46079 0
M  V30 12736 H 1256.38 0.614384 -2.93539 0
M  V30 12737 H 1253.94 0.283396 -1.53709 0
M  V30 12738 H 1254.67 2.8168 -1.60708 0
M  V30 12739 H 1254.46 2.17603 -3.26177 0
M  V30 12740 H 1255.95 3.06839 -2.83266 0
M  V30 12741 N 1256.39 1.54543 0.308881 0
M  V30 12742 C 1257.61 1.77431 1.06422 0
M  V30 12743 C 1258.03 0.529972 1.81209 0
M  V30 12744 O 1257.39 -0.499912 1.7552 0
M  V30 12745 C 1257.44 2.9769 2.05092 0
M  V30 12746 O 1257.16 4.17315 1.33341 0
M  V30 12747 C 1258.66 3.32905 2.92727 0
M  V30 12748 H 1255.88 0.591961 0.315948 0
M  V30 12749 H 1258.42 2.01473 0.350547 0
M  V30 12750 H 1256.58 2.7588 2.71973 0
M  V30 12751 H 1256.99 4.85061 1.99539 0
M  V30 12752 H 1258.47 4.20314 3.57827 0
M  V30 12753 H 1258.94 2.50713 3.6061 0
M  V30 12754 H 1259.55 3.56847 2.31388 0
M  V30 12755 N 1257.86 -0.571685 1.46866 0
M  V30 12756 C 1258.83 -1.66198 1.57832 0
M  V30 12757 C 1259.83 -1.54242 0.454547 0
M  V30 12758 O 1261.02 -1.58661 0.719191 0
M  V30 12759 C 1258.15 -3.05678 1.5091 0
M  V30 12760 H 1259.34 -1.57829 2.5501 0
M  V30 12761 H 1256.89 -0.790433 1.3484 0
M  V30 12762 H 1257.63 -3.19593 0.550529 0
M  V30 12763 H 1257.41 -3.15765 2.32454 0
M  V30 12764 H 1258.9 -3.85027 1.61692 0
M  V30 12765 N 1259.34 -1.34755 -0.817236 0
M  V30 12766 C 1260.57 -1.30522 -1.60536 0
M  V30 12767 C 1260.98 0.119541 -1.88421 0
M  V30 12768 O 1260.34 1.06833 -1.47962 0
M  V30 12769 C 1260.39 -2.09939 -2.94292 0
M  V30 12770 O 1260.11 -3.46858 -2.67621 0
M  V30 12771 C 1261.61 -2.13168 -3.88683 0
M  V30 12772 H 1258.83 -0.448789 -0.498828 0
M  V30 12773 H 1261.38 -1.77453 -1.01639 0
M  V30 12774 H 1259.53 -1.66634 -3.49731 0
M  V30 12775 H 1259.95 -3.87979 -3.52949 0
M  V30 12776 H 1261.42 -2.73147 -4.79682 0
M  V30 12777 H 1261.9 -1.12758 -4.24479 0
M  V30 12778 H 1262.5 -2.56587 -3.39181 0
M  V30 12779 N 1260.82 1.03812 -1.18578 0
M  V30 12780 C 1262.04 1.8124 -1.00831 0
M  V30 12781 C 1262.47 1.82917 0.43853 0
M  V30 12782 O 1261.83 1.24835 1.31476 0
M  V30 12783 C 1261.88 3.24592 -1.57075 0
M  V30 12784 O 1260.98 4.04688 -0.793824 0
M  V30 12785 H 1260.32 0.559846 -0.357028 0
M  V30 12786 H 1262.85 1.30724 -1.57393 0
M  V30 12787 H 1262.86 3.75363 -1.59896 0
M  V30 12788 H 1261.54 3.22686 -2.62387 0
M  V30 12789 H 1260.11 3.63359 -0.838134 0
M  V30 12790 N 1262.3 0.988223 1.22768 0
M  V30 12791 C 1263.26 0.539813 2.22752 0
M  V30 12792 C 1264.26 -0.374796 1.56371 0
M  V30 12793 O 1265.45 -0.167402 1.73394 0
M  V30 12794 C 1262.58 -0.215461 3.40218 0
M  V30 12795 H 1263.78 1.42397 2.63938 0
M  V30 12796 H 1261.33 0.774933 1.35737 0
M  V30 12797 H 1262.06 -1.11581 3.045 0
M  V30 12798 H 1261.85 0.441173 3.8961 0
M  V30 12799 H 1263.34 -0.517517 4.14381 0
M  V30 12800 N 1263.78 -1.38018 0.760839 0
M  V30 12801 C 1265.02 -2.0071 0.329695 0
M  V30 12802 C 1265.38 -1.59315 -1.07872 0
M  V30 12803 O 1264.67 -0.824077 -1.72973 0
M  V30 12804 C 1264.86 -3.55168 0.398778 0
M  V30 12805 C 1264.69 -4.11562 1.81237 0
M  V30 12806 C 1263.46 -4.43003 2.43056 0
M  V30 12807 C 1265.66 -4.3332 2.77018 0
M  V30 12808 N 1263.64 -4.85048 3.76301 0
M  V30 12809 C 1265.01 -4.77853 3.9504 0
M  V30 12810 C 1267.07 -4.15432 2.74446 0
M  V30 12811 C 1265.77 -5.06373 5.10861 0
M  V30 12812 C 1267.8 -4.45081 3.89431 0
M  V30 12813 C 1267.16 -4.89845 5.06193 0
M  V30 12814 H 1263.26 -0.76386 0.167457 0
M  V30 12815 H 1265.84 -1.67513 0.992343 0
M  V30 12816 H 1264.01 -3.87697 -0.233635 0
M  V30 12817 H 1265.75 -4.04665 -0.0533765 0
M  V30 12818 H 1262.5 -4.317 1.94762 0
M  V30 12819 H 1262.92 -5.10394 4.44778 0
M  V30 12820 H 1267.57 -3.80006 1.85353 0
M  V30 12821 H 1265.28 -5.40693 6.00564 0
M  V30 12822 H 1268.87 -4.32839 3.88769 0
M  V30 12823 H 1267.75 -5.12348 5.93691 0
M  V30 12824 N 1265.25 -0.510493 -1.49103 0
M  V30 12825 C 1266.48 0.0271324 -2.06582 0
M  V30 12826 C 1266.89 1.30499 -1.36991 0
M  V30 12827 O 1266.23 1.78229 -0.444976 0
M  V30 12828 C 1266.3 0.341488 -3.57874 0
M  V30 12829 C 1265.96 -0.840037 -4.49213 0
M  V30 12830 C 1266.96 -1.73315 -4.90161 0
M  V30 12831 C 1264.64 -1.04153 -4.91383 0
M  V30 12832 C 1266.64 -2.81182 -5.72028 0
M  V30 12833 C 1264.32 -2.12336 -5.73024 0
M  V30 12834 C 1265.32 -3.00684 -6.13252 0
M  V30 12835 O 1265.01 -4.06999 -6.93258 0
M  V30 12836 H 1264.74 -0.0215383 -0.675657 0
M  V30 12837 H 1267.3 -0.709841 -1.92744 0
M  V30 12838 H 1265.53 1.13218 -3.69755 0
M  V30 12839 H 1267.21 0.818859 -3.97554 0
M  V30 12840 H 1267.98 -1.58934 -4.58219 0
M  V30 12841 H 1263.86 -0.363199 -4.59567 0
M  V30 12842 H 1267.4 -3.50169 -6.03347 0
M  V30 12843 H 1263.3 -2.26708 -6.04379 0
M  V30 12844 H 1264.07 -4.04469 -7.11581 0
M  V30 12845 N 1266.73 1.55688 -0.24474 0
M  V30 12846 C 1267.66 2.18616 0.68844 0
M  V30 12847 C 1268.68 1.16185 1.14039 0
M  V30 12848 O 1269.87 1.43059 1.06754 0
M  V30 12849 C 1266.97 2.77375 1.94721 0
M  V30 12850 C 1266.14 4.05204 1.64706 0
M  V30 12851 C 1265.2 4.48302 2.75521 0
M  V30 12852 O 1264.22 5.14723 2.42999 0
M  V30 12853 N 1265.43 4.15907 4.04971 0
M  V30 12854 H 1268.19 2.99324 0.150018 0
M  V30 12855 H 1265.75 1.61771 -0.0646183 0
M  V30 12856 H 1267.74 3.03165 2.68091 0
M  V30 12857 H 1266.31 2.00837 2.39548 0
M  V30 12858 H 1265.53 3.87026 0.74865 0
M  V30 12859 H 1266.82 4.8855 1.42114 0
M  V30 12860 H 1266.22 3.62579 4.34227 0
M  V30 12861 H 1264.78 4.46538 4.74813 0
M  V30 12862 N 1268.21 -0.0283989 1.57574 0
M  V30 12863 C 1269.14 -1.02828 2.09639 0
M  V30 12864 C 1270.12 -1.37668 0.999076 0
M  V30 12865 O 1271.31 -1.4654 1.27435 0
M  V30 12866 C 1268.44 -2.329 2.57633 0
M  V30 12867 C 1267.39 -2.12301 3.71635 0
M  V30 12868 C 1266.72 -3.48138 4.05837 0
M  V30 12869 C 1268.02 -1.50864 5.00037 0
M  V30 12870 H 1269.71 -0.594876 2.93431 0
M  V30 12871 H 1267.26 -0.284701 1.41158 0
M  V30 12872 H 1269.21 -3.03179 2.92678 0
M  V30 12873 H 1267.93 -2.78302 1.70926 0
M  V30 12874 H 1266.59 -1.44454 3.3694 0
M  V30 12875 H 1266.24 -3.9119 3.16195 0
M  V30 12876 H 1265.94 -3.3518 4.82626 0
M  V30 12877 H 1267.46 -4.19779 4.43417 0
M  V30 12878 H 1268.88 -2.11062 5.33035 0
M  V30 12879 H 1267.27 -1.48479 5.81441 0
M  V30 12880 H 1268.34 -0.474541 4.82572 0
M  V30 12881 N 1269.69 -1.54705 -0.300681 0
M  V30 12882 C 1271.1 -1.64998 -0.873654 0
M  V30 12883 C 1271.45 -0.558842 -1.88073 0
M  V30 12884 O 1270.57 0.304474 -2.14247 0
M  V30 12885 C 1271.17 -2.99099 -1.59138 0
M  V30 12886 C 1269.73 -3.11512 -2.11276 0
M  V30 12887 C 1268.88 -2.60681 -0.945551 0
M  V30 12888 H 1271.83 -1.5851 -0.0776752 0
M  V30 12889 H 1271.85 -2.9054 -2.45696 0
M  V30 12890 H 1271.36 -3.78493 -0.858172 0
M  V30 12891 H 1269.46 -2.36838 -2.87643 0
M  V30 12892 H 1269.57 -4.17672 -2.34707 0
M  V30 12893 H 1267.94 -2.17143 -1.33121 0
M  V30 12894 H 1268.72 -3.42553 -0.226291 0
M  V30 12895 N 1271.17 0.563888 -1.47167 0
M  V30 12896 C 1272.58 1.14603 -1.47388 0
M  V30 12897 C 1272.93 1.94907 -0.224916 0
M  V30 12898 O 1272.05 2.05745 0.670672 0
M  V30 12899 C 1272.65 2.08501 -2.67044 0
M  V30 12900 C 1271.21 2.62 -2.70246 0
M  V30 12901 C 1270.35 1.38244 -2.40383 0
M  V30 12902 H 1273.31 0.350833 -1.54774 0
M  V30 12903 H 1273.33 2.92272 -2.43634 0
M  V30 12904 H 1272.84 1.50027 -3.57929 0
M  V30 12905 H 1270.94 3.24292 -1.83482 0
M  V30 12906 H 1271.05 3.0345 -3.70749 0
M  V30 12907 H 1269.42 1.68692 -1.90827 0
M  V30 12908 H 1270.2 0.815726 -3.33468 0
M  V30 12909 N 1272.64 1.35187 0.810078 0
M  V30 12910 C 1274.06 1.15149 1.10512 0
M  V30 12911 C 1274.26 -0.038394 2.01463 0
M  V30 12912 O 1273.32 -0.710056 2.42311 0
M  V30 12913 C 1274.63 2.45282 1.73946 0
M  V30 12914 C 1276.18 2.51457 1.86382 0
M  V30 12915 C 1276.65 3.81625 2.53232 0
M  V30 12916 N 1278.14 3.82856 2.6072 0
M  V30 12917 C 1278.88 4.80302 3.13206 0
M  V30 12918 N 1278.37 5.88134 3.66156 0
M  V30 12919 N 1280.17 4.67743 3.11726 0
M  V30 12920 H 1272.32 2.11405 0.205391 0
M  V30 12921 H 1274.58 0.935457 0.153702 0
M  V30 12922 H 1274.29 3.32512 1.14582 0
M  V30 12923 H 1274.16 2.59573 2.73682 0
M  V30 12924 H 1276.55 1.64659 2.44891 0
M  V30 12925 H 1276.63 2.41084 0.855113 0
M  V30 12926 H 1276.27 4.68819 1.95375 0
M  V30 12927 H 1276.2 3.89285 3.54633 0
M  V30 12928 H 1278.69 3.04941 2.23203 0
M  V30 12929 H 1279.01 6.58487 4.04494 0
M  V30 12930 H 1277.35 5.91831 3.64364 0
M  V30 12931 H 1280.54 3.82642 2.69635 0
M  V30 12932 H 1280.72 5.43849 3.52324 0
M  V30 12933 N 1274.12 -1.03182 1.19127 0
M  V30 12934 C 1275.35 -1.80703 1.01791 0
M  V30 12935 C 1275.77 -1.83147 -0.428824 0
M  V30 12936 O 1275.13 -1.2553 -1.30812 0
M  V30 12937 C 1275.18 -3.23754 1.58794 0
M  V30 12938 O 1274.28 -4.04261 0.815274 0
M  V30 12939 H 1273.62 -0.557944 0.359992 0
M  V30 12940 H 1276.15 -1.29887 1.58084 0
M  V30 12941 H 1276.16 -3.7451 1.61884 0
M  V30 12942 H 1274.84 -3.2129 2.64094 0
M  V30 12943 H 1273.42 -3.62909 0.857392 0
M  V30 12944 N 1275.6 -0.99472 -1.22242 0
M  V30 12945 C 1277.01 -0.706456 -1.72818 0
M  V30 12946 C 1277.36 0.776566 -1.80177 0
M  V30 12947 O 1276.49 1.60698 -1.44931 0
M  V30 12948 C 1277.08 -1.27571 -3.13865 0
M  V30 12949 C 1275.64 -1.03679 -3.61839 0
M  V30 12950 C 1274.79 -1.3948 -2.39668 0
M  V30 12951 H 1277.74 -1.16687 -1.07564 0
M  V30 12952 H 1277.76 -0.655202 -3.74816 0
M  V30 12953 H 1277.27 -2.35508 -3.08476 0
M  V30 12954 H 1275.37 0.0258679 -3.72591 0
M  V30 12955 H 1275.49 -1.70145 -4.4787 0
M  V30 12956 H 1273.85 -0.813418 -2.41362 0
M  V30 12957 H 1274.63 -2.48425 -2.36939 0
M  V30 12958 N 1277.08 1.37613 -0.768148 0
M  V30 12959 C 1278.36 1.93921 -0.255724 0
M  V30 12960 C 1278.74 1.70215 1.2486 0
M  V30 12961 O 1278.08 1.0489 2.03003 0
M  V30 12962 C 1278.29 3.43354 -0.625204 0
M  V30 12963 C 1279.64 4.20439 -0.592978 0
M  V30 12964 O 1280.67 3.51701 -0.564375 0
M  V30 12965 O 1279.52 5.43008 -0.616849 0
M  V30 12966 H 1276.62 0.824968 -0.0579366 0
M  V30 12967 H 1279.16 1.46921 -0.849257 0
M  V30 12968 H 1277.94 3.54177 -1.66356 0
M  V30 12969 H 1277.56 3.976 -0.00442816 0
M  V30 12970 N 1278.56 0.518393 1.4883 0
M  V30 12971 C 1279.97 0.175476 1.58632 0
M  V30 12972 C 1280.17 -1.32081 1.52174 0
M  V30 12973 O 1279.23 -2.09817 1.40474 0
M  V30 12974 C 1280.54 0.767722 2.90734 0
M  V30 12975 C 1282.09 0.735402 3.04238 0
M  V30 12976 C 1282.56 1.30602 4.38984 0
M  V30 12977 N 1284.06 1.26748 4.45521 0
M  V30 12978 C 1284.79 1.679 5.48267 0
M  V30 12979 N 1284.29 2.16728 6.58028 0
M  V30 12980 N 1286.08 1.59209 5.39082 0
M  V30 12981 H 1278.23 1.491 1.51271 0
M  V30 12982 H 1280.49 0.619497 0.717584 0
M  V30 12983 H 1280.2 1.81777 3.01081 0
M  V30 12984 H 1280.07 0.238119 3.76448 0
M  V30 12985 H 1282.46 -0.305852 2.93511 0
M  V30 12986 H 1282.54 1.30235 2.20165 0
M  V30 12987 H 1282.19 2.34614 4.50465 0
M  V30 12988 H 1282.12 0.714858 5.21725 0
M  V30 12989 H 1284.61 0.90991 3.66782 0
M  V30 12990 H 1284.92 2.46154 7.32549 0
M  V30 12991 H 1283.26 2.20714 6.59022 0
M  V30 12992 H 1286.46 1.20869 4.52226 0
M  V30 12993 H 1286.63 1.91602 6.19025 0
M  V30 12994 N 1280.03 -1.55556 0.252993 0
M  V30 12995 C 1281.45 -1.85032 -0.249011 0
M  V30 12996 C 1281.8 -1.17488 -1.57134 0
M  V30 12997 O 1280.92 -0.455387 -2.11554 0
M  V30 12998 C 1281.52 -3.35682 -0.458589 0
M  V30 12999 C 1280.08 -3.65362 -0.90485 0
M  V30 13000 C 1279.22 -2.77296 0.0144927 0
M  V30 13001 H 1282.17 -1.51412 0.475394 0
M  V30 13002 H 1282.19 -3.57591 -1.30034 0
M  V30 13003 H 1281.71 -3.84814 0.503981 0
M  V30 13004 H 1279.81 -3.21713 -1.87967 0
M  V30 13005 H 1279.92 -4.73074 -0.757492 0
M  V30 13006 H 1278.28 -2.49785 -0.497954 0
M  V30 13007 H 1279.07 -3.29236 0.972546 0
M  V30 13008 N 1281.51 0.0200419 -1.57587 0
M  V30 13009 C 1282.44 1.01715 -2.10181 0
M  V30 13010 C 1283.42 1.37136 -1.00636 0
M  V30 13011 O 1284.61 1.45862 -1.2821 0
M  V30 13012 C 1281.74 2.31531 -2.58865 0
M  V30 13013 C 1280.69 2.10327 -3.72755 0
M  V30 13014 C 1280.02 3.45981 -4.07678 0
M  V30 13015 C 1281.32 1.4821 -5.0083 0
M  V30 13016 H 1283.01 0.579307 -2.93742 0
M  V30 13017 H 1280.56 0.277211 -1.41307 0
M  V30 13018 H 1282.51 3.01623 -2.94281 0
M  V30 13019 H 1281.24 2.77392 -1.72399 0
M  V30 13020 H 1279.89 1.42665 -3.37701 0
M  V30 13021 H 1279.54 3.89508 -3.18265 0
M  V30 13022 H 1279.24 3.32616 -4.84397 0
M  V30 13023 H 1280.77 4.17421 -4.45637 0
M  V30 13024 H 1282.18 2.08232 -5.34146 0
M  V30 13025 H 1280.58 1.45393 -5.82221 0
M  V30 13026 H 1281.65 0.448942 -4.82817 0
M  V30 13027 N 1282.99 1.54862 0.292472 0
M  V30 13028 C 1284.24 1.74807 1.02813 0
M  V30 13029 C 1284.57 0.536935 1.8663 0
M  V30 13030 O 1283.84 -0.465854 1.88839 0
M  V30 13031 C 1284.13 3.04202 1.927 0
M  V30 13032 C 1283.98 4.35631 1.12006 0
M  V30 13033 C 1285.3 3.29514 2.91734 0
M  V30 13034 H 1282.42 0.636015 0.372362 0
M  V30 13035 H 1285.06 1.87583 0.302069 0
M  V30 13036 H 1283.21 2.9344 2.54608 0
M  V30 13037 H 1284.88 4.58323 0.52319 0
M  V30 13038 H 1283.13 4.31733 0.42298 0
M  V30 13039 H 1283.8 5.22454 1.78172 0
M  V30 13040 H 1286.27 3.39941 2.39957 0
M  V30 13041 H 1285.15 4.21352 3.51786 0
M  V30 13042 H 1285.41 2.48216 3.65843 0
M  V30 13043 N 1284.47 -0.556076 1.47464 0
M  V30 13044 C 1285.71 -1.31515 1.54375 0
M  V30 13045 C 1286.05 -1.93106 0.205837 0
M  V30 13046 O 1285.32 -1.77927 -0.785643 0
M  V30 13047 C 1285.61 -2.4244 2.66261 0
M  V30 13048 C 1285.46 -1.8571 4.09673 0
M  V30 13049 C 1286.78 -3.4436 2.74051 0
M  V30 13050 H 1283.9 -0.476817 0.561974 0
M  V30 13051 H 1286.54 -0.622157 1.79525 0
M  V30 13052 H 1284.69 -3.01551 2.44948 0
M  V30 13053 H 1286.36 -1.30851 4.42353 0
M  V30 13054 H 1284.6 -1.16379 4.17898 0
M  V30 13055 H 1285.27 -2.65904 4.83735 0
M  V30 13056 H 1287.75 -2.95169 2.93282 0
M  V30 13057 H 1286.63 -4.194 3.54111 0
M  V30 13058 H 1286.89 -4.03281 1.81155 0
M  V30 13059 N 1285.95 -1.35615 -0.802897 0
M  V30 13060 C 1287.19 -1.29285 -1.56247 0
M  V30 13061 C 1287.53 0.131474 -1.93754 0
M  V30 13062 O 1286.8 1.08172 -1.61645 0
M  V30 13063 C 1287.08 -2.20285 -2.84863 0
M  V30 13064 C 1286.94 -3.71351 -2.53808 0
M  V30 13065 C 1288.26 -2.10318 -3.86593 0
M  V30 13066 H 1285.38 -0.470972 -0.566882 0
M  V30 13067 H 1288.02 -1.66048 -0.923469 0
M  V30 13068 H 1286.17 -1.89063 -3.39393 0
M  V30 13069 H 1287.84 -4.13031 -2.05433 0
M  V30 13070 H 1286.08 -3.9145 -1.86947 0
M  V30 13071 H 1286.75 -4.30416 -3.4561 0
M  V30 13072 H 1289.23 -2.37772 -3.41473 0
M  V30 13073 H 1288.11 -2.76183 -4.74357 0
M  V30 13074 H 1288.37 -1.08627 -4.28547 0
M  V30 13075 N 1287.43 1.02549 -1.19673 0
M  V30 13076 C 1288.65 1.8016 -1.02748 0
M  V30 13077 C 1289.08 1.83372 0.419105 0
M  V30 13078 O 1288.43 1.26222 1.30144 0
M  V30 13079 C 1288.48 3.22907 -1.60509 0
M  V30 13080 O 1287.59 4.03823 -0.836702 0
M  V30 13081 H 1286.93 0.556027 -0.362946 0
M  V30 13082 H 1289.46 1.29047 -1.5877 0
M  V30 13083 H 1289.47 3.73646 -1.63868 0
M  V30 13084 H 1288.14 3.19885 -2.65794 0
M  V30 13085 H 1286.72 3.6245 -0.876626 0
M  V30 13086 N 1288.9 1.00119 1.21713 0
M  V30 13087 C 1289.87 0.563409 2.22167 0
M  V30 13088 C 1290.87 -0.35819 1.5676 0
M  V30 13089 O 1292.06 -0.149001 1.73562 0
M  V30 13090 C 1289.19 -0.179365 3.40428 0
M  V30 13091 H 1290.38 1.45189 2.62412 0
M  V30 13092 H 1287.93 0.789286 1.34907 0
M  V30 13093 H 1288.67 -1.08345 3.05666 0
M  V30 13094 H 1288.45 0.482471 3.8912 0
M  V30 13095 H 1289.94 -0.473537 4.14906 0
M  V30 13096 N 1290.38 -1.37203 0.775435 0
M  V30 13097 C 1291.34 -2.28566 0.170406 0
M  V30 13098 C 1292.34 -1.48195 -0.624085 0
M  V30 13099 O 1293.53 -1.68364 -0.447132 0
M  V30 13100 C 1290.67 -3.32186 -0.765829 0
M  V30 13101 H 1291.86 -2.8358 0.975824 0
M  V30 13102 H 1289.41 -1.46531 0.543895 0
M  V30 13103 H 1290.15 -2.82303 -1.59611 0
M  V30 13104 H 1289.93 -3.91598 -0.198251 0
M  V30 13105 H 1291.42 -4.0045 -1.18446 0
M  V30 13106 N 1291.86 -0.526279 -1.48553 0
M  V30 13107 C 1293.11 0.00914839 -2.02098 0
M  V30 13108 C 1293.43 1.35119 -1.40598 0
M  V30 13109 O 1292.7 1.87422 -0.570065 0
M  V30 13110 H 1291.28 0.00636935 -0.746973 0
M  V30 13111 H 1293.94 -0.689269 -1.82305 0
M  V30 13112 H 1293.04 0.120212 -3.11868 0
M  V30 13113 N 1293.34 1.5542 -0.261239 0
M  V30 13114 C 1294.3 2.20683 0.619011 0
M  V30 13115 C 1295.3 1.18042 1.09192 0
M  V30 13116 O 1296.49 1.43035 0.99432 0
M  V30 13117 C 1293.62 2.86179 1.85242 0
M  V30 13118 H 1294.82 2.99859 0.0493924 0
M  V30 13119 H 1292.37 1.56296 -0.0117687 0
M  V30 13120 H 1293.1 2.10978 2.4629 0
M  V30 13121 H 1292.89 3.61381 1.52138 0
M  V30 13122 H 1294.38 3.36081 2.47869 0
M  V30 13123 N 1294.82 -0.0116844 1.57596 0
M  V30 13124 C 1296.06 -0.698089 1.89234 0
M  V30 13125 C 1296.38 -1.75581 0.862016 0
M  V30 13126 O 1297.58 -2.49602 1.06822 0
M  V30 13127 C 1296.04 -1.29277 3.3588 0
M  V30 13128 C 1295.65 -0.27049 4.47183 0
M  V30 13129 C 1297.39 -1.95805 3.76644 0
M  V30 13130 C 1295.3 -0.874502 5.84899 0
M  V30 13131 H 1294.23 -0.264495 0.706087 0
M  V30 13132 H 1296.88 0.0469451 1.8344 0
M  V30 13133 H 1295.26 -2.08809 3.36474 0
M  V30 13134 H 1296.44 0.499381 4.58086 0
M  V30 13135 H 1294.75 0.293676 4.15363 0
M  V30 13136 H 1297.35 -2.41879 4.76863 0
M  V30 13137 H 1297.69 -2.78366 3.09545 0
M  V30 13138 H 1298.22 -1.23023 3.78299 0
M  V30 13139 H 1294.96 -0.0879263 6.55441 0
M  V30 13140 H 1294.48 -1.61381 5.77682 0
M  V30 13141 H 1296.16 -1.37665 6.32185 0
M  V30 13142 N 1296.29 -1.55015 -0.284256 0
M  V30 13143 C 1297.54 -1.76276 -1.01481 0
M  V30 13144 C 1297.89 -0.550981 -1.84342 0
M  V30 13145 O 1297.19 0.456483 -1.86083 0
M  V30 13146 C 1297.38 -3.00246 -1.93874 0
M  V30 13147 C 1297.21 -4.33365 -1.20104 0
M  V30 13148 C 1295.98 -4.9683 -0.921324 0
M  V30 13149 C 1298.18 -5.10822 -0.597078 0
M  V30 13150 N 1296.16 -6.13703 -0.155654 0
M  V30 13151 C 1297.53 -6.1999 0.0349821 0
M  V30 13152 C 1299.59 -4.95345 -0.503796 0
M  V30 13153 C 1298.29 -7.15365 0.751319 0
M  V30 13154 C 1300.32 -5.91065 0.198923 0
M  V30 13155 C 1299.68 -6.99614 0.819767 0
M  V30 13156 H 1295.78 -0.697434 -0.353709 0
M  V30 13157 H 1298.36 -1.92503 -0.291645 0
M  V30 13158 H 1296.53 -2.85414 -2.63426 0
M  V30 13159 H 1298.26 -3.09959 -2.60206 0
M  V30 13160 H 1295.02 -4.57517 -1.22375 0
M  V30 13161 H 1295.44 -6.76661 0.214183 0
M  V30 13162 H 1300.08 -4.11535 -0.969477 0
M  V30 13163 H 1297.8 -7.98704 1.22872 0
M  V30 13164 H 1301.39 -5.81167 0.271267 0
M  V30 13165 H 1300.27 -7.72407 1.35487 0
M  V30 13166 N 1297.77 0.548248 -1.47757 0
M  V30 13167 C 1299 1.335 -1.58722 0
M  V30 13168 C 1299.42 1.86549 -0.241034 0
M  V30 13169 O 1298.78 1.63447 0.784517 0
M  V30 13170 C 1298.83 2.47457 -2.62293 0
M  V30 13171 O 1297.93 3.49956 -2.18185 0
M  V30 13172 H 1297.27 0.396166 -0.532868 0
M  V30 13173 H 1299.8 0.66164 -1.93607 0
M  V30 13174 H 1299.81 2.93901 -2.82995 0
M  V30 13175 H 1298.49 2.08203 -3.60034 0
M  V30 13176 H 1297.06 3.09755 -2.0762 0
M  V30 13177 N 1299.25 1.36039 0.795694 0
M  V30 13178 C 1300.48 1.32866 1.58209 0
M  V30 13179 C 1300.89 -0.0935189 1.88969 0
M  V30 13180 O 1300.23 -1.05905 1.501 0
M  V30 13181 C 1300.29 2.07872 2.93308 0
M  V30 13182 C 1299.96 3.56999 2.85309 0
M  V30 13183 C 1300.95 4.51374 2.57987 0
M  V30 13184 C 1298.64 3.99798 3.04083 0
M  V30 13185 C 1300.63 5.86526 2.49533 0
M  V30 13186 C 1298.32 5.35042 2.95251 0
M  V30 13187 C 1299.32 6.28218 2.68013 0
M  V30 13188 O 1299.01 7.60979 2.59163 0
M  V30 13189 H 1298.74 0.457589 0.497583 0
M  V30 13190 H 1301.29 1.79637 0.995978 0
M  V30 13191 H 1299.52 1.55755 3.53945 0
M  V30 13192 H 1301.21 1.97638 3.54534 0
M  V30 13193 H 1301.98 4.19623 2.43191 0
M  V30 13194 H 1297.86 3.27652 3.24292 0
M  V30 13195 H 1301.4 6.59222 2.28193 0
M  V30 13196 H 1297.3 5.66404 3.09608 0
M  V30 13197 H 1298.06 7.7103 2.74691 0
M  V30 13198 N 1300.73 -1.01913 1.20215 0
M  V30 13199 C 1301.68 -2.104 0.948708 0
M  V30 13200 C 1302.65 -1.65665 -0.120139 0
M  V30 13201 O 1303.83 -1.90785 0.0240547 0
M  V30 13202 C 1300.97 -3.41398 0.504132 0
M  V30 13203 C 1300.08 -3.99625 1.64085 0
M  V30 13204 C 1299.22 -5.18673 1.14683 0
M  V30 13205 C 1298.26 -5.68977 2.2568 0
M  V30 13206 N 1297.39 -6.79289 1.77514 0
M  V30 13207 H 1302.23 -2.31415 1.87753 0
M  V30 13208 H 1299.77 -1.13487 0.935901 0
M  V30 13209 H 1301.73 -4.16578 0.22771 0
M  V30 13210 H 1300.36 -3.20463 -0.387689 0
M  V30 13211 H 1299.41 -3.21565 2.03225 0
M  V30 13212 H 1300.72 -4.32965 2.47674 0
M  V30 13213 H 1299.88 -6.01048 0.826223 0
M  V30 13214 H 1298.62 -4.86891 0.280797 0
M  V30 13215 H 1297.62 -4.85208 2.5856 0
M  V30 13216 H 1298.85 -6.02794 3.12755 0
M  V30 13217 H 1296.79 -6.49341 0.932338 0
M  V30 13218 H 1296.71 -7.11808 2.54686 0
M  V30 13219 H 1297.98 -7.65235 1.48446 0
M  V30 13220 N 1302.21 -1.00763 -1.2118 0
M  V30 13221 C 1303.12 -0.579646 -2.27326 0
M  V30 13222 C 1304.13 0.378592 -1.69831 0
M  V30 13223 O 1305.31 0.241772 -1.99944 0
M  V30 13224 C 1302.37 0.0843648 -3.46597 0
M  V30 13225 C 1301.43 -0.918685 -4.19355 0
M  V30 13226 C 1300.67 -0.286267 -5.32932 0
M  V30 13227 O 1300.89 0.916274 -5.62993 0
M  V30 13228 O 1299.82 -0.998513 -5.9356 0
M  V30 13229 H 1303.65 -1.46311 -2.66133 0
M  V30 13230 H 1301.24 -0.776641 -1.27627 0
M  V30 13231 H 1303.12 0.455636 -4.18929 0
M  V30 13232 H 1301.79 0.942166 -3.09685 0
M  V30 13233 H 1300.7 -1.34116 -3.49233 0
M  V30 13234 H 1302.03 -1.74616 -4.60185 0
M  V30 13235 N 1303.68 1.3679 -0.7827 0
M  V30 13236 C 1304.96 1.93639 -0.276278 0
M  V30 13237 C 1305.34 1.7153 1.23048 0
M  V30 13238 O 1304.69 1.07037 2.01879 0
M  V30 13239 C 1304.9 3.42672 -0.661586 0
M  V30 13240 C 1306.25 4.19786 -0.637538 0
M  V30 13241 O 1307.27 3.51082 -0.601645 0
M  V30 13242 O 1306.13 5.42323 -0.674408 0
M  V30 13243 H 1303.22 0.824307 -0.0666832 0
M  V30 13244 H 1305.77 1.46012 -0.864792 0
M  V30 13245 H 1304.54 3.52393 -1.70103 0
M  V30 13246 H 1304.17 3.97573 -0.0465987 0
M  V30 13247 N 1305.16 0.53415 1.48272 0
M  V30 13248 C 1306.41 0.00156948 2.021 0
M  V30 13249 C 1306.73 -1.34371 1.41313 0
M  V30 13250 O 1306 -1.87117 0.579996 0
M  V30 13251 H 1304.58 -0.00240789 0.746996 0
M  V30 13252 H 1307.24 0.698928 1.81937 0
M  V30 13253 H 1306.34 -0.103671 3.11928 0
M  V30 13254 N 1306.64 -1.55279 0.269478 0
M  V30 13255 C 1307.92 -1.91458 -0.400412 0
M  V30 13256 C 1308.3 -1.19306 -1.74153 0
M  V30 13257 O 1307.65 -0.318017 -2.26276 0
M  V30 13258 C 1307.86 -3.44698 -0.546258 0
M  V30 13259 C 1309.2 -4.16374 -0.831758 0
M  V30 13260 O 1310.23 -3.50561 -0.631279 0
M  V30 13261 O 1309.09 -5.32826 -1.21484 0
M  V30 13262 H 1306.18 -0.79766 -0.218328 0
M  V30 13263 H 1308.73 -1.66747 0.315214 0
M  V30 13264 H 1307.5 -3.89273 0.397784 0
M  V30 13265 H 1307.12 -3.75345 -1.31157 0
M  V30 13266 N 1308.12 0.00332656 -1.576 0
M  V30 13267 C 1309.37 0.688869 -1.90423 0
M  V30 13268 C 1309.69 1.73963 -0.869896 0
M  V30 13269 O 1308.95 1.95295 0.125777 0
M  V30 13270 C 1309.25 1.37237 -3.30001 0
M  V30 13271 C 1308.91 0.455132 -4.48597 0
M  V30 13272 C 1307.58 0.202577 -4.80773 0
M  V30 13273 C 1309.93 -0.176597 -5.20901 0
M  V30 13274 C 1307.26 -0.690055 -5.82628 0
M  V30 13275 C 1309.61 -1.05708 -6.23705 0
M  V30 13276 C 1308.27 -1.31885 -6.54341 0
M  V30 13277 H 1307.54 0.252075 -0.696806 0
M  V30 13278 H 1310.19 -0.0514867 -1.91431 0
M  V30 13279 H 1308.49 2.18669 -3.25102 0
M  V30 13280 H 1310.19 1.9088 -3.52656 0
M  V30 13281 H 1306.78 0.662142 -4.23454 0
M  V30 13282 H 1310.96 0.0055127 -4.963 0
M  V30 13283 H 1306.22 -0.900902 -6.04726 0
M  V30 13284 H 1310.39 -1.55296 -6.78864 0
M  V30 13285 H 1308.02 -2.01222 -7.33085 0
M  V30 13286 N 1309.6 1.55164 0.276031 0
M  V30 13287 C 1310.85 1.74833 1.0058 0
M  V30 13288 C 1311.16 0.555089 1.87558 0
M  V30 13289 O 1312.36 0.634127 2.63991 0
M  V30 13290 C 1310.82 3.09417 1.83818 0
M  V30 13291 C 1310.43 4.36299 1.01721 0
M  V30 13292 C 1312.17 3.38437 2.56244 0
M  V30 13293 C 1310.08 5.61923 1.8438 0
M  V30 13294 H 1309.01 0.651676 0.379254 0
M  V30 13295 H 1311.66 1.81626 0.26161 0
M  V30 13296 H 1310.04 2.96654 2.62321 0
M  V30 13297 H 1311.22 4.59969 0.276565 0
M  V30 13298 H 1309.53 4.144 0.407645 0
M  V30 13299 H 1312.13 4.29501 3.18485 0
M  V30 13300 H 1312.47 2.58432 3.26372 0
M  V30 13301 H 1313 3.52284 1.84773 0
M  V30 13302 H 1309.74 6.44667 1.18679 0
M  V30 13303 H 1309.26 5.424 2.56051 0
M  V30 13304 H 1310.94 6.0011 2.4182 0
M  V30 13305 N 1311.07 -0.540404 1.48045 0
M  V30 13306 C 1312.3 -1.31986 1.58944 0
M  V30 13307 C 1312.71 -1.87608 0.244889 0
M  V30 13308 O 1312.06 -1.66576 -0.774467 0
M  V30 13309 C 1312.12 -2.51547 2.56835 0
M  V30 13310 C 1311.78 -2.17089 4.02146 0
M  V30 13311 C 1312.78 -1.73379 4.90138 0
M  V30 13312 C 1310.46 -2.27932 4.47607 0
M  V30 13313 C 1312.46 -1.40964 6.21617 0
M  V30 13314 C 1310.14 -1.95129 5.7911 0
M  V30 13315 C 1311.14 -1.51715 6.65937 0
M  V30 13316 O 1310.83 -1.19337 7.94993 0
M  V30 13317 H 1310.56 -0.408028 0.538971 0
M  V30 13318 H 1313.12 -0.659748 1.94516 0
M  V30 13319 H 1311.35 -3.20505 2.16364 0
M  V30 13320 H 1313.04 -3.13617 2.57681 0
M  V30 13321 H 1313.8 -1.64481 4.56258 0
M  V30 13322 H 1309.68 -2.6068 3.8022 0
M  V30 13323 H 1313.22 -1.07005 6.89344 0
M  V30 13324 H 1309.12 -2.03664 6.12528 0
M  V30 13325 H 1309.89 -1.32824 8.07651 0
M  V30 13326 N 1312.55 -1.36459 -0.788468 0
M  V30 13327 C 1313.8 -1.30483 -1.54333 0
M  V30 13328 C 1314.12 0.115266 -1.94659 0
M  V30 13329 O 1313.39 1.05573 -1.65019 0
M  V30 13330 H 1311.97 -0.480004 -0.572368 0
M  V30 13331 H 1314.63 -1.70765 -0.939428 0
M  V30 13332 H 1313.73 -1.93284 -2.45046 0
M  V30 13333 N 1314.03 1.01274 -1.20754 0
M  V30 13334 C 1314.96 2.10029 -0.917628 0
M  V30 13335 C 1315.98 1.62516 0.0961411 0
M  V30 13336 O 1317.16 1.77986 -0.135371 0
M  V30 13337 C 1314.26 3.37037 -0.354891 0
M  V30 13338 C 1313.44 4.1367 -1.42113 0
M  V30 13339 C 1312.5 5.18974 -0.869023 0
M  V30 13340 O 1311.52 5.47671 -1.55063 0
M  V30 13341 N 1312.72 5.79619 0.319631 0
M  V30 13342 H 1315.49 2.35485 -1.85383 0
M  V30 13343 H 1313.05 1.17695 -1.11173 0
M  V30 13344 H 1315.04 4.0469 0.0286895 0
M  V30 13345 H 1313.61 3.088 0.485956 0
M  V30 13346 H 1312.83 3.40931 -1.97889 0
M  V30 13347 H 1314.12 4.61649 -2.13911 0
M  V30 13348 H 1313.52 5.58646 0.89059 0
M  V30 13349 H 1312.08 6.48603 0.644807 0
M  V30 13350 N 1315.51 1.01404 1.20644 0
M  V30 13351 C 1316.73 0.720839 1.9447 0
M  V30 13352 C 1317.16 -0.711711 1.74116 0
M  V30 13353 O 1316.52 -1.48938 1.03379 0
M  V30 13354 C 1316.57 1.05864 3.4471 0
M  V30 13355 O 1315.67 0.168901 4.12054 0
M  V30 13356 H 1315.01 0.267698 0.607646 0
M  V30 13357 H 1317.54 1.35672 1.53147 0
M  V30 13358 H 1317.55 1.00928 3.9532 0
M  V30 13359 H 1316.23 2.1024 3.58848 0
M  V30 13360 H 1314.8 0.275572 3.7188 0
M  V30 13361 N 1316.99 -1.36373 0.789944 0
M  V30 13362 C 1317.92 -2.32616 0.202944 0
M  V30 13363 C 1318.9 -1.56674 -0.662364 0
M  V30 13364 O 1320.08 -1.84826 -0.596078 0
M  V30 13365 C 1317.21 -3.4092 -0.662646 0
M  V30 13366 C 1316.17 -4.27877 0.102811 0
M  V30 13367 C 1315.49 -5.27352 -0.883407 0
M  V30 13368 C 1316.79 -5.0606 1.29231 0
M  V30 13369 H 1318.49 -2.81958 1.00699 0
M  V30 13370 H 1316.03 -1.35562 0.48568 0
M  V30 13371 H 1317.99 -4.07239 -1.08324 0
M  V30 13372 H 1316.71 -2.90147 -1.4994 0
M  V30 13373 H 1315.37 -3.63114 0.504389 0
M  V30 13374 H 1315.02 -4.72853 -1.71521 0
M  V30 13375 H 1314.72 -5.86398 -0.375669 0
M  V30 13376 H 1316.24 -5.96545 -1.30256 0
M  V30 13377 H 1317.66 -5.65417 0.947446 0
M  V30 13378 H 1316.05 -5.74521 1.73338 0
M  V30 13379 H 1317.12 -4.37671 2.08739 0
M  V30 13380 N 1318.47 -0.542005 -1.47987 0
M  V30 13381 C 1319.41 0.214151 -2.29804 0
M  V30 13382 C 1320.38 0.922625 -1.38119 0
M  V30 13383 O 1321.57 0.921301 -1.67083 0
M  V30 13384 C 1318.71 1.24768 -3.21756 0
M  V30 13385 C 1317.82 0.546824 -4.28525 0
M  V30 13386 C 1316.96 1.56432 -5.07644 0
M  V30 13387 C 1315.99 0.847598 -6.06203 0
M  V30 13388 N 1315.13 1.81121 -6.78336 0
M  V30 13389 H 1319.97 -0.489707 -2.93949 0
M  V30 13390 H 1317.51 -0.253331 -1.44902 0
M  V30 13391 H 1319.47 1.85933 -3.73477 0
M  V30 13392 H 1318.1 1.91976 -2.59509 0
M  V30 13393 H 1317.15 -0.179026 -3.79978 0
M  V30 13394 H 1318.46 -0.0153623 -4.98798 0
M  V30 13395 H 1317.61 2.24992 -5.63439 0
M  V30 13396 H 1316.35 2.16041 -4.37238 0
M  V30 13397 H 1315.36 0.147989 -5.49601 0
M  V30 13398 H 1316.58 0.257454 -6.78612 0
M  V30 13399 H 1314.53 2.39615 -6.10672 0
M  V30 13400 H 1314.45 1.30077 -7.44725 0
M  V30 13401 H 1315.71 2.48842 -7.38714 0
M  V30 13402 N 1319.94 1.55134 -0.277709 0
M  V30 13403 C 1320.87 2.256 0.602232 0
M  V30 13404 C 1321.85 1.24708 1.15681 0
M  V30 13405 O 1323.04 1.53433 1.19046 0
M  V30 13406 C 1320.17 2.97907 1.78519 0
M  V30 13407 C 1319.12 4.0575 1.36203 0
M  V30 13408 C 1318.45 4.65644 2.62829 0
M  V30 13409 C 1319.75 5.19801 0.510327 0
M  V30 13410 H 1321.44 2.99396 0.0145622 0
M  V30 13411 H 1318.99 1.43999 0.00556389 0
M  V30 13412 H 1320.94 3.45915 2.40668 0
M  V30 13413 H 1319.67 2.21649 2.39873 0
M  V30 13414 H 1318.33 3.58557 0.763726 0
M  V30 13415 H 1317.97 3.86053 3.22447 0
M  V30 13416 H 1317.67 5.38463 2.35227 0
M  V30 13417 H 1319.2 5.16403 3.25823 0
M  V30 13418 H 1320.61 5.63845 1.03689 0
M  V30 13419 H 1319.01 5.99197 0.329073 0
M  V30 13420 H 1320.08 4.82614 -0.470273 0
M  V30 13421 N 1321.42 0.00503138 1.57599 0
M  V30 13422 C 1322.35 -1.01302 2.05598 0
M  V30 13423 C 1323.37 -1.30388 0.974829 0
M  V30 13424 O 1324.56 -1.27275 1.25153 0
M  V30 13425 C 1321.66 -2.34654 2.44522 0
M  V30 13426 C 1320.83 -2.24436 3.7543 0
M  V30 13427 C 1319.89 -3.40517 4.01166 0
M  V30 13428 O 1318.91 -3.18479 4.71762 0
M  V30 13429 N 1320.12 -4.63532 3.49454 0
M  V30 13430 H 1322.88 -0.603656 2.93558 0
M  V30 13431 H 1320.44 -0.182248 1.60871 0
M  V30 13432 H 1322.43 -3.11093 2.5885 0
M  V30 13433 H 1321 -2.67315 1.62055 0
M  V30 13434 H 1320.22 -1.32875 3.71131 0
M  V30 13435 H 1321.51 -2.14786 4.61242 0
M  V30 13436 H 1320.91 -4.84334 2.92296 0
M  V30 13437 H 1319.47 -5.37221 3.69103 0
M  V30 13438 N 1322.9 -1.55308 -0.267798 0
M  V30 13439 C 1324.15 -1.77342 -0.99606 0
M  V30 13440 C 1324.5 -0.570502 -1.83747 0
M  V30 13441 O 1323.79 0.436721 -1.86556 0
M  V30 13442 C 1323.99 -3.02286 -1.90678 0
M  V30 13443 C 1323.82 -4.34614 -1.15501 0
M  V30 13444 C 1322.59 -4.97779 -0.868576 0
M  V30 13445 C 1324.78 -5.11427 -0.542865 0
M  V30 13446 N 1322.77 -6.13833 -0.0905541 0
M  V30 13447 C 1324.14 -6.19918 0.100738 0
M  V30 13448 C 1326.19 -4.95851 -0.45123 0
M  V30 13449 C 1324.9 -7.14528 0.827151 0
M  V30 13450 C 1326.92 -5.90821 0.261602 0
M  V30 13451 C 1326.28 -6.98705 0.893924 0
M  V30 13452 H 1322.38 -0.701146 -0.346292 0
M  V30 13453 H 1324.97 -1.92802 -0.271211 0
M  V30 13454 H 1323.14 -2.88192 -2.60384 0
M  V30 13455 H 1324.87 -3.12702 -2.56904 0
M  V30 13456 H 1321.62 -4.58789 -1.17515 0
M  V30 13457 H 1322.05 -6.76396 0.28594 0
M  V30 13458 H 1326.69 -4.1254 -0.925774 0
M  V30 13459 H 1324.41 -7.97356 1.31336 0
M  V30 13460 H 1327.99 -5.80847 0.332892 0
M  V30 13461 H 1326.87 -7.70927 1.43672 0
M  V30 13462 N 1324.38 0.532545 -1.4833 0
M  V30 13463 C 1325.63 1.28597 -1.55908 0
M  V30 13464 C 1325.95 1.93595 -0.233635 0
M  V30 13465 O 1325.22 1.81197 0.744605 0
M  V30 13466 H 1323.8 0.477619 -0.57436 0
M  V30 13467 H 1326.46 0.619922 -1.84778 0
M  V30 13468 H 1325.55 2.0666 -2.33877 0
M  V30 13469 N 1325.86 1.36875 0.78122 0
M  V30 13470 C 1327.1 1.31754 1.54171 0
M  V30 13471 C 1327.43 -0.100632 1.93939 0
M  V30 13472 O 1326.71 -1.05587 1.63345 0
M  V30 13473 C 1326.99 2.24789 2.81322 0
M  V30 13474 C 1326.85 3.75342 2.47868 0
M  V30 13475 C 1328.16 2.16442 3.83198 0
M  V30 13476 H 1325.28 0.479931 0.559317 0
M  V30 13477 H 1327.93 1.67497 0.896935 0
M  V30 13478 H 1326.08 1.94438 3.36342 0
M  V30 13479 H 1327.75 4.16247 1.98836 0
M  V30 13480 H 1325.99 3.94375 1.80696 0
M  V30 13481 H 1326.66 4.3586 3.38719 0
M  V30 13482 H 1329.14 2.43175 3.37647 0
M  V30 13483 H 1328.01 2.83695 4.69903 0
M  V30 13484 H 1328.27 1.15431 4.26765 0
M  V30 13485 N 1327.33 -1.00632 1.21289 0
M  V30 13486 C 1328.56 -1.77967 1.05524 0
M  V30 13487 C 1328.98 -1.84621 -0.395023 0
M  V30 13488 O 1328.33 -1.30664 -1.27409 0
M  V30 13489 C 1328.38 -3.21939 1.64432 0
M  V30 13490 O 1328.11 -3.15669 3.03784 0
M  V30 13491 C 1329.61 -4.1578 1.5376 0
M  V30 13492 H 1326.83 -0.559341 0.370646 0
M  V30 13493 H 1329.37 -1.26604 1.60598 0
M  V30 13494 H 1327.53 -3.70415 1.13453 0
M  V30 13495 H 1327.94 -4.06112 3.31924 0
M  V30 13496 H 1329.41 -5.14602 1.99722 0
M  V30 13497 H 1329.89 -4.36438 0.491811 0
M  V30 13498 H 1330.5 -3.73192 2.0398 0
M  V30 13499 N 1328.81 -1.02043 -1.20104 0
M  V30 13500 C 1330.06 -0.710566 -1.89197 0
M  V30 13501 C 1330.38 0.762471 -1.79475 0
M  V30 13502 O 1329.65 1.54871 -1.19965 0
M  V30 13503 H 1328.23 -0.259839 -0.700352 0
M  V30 13504 H 1330.89 -1.29285 -1.45848 0
M  V30 13505 H 1329.99 -0.997363 -2.95735 0
M  V30 13506 N 1330.29 1.35952 -0.797165 0
M  V30 13507 C 1331.7 1.81554 -0.435311 0
M  V30 13508 C 1332.05 1.66266 1.04164 0
M  V30 13509 O 1331.18 1.18796 1.80877 0
M  V30 13510 C 1331.77 3.29619 -0.783358 0
M  V30 13511 C 1330.33 3.73401 -0.47423 0
M  V30 13512 C 1329.48 2.58098 -1.01394 0
M  V30 13513 H 1332.43 1.24064 -0.989638 0
M  V30 13514 H 1332.45 3.80421 -0.0773381 0
M  V30 13515 H 1331.96 3.40715 -1.85836 0
M  V30 13516 H 1330.06 3.6786 0.592418 0
M  V30 13517 H 1330.18 4.68542 -1.00026 0
M  V30 13518 H 1328.54 2.50927 -0.436747 0
M  V30 13519 H 1329.32 2.71976 -2.09485 0
M  V30 13520 N 1331.77 0.549846 1.47697 0
M  V30 13521 C 1333.05 -0.0422793 1.95554 0
M  V30 13522 C 1333.43 -1.49303 1.49238 0
M  V30 13523 O 1332.77 -2.16598 0.727844 0
M  V30 13524 C 1332.98 0.0955552 3.48869 0
M  V30 13525 C 1334.33 -0.0535698 4.24566 0
M  V30 13526 O 1335.36 0.0227365 3.56193 0
M  V30 13527 O 1334.21 -0.21645 5.46071 0
M  V30 13528 H 1331.31 -0.0682465 0.824179 0
M  V30 13529 H 1333.85 0.615849 1.58131 0
M  V30 13530 H 1332.63 1.10536 3.75363 0
M  V30 13531 H 1332.25 -0.600522 3.93039 0
M  V30 13532 N 1333.25 -1.54984 0.285932 0
M  V30 13533 C 1334.49 -1.99436 -0.32709 0
M  V30 13534 C 1334.82 -1.17582 -1.55562 0
M  V30 13535 O 1334.09 -0.268002 -1.94058 0
M  V30 13536 H 1332.67 -0.736662 -0.123846 0
M  V30 13537 H 1335.33 -1.90881 0.393774 0
M  V30 13538 H 1334.42 -3.0609 -0.609523 0
M  V30 13539 N 1334.72 -0.0133892 -1.57594 0
M  V30 13540 C 1336.14 0.342848 -1.55874 0
M  V30 13541 C 1336.34 1.73928 -1.01742 0
M  V30 13542 O 1335.4 2.43798 -0.657158 0
M  V30 13543 C 1336.71 0.205831 -2.99995 0
M  V30 13544 C 1338.26 0.279774 -3.11747 0
M  V30 13545 C 1338.73 0.171729 -4.57678 0
M  V30 13546 N 1340.22 0.22921 -4.62633 0
M  V30 13547 C 1340.96 0.169153 -5.7315 0
M  V30 13548 N 1340.45 0.0589166 -6.92775 0
M  V30 13549 N 1342.25 0.221995 -5.61661 0
M  V30 13550 H 1334.4 -0.926727 -1.91117 0
M  V30 13551 H 1336.66 -0.356466 -0.878428 0
M  V30 13552 H 1336.37 -0.755482 -3.4349 0
M  V30 13553 H 1336.24 0.982476 -3.6418 0
M  V30 13554 H 1338.63 1.23154 -2.68174 0
M  V30 13555 H 1338.71 -0.526974 -2.50313 0
M  V30 13556 H 1338.35 -0.776547 -5.01928 0
M  V30 13557 H 1338.28 0.997138 -5.17073 0
M  V30 13558 H 1340.77 0.315196 -3.76583 0
M  V30 13559 H 1341.09 0.0193526 -7.72798 0
M  V30 13560 H 1339.43 0.0243543 -6.94996 0
M  V30 13561 H 1342.62 0.306406 -4.67096 0
M  V30 13562 H 1342.8 0.171727 -6.47772 0
M  V30 13563 N 1336.2 1.55448 0.259558 0
M  V30 13564 C 1337.45 1.7589 0.987201 0
M  V30 13565 C 1337.76 0.574951 1.86959 0
M  V30 13566 O 1338.97 0.662091 2.63303 0
M  V30 13567 C 1337.43 3.11349 1.80526 0
M  V30 13568 C 1337.03 4.37353 0.970882 0
M  V30 13569 C 1338.78 3.41136 2.5264 0
M  V30 13570 C 1336.69 5.63847 1.7841 0
M  V30 13571 H 1335.62 0.655662 0.372321 0
M  V30 13572 H 1338.27 1.81893 0.242332 0
M  V30 13573 H 1336.65 2.9942 2.5916 0
M  V30 13574 H 1337.82 4.60237 0.227763 0
M  V30 13575 H 1336.14 4.14809 0.363669 0
M  V30 13576 H 1338.73 4.32855 3.13912 0
M  V30 13577 H 1339.08 2.61879 3.23612 0
M  V30 13578 H 1339.61 3.54224 1.81026 0
M  V30 13579 H 1336.35 6.4589 1.11834 0
M  V30 13580 H 1335.87 5.45086 2.50283 0
M  V30 13581 H 1337.55 6.02641 2.35441 0
M  V30 13582 N 1337.68 -0.524672 1.4861 0
M  V30 13583 C 1338.61 -1.64481 1.59621 0
M  V30 13584 C 1339.63 -1.55557 0.480181 0
M  V30 13585 O 1340.81 -1.61921 0.751254 0
M  V30 13586 C 1337.91 -3.03158 1.51487 0
M  V30 13587 C 1337.09 -3.37509 2.78221 0
M  V30 13588 C 1336.15 -4.5549 2.63467 0
M  V30 13589 O 1335.17 -4.58448 3.37364 0
M  V30 13590 N 1336.37 -5.53986 1.73437 0
M  V30 13591 H 1339.14 -1.5547 2.56221 0
M  V30 13592 H 1336.7 -0.712059 1.45401 0
M  V30 13593 H 1338.69 -3.79969 1.39305 0
M  V30 13594 H 1337.26 -3.06219 0.628406 0
M  V30 13595 H 1336.48 -2.49824 3.04929 0
M  V30 13596 H 1337.77 -3.57246 3.62288 0
M  V30 13597 H 1337.17 -5.54378 1.12612 0
M  V30 13598 H 1335.73 -6.29993 1.6719 0
M  V30 13599 N 1339.16 -1.37287 -0.77395 0
M  V30 13600 C 1340.57 -1.28954 -1.3501 0
M  V30 13601 C 1340.92 0.0638301 -1.96096 0
M  V30 13602 O 1340.05 0.965624 -1.93661 0
M  V30 13603 C 1340.64 -2.3352 -2.45467 0
M  V30 13604 C 1339.2 -2.28828 -2.98856 0
M  V30 13605 C 1338.35 -2.17468 -1.72055 0
M  V30 13606 H 1341.3 -1.47941 -0.57438 0
M  V30 13607 H 1341.32 -1.98058 -3.24889 0
M  V30 13608 H 1340.83 -3.32009 -2.00977 0
M  V30 13609 H 1338.93 -1.33855 -3.47726 0
M  V30 13610 H 1339.04 -3.22152 -3.54619 0
M  V30 13611 H 1337.41 -1.63977 -1.94894 0
M  V30 13612 H 1338.19 -3.17868 -1.29672 0
M  V30 13613 N 1340.64 0.999871 -1.21821 0
M  V30 13614 C 1341.57 2.10708 -1.00621 0
M  V30 13615 C 1342.55 1.69954 0.0705417 0
M  V30 13616 O 1343.73 1.9399 -0.0903042 0
M  V30 13617 C 1340.86 3.42496 -0.575646 0
M  V30 13618 C 1339.82 3.97068 -1.59754 0
M  V30 13619 C 1339.14 5.24822 -1.02304 0
M  V30 13620 C 1340.44 4.28545 -2.98574 0
M  V30 13621 H 1342.14 2.28701 -1.93226 0
M  V30 13622 H 1339.68 1.09903 -0.930443 0
M  V30 13623 H 1341.64 4.19357 -0.414481 0
M  V30 13624 H 1340.36 3.2431 0.386059 0
M  V30 13625 H 1339.02 3.22332 -1.74636 0
M  V30 13626 H 1338.67 5.02972 -0.0529016 0
M  V30 13627 H 1338.37 5.62299 -1.70567 0
M  V30 13628 H 1339.89 6.04322 -0.873312 0
M  V30 13629 H 1341.3 4.96229 -2.87106 0
M  V30 13630 H 1339.7 4.77178 -3.63897 0
M  V30 13631 H 1340.77 3.36607 -3.49032 0
M  V30 13632 N 1342.11 1.02678 1.19562 0
M  V30 13633 C 1343.36 0.72059 1.88817 0
M  V30 13634 C 1343.68 -0.752942 1.79877 0
M  V30 13635 O 1342.95 -1.54233 1.20785 0
M  V30 13636 H 1341.53 0.26355 0.698964 0
M  V30 13637 H 1344.2 1.30056 1.4516 0
M  V30 13638 H 1343.29 1.01303 2.95202 0
M  V30 13639 N 1343.59 -1.35528 0.804364 0
M  V30 13640 C 1344.52 -2.28562 0.170893 0
M  V30 13641 C 1345.54 -1.50178 -0.628526 0
M  V30 13642 O 1346.73 -1.72438 -0.461252 0
M  V30 13643 C 1343.83 -3.29792 -0.780434 0
M  V30 13644 C 1343 -4.37391 -0.0278619 0
M  V30 13645 C 1342.06 -5.18492 -0.897341 0
M  V30 13646 O 1341.08 -5.68128 -0.349098 0
M  V30 13647 N 1342.29 -5.36385 -2.21971 0
M  V30 13648 H 1345.05 -2.83565 0.970108 0
M  V30 13649 H 1342.61 -1.47854 0.659617 0
M  V30 13650 H 1344.6 -3.80939 -1.36628 0
M  V30 13651 H 1343.17 -2.7532 -1.48046 0
M  V30 13652 H 1342.39 -3.87208 0.739178 0
M  V30 13653 H 1343.68 -5.06426 0.490889 0
M  V30 13654 H 1343.08 -4.97699 -2.6891 0
M  V30 13655 H 1341.64 -5.90721 -2.75485 0
M  V30 13656 N 1345.07 -0.557671 -1.47404 0
M  V30 13657 C 1346.32 -0.0338384 -2.02772 0
M  V30 13658 C 1346.65 1.31278 -1.43107 0
M  V30 13659 O 1345.93 1.85436 -0.58682 0
M  V30 13660 C 1346.21 0.0587427 -3.60052 0
M  V30 13661 C 1346.06 -1.315 -4.30148 0
M  V30 13662 C 1347.38 0.771942 -4.33277 0
M  V30 13663 H 1344.5 -0.0137711 -0.736871 0
M  V30 13664 H 1347.14 -0.720049 -1.75827 0
M  V30 13665 H 1345.29 0.643154 -3.83139 0
M  V30 13666 H 1346.96 -1.94265 -4.184 0
M  V30 13667 H 1345.21 -1.88956 -3.90484 0
M  V30 13668 H 1345.88 -1.20294 -5.38733 0
M  V30 13669 H 1348.35 0.275729 -4.15185 0
M  V30 13670 H 1347.23 0.805683 -5.42955 0
M  V30 13671 H 1347.49 1.82816 -4.0253 0
M  V30 13672 N 1346.55 1.54831 -0.294147 0
M  V30 13673 C 1347.8 2.00001 0.317135 0
M  V30 13674 C 1348.12 1.18256 1.54421 0
M  V30 13675 O 1347.38 0.245035 1.9416 0
M  V30 13676 C 1347.68 3.4997 0.72495 0
M  V30 13677 C 1347.34 4.49126 -0.399616 0
M  V30 13678 C 1346.01 4.75958 -0.708354 0
M  V30 13679 C 1348.36 5.08208 -1.15644 0
M  V30 13680 C 1345.69 5.59137 -1.77716 0
M  V30 13681 C 1348.04 5.9255 -2.21512 0
M  V30 13682 C 1346.7 6.17695 -2.52999 0
M  V30 13683 H 1345.97 0.731856 0.116048 0
M  V30 13684 H 1348.62 1.87019 -0.41182 0
M  V30 13685 H 1346.92 3.60526 1.53388 0
M  V30 13686 H 1348.62 3.82341 1.20898 0
M  V30 13687 H 1345.21 4.28341 -0.148877 0
M  V30 13688 H 1349.4 4.87486 -0.931178 0
M  V30 13689 H 1344.65 5.76859 -2.02592 0
M  V30 13690 H 1348.83 6.37359 -2.80617 0
M  V30 13691 H 1346.45 6.81939 -3.35951 0
M  V30 13692 N 1348.03 0.0217466 1.57585 0
M  V30 13693 C 1349.44 -0.51811 1.79367 0
M  V30 13694 C 1349.79 -1.72688 0.931313 0
M  V30 13695 O 1348.91 -2.15949 0.139687 0
M  V30 13696 C 1349.51 -0.946711 3.25304 0
M  V30 13697 C 1348.07 -1.43173 3.48107 0
M  V30 13698 C 1347.22 -0.392996 2.74501 0
M  V30 13699 H 1350.17 0.247822 1.56753 0
M  V30 13700 H 1350.19 -1.81152 3.34611 0
M  V30 13701 H 1349.7 -0.0667536 3.88043 0
M  V30 13702 H 1347.8 -2.33186 2.90612 0
M  V30 13703 H 1347.91 -1.44419 4.56815 0
M  V30 13704 H 1346.28 -0.859471 2.39761 0
M  V30 13705 H 1347.06 0.478368 3.39951 0
M  V30 13706 N 1349.51 -1.55583 -0.251311 0
M  V30 13707 C 1350.75 -1.76411 -0.977859 0
M  V30 13708 C 1351.07 -0.584857 -1.86651 0
M  V30 13709 O 1352.27 -0.676046 -2.62948 0
M  V30 13710 C 1350.73 -3.12302 -1.78872 0
M  V30 13711 C 1350.34 -4.37862 -0.947674 0
M  V30 13712 C 1352.08 -3.42471 -2.50827 0
M  V30 13713 C 1349.99 -5.64786 -1.75417 0
M  V30 13714 H 1348.92 -0.657628 -0.368839 0
M  V30 13715 H 1351.57 -1.82019 -0.232682 0
M  V30 13716 H 1349.95 -3.0079 -2.57569 0
M  V30 13717 H 1351.13 -4.60351 -0.203352 0
M  V30 13718 H 1349.44 -4.14996 -0.341666 0
M  V30 13719 H 1352.04 -4.34514 -3.11612 0
M  V30 13720 H 1352.38 -2.63592 -3.22219 0
M  V30 13721 H 1352.91 -3.55179 -1.79145 0
M  V30 13722 H 1349.65 -6.46474 -1.08407 0
M  V30 13723 H 1349.17 -5.46405 -2.47389 0
M  V30 13724 H 1350.85 -6.03881 -2.32242 0
M  V30 13725 N 1350.98 0.516783 -1.48886 0
M  V30 13726 C 1352.26 1.27808 -1.48069 0
M  V30 13727 C 1352.64 2.10154 -0.19963 0
M  V30 13728 O 1351.99 2.13342 0.818386 0
M  V30 13729 C 1352.2 2.14828 -2.75045 0
M  V30 13730 C 1353.55 2.74536 -3.23906 0
M  V30 13731 O 1354.57 2.25107 -2.76053 0
M  V30 13732 O 1353.43 3.6448 -4.07206 0
M  V30 13733 H 1350.52 0.577535 -0.591931 0
M  V30 13734 H 1353.07 0.532351 -1.61134 0
M  V30 13735 H 1351.84 1.53852 -3.59785 0
M  V30 13736 H 1351.46 2.96624 -2.64764 0
M  V30 13737 N 1352.46 1.37696 0.766659 0
M  V30 13738 C 1353.71 1.32507 1.52069 0
M  V30 13739 C 1354.02 -0.0864967 1.95409 0
M  V30 13740 O 1355.23 -0.260877 2.70244 0
M  V30 13741 C 1353.69 2.32614 2.74625 0
M  V30 13742 C 1353.29 3.79325 2.38363 0
M  V30 13743 C 1355.04 2.36445 3.52554 0
M  V30 13744 C 1352.94 4.7115 3.57451 0
M  V30 13745 H 1351.87 0.492491 0.570937 0
M  V30 13746 H 1354.53 1.63183 0.839268 0
M  V30 13747 H 1352.91 1.94963 3.44682 0
M  V30 13748 H 1354.08 4.25841 1.76056 0
M  V30 13749 H 1352.4 3.78488 1.73597 0
M  V30 13750 H 1354.99 3.02252 4.41076 0
M  V30 13751 H 1355.34 1.37953 3.92778 0
M  V30 13752 H 1355.87 2.72829 2.89498 0
M  V30 13753 H 1352.61 5.70789 3.22304 0
M  V30 13754 H 1352.13 4.29335 4.18846 0
M  V30 13755 H 1353.81 4.88532 4.242 0
M  V30 13756 N 1353.94 -0.993397 1.22349 0
M  V30 13757 C 1355.19 -1.72945 1.04568 0
M  V30 13758 C 1355.51 -1.90419 -0.420178 0
M  V30 13759 O 1354.78 -1.46348 -1.30227 0
M  V30 13760 H 1353.36 -0.640777 0.383945 0
M  V30 13761 H 1356.02 -1.19647 1.53853 0
M  V30 13762 H 1355.12 -2.72411 1.52311 0
M  V30 13763 N 1355.42 -1.03311 -1.19015 0
M  V30 13764 C 1356.83 -0.761079 -1.70483 0
M  V30 13765 C 1357.18 0.718851 -1.82557 0
M  V30 13766 O 1356.3 1.56006 -1.4997 0
M  V30 13767 C 1356.9 -1.37492 -3.09647 0
M  V30 13768 C 1355.46 -1.15138 -3.58358 0
M  V30 13769 C 1354.61 -1.47034 -2.35109 0
M  V30 13770 H 1357.56 -1.2005 -1.03797 0
M  V30 13771 H 1357.58 -0.774115 -3.72542 0
M  V30 13772 H 1357.09 -2.45203 -3.00828 0
M  V30 13773 H 1355.19 -0.0926822 -3.72485 0
M  V30 13774 H 1355.3 -1.84307 -4.4223 0
M  V30 13775 H 1353.67 -0.889794 -2.38652 0
M  V30 13776 H 1354.45 -2.55837 -2.28916 0
M  V30 13777 N 1356.9 1.35099 -0.81154 0
M  V30 13778 C 1357.83 2.28468 -0.183012 0
M  V30 13779 C 1358.84 1.50509 0.620553 0
M  V30 13780 O 1360.03 1.7268 0.4521 0
M  V30 13781 C 1357.13 3.30201 0.762933 0
M  V30 13782 C 1356.3 4.374 0.00466561 0
M  V30 13783 C 1355.36 5.18961 0.869832 0
M  V30 13784 O 1354.39 5.68306 0.318964 0
M  V30 13785 N 1355.59 5.37555 2.19123 0
M  V30 13786 H 1358.35 2.83046 -0.985132 0
M  V30 13787 H 1355.92 1.47502 -0.667449 0
M  V30 13788 H 1357.91 3.81659 1.34606 0
M  V30 13789 H 1356.48 2.76101 1.46584 0
M  V30 13790 H 1355.7 3.8681 -0.759702 0
M  V30 13791 H 1356.99 5.06159 -0.517739 0
M  V30 13792 H 1356.38 4.99118 2.66266 0
M  V30 13793 H 1354.94 5.92174 2.72348 0
M  V30 13794 N 1358.37 0.56548 1.47106 0
M  V30 13795 C 1359.78 0.134289 1.86216 0
M  V30 13796 C 1360.14 -1.29815 1.47114 0
M  V30 13797 O 1359.26 -1.97787 0.878017 0
M  V30 13798 C 1359.86 0.236931 3.37971 0
M  V30 13799 C 1358.41 -0.139275 3.76142 0
M  V30 13800 C 1357.56 0.580743 2.71151 0
M  V30 13801 H 1360.51 0.774723 1.38505 0
M  V30 13802 H 1360.53 -0.542301 3.76616 0
M  V30 13803 H 1360.05 1.27958 3.66399 0
M  V30 13804 H 1358.15 -1.18272 3.53331 0
M  V30 13805 H 1358.26 0.225045 4.78571 0
M  V30 13806 H 1356.62 0.0228963 2.5469 0
M  V30 13807 H 1357.41 1.62471 3.0242 0
M  V30 13808 N 1359.85 -1.54672 0.302354 0
M  V30 13809 C 1360.82 -2.22246 -0.560283 0
M  V30 13810 C 1361.82 -1.20895 -1.06023 0
M  V30 13811 O 1363.01 -1.45621 -0.956047 0
M  V30 13812 C 1360.14 -2.9099 -1.77589 0
M  V30 13813 H 1361.33 -2.99885 0.0301274 0
M  V30 13814 H 1358.88 -1.56209 0.0532036 0
M  V30 13815 H 1359.62 -2.17433 -2.4061 0
M  V30 13816 H 1359.4 -3.65288 -1.42503 0
M  V30 13817 H 1360.89 -3.42535 -2.38871 0
M  V30 13818 N 1361.33 -0.0301034 -1.57571 0
M  V30 13819 C 1362.58 0.643491 -1.92953 0
M  V30 13820 C 1362.93 1.69679 -0.907009 0
M  V30 13821 O 1362.22 1.91446 0.0768136 0
M  V30 13822 C 1362.42 1.30206 -3.32838 0
M  V30 13823 C 1362.25 0.314074 -4.48602 0
M  V30 13824 C 1361.02 -0.0864138 -5.05226 0
M  V30 13825 C 1363.22 -0.432028 -5.12482 0
M  V30 13826 N 1361.2 -1.06947 -6.04513 0
M  V30 13827 C 1362.57 -1.26881 -6.06878 0
M  V30 13828 C 1364.62 -0.492623 -4.95457 0
M  V30 13829 C 1363.33 -2.16071 -6.8608 0
M  V30 13830 C 1365.35 -1.37187 -5.75268 0
M  V30 13831 C 1364.71 -2.19642 -6.69281 0
M  V30 13832 H 1360.81 0.207753 -0.753898 0
M  V30 13833 H 1363.4 -0.0975084 -1.94456 0
M  V30 13834 H 1361.57 2.0132 -3.32152 0
M  V30 13835 H 1363.3 1.93276 -3.55565 0
M  V30 13836 H 1360.06 0.288233 -4.72722 0
M  V30 13837 H 1360.48 -1.55726 -6.58846 0
M  V30 13838 H 1365.12 0.130615 -4.22598 0
M  V30 13839 H 1362.84 -2.79449 -7.58244 0
M  V30 13840 H 1366.43 -1.42306 -5.64128 0
M  V30 13841 H 1365.31 -2.86576 -7.29962 0
M  V30 13842 N 1362.81 1.55714 0.243056 0
M  V30 13843 C 1364.22 1.48224 0.591754 0
M  V30 13844 C 1364.42 0.72105 1.88157 0
M  V30 13845 O 1363.48 0.251966 2.5124 0
M  V30 13846 C 1364.79 2.92655 0.690918 0
M  V30 13847 C 1366.34 3.03048 0.782988 0
M  V30 13848 C 1366.82 4.48794 0.913682 0
M  V30 13849 N 1368.31 4.52748 0.978454 0
M  V30 13850 C 1369.04 5.62771 1.09891 0
M  V30 13851 N 1368.54 6.82596 1.18467 0
M  V30 13852 N 1370.33 5.50576 1.13237 0
M  V30 13853 H 1362.48 2.03642 -0.603614 0
M  V30 13854 H 1364.75 0.924702 -0.208878 0
M  V30 13855 H 1364.45 3.51203 -0.186871 0
M  V30 13856 H 1364.33 3.43357 1.5616 0
M  V30 13857 H 1366.71 2.44578 1.65123 0
M  V30 13858 H 1366.79 2.55551 -0.112921 0
M  V30 13859 H 1366.44 5.07875 0.0499835 0
M  V30 13860 H 1366.37 4.93976 1.82469 0
M  V30 13861 H 1368.86 3.66445 0.92337 0
M  V30 13862 H 1369.17 7.62197 1.27576 0
M  V30 13863 H 1367.52 6.85349 1.15418 0
M  V30 13864 H 1370.71 4.55897 1.06188 0
M  V30 13865 H 1370.88 6.36358 1.2228 0
M  V30 13866 N 1364.29 -0.50888 1.49158 0
M  V30 13867 C 1365.23 -1.63216 1.6572 0
M  V30 13868 C 1366.23 -1.61117 0.523236 0
M  V30 13869 O 1367.43 -1.6572 0.702629 0
M  V30 13870 H 1363.81 -0.540909 0.522419 0
M  V30 13871 H 1365.78 -1.46397 2.6002 0
M  V30 13872 C 1364.53 -3.01393 1.73372 0
M  V30 13873 H 1363.85 -3.03711 2.6 0
M  V30 13874 H 1365.29 -3.79547 1.88998 0
M  V30 13875 C 1363.75 -3.33509 0.47683 0
M  V30 13876 O 1364.28 -3.99694 -0.400986 0
M  V30 13877 N 1362.49 -2.88579 0.342145 0
M  V30 13878 H 1362.03 -2.34894 1.05747 0
M  V30 13879 H 1361.99 -3.10435 -0.497757 0
M  V30 13880 N 1365.76 -1.381 -0.759346 0
M  V30 13881 C 1366.69 -1.37578 -1.88665 0
M  V30 13882 C 1367.68 -0.242529 -1.68362 0
M  V30 13883 O 1368.86 -0.444751 -1.89039 0
M  V30 13884 C 1365.99 -1.19437 -3.26117 0
M  V30 13885 C 1364.94 -2.29905 -3.61009 0
M  V30 13886 C 1364.27 -1.96874 -4.97136 0
M  V30 13887 C 1365.57 -3.72143 -3.66479 0
M  V30 13888 H 1367.26 -2.31912 -1.89359 0
M  V30 13889 H 1364.81 -1.11632 -0.909631 0
M  V30 13890 H 1366.76 -1.17698 -4.0463 0
M  V30 13891 H 1365.49 -0.21562 -3.25887 0
M  V30 13892 H 1364.15 -2.3082 -2.84812 0
M  V30 13893 H 1363.79 -0.974979 -4.9346 0
M  V30 13894 H 1363.49 -2.70855 -5.21451 0
M  V30 13895 H 1365.02 -1.96744 -5.78035 0
M  V30 13896 H 1366.43 -3.73291 -4.35117 0
M  V30 13897 H 1364.83 -4.45282 -4.02299 0
M  V30 13898 H 1365.9 -4.04874 -2.66843 0
M  V30 13899 N 1367.24 0.986894 -1.22875 0
M  V30 13900 C 1368.66 1.25185 -0.989997 0
M  V30 13901 C 1368.86 1.99057 0.31282 0
M  V30 13902 O 1367.91 2.30361 1.03392 0
M  V30 13903 C 1369.23 2.05775 -2.19265 0
M  V30 13904 C 1370.78 2.18938 -2.23686 0
M  V30 13905 C 1371.25 3.02917 -3.43519 0
M  V30 13906 N 1372.74 3.10503 -3.43718 0
M  V30 13907 C 1373.48 3.75789 -4.33094 0
M  V30 13908 N 1372.97 4.42952 -5.32696 0
M  V30 13909 N 1374.77 3.72611 -4.20854 0
M  V30 13910 H 1366.92 0.491816 -2.06628 0
M  V30 13911 H 1369.18 0.279856 -0.905751 0
M  V30 13912 H 1368.89 1.58864 -3.13776 0
M  V30 13913 H 1368.76 3.06529 -2.19818 0
M  V30 13914 H 1371.15 2.65061 -1.29718 0
M  V30 13915 H 1371.23 1.17595 -2.27168 0
M  V30 13916 H 1370.87 2.57493 -4.3779 0
M  V30 13917 H 1370.8 4.04415 -3.37277 0
M  V30 13918 H 1373.29 2.62709 -2.71647 0
M  V30 13919 H 1373.61 4.90527 -5.97162 0
M  V30 13920 H 1371.95 4.41681 -5.36603 0
M  V30 13921 H 1375.14 3.19305 -3.42289 0
M  V30 13922 H 1375.31 4.2321 -4.90711 0
M  V30 13923 N 1368.72 1.0394 1.18466 0
M  V30 13924 C 1369.97 0.742042 1.88414 0
M  V30 13925 C 1370.3 -0.730138 1.80275 0
M  V30 13926 O 1369.55 -1.54844 1.19674 0
M  V30 13927 C 1369.85 1.15198 3.38326 0
M  V30 13928 C 1369.52 2.62422 3.66668 0
M  V30 13929 C 1368.18 3.02643 3.74113 0
M  V30 13930 C 1370.53 3.5762 3.79153 0
M  V30 13931 C 1367.86 4.36953 3.91522 0
M  V30 13932 C 1370.21 4.91647 3.98077 0
M  V30 13933 C 1368.87 5.31541 4.03758 0
M  V30 13934 H 1368.14 0.271532 0.689457 0
M  V30 13935 H 1370.79 1.30419 1.40225 0
M  V30 13936 H 1369.1 0.508607 3.88485 0
M  V30 13937 H 1370.79 0.899269 3.90787 0
M  V30 13938 H 1367.38 2.30268 3.61489 0
M  V30 13939 H 1371.57 3.27693 3.72735 0
M  V30 13940 H 1366.82 4.67382 3.94163 0
M  V30 13941 H 1371 5.65318 4.0668 0
M  V30 13942 H 1368.62 6.35622 4.16999 0
M  V30 13943 N 1370.2 -1.34667 0.818693 0
M  V30 13944 C 1371.61 -1.80839 0.46414 0
M  V30 13945 C 1371.96 -1.67902 -1.01506 0
M  V30 13946 O 1371.09 -1.21658 -1.78964 0
M  V30 13947 C 1371.68 -3.28331 0.835698 0
M  V30 13948 C 1370.24 -3.72599 0.533575 0
M  V30 13949 C 1369.39 -2.56452 1.05487 0
M  V30 13950 H 1372.34 -1.22474 1.00925 0
M  V30 13951 H 1372.36 -3.8025 0.13785 0
M  V30 13952 H 1371.87 -3.37715 1.91233 0
M  V30 13953 H 1369.97 -3.68756 -0.533819 0
M  V30 13954 H 1370.08 -4.66891 1.07468 0
M  V30 13955 H 1368.45 -2.50201 0.476612 0
M  V30 13956 H 1369.23 -2.68608 2.13786 0
M  V30 13957 N 1371.68 -0.573274 -1.46804 0
M  V30 13958 C 1372.61 0.153316 -2.32996 0
M  V30 13959 C 1373.59 0.893013 -1.44773 0
M  V30 13960 O 1374.77 0.870329 -1.73606 0
M  V30 13961 C 1371.9 1.1736 -3.2687 0
M  V30 13962 C 1370.86 0.549347 -4.2446 0
M  V30 13963 C 1370.18 1.67542 -5.07773 0
M  V30 13964 C 1371.48 -0.50736 -5.1983 0
M  V30 13965 H 1373.18 -0.566305 -2.93995 0
M  V30 13966 H 1370.72 -0.273785 -1.41373 0
M  V30 13967 H 1372.68 1.6902 -3.86019 0
M  V30 13968 H 1371.4 1.92337 -2.63958 0
M  V30 13969 H 1370.06 0.0539142 -3.6656 0
M  V30 13970 H 1369.71 2.41463 -4.41253 0
M  V30 13971 H 1369.41 1.26343 -5.73856 0
M  V30 13972 H 1370.93 2.19496 -5.69784 0
M  V30 13973 H 1372.34 -0.0762061 -5.73249 0
M  V30 13974 H 1370.74 -0.839139 -5.94204 0
M  V30 13975 H 1371.81 -1.39723 -4.64333 0
M  V30 13976 N 1373.15 1.5451 -0.310553 0
M  V30 13977 C 1374.12 2.2254 0.548489 0
M  V30 13978 C 1375.12 1.21456 1.05381 0
M  V30 13979 O 1376.31 1.46126 0.948311 0
M  V30 13980 C 1373.44 2.91927 1.76043 0
M  V30 13981 H 1374.63 2.99865 -0.0460306 0
M  V30 13982 H 1372.19 1.56179 -0.061487 0
M  V30 13983 H 1372.92 2.18706 2.39454 0
M  V30 13984 H 1372.71 3.66038 1.40564 0
M  V30 13985 H 1374.2 3.43797 2.37051 0
M  V30 13986 N 1374.63 0.0384594 1.57553 0
M  V30 13987 C 1375.88 -0.633249 1.93291 0
M  V30 13988 C 1376.23 -1.69196 0.915995 0
M  V30 13989 O 1375.53 -1.91484 -0.0666597 0
M  V30 13990 C 1375.72 -1.28439 3.33524 0
M  V30 13991 C 1375.55 -0.290279 4.48762 0
M  V30 13992 C 1374.32 0.113206 5.05173 0
M  V30 13993 C 1376.52 0.459201 5.12246 0
M  V30 13994 N 1374.5 1.10151 6.03937 0
M  V30 13995 C 1375.87 1.30097 6.06197 0
M  V30 13996 C 1377.93 0.518891 4.95189 0
M  V30 13997 C 1376.63 2.19706 6.84924 0
M  V30 13998 C 1378.66 1.40236 5.74533 0
M  V30 13999 C 1378.02 2.23189 6.68106 0
M  V30 14000 H 1374.12 -0.203752 0.754989 0
M  V30 14001 H 1376.7 0.107819 1.94401 0
M  V30 14002 H 1374.87 -1.99555 3.33215 0
M  V30 14003 H 1376.6 -1.91388 3.56585 0
M  V30 14004 H 1373.36 -0.26316 4.72868 0
M  V30 14005 H 1373.78 1.59218 6.58011 0
M  V30 14006 H 1378.42 -0.108201 4.22662 0
M  V30 14007 H 1376.14 2.83467 7.56751 0
M  V30 14008 H 1379.73 1.45295 5.63365 0
M  V30 14009 H 1378.61 2.90443 7.28432 0
M  V30 14010 N 1376.11 -1.55841 -0.234795 0
M  V30 14011 C 1377.07 -1.9051 -1.2743 0
M  V30 14012 C 1378.07 -0.782543 -1.40474 0
M  V30 14013 O 1379.26 -1.05043 -1.38966 0
M  V30 14014 C 1376.4 -2.14424 -2.65019 0
M  V30 14015 H 1377.59 -2.83471 -0.979003 0
M  V30 14016 H 1375.14 -1.48919 -0.47463 0
M  V30 14017 H 1375.88 -1.23972 -2.99669 0
M  V30 14018 H 1375.66 -2.96191 -2.56931 0
M  V30 14019 H 1377.15 -2.42388 -3.40056 0
M  V30 14020 N 1377.59 0.500963 -1.49426 0
M  V30 14021 C 1379 1.08248 -1.52116 0
M  V30 14022 C 1379.35 1.93777 -0.30738 0
M  V30 14023 O 1378.48 2.08404 0.582805 0
M  V30 14024 C 1379.07 1.96988 -2.75647 0
M  V30 14025 C 1377.63 2.50303 -2.81115 0
M  V30 14026 C 1376.78 1.27924 -2.4603 0
M  V30 14027 H 1379.73 0.284872 -1.56122 0
M  V30 14028 H 1379.75 2.81675 -2.55811 0
M  V30 14029 H 1379.26 1.34711 -3.6397 0
M  V30 14030 H 1377.36 3.16218 -1.97072 0
M  V30 14031 H 1377.48 2.87453 -3.83286 0
M  V30 14032 H 1375.84 1.60447 -1.9781 0
M  V30 14033 H 1376.62 0.673557 -3.36628 0
M  V30 14034 N 1379.07 1.38501 0.752011 0
M  V30 14035 C 1380.48 1.31086 1.32941 0
M  V30 14036 C 1380.83 -0.0326248 1.96173 0
M  V30 14037 O 1379.95 -0.934692 1.95173 0
M  V30 14038 C 1380.55 2.37395 2.41721 0
M  V30 14039 C 1379.11 2.33553 2.95177 0
M  V30 14040 C 1378.26 2.20178 1.68573 0
M  V30 14041 H 1381.21 1.48836 0.550771 0
M  V30 14042 H 1381.23 2.03202 3.21697 0
M  V30 14043 H 1380.74 3.35164 1.9567 0
M  V30 14044 H 1378.84 1.39371 3.45553 0
M  V30 14045 H 1378.95 3.27753 3.49449 0
M  V30 14046 H 1377.32 1.67057 1.9226 0
M  V30 14047 H 1378.1 3.19891 1.24599 0
M  V30 14048 N 1380.55 -0.980364 1.23396 0
M  V30 14049 C 1381.46 -2.10688 1.03188 0
M  V30 14050 C 1382.47 -1.73984 -0.0236159 0
M  V30 14051 O 1383.65 -2.00666 0.171841 0
M  V30 14052 C 1380.71 -3.4101 0.625563 0
M  V30 14053 C 1379.77 -3.91739 1.75611 0
M  V30 14054 C 1379.01 -5.15841 1.36908 0
M  V30 14055 O 1379.23 -5.69837 0.253329 0
M  V30 14056 O 1378.16 -5.60638 2.19018 0
M  V30 14057 H 1381.99 -2.30626 1.97599 0
M  V30 14058 H 1379.57 -1.09067 1.02102 0
M  V30 14059 H 1381.46 -4.19402 0.409909 0
M  V30 14060 H 1380.13 -3.22402 -0.28956 0
M  V30 14061 H 1379.04 -3.14464 2.0264 0
M  V30 14062 H 1380.37 -4.14801 2.64955 0
M  V30 14063 N 1382.02 -1.04567 -1.17913 0
M  V30 14064 C 1382.99 -0.645476 -2.19923 0
M  V30 14065 C 1383.99 0.299763 -1.57981 0
M  V30 14066 O 1385.18 0.0844825 -1.73995 0
M  V30 14067 C 1382.31 0.0528935 -3.40859 0
M  V30 14068 H 1383.5 -1.54828 -2.56843 0
M  V30 14069 H 1381.05 -0.838812 -1.31885 0
M  V30 14070 H 1381.79 0.969261 -3.09477 0
M  V30 14071 H 1381.57 -0.626558 -3.87062 0
M  V30 14072 H 1383.06 0.319221 -4.16378 0
M  V30 14073 N 1383.5 1.34231 -0.825823 0
M  V30 14074 C 1384.78 1.92662 -0.337743 0
M  V30 14075 C 1385.16 1.75358 1.17529 0
M  V30 14076 O 1384.51 1.13405 1.98372 0
M  V30 14077 C 1384.72 3.40394 -0.770269 0
M  V30 14078 C 1386.06 4.17546 -0.770767 0
M  V30 14079 O 1387.09 3.4899 -0.713035 0
M  V30 14080 O 1385.95 5.39903 -0.846602 0
M  V30 14081 H 1383.04 0.821768 -0.0928741 0
M  V30 14082 H 1385.59 1.43187 -0.910807 0
M  V30 14083 H 1384.36 3.46802 -1.81228 0
M  V30 14084 H 1383.98 3.97223 -0.17306 0
M  V30 14085 N 1384.98 0.581051 1.46498 0
M  V30 14086 C 1386.23 0.0660934 2.02692 0
M  V30 14087 C 1386.56 -1.28985 1.45178 0
M  V30 14088 O 1385.83 -1.84479 0.616247 0
M  V30 14089 C 1386.12 -0.00145411 3.601 0
M  V30 14090 C 1385.97 1.38327 4.28002 0
M  V30 14091 C 1387.29 -0.702914 4.3445 0
M  V30 14092 H 1384.41 0.0254923 0.736559 0
M  V30 14093 H 1387.05 0.74793 1.7466 0
M  V30 14094 H 1385.2 -0.582118 3.84114 0
M  V30 14095 H 1386.87 2.00897 4.15257 0
M  V30 14096 H 1385.11 1.95144 3.87429 0
M  V30 14097 H 1385.79 1.28849 5.36751 0
M  V30 14098 H 1388.26 -0.209641 4.15572 0
M  V30 14099 H 1387.14 -0.719202 5.44168 0
M  V30 14100 H 1387.4 -1.76389 4.05388 0
M  V30 14101 N 1386.46 -1.54343 0.318742 0
M  V30 14102 C 1387.42 -2.22828 -0.536679 0
M  V30 14103 C 1388.42 -1.22013 -1.04735 0
M  V30 14104 O 1389.61 -1.46626 -0.940549 0
M  V30 14105 C 1386.74 -2.92857 -1.74493 0
M  V30 14106 H 1387.94 -2.99836 0.0619325 0
M  V30 14107 H 1385.49 -1.56144 0.0697687 0
M  V30 14108 H 1386.22 -2.19973 -2.3829 0
M  V30 14109 H 1386.01 -3.66779 -1.38621 0
M  V30 14110 H 1387.5 -3.45049 -2.35225 0
M  V30 14111 N 1387.94 -0.0468143 -1.5753 0
M  V30 14112 C 1389.35 0.309707 -1.56566 0
M  V30 14113 C 1389.55 1.7173 -1.05408 0
M  V30 14114 O 1388.61 2.4235 -0.708723 0
M  V30 14115 C 1389.92 0.142151 -3.00364 0
M  V30 14116 C 1391.47 0.213585 -3.1227 0
M  V30 14117 C 1391.94 0.0746102 -4.57939 0
M  V30 14118 N 1393.43 0.131027 -4.63015 0
M  V30 14119 C 1394.17 0.0475409 -5.7338 0
M  V30 14120 N 1393.67 -0.0880445 -6.92744 0
M  V30 14121 N 1395.46 0.102809 -5.62006 0
M  V30 14122 H 1387.61 -0.967057 -1.89108 0
M  V30 14123 H 1389.87 -0.375018 -0.870669 0
M  V30 14124 H 1389.58 -0.828171 -3.4181 0
M  V30 14125 H 1389.45 0.905006 -3.66182 0
M  V30 14126 H 1391.84 1.17438 -2.70726 0
M  V30 14127 H 1391.92 -0.57995 -2.49139 0
M  V30 14128 H 1391.56 -0.882839 -5.00168 0
M  V30 14129 H 1391.49 0.887235 -5.19072 0
M  V30 14130 H 1393.99 0.235246 -3.77167 0
M  V30 14131 H 1394.3 -0.144574 -7.72665 0
M  V30 14132 H 1392.64 -0.12307 -6.94891 0
M  V30 14133 H 1395.83 0.207259 -4.67641 0
M  V30 14134 H 1396.01 0.0342865 -6.47991 0
M  V30 14135 N 1389.41 1.55964 0.226527 0
M  V30 14136 C 1390.66 1.77944 0.94967 0
M  V30 14137 C 1390.98 0.614478 1.85697 0
M  V30 14138 O 1392.18 0.717793 2.6184 0
M  V30 14139 C 1390.64 3.15108 1.73881 0
M  V30 14140 C 1390.25 4.39314 0.877894 0
M  V30 14141 C 1391.99 3.46418 2.45347 0
M  V30 14142 C 1389.9 5.67505 1.6641 0
M  V30 14143 H 1388.83 0.663412 0.35833 0
M  V30 14144 H 1391.48 1.82366 0.203695 0
M  V30 14145 H 1389.86 3.04849 2.52751 0
M  V30 14146 H 1391.03 4.60616 0.130089 0
M  V30 14147 H 1389.35 4.15487 0.2756 0
M  V30 14148 H 1391.95 4.39416 3.0466 0
M  V30 14149 H 1392.29 2.68685 3.17985 0
M  V30 14150 H 1392.82 3.57984 1.73471 0
M  V30 14151 H 1389.56 6.48116 0.981089 0
M  V30 14152 H 1389.08 5.50272 2.38665 0
M  V30 14153 H 1390.76 6.075 2.22605 0
M  V30 14154 N 1390.89 -0.493031 1.4969 0
M  V30 14155 C 1392.14 -1.24849 1.59814 0
M  V30 14156 C 1392.47 -1.92059 0.287555 0
M  V30 14157 O 1391.75 -1.81099 -0.709471 0
M  V30 14158 C 1392.03 -2.30929 2.76304 0
M  V30 14159 C 1391.88 -1.68167 4.17181 0
M  V30 14160 C 1393.2 -3.32427 2.8841 0
M  V30 14161 H 1390.32 -0.452553 0.581691 0
M  V30 14162 H 1392.96 -0.545455 1.82002 0
M  V30 14163 H 1391.11 -2.9089 2.57517 0
M  V30 14164 H 1392.78 -1.11971 4.47504 0
M  V30 14165 H 1391.03 -0.985496 4.22458 0
M  V30 14166 H 1391.7 -2.45148 4.94577 0
M  V30 14167 H 1394.17 -2.82464 3.05537 0
M  V30 14168 H 1393.05 -4.04004 3.71581 0
M  V30 14169 H 1393.31 -3.95234 1.98097 0
M  V30 14170 N 1392.37 -1.38898 -0.744656 0
M  V30 14171 C 1393.33 -1.36633 -1.84022 0
M  V30 14172 C 1394.33 -0.265187 -1.58598 0
M  V30 14173 O 1395.52 -0.522569 -1.66177 0
M  V30 14174 C 1392.66 -1.12938 -3.21649 0
M  V30 14175 H 1393.85 -2.34111 -1.87435 0
M  V30 14176 H 1391.4 -1.24322 -0.947302 0
M  V30 14177 H 1392.14 -0.161027 -3.239 0
M  V30 14178 H 1391.92 -1.9267 -3.41498 0
M  V30 14179 H 1393.41 -1.14071 -4.01718 0
M  V30 14180 N 1393.85 0.973806 -1.23914 0
M  V30 14181 C 1395.08 1.74853 -1.10046 0
M  V30 14182 C 1395.49 1.85927 0.350388 0
M  V30 14183 O 1394.83 1.34252 1.25388 0
M  V30 14184 C 1394.89 3.18919 -1.65924 0
M  V30 14185 C 1394.56 3.31335 -3.14748 0
M  V30 14186 C 1395.55 3.17141 -4.11968 0
M  V30 14187 C 1393.24 3.55772 -3.54587 0
M  V30 14188 C 1395.23 3.27199 -5.47009 0
M  V30 14189 C 1392.92 3.65468 -4.89771 0
M  V30 14190 C 1393.92 3.51193 -5.85792 0
M  V30 14191 O 1393.6 3.60534 -7.18519 0
M  V30 14192 H 1393.34 0.555345 -0.385445 0
M  V30 14193 H 1395.89 1.23168 -1.64374 0
M  V30 14194 H 1394.12 3.71882 -1.06023 0
M  V30 14195 H 1395.81 3.78177 -1.47434 0
M  V30 14196 H 1396.58 2.98153 -3.82531 0
M  V30 14197 H 1392.45 3.65951 -2.80358 0
M  V30 14198 H 1396 3.15974 -6.21937 0
M  V30 14199 H 1391.9 3.83969 -5.18882 0
M  V30 14200 H 1392.66 3.77288 -7.26358 0
M  V30 14201 N 1395.33 1.05191 1.17357 0
M  V30 14202 C 1396.6 0.675826 1.83554 0
M  V30 14203 C 1396.98 -0.843812 1.93502 0
M  V30 14204 O 1396.33 -1.74975 1.46956 0
M  V30 14205 C 1396.54 1.36481 3.21207 0
M  V30 14206 C 1397.89 1.50285 3.97114 0
M  V30 14207 O 1398.91 1.32382 3.30686 0
M  V30 14208 O 1397.77 1.79562 5.16159 0
M  V30 14209 H 1394.87 0.237898 0.792044 0
M  V30 14210 H 1397.41 1.1515 1.24654 0
M  V30 14211 H 1396.18 2.40156 3.08935 0
M  V30 14212 H 1395.81 0.878491 3.87774 0
M  V30 14213 N 1396.8 -1.33791 0.83293 0
M  V30 14214 C 1398.22 -1.80336 0.483294 0
M  V30 14215 C 1398.57 -1.68969 -0.997195 0
M  V30 14216 O 1397.69 -1.23549 -1.77664 0
M  V30 14217 C 1398.29 -3.27427 0.870475 0
M  V30 14218 C 1396.85 -3.72012 0.573064 0
M  V30 14219 C 1395.99 -2.55319 1.08201 0
M  V30 14220 H 1398.94 -1.21396 1.02218 0
M  V30 14221 H 1398.96 -3.80083 0.178173 0
M  V30 14222 H 1398.48 -3.35668 1.94804 0
M  V30 14223 H 1396.58 -3.69302 -0.494678 0
M  V30 14224 H 1396.69 -4.65725 1.12414 0
M  V30 14225 H 1395.05 -2.49681 0.503123 0
M  V30 14226 H 1395.84 -2.66326 2.16623 0
M  V30 14227 N 1398.28 -0.588812 -1.46187 0
M  V30 14228 C 1399.23 0.153638 -2.32092 0
M  V30 14229 C 1400.22 0.878346 -1.4485 0
M  V30 14230 O 1401.43 0.796042 -1.61441 0
M  V30 14231 H 1397.81 0.0684129 -0.748882 0
M  V30 14232 H 1399.78 -0.58961 -2.92517 0
M  V30 14233 C 1398.53 1.15003 -3.28131 0
M  V30 14234 H 1397.85 0.601804 -3.95245 0
M  V30 14235 H 1399.29 1.6398 -3.91007 0
M  V30 14236 C 1397.75 2.21411 -2.53926 0
M  V30 14237 O 1398.28 3.28862 -2.30679 0
M  V30 14238 N 1396.48 1.96184 -2.14383 0
M  V30 14239 H 1396.03 1.08812 -2.3349 0
M  V30 14240 H 1395.99 2.6759 -1.65055 0
M  V30 14241 N 1399.76 1.54172 -0.326923 0
M  V30 14242 C 1400.69 2.27402 0.530154 0
M  V30 14243 C 1401.67 1.28325 1.11655 0
M  V30 14244 O 1402.86 1.57142 1.14105 0
M  V30 14245 C 1399.99 3.03435 1.68951 0
M  V30 14246 C 1398.94 4.09877 1.23226 0
M  V30 14247 C 1398.27 4.7377 2.47882 0
M  V30 14248 C 1399.57 5.21161 0.344698 0
M  V30 14249 H 1401.26 2.99291 -0.0806959 0
M  V30 14250 H 1398.81 1.43944 -0.0402511 0
M  V30 14251 H 1400.76 3.53396 2.29541 0
M  V30 14252 H 1399.48 2.29169 2.327 0
M  V30 14253 H 1398.14 3.60805 0.649267 0
M  V30 14254 H 1397.79 3.96116 3.10002 0
M  V30 14255 H 1397.49 5.45674 2.17977 0
M  V30 14256 H 1399.01 5.26507 3.09229 0
M  V30 14257 H 1400.43 5.66859 0.856979 0
M  V30 14258 H 1398.83 5.99941 0.138276 0
M  V30 14259 H 1399.9 4.80874 -0.623575 0
M  V30 14260 N 1401.24 0.0551678 1.57503 0
M  V30 14261 C 1402.46 -0.630692 1.97578 0
M  V30 14262 C 1402.89 -1.63348 0.932686 0
M  V30 14263 O 1402.25 -1.81004 -0.103632 0
M  V30 14264 C 1402.29 -1.29049 3.36718 0
M  V30 14265 O 1401.4 -2.40621 3.34926 0
M  V30 14266 H 1400.74 -0.163625 0.643524 0
M  V30 14267 H 1403.27 0.124753 2.04219 0
M  V30 14268 H 1403.28 -1.64124 3.73534 0
M  V30 14269 H 1401.95 -0.55559 4.12172 0
M  V30 14270 H 1400.53 -2.07463 3.0986 0
M  V30 14271 N 1402.72 -1.56081 -0.218252 0
M  V30 14272 C 1404.13 -1.69397 -0.784964 0
M  V30 14273 C 1404.48 -0.65775 -1.84846 0
M  V30 14274 O 1403.6 0.190478 -2.1556 0
M  V30 14275 C 1404.2 -3.07114 -1.4306 0
M  V30 14276 C 1402.76 -3.22273 -1.94466 0
M  V30 14277 C 1401.9 -2.65327 -0.80604 0
M  V30 14278 H 1404.86 -1.58699 0.0064566 0
M  V30 14279 H 1404.88 -3.03156 -2.2995 0
M  V30 14280 H 1404.39 -3.8251 -0.656335 0
M  V30 14281 H 1402.49 -2.51752 -2.74684 0
M  V30 14282 H 1402.6 -4.29526 -2.12237 0
M  V30 14283 H 1400.97 -2.23894 -1.21423 0
M  V30 14284 H 1401.75 -3.43271 -0.0443928 0
M  V30 14285 N 1404.2 0.485086 -1.49949 0
M  V30 14286 C 1405.11 1.61089 -1.70551 0
M  V30 14287 C 1406.12 1.63752 -0.588333 0
M  V30 14288 O 1407.3 1.81879 -0.86498 0
M  V30 14289 C 1404.36 2.97382 -1.78227 0
M  V30 14290 C 1403.42 3.05219 -3.01894 0
M  V30 14291 C 1402.66 4.35011 -3.09195 0
M  V30 14292 O 1402.88 5.24722 -2.23658 0
M  V30 14293 O 1401.81 4.48151 -4.01802 0
M  V30 14294 H 1405.64 1.46633 -2.65956 0
M  V30 14295 H 1403.22 0.663091 -1.33879 0
M  V30 14296 H 1405.11 3.78356 -1.85538 0
M  V30 14297 H 1403.78 3.12066 -0.860043 0
M  V30 14298 H 1402.69 2.23373 -3.00092 0
M  V30 14299 H 1404.02 2.95467 -3.93649 0
M  V30 14300 N 1405.67 1.39291 0.737279 0
M  V30 14301 C 1406.61 1.33728 1.86144 0
M  V30 14302 C 1407.62 0.246468 1.60924 0
M  V30 14303 O 1408.81 0.505252 1.712 0
M  V30 14304 C 1405.91 1.05312 3.22122 0
M  V30 14305 C 1405.08 2.25624 3.74716 0
M  V30 14306 C 1404.14 1.937 4.89251 0
M  V30 14307 O 1403.17 2.66361 5.03031 0
M  V30 14308 N 1404.37 0.901782 5.73453 0
M  V30 14309 H 1407.13 2.30604 1.91421 0
M  V30 14310 H 1404.69 1.33364 0.917919 0
M  V30 14311 H 1406.69 0.819784 3.9631 0
M  V30 14312 H 1405.26 0.171773 3.12128 0
M  V30 14313 H 1404.48 2.64923 2.91906 0
M  V30 14314 H 1405.76 3.05881 4.06589 0
M  V30 14315 H 1405.16 0.299553 5.64906 0
M  V30 14316 H 1403.72 0.728344 6.47718 0
M  V30 14317 N 1407.15 -0.967221 1.24429 0
M  V30 14318 C 1408.4 -1.71349 1.09596 0
M  V30 14319 C 1408.75 -1.88975 -0.361411 0
M  V30 14320 O 1408.05 -1.4405 -1.26333 0
M  V30 14321 C 1408.24 -3.10507 1.76975 0
M  V30 14322 C 1408.07 -3.06455 3.29113 0
M  V30 14323 C 1406.84 -3.1091 3.98326 0
M  V30 14324 C 1409.04 -2.88594 4.25697 0
M  V30 14325 N 1407.02 -2.96882 5.3734 0
M  V30 14326 C 1408.39 -2.82867 5.51712 0
M  V30 14327 C 1410.44 -2.73179 4.16267 0
M  V30 14328 C 1409.15 -2.63301 6.69377 0
M  V30 14329 C 1411.17 -2.5498 5.3361 0
M  V30 14330 C 1410.54 -2.49962 6.58558 0
M  V30 14331 H 1406.63 -0.635528 0.455663 0
M  V30 14332 H 1409.22 -1.14669 1.5735 0
M  V30 14333 H 1407.39 -3.65378 1.31733 0
M  V30 14334 H 1409.12 -3.73842 1.54997 0
M  V30 14335 H 1405.88 -3.19609 3.49495 0
M  V30 14336 H 1406.3 -2.93107 6.1026 0
M  V30 14337 H 1410.94 -2.7584 3.20425 0
M  V30 14338 H 1408.66 -2.59383 7.65341 0
M  V30 14339 H 1412.25 -2.43995 5.28164 0
M  V30 14340 H 1411.13 -2.3606 7.47827 0
M  V30 14341 N 1408.63 -1.05812 -1.16797 0
M  V30 14342 C 1409.88 -0.771923 -1.8721 0
M  V30 14343 C 1410.2 0.701365 -1.81414 0
M  V30 14344 O 1409.46 1.5292 -1.22122 0
M  V30 14345 C 1409.76 -1.20565 -3.3645 0
M  V30 14346 C 1409.42 -2.68222 -3.62447 0
M  V30 14347 C 1408.09 -3.08556 -3.69251 0
M  V30 14348 C 1410.44 -3.63607 -3.73416 0
M  V30 14349 C 1407.77 -4.43126 -3.84521 0
M  V30 14350 C 1410.12 -4.97918 -3.90205 0
M  V30 14351 C 1408.78 -5.37897 -3.9525 0
M  V30 14352 H 1408.05 -0.282467 -0.68505 0
M  V30 14353 H 1410.7 -1.32633 -1.38133 0
M  V30 14354 H 1409 -0.570347 -3.87626 0
M  V30 14355 H 1410.7 -0.961326 -3.89306 0
M  V30 14356 H 1407.29 -2.3599 -3.5778 0
M  V30 14357 H 1411.48 -3.33581 -3.67474 0
M  V30 14358 H 1406.73 -4.73593 -3.86677 0
M  V30 14359 H 1410.91 -5.71716 -3.97635 0
M  V30 14360 H 1408.53 -6.42176 -4.06834 0
M  V30 14361 N 1410.11 1.33347 -0.840014 0
M  V30 14362 C 1411.07 2.27492 -0.279264 0
M  V30 14363 C 1412.07 1.51004 0.552669 0
M  V30 14364 O 1413.26 1.70305 0.366295 0
M  V30 14365 C 1410.39 3.35462 0.606466 0
M  V30 14366 H 1411.59 2.78601 -1.11001 0
M  V30 14367 H 1409.14 1.4377 -0.613187 0
M  V30 14368 H 1409.87 2.89596 1.45961 0
M  V30 14369 H 1409.66 3.92098 0.0111889 0
M  V30 14370 H 1411.15 4.05645 0.992052 0
M  V30 14371 N 1411.59 0.596556 1.45873 0
M  V30 14372 C 1412.83 0.0874583 2.02311 0
M  V30 14373 C 1413.16 -1.27781 1.46636 0
M  V30 14374 O 1412.42 -1.85393 0.62674 0
M  V30 14375 C 1412.71 -0.0135714 3.57397 0
M  V30 14376 C 1412.38 1.28591 4.32175 0
M  V30 14377 C 1411.04 1.6419 4.52322 0
M  V30 14378 C 1413.39 2.14523 4.75005 0
M  V30 14379 C 1410.72 2.85493 5.12553 0
M  V30 14380 C 1413.07 3.35065 5.36577 0
M  V30 14381 C 1411.74 3.70929 5.54949 0
M  V30 14382 H 1411.01 0.0320033 0.740309 0
M  V30 14383 H 1413.66 0.775967 1.75074 0
M  V30 14384 H 1411.96 -0.785287 3.8385 0
M  V30 14385 H 1413.66 -0.423456 3.98758 0
M  V30 14386 H 1410.25 0.99881 4.16799 0
M  V30 14387 H 1414.43 1.88321 4.59183 0
M  V30 14388 H 1409.69 3.134 5.24967 0
M  V30 14389 H 1413.86 4.01909 5.6872 0
M  V30 14390 H 1411.49 4.65011 6.01389 0
M  V30 14391 N 1413.06 -1.53996 0.335095 0
M  V30 14392 C 1414.29 -2.05188 -0.26563 0
M  V30 14393 C 1414.71 -1.21058 -1.44881 0
M  V30 14394 O 1414.06 -0.243919 -1.80863 0
M  V30 14395 C 1414.11 -3.54875 -0.688904 0
M  V30 14396 O 1413.84 -4.35811 0.447217 0
M  V30 14397 C 1415.34 -4.22204 -1.35123 0
M  V30 14398 H 1412.56 -0.668921 -0.0527806 0
M  V30 14399 H 1415.1 -1.98675 0.48463 0
M  V30 14400 H 1413.26 -3.61638 -1.38912 0
M  V30 14401 H 1413.67 -5.24381 0.111495 0
M  V30 14402 H 1415.14 -5.28356 -1.59823 0
M  V30 14403 H 1415.62 -3.74029 -2.30216 0
M  V30 14404 H 1416.23 -4.19611 -0.693283 0
M  V30 14405 N 1414.54 -0.0635198 -1.57472 0
M  V30 14406 C 1415.95 0.470372 -1.80678 0
M  V30 14407 C 1416.3 1.70158 -0.976771 0
M  V30 14408 O 1415.43 2.15502 -0.196893 0
M  V30 14409 C 1416.02 0.860129 -3.277 0
M  V30 14410 C 1414.58 1.33893 -3.51781 0
M  V30 14411 C 1413.73 0.320078 -2.75447 0
M  V30 14412 H 1416.68 -0.289295 -1.56041 0
M  V30 14413 H 1416.7 1.72216 -3.39296 0
M  V30 14414 H 1416.21 -0.0361525 -3.88083 0
M  V30 14415 H 1414.31 2.25399 -2.96692 0
M  V30 14416 H 1414.43 1.32257 -4.60483 0
M  V30 14417 H 1412.79 0.795601 -2.41955 0
M  V30 14418 H 1413.57 -0.568332 -3.38563 0
M  V30 14419 N 1416.02 1.56195 0.209972 0
M  V30 14420 C 1417.43 1.69811 0.775969 0
M  V30 14421 C 1417.78 0.667543 1.84495 0
M  V30 14422 O 1416.91 -0.179043 2.15658 0
M  V30 14423 C 1417.5 3.07869 1.41429 0
M  V30 14424 C 1416.06 3.233 1.92755 0
M  V30 14425 C 1415.21 2.6575 0.791958 0
M  V30 14426 H 1418.16 1.58693 -0.0148727 0
M  V30 14427 H 1418.18 3.04371 2.28339 0
M  V30 14428 H 1417.69 3.82853 0.63604 0
M  V30 14429 H 1415.79 2.53206 2.73345 0
M  V30 14430 H 1415.91 4.30645 2.09956 0
M  V30 14431 H 1414.27 2.24535 1.20234 0
M  V30 14432 H 1415.05 3.4329 0.0261877 0
M  V30 14433 N 1417.5 -0.477127 1.50204 0
M  V30 14434 C 1418.91 -0.81037 1.37496 0
M  V30 14435 C 1419.11 -1.96937 0.426399 0
M  V30 14436 O 1418.17 -2.52148 -0.133197 0
M  V30 14437 C 1419.48 -1.12811 2.78737 0
M  V30 14438 C 1421.03 -1.23492 2.87608 0
M  V30 14439 C 1421.51 -1.58583 4.29669 0
M  V30 14440 N 1423 -1.65586 4.32591 0
M  V30 14441 C 1423.73 -1.94231 5.39502 0
M  V30 14442 N 1423.23 -2.20936 6.56627 0
M  V30 14443 N 1425.02 -1.95682 5.26939 0
M  V30 14444 H 1417.17 0.286771 2.10455 0
M  V30 14445 H 1419.43 0.0657649 0.945716 0
M  V30 14446 H 1419.14 -0.349616 3.49958 0
M  V30 14447 H 1419.01 -2.0658 3.15602 0
M  V30 14448 H 1421.4 -2.0041 2.1661 0
M  V30 14449 H 1421.48 -0.277182 2.54294 0
M  V30 14450 H 1421.13 -0.822071 5.01203 0
M  V30 14451 H 1421.06 -2.55497 4.60466 0
M  V30 14452 H 1423.55 -1.47012 3.48132 0
M  V30 14453 H 1423.86 -2.42049 7.33916 0
M  V30 14454 H 1422.21 -2.18341 6.59812 0
M  V30 14455 H 1425.4 -1.74311 4.34434 0
M  V30 14456 H 1425.57 -2.1767 6.10347 0
M  V30 14457 N 1418.98 -1.3968 -0.729882 0
M  V30 14458 C 1420.22 -1.37385 -1.49175 0
M  V30 14459 C 1420.56 0.0285839 -1.94179 0
M  V30 14460 O 1419.83 0.994516 -1.67152 0
M  V30 14461 C 1420.11 -2.35075 -2.72785 0
M  V30 14462 C 1419.97 -3.84282 -2.33767 0
M  V30 14463 C 1421.29 -2.30515 -3.74901 0
M  V30 14464 H 1418.4 -0.500359 -0.541119 0
M  V30 14465 H 1421.05 -1.7071 -0.834152 0
M  V30 14466 H 1419.2 -2.06787 -3.28894 0
M  V30 14467 H 1420.87 -4.2334 -1.8325 0
M  V30 14468 H 1419.11 -4.00809 -1.65935 0
M  V30 14469 H 1419.78 -4.48131 -3.22309 0
M  V30 14470 H 1422.26 -2.55539 -3.28389 0
M  V30 14471 H 1421.13 -3.00939 -4.5905 0
M  V30 14472 H 1421.4 -1.3119 -4.22187 0
M  V30 14473 N 1420.45 0.960609 -1.2494 0
M  V30 14474 C 1421.87 1.51915 -1.0853 0
M  V30 14475 C 1422.22 1.93215 0.340949 0
M  V30 14476 O 1421.34 1.78031 1.2302 0
M  V30 14477 C 1421.94 2.76069 -1.96396 0
M  V30 14478 C 1420.5 3.28255 -1.84189 0
M  V30 14479 C 1419.64 2.01124 -1.90905 0
M  V30 14480 H 1422.59 0.778141 -1.38314 0
M  V30 14481 H 1422.61 3.49668 -1.50042 0
M  V30 14482 H 1422.13 2.45979 -3.00193 0
M  V30 14483 H 1420.23 3.6318 -0.832518 0
M  V30 14484 H 1420.34 3.96675 -2.68673 0
M  V30 14485 H 1418.7 2.16155 -1.34718 0
M  V30 14486 H 1419.49 1.73389 -2.96295 0
M  V30 14487 N 1421.93 1.0643 1.16234 0
M  V30 14488 C 1423.18 0.782998 1.87075 0
M  V30 14489 C 1423.51 -0.688852 1.81572 0
M  V30 14490 O 1422.79 -1.50478 1.23234 0
M  V30 14491 C 1423.07 1.27997 3.36584 0
M  V30 14492 C 1422.92 2.81568 3.5077 0
M  V30 14493 C 1424.24 0.888975 4.31028 0
M  V30 14494 H 1421.36 0.28591 0.679282 0
M  V30 14495 H 1424 1.32046 1.36615 0
M  V30 14496 H 1422.15 0.822756 3.79688 0
M  V30 14497 H 1423.82 3.35508 3.16595 0
M  V30 14498 H 1422.07 3.2023 2.92635 0
M  V30 14499 H 1422.74 3.11406 4.55774 0
M  V30 14500 H 1425.21 1.28279 3.95833 0
M  V30 14501 H 1424.09 1.26416 5.34144 0
M  V30 14502 H 1424.35 -0.205973 4.4162 0
M  V30 14503 N 1423.41 -1.329 0.847073 0
M  V30 14504 C 1424.34 -2.31546 0.301422 0
M  V30 14505 C 1425.32 -1.59342 -0.595317 0
M  V30 14506 O 1426.51 -1.87188 -0.517151 0
M  V30 14507 C 1423.64 -3.43423 -0.517454 0
M  V30 14508 C 1422.59 -4.27055 0.284195 0
M  V30 14509 C 1421.92 -5.30624 -0.658944 0
M  V30 14510 C 1423.22 -5.00123 1.50578 0
M  V30 14511 H 1424.91 -2.77433 1.12567 0
M  V30 14512 H 1422.46 -1.3338 0.542739 0
M  V30 14513 H 1424.41 -4.11467 -0.909543 0
M  V30 14514 H 1423.13 -2.96246 -1.37499 0
M  V30 14515 H 1421.79 -3.60648 0.657944 0
M  V30 14516 H 1421.44 -4.79702 -1.51311 0
M  V30 14517 H 1421.14 -5.87464 -0.12662 0
M  V30 14518 H 1422.66 -6.01533 -1.04837 0
M  V30 14519 H 1424.08 -5.6089 1.18641 0
M  V30 14520 H 1422.48 -5.66652 1.97549 0
M  V30 14521 H 1423.55 -4.28424 2.27115 0
M  V30 14522 N 1424.89 -0.604284 -1.45555 0
M  V30 14523 C 1425.8 0.118409 -2.34301 0
M  V30 14524 C 1426.81 0.863807 -1.51044 0
M  V30 14525 O 1427.99 0.822138 -1.83856 0
M  V30 14526 C 1425.06 1.10538 -3.28606 0
M  V30 14527 C 1424.12 0.362301 -4.27768 0
M  V30 14528 C 1423.35 1.30226 -5.17568 0
M  V30 14529 O 1423.57 2.53991 -5.10729 0
M  V30 14530 O 1422.51 0.801116 -5.96545 0
M  V30 14531 H 1426.33 -0.610816 -2.97494 0
M  V30 14532 H 1423.92 -0.364562 -1.44884 0
M  V30 14533 H 1425.8 1.67392 -3.86727 0
M  V30 14534 H 1424.47 1.81569 -2.67982 0
M  V30 14535 H 1423.38 -0.248616 -3.73273 0
M  V30 14536 H 1424.71 -0.307454 -4.91239 0
M  V30 14537 N 1426.37 1.53816 -0.343257 0
M  V30 14538 C 1427.59 2.05796 0.257418 0
M  V30 14539 C 1428.02 1.2166 1.43459 0
M  V30 14540 O 1427.37 0.230278 1.79832 0
M  V30 14541 C 1427.42 3.54681 0.65068 0
M  V30 14542 O 1426.53 3.73394 1.75074 0
M  V30 14543 H 1425.87 0.662622 0.042757 0
M  V30 14544 H 1428.4 1.98462 -0.497386 0
M  V30 14545 H 1428.41 3.97308 0.927914 0
M  V30 14546 H 1427.08 4.15368 -0.210199 0
M  V30 14547 H 1425.66 3.42669 1.4708 0
M  V30 14548 N 1427.84 0.0718701 1.57436 0
M  V30 14549 C 1428.77 -0.89288 2.15754 0
M  V30 14550 C 1429.76 -1.31036 1.0846 0
M  V30 14551 O 1430.94 -1.38139 1.36496 0
M  V30 14552 C 1428.07 -2.16044 2.71923 0
M  V30 14553 C 1427.02 -1.88236 3.84384 0
M  V30 14554 C 1426.35 -3.21624 4.27156 0
M  V30 14555 C 1427.65 -1.18758 5.0862 0
M  V30 14556 H 1429.34 -0.407061 2.9662 0
M  V30 14557 H 1426.89 -0.194354 1.42682 0
M  V30 14558 H 1428.84 -2.83952 3.11366 0
M  V30 14559 H 1427.57 -2.66868 1.88279 0
M  V30 14560 H 1426.23 -1.22734 3.45445 0
M  V30 14561 H 1425.87 -3.70289 3.40433 0
M  V30 14562 H 1425.57 -3.03809 5.02965 0
M  V30 14563 H 1427.1 -3.90729 4.69215 0
M  V30 14564 H 1428.51 -1.76735 5.45378 0
M  V30 14565 H 1426.91 -1.11201 5.89707 0
M  V30 14566 H 1427.98 -0.166682 4.84613 0
M  V30 14567 N 1429.32 -1.56304 -0.201686 0
M  V30 14568 C 1430.25 -1.90538 -1.27389 0
M  V30 14569 C 1431.27 -0.795422 -1.42045 0
M  V30 14570 O 1432.46 -1.07381 -1.42589 0
M  V30 14571 C 1429.56 -2.11638 -2.64694 0
M  V30 14572 C 1428.73 -3.42755 -2.71731 0
M  V30 14573 C 1427.79 -3.53047 -3.90185 0
M  V30 14574 O 1426.81 -4.25923 -3.77595 0
M  V30 14575 N 1428.02 -2.85649 -5.05356 0
M  V30 14576 H 1430.78 -2.83106 -0.983411 0
M  V30 14577 H 1428.34 -1.57092 -0.391638 0
M  V30 14578 H 1430.33 -2.15818 -3.42352 0
M  V30 14579 H 1428.9 -1.256 -2.86258 0
M  V30 14580 H 1428.12 -3.50501 -1.80397 0
M  V30 14581 H 1429.41 -4.29092 -2.73418 0
M  V30 14582 H 1428.81 -2.26256 -5.18483 0
M  V30 14583 H 1427.37 -2.95465 -5.80985 0
M  V30 14584 N 1430.8 0.469154 -1.50455 0
M  V30 14585 C 1432.22 0.803067 -1.37924 0
M  V30 14586 C 1432.42 1.96708 -0.436837 0
M  V30 14587 O 1431.47 2.52216 0.119823 0
M  V30 14588 C 1432.79 1.11332 -2.79331 0
M  V30 14589 C 1434.33 1.21965 -2.88259 0
M  V30 14590 C 1434.81 1.56302 -4.30504 0
M  V30 14591 N 1436.3 1.6329 -4.33464 0
M  V30 14592 C 1437.03 1.91367 -5.40524 0
M  V30 14593 N 1436.53 2.17451 -6.57789 0
M  V30 14594 N 1438.32 1.92885 -5.2797 0
M  V30 14595 H 1430.47 -0.297928 -2.103 0
M  V30 14596 H 1432.74 -0.0707794 -0.945354 0
M  V30 14597 H 1432.44 0.331052 -3.50138 0
M  V30 14598 H 1432.32 2.04903 -3.16693 0
M  V30 14599 H 1434.7 1.99259 -2.17669 0
M  V30 14600 H 1434.79 0.263692 -2.54437 0
M  V30 14601 H 1434.43 0.795479 -5.01632 0
M  V30 14602 H 1434.36 2.53052 -4.61814 0
M  V30 14603 H 1436.85 1.45164 -3.48907 0
M  V30 14604 H 1437.16 2.38154 -7.35189 0
M  V30 14605 H 1435.51 2.14839 -6.60961 0
M  V30 14606 H 1438.7 1.72005 -4.35353 0
M  V30 14607 H 1438.87 2.1443 -6.11493 0
M  V30 14608 N 1432.28 1.40065 0.722464 0
M  V30 14609 C 1433.21 1.42532 1.84951 0
M  V30 14610 C 1434.19 0.287082 1.6766 0
M  V30 14611 O 1435.37 0.494715 1.87793 0
M  V30 14612 C 1432.5 1.28041 3.22836 0
M  V30 14613 C 1431.46 2.39396 3.54787 0
M  V30 14614 C 1430.78 2.09986 4.91742 0
M  V30 14615 C 1432.08 3.81729 3.56483 0
M  V30 14616 H 1433.78 2.36851 1.83144 0
M  V30 14617 H 1431.32 1.14005 0.879714 0
M  V30 14618 H 1433.28 1.28385 4.01367 0
M  V30 14619 H 1432 0.301947 3.25201 0
M  V30 14620 H 1430.66 2.3829 2.78592 0
M  V30 14621 H 1430.31 1.10547 4.90702 0
M  V30 14622 H 1430.01 2.84586 5.14086 0
M  V30 14623 H 1431.53 2.12 5.72615 0
M  V30 14624 H 1432.95 3.84696 4.25067 0
M  V30 14625 H 1431.34 4.55791 3.90351 0
M  V30 14626 H 1432.41 4.11807 2.56014 0
M  V30 14627 N 1433.76 -0.95397 1.25448 0
M  V30 14628 C 1435.01 -1.69305 1.09631 0
M  V30 14629 C 1435.32 -1.92213 -0.362413 0
M  V30 14630 O 1436.53 -2.63824 -0.641036 0
M  V30 14631 C 1434.98 -3.04805 1.91369 0
M  V30 14632 C 1434.59 -2.8969 3.41737 0
M  V30 14633 C 1436.33 -3.82491 1.84123 0
M  V30 14634 C 1434.24 -4.20584 4.15768 0
M  V30 14635 H 1433.17 -0.63494 0.406654 0
M  V30 14636 H 1435.82 -1.06195 1.49649 0
M  V30 14637 H 1434.2 -3.68822 1.44174 0
M  V30 14638 H 1435.38 -2.346 3.9661 0
M  V30 14639 H 1433.69 -2.25458 3.50082 0
M  V30 14640 H 1436.29 -4.79442 2.36727 0
M  V30 14641 H 1436.63 -4.08358 0.809265 0
M  V30 14642 H 1437.17 -3.25224 2.29072 0
M  V30 14643 H 1433.9 -3.99905 5.19381 0
M  V30 14644 H 1433.42 -4.75436 3.65678 0
M  V30 14645 H 1435.1 -4.89122 4.2352 0
M  V30 14646 N 1435.24 -1.07045 -1.15668 0
M  V30 14647 C 1436.48 -0.790172 -1.86013 0
M  V30 14648 C 1436.8 0.685663 -1.82548 0
M  V30 14649 O 1436.07 1.49644 -1.26426 0
M  V30 14650 H 1434.65 -0.28931 -0.688701 0
M  V30 14651 H 1437.32 -1.35354 -1.40233 0
M  V30 14652 H 1436.41 -1.1219 -2.91239 0
M  V30 14653 N 1436.71 1.32449 -0.85411 0
M  V30 14654 C 1437.94 2.01997 -0.470307 0
M  V30 14655 C 1438.36 1.63772 0.925225 0
M  V30 14656 O 1437.72 0.838089 1.60766 0
M  V30 14657 C 1437.77 3.55294 -0.616301 0
M  V30 14658 O 1436.87 4.10902 0.351133 0
M  V30 14659 H 1436.21 0.63651 -0.189079 0
M  V30 14660 H 1438.74 1.69008 -1.15315 0
M  V30 14661 H 1438.75 4.0488 -0.503624 0
M  V30 14662 H 1437.43 3.82459 -1.63396 0
M  V30 14663 H 1436.01 3.72391 0.194741 0
M  V30 14664 N 1438.19 0.611994 1.45232 0
M  V30 14665 C 1439.15 -0.0943825 2.29006 0
M  V30 14666 C 1440.15 -0.790863 1.40007 0
M  V30 14667 O 1441.34 -0.638356 1.62082 0
M  V30 14668 C 1438.48 -1.1439 3.21135 0
M  V30 14669 H 1439.67 0.6422 2.92943 0
M  V30 14670 H 1437.22 0.37124 1.51827 0
M  V30 14671 H 1437.96 -1.9111 2.62007 0
M  V30 14672 H 1437.74 -0.648638 3.86698 0
M  V30 14673 H 1439.23 -1.63848 3.84114 0
M  V30 14674 N 1439.67 -1.53632 0.351409 0
M  V30 14675 C 1440.9 -2.05458 -0.243852 0
M  V30 14676 C 1441.31 -1.22588 -1.43589 0
M  V30 14677 O 1440.67 -0.263088 -1.80594 0
M  V30 14678 C 1440.72 -3.55586 -0.651226 0
M  V30 14679 O 1440.44 -4.35313 0.493415 0
M  V30 14680 C 1441.94 -4.23614 -1.30637 0
M  V30 14681 H 1439.16 -0.669443 -0.0456828 0
M  V30 14682 H 1441.71 -1.98149 0.505675 0
M  V30 14683 H 1439.86 -3.63091 -1.35068 0
M  V30 14684 H 1440.28 -5.24234 0.167107 0
M  V30 14685 H 1441.75 -5.30022 -1.5421 0
M  V30 14686 H 1442.23 -3.76449 -2.26236 0
M  V30 14687 H 1442.83 -4.20323 -0.648738 0
M  V30 14688 N 1441.15 -0.0802183 -1.57396 0
M  V30 14689 C 1442.56 0.451183 -1.81166 0
M  V30 14690 C 1442.91 1.69112 -0.994764 0
M  V30 14691 O 1442.03 2.15281 -0.219739 0
M  V30 14692 C 1442.63 0.825324 -3.28594 0
M  V30 14693 C 1441.19 1.30154 -3.53181 0
M  V30 14694 C 1440.34 0.290846 -2.75771 0
M  V30 14695 H 1443.29 -0.305829 -1.55725 0
M  V30 14696 H 1443.31 1.68608 -3.41104 0
M  V30 14697 H 1442.82 -0.0773119 -3.88023 0
M  V30 14698 H 1440.92 2.22239 -2.99066 0
M  V30 14699 H 1441.03 1.27365 -4.6186 0
M  V30 14700 H 1439.4 0.769894 -2.42785 0
M  V30 14701 H 1440.18 -0.604209 -3.37941 0
M  V30 14702 N 1442.63 1.56409 0.193394 0
M  V30 14703 C 1443.87 1.80991 0.914875 0
M  V30 14704 C 1444.2 0.654538 1.82837 0
M  V30 14705 O 1443.48 -0.344816 1.91419 0
M  V30 14706 C 1443.76 3.15841 1.72964 0
M  V30 14707 C 1443.62 4.41873 0.840748 0
M  V30 14708 C 1444.93 3.474 2.70188 0
M  V30 14709 H 1442.05 0.658408 0.331161 0
M  V30 14710 H 1444.7 1.89125 0.182161 0
M  V30 14711 H 1442.85 3.09038 2.35431 0
M  V30 14712 H 1444.52 4.60723 0.230654 0
M  V30 14713 H 1442.76 4.33549 0.147558 0
M  V30 14714 H 1443.43 5.32728 1.44586 0
M  V30 14715 H 1445.91 3.54513 2.17852 0
M  V30 14716 H 1444.78 4.42872 3.24278 0
M  V30 14717 H 1445.04 2.7098 3.49317 0
M  V30 14718 N 1444.1 -0.461169 1.50702 0
M  V30 14719 C 1445.03 -1.56576 1.73223 0
M  V30 14720 C 1446.01 -1.59855 0.581401 0
M  V30 14721 O 1447.2 -1.75964 0.821602 0
M  V30 14722 C 1444.33 -2.94835 1.83548 0
M  V30 14723 C 1443.28 -3.06421 2.98815 0
M  V30 14724 C 1442.61 -4.46425 2.94293 0
M  V30 14725 C 1443.91 -2.82714 4.3917 0
M  V30 14726 H 1445.6 -1.37982 2.65709 0
M  V30 14727 H 1443.15 -0.662362 1.27862 0
M  V30 14728 H 1445.1 -3.72047 1.97887 0
M  V30 14729 H 1443.83 -3.14608 0.876906 0
M  V30 14730 H 1442.49 -2.31644 2.84142 0
M  V30 14731 H 1442.13 -4.63131 1.96262 0
M  V30 14732 H 1441.83 -4.55111 3.71682 0
M  V30 14733 H 1443.36 -5.25644 3.10695 0
M  V30 14734 H 1444.77 -3.4967 4.54317 0
M  V30 14735 H 1443.17 -3.02835 5.18084 0
M  V30 14736 H 1444.24 -1.78492 4.50853 0
M  V30 14737 N 1445.58 -1.40446 -0.715026 0
M  V30 14738 C 1446.51 -1.35159 -1.83868 0
M  V30 14739 C 1447.49 -0.221884 -1.61079 0
M  V30 14740 O 1448.68 -0.405635 -1.84084 0
M  V30 14741 C 1445.8 -1.10358 -3.20217 0
M  V30 14742 C 1444.85 -2.25787 -3.61832 0
M  V30 14743 S 1445.68 -3.88183 -3.68882 0
M  V30 14744 C 1446.84 -3.65647 -5.07989 0
M  V30 14745 H 1447.07 -2.30252 -1.88073 0
M  V30 14746 H 1444.6 -1.26738 -0.881859 0
M  V30 14747 H 1446.56 -0.967343 -3.9894 0
M  V30 14748 H 1445.22 -0.169178 -3.13644 0
M  V30 14749 H 1444.42 -2.04078 -4.60834 0
M  V30 14750 H 1444.02 -2.35717 -2.90368 0
M  V30 14751 H 1446.31 -3.24149 -5.94923 0
M  V30 14752 H 1447.25 -4.64182 -5.34734 0
M  V30 14753 H 1447.66 -2.99322 -4.78609 0
M  V30 14754 N 1447.06 0.947303 -1.25952 0
M  V30 14755 C 1448.34 1.66964 -1.01894 0
M  V30 14756 C 1448.72 2.06192 0.452555 0
M  V30 14757 O 1448.06 1.78098 1.43156 0
M  V30 14758 C 1448.27 2.88643 -1.96179 0
M  V30 14759 C 1449.62 3.60432 -2.24441 0
M  V30 14760 O 1450.65 2.98737 -1.93996 0
M  V30 14761 O 1449.51 4.7154 -2.76247 0
M  V30 14762 H 1446.6 0.730875 -0.386976 0
M  V30 14763 H 1449.15 0.999577 -1.37137 0
M  V30 14764 H 1447.92 2.565 -2.95506 0
M  V30 14765 H 1447.54 3.63377 -1.61379 0
M  V30 14766 N 1448.54 1.07657 1.15099 0
M  V30 14767 C 1449.79 0.796589 1.85303 0
M  V30 14768 C 1450.1 -0.679887 1.83404 0
M  V30 14769 O 1451.31 -1.07475 2.49322 0
M  V30 14770 C 1449.76 1.37495 3.326 0
M  V30 14771 C 1449.37 2.88267 3.42938 0
M  V30 14772 C 1451.11 1.17313 4.07968 0
M  V30 14773 C 1449.02 3.39278 4.84401 0
M  V30 14774 H 1447.95 0.294316 0.694186 0
M  V30 14775 H 1450.6 1.29702 1.29806 0
M  V30 14776 H 1448.98 0.802248 3.87789 0
M  V30 14777 H 1450.16 3.51608 2.9784 0
M  V30 14778 H 1448.47 3.07275 2.81018 0
M  V30 14779 H 1451.07 1.52899 5.12373 0
M  V30 14780 H 1451.41 0.112387 4.16148 0
M  V30 14781 H 1451.95 1.71236 3.59059 0
M  V30 14782 H 1448.69 4.44892 4.81406 0
M  V30 14783 H 1448.21 2.80692 5.30068 0
M  V30 14784 H 1449.88 3.35416 5.53267 0
M  V30 14785 N 1450.02 -1.31994 0.861122 0
M  V30 14786 C 1450.98 -2.27019 0.315421 0
M  V30 14787 C 1451.98 -1.51864 -0.528575 0
M  V30 14788 O 1453.17 -1.70867 -0.339154 0
M  V30 14789 C 1450.3 -3.36384 -0.553021 0
M  V30 14790 H 1451.49 -2.768 1.1542 0
M  V30 14791 H 1449.05 -1.42776 0.635982 0
M  V30 14792 H 1449.78 -2.91882 -1.41335 0
M  V30 14793 H 1449.57 -3.92067 0.0511919 0
M  V30 14794 H 1451.06 -4.07172 -0.927392 0
M  V30 14795 N 1451.49 -0.619688 -1.44906 0
M  V30 14796 C 1452.72 -0.126363 -2.06514 0
M  V30 14797 C 1453.14 1.19432 -1.46224 0
M  V30 14798 O 1452.49 1.7301 -0.580851 0
M  V30 14799 C 1452.55 0.00682319 -3.61499 0
M  V30 14800 O 1452.27 -1.26162 -4.19541 0
M  V30 14801 C 1453.77 0.530189 -4.40118 0
M  V30 14802 H 1450.99 -0.0744032 -0.666862 0
M  V30 14803 H 1453.53 -0.850851 -1.85959 0
M  V30 14804 H 1451.69 0.681694 -3.81355 0
M  V30 14805 H 1452.1 -1.09908 -5.12855 0
M  V30 14806 H 1453.57 0.572428 -5.49024 0
M  V30 14807 H 1454.05 1.55494 -4.10753 0
M  V30 14808 H 1454.66 -0.111044 -4.25155 0
M  V30 14809 N 1452.97 1.53444 -0.359552 0
M  V30 14810 C 1453.94 2.24173 0.477412 0
M  V30 14811 C 1454.94 1.24747 1.01464 0
M  V30 14812 O 1456.13 1.49069 0.901343 0
M  V30 14813 C 1453.26 2.9738 1.66667 0
M  V30 14814 H 1454.45 2.99566 -0.141407 0
M  V30 14815 H 1452 1.55904 -0.111143 0
M  V30 14816 H 1452.74 2.26214 2.32374 0
M  V30 14817 H 1452.52 3.70325 1.28848 0
M  V30 14818 H 1454.01 3.51165 2.25994 0
M  V30 14819 N 1454.45 0.0885642 1.57351 0
M  V30 14820 C 1455.41 -0.858178 2.12528 0
M  V30 14821 C 1456.41 -1.21522 1.05304 0
M  V30 14822 O 1457.6 -1.14573 1.3122 0
M  V30 14823 C 1454.74 -2.15619 2.64048 0
M  V30 14824 H 1455.93 -0.37918 2.97493 0
M  V30 14825 H 1453.48 -0.160354 1.55475 0
M  V30 14826 H 1454.22 -2.68018 1.82584 0
M  V30 14827 H 1454 -1.90995 3.42437 0
M  V30 14828 H 1455.49 -2.83359 3.06753 0
M  V30 14829 N 1455.93 -1.56509 -0.185096 0
M  V30 14830 C 1456.88 -1.96237 -1.24875 0
M  V30 14831 C 1457.87 -0.849169 -1.46579 0
M  V30 14832 O 1459.08 -1.03422 -1.47322 0
M  V30 14833 H 1455.45 -0.624147 -0.419457 0
M  V30 14834 H 1457.42 -2.8492 -0.88673 0
M  V30 14835 C 1456.17 -2.32667 -2.58382 0
M  V30 14836 H 1455.49 -3.17858 -2.425 0
M  V30 14837 H 1456.93 -2.6432 -3.31528 0
M  V30 14838 C 1455.39 -1.16496 -3.16118 0
M  V30 14839 O 1455.92 -0.445283 -3.99224 0
M  V30 14840 N 1454.13 -0.939133 -2.75007 0
M  V30 14841 H 1453.68 -1.52611 -2.07527 0
M  V30 14842 H 1453.63 -0.163659 -3.13974 0
M  V30 14843 N 1457.41 0.45317 -1.50944 0
M  V30 14844 C 1458.65 1.20389 -1.62827 0
M  V30 14845 C 1458.98 1.91559 -0.336982 0
M  V30 14846 O 1458.24 1.83574 0.678153 0
M  V30 14847 C 1458.54 2.25747 -2.7708 0
M  V30 14848 C 1458.2 1.71703 -4.16928 0
M  V30 14849 C 1456.86 1.56686 -4.54976 0
M  V30 14850 C 1459.22 1.31804 -5.04259 0
M  V30 14851 C 1456.54 1.0022 -5.78077 0
M  V30 14852 C 1458.9 0.767738 -6.27924 0
M  V30 14853 C 1457.56 0.604341 -6.64759 0
M  V30 14854 H 1456.83 0.440536 -0.595827 0
M  V30 14855 H 1459.48 0.497234 -1.84932 0
M  V30 14856 H 1457.78 3.0239 -2.49134 0
M  V30 14857 H 1459.48 2.83625 -2.83475 0
M  V30 14858 H 1456.07 1.84364 -3.86921 0
M  V30 14859 H 1460.25 1.42233 -4.75482 0
M  V30 14860 H 1455.51 0.863228 -6.05275 0
M  V30 14861 H 1459.68 0.449994 -6.94945 0
M  V30 14862 H 1457.31 0.164663 -7.60022 0
M  V30 14863 N 1458.88 1.40823 0.707568 0
M  V30 14864 C 1460.3 1.35249 1.28704 0
M  V30 14865 C 1460.65 0.0298026 1.96177 0
M  V30 14866 O 1459.77 -0.872126 1.98048 0
M  V30 14867 C 1460.37 2.44965 2.34046 0
M  V30 14868 C 1458.93 2.42826 2.87598 0
M  V30 14869 C 1458.07 2.25429 1.61483 0
M  V30 14870 H 1461.02 1.50513 0.503141 0
M  V30 14871 H 1461.04 2.13334 3.1507 0
M  V30 14872 H 1460.56 3.41219 1.84908 0
M  V30 14873 H 1458.66 1.50294 3.40944 0
M  V30 14874 H 1458.77 3.38704 3.38845 0
M  V30 14875 H 1457.13 1.73089 1.86848 0
M  V30 14876 H 1457.92 3.23693 1.14359 0
M  V30 14877 N 1460.36 -0.94061 1.26453 0
M  V30 14878 C 1461.6 -1.70157 1.13252 0
M  V30 14879 C 1461.97 -1.89337 -0.318684 0
M  V30 14880 O 1463.17 -2.62625 -0.57283 0
M  V30 14881 C 1461.44 -3.03896 1.88101 0
M  V30 14882 S 1463 -3.95069 1.9096 0
M  V30 14883 H 1459.82 -0.584699 0.404534 0
M  V30 14884 H 1462.42 -1.12084 1.6018 0
M  V30 14885 H 1461.12 -2.87617 2.92753 0
M  V30 14886 H 1460.65 -3.67026 1.41616 0
M  V30 14887 H 1462.67 -4.86086 0.996721 0
M  V30 14888 N 1461.84 -1.08266 -1.14527 0
M  V30 14889 C 1462.77 -0.669233 -2.19212 0
M  V30 14890 C 1463.79 0.282962 -1.60322 0
M  V30 14891 O 1464.97 0.0708403 -1.78359 0
M  V30 14892 C 1462.07 0.0362509 -3.38881 0
M  V30 14893 C 1461.25 -0.934477 -4.27301 0
M  V30 14894 C 1460.31 -0.264584 -5.25534 0
M  V30 14895 O 1459.33 -0.908543 -5.61902 0
M  V30 14896 N 1460.53 0.98609 -5.72063 0
M  V30 14897 H 1463.3 -1.56982 -2.55297 0
M  V30 14898 H 1460.86 -0.968551 -1.29733 0
M  V30 14899 H 1462.85 0.495309 -4.01658 0
M  V30 14900 H 1461.42 0.838913 -3.01133 0
M  V30 14901 H 1460.64 -1.57241 -3.61481 0
M  V30 14902 H 1461.93 -1.59232 -4.83242 0
M  V30 14903 H 1461.33 1.52904 -5.44644 0
M  V30 14904 H 1459.89 1.38867 -6.36835 0
M  V30 14905 N 1463.32 1.31536 -0.86811 0
M  V30 14906 C 1464.74 1.49461 -0.559778 0
M  V30 14907 C 1464.94 1.79957 0.906525 0
M  V30 14908 O 1463.99 1.87711 1.68881 0
M  V30 14909 C 1465.3 2.62967 -1.45839 0
M  V30 14910 C 1466.85 2.76851 -1.46023 0
M  V30 14911 C 1467.33 3.93451 -2.34436 0
M  V30 14912 N 1468.82 4.00735 -2.32306 0
M  V30 14913 C 1469.55 4.90223 -2.97437 0
M  V30 14914 N 1469.05 5.84626 -3.71731 0
M  V30 14915 N 1470.84 4.83454 -2.86755 0
M  V30 14916 H 1462.99 1.1001 -1.81691 0
M  V30 14917 H 1465.26 0.543418 -0.776789 0
M  V30 14918 H 1464.96 2.47203 -2.50168 0
M  V30 14919 H 1464.84 3.59063 -1.15556 0
M  V30 14920 H 1467.22 2.9203 -0.424527 0
M  V30 14921 H 1467.3 1.81427 -1.80327 0
M  V30 14922 H 1466.95 3.79029 -3.38082 0
M  V30 14923 H 1466.88 4.88179 -1.97457 0
M  V30 14924 H 1469.37 3.33191 -1.78303 0
M  V30 14925 H 1469.68 6.49635 -4.18562 0
M  V30 14926 H 1468.03 5.84611 -3.75839 0
M  V30 14927 H 1471.22 4.08678 -2.28254 0
M  V30 14928 H 1471.39 5.52991 -3.37795 0
M  V30 14929 N 1464.8 0.627364 1.44575 0
M  V30 14930 C 1466.21 0.213149 1.85479 0
M  V30 14931 C 1466.56 -1.23458 1.52488 0
M  V30 14932 O 1465.68 -1.93885 0.961115 0
M  V30 14933 C 1466.28 0.380063 3.36661 0
M  V30 14934 C 1464.84 0.020385 3.76394 0
M  V30 14935 C 1463.99 0.695225 2.68444 0
M  V30 14936 H 1466.94 0.832771 1.35095 0
M  V30 14937 H 1466.96 -0.382078 3.78577 0
M  V30 14938 H 1466.47 1.43383 3.60642 0
M  V30 14939 H 1464.57 -1.03179 3.58029 0
M  V30 14940 H 1464.68 0.42782 4.77186 0
M  V30 14941 H 1463.05 0.130898 2.54363 0
M  V30 14942 H 1463.83 1.75151 2.95257 0
M  V30 14943 N 1466.28 -1.53251 0.367684 0
M  V30 14944 C 1467.52 -2.01287 -0.221351 0
M  V30 14945 C 1467.85 -1.25489 -1.48603 0
M  V30 14946 O 1467.11 -0.337392 -1.9277 0
M  V30 14947 C 1467.4 -3.53031 -0.557149 0
M  V30 14948 C 1467.07 -4.46708 0.613444 0
M  V30 14949 C 1465.73 -4.72036 0.934633 0
M  V30 14950 C 1468.08 -5.02112 1.3976 0
M  V30 14951 C 1465.41 -5.50021 2.04191 0
M  V30 14952 C 1467.76 -5.81306 2.49531 0
M  V30 14953 C 1466.43 -6.04921 2.82182 0
M  V30 14954 H 1465.7 -0.73656 -0.080998 0
M  V30 14955 H 1468.35 -1.84842 0.500581 0
M  V30 14956 H 1466.65 -3.67434 -1.36012 0
M  V30 14957 H 1468.35 -3.87674 -1.02519 0
M  V30 14958 H 1464.94 -4.27143 0.353075 0
M  V30 14959 H 1469.12 -4.82488 1.1627 0
M  V30 14960 H 1464.38 -5.66536 2.29884 0
M  V30 14961 H 1468.55 -6.23245 3.10707 0
M  V30 14962 H 1466.18 -6.65134 3.68104 0
M  V30 14963 N 1467.75 -0.0969077 -1.57302 0
M  V30 14964 C 1468.98 0.578086 -1.99181 0
M  V30 14965 C 1469.4 1.60818 -0.975667 0
M  V30 14966 O 1468.76 1.81215 0.0556054 0
M  V30 14967 C 1468.81 1.20076 -3.40021 0
M  V30 14968 O 1467.91 2.31656 -3.41188 0
M  V30 14969 H 1467.25 0.146506 -0.647636 0
M  V30 14970 H 1469.78 -0.178855 -2.03817 0
M  V30 14971 H 1469.79 1.54162 -3.77754 0
M  V30 14972 H 1468.47 0.446114 -4.135 0
M  V30 14973 H 1467.05 1.99175 -3.15252 0
M  V30 14974 N 1469.23 1.56605 0.176793 0
M  V30 14975 C 1470.14 1.99211 1.23903 0
M  V30 14976 C 1471.16 0.902614 1.48758 0
M  V30 14977 O 1472.33 1.20982 1.61014 0
M  V30 14978 C 1469.4 2.33873 2.55938 0
M  V30 14979 C 1468.46 3.56624 2.38994 0
M  V30 14980 C 1467.69 3.89623 3.64733 0
M  V30 14981 O 1467.92 3.23662 4.6968 0
M  V30 14982 O 1466.85 4.82992 3.5917 0
M  V30 14983 H 1470.68 2.89827 0.907398 0
M  V30 14984 H 1468.26 1.44401 0.383234 0
M  V30 14985 H 1470.14 2.57161 3.33836 0
M  V30 14986 H 1468.82 1.46421 2.88691 0
M  V30 14987 H 1467.72 3.38561 1.59146 0
M  V30 14988 H 1469.06 4.446 2.11167 0
M  V30 14989 N 1470.71 -0.445159 1.51182 0
M  V30 14990 C 1471.66 -1.53798 1.68316 0
M  V30 14991 C 1472.64 -1.51666 0.537244 0
M  V30 14992 O 1473.84 -1.58251 0.792818 0
M  V30 14993 C 1470.96 -2.92053 1.80444 0
M  V30 14994 C 1470.05 -2.98971 3.00794 0
M  V30 14995 N 1470.44 -2.75648 4.24089 0
M  V30 14996 C 1468.74 -3.30127 2.99887 0
M  V30 14997 C 1469.44 -2.88206 5.05284 0
M  V30 14998 N 1468.42 -3.19538 4.39769 0
M  V30 14999 H 1472.22 -1.34506 2.61315 0
M  V30 15000 H 1469.73 -0.652341 1.48722 0
M  V30 15001 H 1471.73 -3.70663 1.90827 0
M  V30 15002 H 1470.39 -3.12372 0.886204 0
M  V30 15003 H 1471.4 -2.50727 4.53163 0
M  V30 15004 H 1468.08 -3.5627 2.17665 0
M  V30 15005 H 1469.47 -2.74194 6.13406 0
M  V30 15006 N 1472.19 -1.41197 -0.700089 0
M  V30 15007 C 1473.12 -1.45456 -1.8266 0
M  V30 15008 C 1474.1 -0.313719 -1.67182 0
M  V30 15009 O 1475.28 -0.524528 -1.86982 0
M  V30 15010 C 1472.41 -1.33161 -3.20758 0
M  V30 15011 C 1471.37 -2.4501 -3.50933 0
M  V30 15012 C 1470.69 -2.17782 -4.88339 0
M  V30 15013 C 1471.99 -3.87352 -3.50365 0
M  V30 15014 H 1473.69 -2.39735 -1.79353 0
M  V30 15015 H 1471.23 -1.1539 -0.861465 0
M  V30 15016 H 1473.19 -1.34754 -3.99274 0
M  V30 15017 H 1471.91 -0.353646 -3.2468 0
M  V30 15018 H 1470.57 -2.42692 -2.74766 0
M  V30 15019 H 1470.22 -1.1834 -4.88881 0
M  V30 15020 H 1469.92 -2.92728 -5.09494 0
M  V30 15021 H 1471.44 -2.21083 -5.6917 0
M  V30 15022 H 1472.86 -3.9141 -4.18893 0
M  V30 15023 H 1471.25 -4.61944 -3.83051 0
M  V30 15024 H 1472.32 -4.15827 -2.4943 0
M  V30 15025 N 1473.67 0.933891 -1.2695 0
M  V30 15026 C 1474.91 1.67759 -1.12701 0
M  V30 15027 C 1475.23 1.92207 0.328848 0
M  V30 15028 O 1474.5 1.52394 1.23097 0
M  V30 15029 H 1473.08 0.621729 -0.41408 0
M  V30 15030 H 1475.75 1.1217 -1.59386 0
M  V30 15031 H 1474.84 2.64834 -1.65135 0
M  V30 15032 N 1475.14 1.08871 1.13951 0
M  V30 15033 C 1476.39 0.816198 1.84448 0
M  V30 15034 C 1476.71 -0.660396 1.84114 0
M  V30 15035 O 1477.91 -1.04825 2.50448 0
M  V30 15036 C 1476.37 1.41015 3.31123 0
M  V30 15037 C 1475.98 2.91888 3.39861 0
M  V30 15038 C 1477.72 1.21633 4.06701 0
M  V30 15039 C 1475.63 3.44397 4.80775 0
M  V30 15040 H 1474.56 0.301662 0.691025 0
M  V30 15041 H 1477.21 1.31072 1.28423 0
M  V30 15042 H 1475.59 0.843333 3.86916 0
M  V30 15043 H 1476.76 3.54747 2.94094 0
M  V30 15044 H 1475.08 3.10238 2.77743 0
M  V30 15045 H 1477.68 1.58324 5.10723 0
M  V30 15046 H 1478.02 0.156519 4.16006 0
M  V30 15047 H 1478.55 1.75035 3.57222 0
M  V30 15048 H 1475.29 4.49973 4.7666 0
M  V30 15049 H 1474.81 2.86299 5.27061 0
M  V30 15050 H 1476.49 3.41266 5.49679 0
M  V30 15051 N 1476.62 -1.31073 0.875073 0
M  V30 15052 C 1477.58 -2.26672 0.339481 0
M  V30 15053 C 1478.58 -1.52416 -0.512439 0
M  V30 15054 O 1479.77 -1.71217 -0.321012 0
M  V30 15055 C 1476.91 -3.36952 -0.517311 0
M  V30 15056 H 1478.1 -2.7556 1.18349 0
M  V30 15057 H 1475.65 -1.42093 0.65109 0
M  V30 15058 H 1476.39 -2.93364 -1.38231 0
M  V30 15059 H 1476.17 -3.9199 0.092773 0
M  V30 15060 H 1477.66 -4.08133 -0.884154 0
M  V30 15061 N 1478.1 -0.635022 -1.4424 0
M  V30 15062 C 1479.01 0.0686832 -2.34499 0
M  V30 15063 C 1480.03 0.831574 -1.52843 0
M  V30 15064 O 1481.2 0.782954 -1.85558 0
M  V30 15065 C 1478.27 1.03543 -3.30877 0
M  V30 15066 C 1477.33 0.271484 -4.28441 0
M  V30 15067 C 1476.56 1.19218 -5.20214 0
M  V30 15068 O 1476.78 2.43101 -5.16002 0
M  V30 15069 O 1475.72 0.6744 -5.9811 0
M  V30 15070 H 1479.54 -0.673781 -2.96132 0
M  V30 15071 H 1477.13 -0.395211 -1.44078 0
M  V30 15072 H 1479.01 1.59151 -3.90191 0
M  V30 15073 H 1477.69 1.75844 -2.71773 0
M  V30 15074 H 1476.59 -0.327736 -3.72662 0
M  V30 15075 H 1477.93 -0.411584 -4.90476 0
M  V30 15076 N 1479.58 1.53054 -0.375806 0
M  V30 15077 C 1480.51 2.28973 0.45754 0
M  V30 15078 C 1481.49 1.31812 1.07516 0
M  V30 15079 O 1482.67 1.60693 1.09048 0
M  V30 15080 C 1479.8 3.08657 1.59212 0
M  V30 15081 C 1478.76 4.1359 1.10123 0
M  V30 15082 C 1478.08 4.81417 2.32684 0
M  V30 15083 C 1479.38 5.21994 0.17872 0
M  V30 15084 H 1481.08 2.98883 -0.175872 0
M  V30 15085 H 1478.62 1.43743 -0.0860253 0
M  V30 15086 H 1480.58 3.6052 2.18182 0
M  V30 15087 H 1479.3 2.36456 2.25291 0
M  V30 15088 H 1477.96 3.62688 0.534151 0
M  V30 15089 H 1477.61 4.05778 2.97243 0
M  V30 15090 H 1477.31 5.52332 2.00506 0
M  V30 15091 H 1478.83 5.36079 2.92322 0
M  V30 15092 H 1480.25 5.69298 0.676204 0
M  V30 15093 H 1478.64 6.00077 -0.0526605 0
M  V30 15094 H 1479.71 4.78646 -0.776246 0
M  V30 15095 N 1481.06 0.105248 1.57248 0
M  V30 15096 C 1482.47 -0.422304 1.81861 0
M  V30 15097 C 1482.82 -1.67508 1.02154 0
M  V30 15098 O 1481.94 -2.14905 0.253961 0
M  V30 15099 C 1482.54 -0.772943 3.29865 0
M  V30 15100 C 1481.1 -1.24519 3.55207 0
M  V30 15101 C 1480.24 -0.246936 2.76198 0
M  V30 15102 H 1483.2 0.330565 1.55219 0
M  V30 15103 H 1483.22 -1.6316 3.43743 0
M  V30 15104 H 1482.73 0.139033 3.87851 0
M  V30 15105 H 1480.83 -2.17453 3.02564 0
M  V30 15106 H 1480.94 -1.20001 4.63828 0
M  V30 15107 H 1479.31 -0.731171 2.43979 0
M  V30 15108 H 1480.09 0.657896 3.36937 0
M  V30 15109 N 1482.53 -1.56697 -0.168486 0
M  V30 15110 C 1483.47 -1.93197 -1.23319 0
M  V30 15111 C 1484.48 -0.825373 -1.40326 0
M  V30 15112 O 1485.67 -1.10381 -1.40279 0
M  V30 15113 C 1482.77 -2.17205 -2.60145 0
M  V30 15114 C 1481.94 -3.48442 -2.64399 0
M  V30 15115 C 1481 -3.61244 -3.82609 0
M  V30 15116 O 1480.03 -4.33837 -3.68476 0
M  V30 15117 N 1481.23 -2.96304 -4.99183 0
M  V30 15118 H 1483.99 -2.85128 -0.923138 0
M  V30 15119 H 1481.55 -1.57887 -0.358229 0
M  V30 15120 H 1483.55 -2.23031 -3.37697 0
M  V30 15121 H 1482.12 -1.31643 -2.83529 0
M  V30 15122 H 1481.34 -3.54248 -1.72922 0
M  V30 15123 H 1482.62 -4.34795 -2.64255 0
M  V30 15124 H 1482.02 -2.37203 -5.13567 0
M  V30 15125 H 1480.58 -3.07722 -5.74587 0
M  V30 15126 N 1484.01 0.437135 -1.51416 0
M  V30 15127 C 1485.24 1.20723 -1.67659 0
M  V30 15128 C 1485.65 1.85476 -0.373547 0
M  V30 15129 O 1484.99 1.71516 0.657876 0
M  V30 15130 C 1485.06 2.33257 -2.73553 0
M  V30 15131 C 1484.72 1.8887 -4.16146 0
M  V30 15132 C 1485.72 1.39203 -5.00918 0
M  V30 15133 C 1483.4 1.96555 -4.62246 0
M  V30 15134 C 1485.4 0.978071 -6.29851 0
M  V30 15135 C 1483.08 1.54771 -5.91176 0
M  V30 15136 C 1484.08 1.05479 -6.74806 0
M  V30 15137 O 1483.77 0.64288 -8.01325 0
M  V30 15138 H 1483.5 0.36993 -0.565798 0
M  V30 15139 H 1486.05 0.524183 -1.98599 0
M  V30 15140 H 1484.28 3.04839 -2.37929 0
M  V30 15141 H 1485.97 2.95121 -2.78673 0
M  V30 15142 H 1486.74 1.3266 -4.66505 0
M  V30 15143 H 1482.62 2.33868 -3.97274 0
M  V30 15144 H 1486.16 0.592633 -6.95078 0
M  V30 15145 H 1482.06 1.60985 -6.25103 0
M  V30 15146 H 1482.83 0.768711 -8.14882 0
M  V30 15147 N 1485.49 1.41566 0.692592 0
M  V30 15148 C 1486.91 1.24101 1.00355 0
M  V30 15149 C 1487.11 0.132485 2.01064 0
M  V30 15150 O 1486.16 -0.502142 2.47457 0
M  V30 15151 C 1487.48 2.59142 1.52532 0
M  V30 15152 C 1489.02 2.66348 1.64401 0
M  V30 15153 C 1489.5 4.01713 2.19978 0
M  V30 15154 N 1490.99 4.03575 2.27335 0
M  V30 15155 C 1491.72 5.05118 2.71373 0
M  V30 15156 N 1491.22 6.1705 3.14994 0
M  V30 15157 N 1493.01 4.92479 2.70963 0
M  V30 15158 H 1485.16 2.12385 0.0254859 0
M  V30 15159 H 1487.43 0.945118 0.0738684 0
M  V30 15160 H 1487.13 3.41026 0.85989 0
M  V30 15161 H 1487.01 2.81833 2.50699 0
M  V30 15162 H 1489.39 1.84821 2.30055 0
M  V30 15163 H 1489.48 2.47464 0.647717 0
M  V30 15164 H 1489.12 4.8369 1.54939 0
M  V30 15165 H 1489.05 4.1794 3.20365 0
M  V30 15166 H 1491.54 3.2276 1.96556 0
M  V30 15167 H 1491.85 6.90399 3.47231 0
M  V30 15168 H 1490.2 6.20582 3.12895 0
M  V30 15169 H 1493.39 4.04117 2.36236 0
M  V30 15170 H 1493.56 5.71752 3.04965 0
M  V30 15171 N 1486.97 -0.927146 1.27443 0
M  V30 15172 C 1488.22 -1.66941 1.13197 0
M  V30 15173 C 1488.53 -1.92939 -0.32156 0
M  V30 15174 O 1489.74 -2.65124 -0.584931 0
M  V30 15175 C 1488.19 -3.00677 1.97791 0
M  V30 15176 C 1487.8 -2.82376 3.47805 0
M  V30 15177 C 1489.54 -3.78499 1.92195 0
M  V30 15178 C 1487.45 -4.1167 4.24596 0
M  V30 15179 H 1486.38 -0.626171 0.420031 0
M  V30 15180 H 1489.03 -1.02997 1.51868 0
M  V30 15181 H 1487.41 -3.65681 1.51965 0
M  V30 15182 H 1488.59 -2.26135 4.01497 0
M  V30 15183 H 1486.9 -2.17982 3.54786 0
M  V30 15184 H 1489.5 -4.74312 2.46844 0
M  V30 15185 H 1489.84 -4.0655 0.895702 0
M  V30 15186 H 1490.38 -3.20292 2.35919 0
M  V30 15187 H 1487.12 -3.88798 5.27747 0
M  V30 15188 H 1486.64 -4.67573 3.75681 0
M  V30 15189 H 1488.31 -4.80028 4.338 0
M  V30 15190 N 1488.45 -1.09474 -1.13372 0
M  V30 15191 C 1489.38 -0.756441 -2.20908 0
M  V30 15192 C 1490.36 0.266113 -1.68006 0
M  V30 15193 O 1491.54 0.134067 -1.93737 0
M  V30 15194 C 1488.67 -0.176733 -3.4685 0
M  V30 15195 C 1487.63 -1.12886 -4.12845 0
M  V30 15196 C 1486.95 -0.410831 -5.33119 0
M  V30 15197 C 1488.25 -2.47148 -4.60125 0
M  V30 15198 H 1489.95 -1.65555 -2.49463 0
M  V30 15199 H 1487.49 -0.797458 -1.19902 0
M  V30 15200 H 1489.45 0.0720151 -4.21338 0
M  V30 15201 H 1488.17 0.757576 -3.17692 0
M  V30 15202 H 1486.83 -1.36289 -3.40325 0
M  V30 15203 H 1486.48 0.527632 -5.00225 0
M  V30 15204 H 1486.18 -1.04567 -5.78221 0
M  V30 15205 H 1487.7 -0.170394 -6.10362 0
M  V30 15206 H 1489.11 -2.27949 -5.26034 0
M  V30 15207 H 1487.51 -3.06425 -5.15969 0
M  V30 15208 H 1488.58 -3.07874 -3.74622 0
M  V30 15209 N 1489.92 1.30607 -0.882012 0
M  V30 15210 C 1491.34 1.78418 -0.549892 0
M  V30 15211 C 1491.69 1.72553 0.933797 0
M  V30 15212 O 1490.81 1.30058 1.72956 0
M  V30 15213 C 1491.41 3.2397 -0.991398 0
M  V30 15214 C 1489.97 3.69629 -0.710739 0
M  V30 15215 C 1489.11 2.51127 -1.17602 0
M  V30 15216 H 1492.06 1.17519 -1.06653 0
M  V30 15217 H 1492.08 3.79159 -0.319115 0
M  V30 15218 H 1491.6 3.28207 -2.07128 0
M  V30 15219 H 1489.7 3.70883 0.357273 0
M  V30 15220 H 1489.81 4.61232 -1.29621 0
M  V30 15221 H 1488.17 2.47642 -0.595444 0
M  V30 15222 H 1488.96 2.58103 -2.26358 0
M  V30 15223 N 1491.4 0.642663 1.43901 0
M  V30 15224 C 1492.68 0.0821715 1.95427 0
M  V30 15225 C 1493.06 -1.3951 1.58431 0
M  V30 15226 O 1492.41 -2.11531 0.864118 0
M  V30 15227 C 1492.62 0.317229 3.47555 0
M  V30 15228 C 1493.97 0.216547 4.24047 0
M  V30 15229 O 1494.99 0.249216 3.55327 0
M  V30 15230 O 1493.85 0.131269 5.46342 0
M  V30 15231 H 1490.94 -0.0156936 0.826851 0
M  V30 15232 H 1493.49 0.715168 1.53894 0
M  V30 15233 H 1492.26 1.34184 3.67574 0
M  V30 15234 H 1491.88 -0.349348 3.96062 0
M  V30 15235 N 1492.88 -1.52852 0.383918 0
M  V30 15236 C 1493.83 -2.23089 -0.470652 0
M  V30 15237 C 1494.82 -1.23278 -1.03399 0
M  V30 15238 O 1496.01 -1.48641 -0.960985 0
M  V30 15239 C 1493.14 -3.03721 -1.60025 0
M  V30 15240 C 1492.22 -4.10924 -1.04892 0
M  V30 15241 N 1492.61 -5.05312 -0.222083 0
M  V30 15242 C 1490.91 -4.25958 -1.32195 0
M  V30 15243 C 1491.61 -5.81642 0.0818929 0
M  V30 15244 N 1490.59 -5.41101 -0.520629 0
M  V30 15245 H 1494.39 -2.93421 0.167663 0
M  V30 15246 H 1491.9 -1.6125 0.192927 0
M  V30 15247 H 1493.9 -3.52572 -2.22482 0
M  V30 15248 H 1492.56 -2.34924 -2.24145 0
M  V30 15249 H 1493.57 -5.1771 0.140223 0
M  V30 15250 H 1490.25 -3.68389 -1.96457 0
M  V30 15251 H 1491.64 -6.67684 0.751481 0
M  V30 15252 N 1494.36 -0.113586 -1.5719 0
M  V30 15253 C 1495.31 0.83862 -2.15025 0
M  V30 15254 C 1496.28 1.26726 -1.07376 0
M  V30 15255 O 1497.46 1.34574 -1.35257 0
M  V30 15256 C 1494.6 2.08538 -2.74965 0
M  V30 15257 C 1493.71 1.70559 -3.96905 0
M  V30 15258 C 1492.85 2.90161 -4.44949 0
M  V30 15259 C 1491.89 2.48396 -5.59433 0
M  V30 15260 N 1491.03 3.60894 -6.02246 0
M  V30 15261 H 1495.87 0.338585 -2.9607 0
M  V30 15262 H 1493.4 0.155437 -1.46276 0
M  V30 15263 H 1495.36 2.81579 -3.07846 0
M  V30 15264 H 1493.99 2.56009 -1.96619 0
M  V30 15265 H 1493.04 0.874133 -3.7022 0
M  V30 15266 H 1494.35 1.35863 -4.7994 0
M  V30 15267 H 1493.51 3.71434 -4.7971 0
M  V30 15268 H 1492.25 3.28081 -3.60852 0
M  V30 15269 H 1491.25 1.65555 -5.24282 0
M  V30 15270 H 1492.48 2.116 -6.45292 0
M  V30 15271 H 1490.42 3.98497 -5.21091 0
M  V30 15272 H 1490.34 3.30103 -6.80124 0
M  V30 15273 H 1491.61 4.42622 -6.41643 0
M  V30 15274 N 1495.84 1.56784 0.160173 0
M  V30 15275 C 1496.77 1.93848 1.22293 0
M  V30 15276 C 1497.78 0.832803 1.39886 0
M  V30 15277 O 1498.97 1.11124 1.39692 0
M  V30 15278 C 1496.07 2.18581 2.58989 0
M  V30 15279 C 1495.24 3.49839 2.62548 0
M  V30 15280 C 1494.3 3.63268 3.80687 0
M  V30 15281 O 1493.33 4.35785 3.6617 0
M  V30 15282 N 1494.53 2.98948 4.97605 0
M  V30 15283 H 1497.3 2.85614 0.908004 0
M  V30 15284 H 1494.86 1.58075 0.349851 0
M  V30 15285 H 1496.85 2.24819 3.36509 0
M  V30 15286 H 1495.42 1.33145 2.82827 0
M  V30 15287 H 1494.64 3.5516 1.7104 0
M  V30 15288 H 1495.93 4.3619 2.61945 0
M  V30 15289 H 1495.33 2.39924 5.12302 0
M  V30 15290 H 1493.88 3.10765 5.72947 0
M  V30 15291 N 1497.32 -0.429099 1.51646 0
M  V30 15292 C 1498.54 -1.20006 1.68541 0
M  V30 15293 C 1498.96 -1.84806 0.386264 0
M  V30 15294 O 1498.32 -1.7106 -0.635988 0
M  V30 15295 C 1498.37 -2.27801 2.80694 0
M  V30 15296 O 1498.09 -1.65649 4.05576 0
M  V30 15297 C 1499.59 -3.17927 3.08929 0
M  V30 15298 H 1496.81 -0.361388 0.565367 0
M  V30 15299 H 1499.35 -0.507432 1.98104 0
M  V30 15300 H 1497.51 -2.92766 2.53706 0
M  V30 15301 H 1497.92 -2.36955 4.67924 0
M  V30 15302 H 1499.4 -3.8968 3.90965 0
M  V30 15303 H 1499.87 -3.79157 2.21668 0
M  V30 15304 H 1500.48 -2.58654 3.37606 0
M  V30 15305 N 1498.79 -1.41931 -0.685074 0
M  V30 15306 C 1499.76 -1.44315 -1.78061 0
M  V30 15307 C 1500.76 -0.332215 -1.57331 0
M  V30 15308 O 1501.95 -0.59258 -1.63811 0
M  V30 15309 C 1499.08 -1.26479 -3.16569 0
M  V30 15310 H 1500.27 -2.4185 -1.77337 0
M  V30 15311 H 1497.82 -1.28228 -0.893721 0
M  V30 15312 H 1498.56 -0.298259 -3.22926 0
M  V30 15313 H 1498.34 -2.06981 -3.33018 0
M  V30 15314 H 1499.83 -1.31006 -3.96519 0
M  V30 15315 N 1500.27 0.920374 -1.27933 0
M  V30 15316 C 1501.23 2.0035 -1.11321 0
M  V30 15317 C 1502.23 1.60706 -0.0549132 0
M  V30 15318 O 1503.42 1.71595 -0.300134 0
M  V30 15319 C 1500.56 3.33681 -0.69782 0
M  V30 15320 H 1501.75 2.16518 -2.07509 0
M  V30 15321 H 1499.3 1.10216 -1.10825 0
M  V30 15322 H 1500.04 3.23214 0.265122 0
M  V30 15323 H 1499.82 3.63815 -1.46223 0
M  V30 15324 H 1501.31 4.13208 -0.604048 0
M  V30 15325 N 1501.75 1.10074 1.1279 0
M  V30 15326 C 1502.97 0.863106 1.88587 0
M  V30 15327 C 1503.4 -0.580595 1.78915 0
M  V30 15328 O 1502.76 -1.40859 1.14142 0
M  V30 15329 C 1502.81 1.31142 3.35908 0
M  V30 15330 O 1501.91 0.474088 4.09666 0
M  V30 15331 H 1501.25 0.312034 0.586115 0
M  V30 15332 H 1503.78 1.46659 1.42662 0
M  V30 15333 H 1503.79 1.29974 3.86744 0
M  V30 15334 H 1502.47 2.36279 3.42265 0
M  V30 15335 H 1501.04 0.550665 3.68812 0
M  V30 15336 N 1503.23 -1.30138 0.888926 0
M  V30 15337 C 1504.45 -2.00679 0.523697 0
M  V30 15338 C 1504.88 -1.66167 -0.881479 0
M  V30 15339 O 1504.24 -0.880418 -1.58488 0
M  V30 15340 C 1504.28 -3.53535 0.710284 0
M  V30 15341 O 1503.39 -4.11689 -0.242066 0
M  V30 15342 H 1502.73 -0.631273 0.205888 0
M  V30 15343 H 1505.26 -1.65891 1.19756 0
M  V30 15344 H 1505.27 -4.03402 0.610794 0
M  V30 15345 H 1503.94 -3.77992 1.73478 0
M  V30 15346 H 1502.52 -3.72777 -0.0959393 0
M  V30 15347 N 1504.71 -0.650285 -1.43559 0
M  V30 15348 C 1505.65 0.0550615 -2.32535 0
M  V30 15349 C 1506.65 0.81612 -1.48445 0
M  V30 15350 O 1507.85 0.726853 -1.64672 0
M  V30 15351 H 1504.23 0.0365887 -0.751109 0
M  V30 15352 H 1506.2 -0.713146 -2.89753 0
M  V30 15353 C 1504.95 1.00982 -3.32713 0
M  V30 15354 H 1504.27 0.433626 -3.97441 0
M  V30 15355 H 1505.71 1.47249 -3.9761 0
M  V30 15356 C 1504.17 2.10442 -2.63089 0
M  V30 15357 O 1504.7 3.18782 -2.44419 0
M  V30 15358 N 1502.91 1.86915 -2.22511 0
M  V30 15359 H 1502.45 0.988113 -2.37895 0
M  V30 15360 H 1502.41 2.60348 -1.76256 0
M  V30 15361 N 1506.18 1.52647 -0.392018 0
M  V30 15362 C 1507.11 2.29446 0.433228 0
M  V30 15363 C 1508.09 1.32945 1.06111 0
M  V30 15364 O 1509.28 1.61841 1.07337 0
M  V30 15365 C 1506.41 3.10328 1.55929 0
M  V30 15366 C 1505.36 4.14735 1.05731 0
M  V30 15367 C 1504.69 4.83858 2.27565 0
M  V30 15368 C 1505.99 5.22154 0.123346 0
M  V30 15369 H 1507.68 2.9868 -0.207563 0
M  V30 15370 H 1505.23 1.43643 -0.101266 0
M  V30 15371 H 1507.18 3.62814 2.14346 0
M  V30 15372 H 1505.91 2.38832 2.22771 0
M  V30 15373 H 1504.57 3.63234 0.495653 0
M  V30 15374 H 1504.21 4.08907 2.92923 0
M  V30 15375 H 1503.91 5.54428 1.94637 0
M  V30 15376 H 1505.44 5.39149 2.86619 0
M  V30 15377 H 1506.85 5.69983 0.615784 0
M  V30 15378 H 1505.25 5.99987 -0.116304 0
M  V30 15379 H 1506.32 4.77796 -0.826969 0
M  V30 15380 N 1507.66 0.121921 1.57128 0
M  V30 15381 C 1508.91 -0.5299 1.96376 0
M  V30 15382 C 1509.26 -1.64103 1.00439 0
M  V30 15383 O 1508.56 -1.91568 0.0349355 0
M  V30 15384 C 1508.75 -1.10579 3.39863 0
M  V30 15385 C 1508.58 -0.051992 4.4967 0
M  V30 15386 C 1507.35 0.380828 5.03863 0
M  V30 15387 C 1509.55 0.730085 5.09092 0
M  V30 15388 N 1507.53 1.4201 5.97249 0
M  V30 15389 C 1508.9 1.62048 5.98448 0
M  V30 15390 C 1510.96 0.780651 4.91742 0
M  V30 15391 C 1509.66 2.55704 6.72315 0
M  V30 15392 C 1511.68 1.70493 5.66291 0
M  V30 15393 C 1511.05 2.5829 6.55336 0
M  V30 15394 H 1507.15 -0.163445 0.764728 0
M  V30 15395 H 1509.73 0.210716 1.93556 0
M  V30 15396 H 1507.9 -1.81612 3.43325 0
M  V30 15397 H 1509.63 -1.72217 3.66229 0
M  V30 15398 H 1506.39 -0.0121324 4.73598 0
M  V30 15399 H 1506.81 1.93874 6.48646 0
M  V30 15400 H 1511.45 0.115994 4.22641 0
M  V30 15401 H 1509.17 3.23182 7.40661 0
M  V30 15402 H 1512.76 1.74954 5.54872 0
M  V30 15403 H 1511.64 3.28647 7.12012 0
M  V30 15404 N 1509.14 -1.56867 -0.151857 0
M  V30 15405 C 1510.07 -1.94494 -1.21263 0
M  V30 15406 C 1511.09 -0.84021 -1.39443 0
M  V30 15407 O 1512.27 -1.11863 -1.391 0
M  V30 15408 C 1509.37 -2.19952 -2.57826 0
M  V30 15409 C 1508.55 -3.51227 -2.60689 0
M  V30 15410 C 1507.61 -3.65282 -3.78756 0
M  V30 15411 O 1506.63 -4.3772 -3.63854 0
M  V30 15412 N 1507.83 -3.01582 -4.96012 0
M  V30 15413 H 1510.6 -2.86092 -0.892845 0
M  V30 15414 H 1508.16 -1.58258 -0.341463 0
M  V30 15415 H 1510.15 -2.266 -3.35312 0
M  V30 15416 H 1508.72 -1.34643 -2.82117 0
M  V30 15417 H 1507.94 -3.56062 -1.69155 0
M  V30 15418 H 1509.23 -4.37574 -2.59628 0
M  V30 15419 H 1508.63 -2.42637 -5.11022 0
M  V30 15420 H 1507.19 -3.13799 -5.71291 0
M  V30 15421 N 1510.62 0.421051 -1.51871 0
M  V30 15422 C 1511.84 1.19568 -1.69465 0
M  V30 15423 C 1512.27 1.83835 -0.398269 0
M  V30 15424 O 1511.63 1.69508 0.643172 0
M  V30 15425 C 1511.67 2.24337 -2.82321 0
M  V30 15426 O 1510.78 3.30205 -2.47059 0
M  V30 15427 H 1510.12 0.349579 -0.564527 0
M  V30 15428 H 1512.65 0.495177 -1.98517 0
M  V30 15429 H 1512.66 2.6886 -3.06885 0
M  V30 15430 H 1511.33 1.76941 -3.76384 0
M  V30 15431 H 1509.91 2.91045 -2.33125 0
M  V30 15432 N 1512.1 1.42293 0.677538 0
M  V30 15433 C 1513.32 1.46214 1.47092 0
M  V30 15434 C 1513.75 0.0740989 1.87954 0
M  V30 15435 O 1513.1 -0.926831 1.55819 0
M  V30 15436 C 1513.15 2.39236 2.69812 0
M  V30 15437 O 1512.26 1.86183 3.6798 0
M  V30 15438 H 1511.6 0.495507 0.442006 0
M  V30 15439 H 1514.13 1.86952 0.831274 0
M  V30 15440 H 1514.14 2.55723 3.17915 0
M  V30 15441 H 1512.81 3.40081 2.39411 0
M  V30 15442 H 1511.39 1.79237 3.26999 0
M  V30 15443 N 1513.57 -0.913576 1.28419 0
M  V30 15444 C 1514.8 -1.70178 1.18551 0
M  V30 15445 C 1515.22 -1.864 -0.252307 0
M  V30 15446 O 1514.58 -1.37427 -1.18252 0
M  V30 15447 C 1514.63 -3.07145 1.8893 0
M  V30 15448 O 1513.73 -3.9465 1.19688 0
M  V30 15449 H 1513.08 -0.521092 0.411533 0
M  V30 15450 H 1515.61 -1.14228 1.69744 0
M  V30 15451 H 1515.62 -3.57375 1.96843 0
M  V30 15452 H 1514.29 -2.94655 2.93515 0
M  V30 15453 H 1512.87 -3.53085 1.19939 0
M  V30 15454 N 1515.05 -1.1067 -1.12204 0
M  V30 15455 C 1516.28 -0.872867 -1.87586 0
M  V30 15456 C 1516.7 0.57682 -1.79773 0
M  V30 15457 O 1516.05 1.39782 -1.17334 0
M  V30 15458 C 1516.1 -1.31572 -3.36706 0
M  V30 15459 O 1515.82 -2.70856 -3.44338 0
M  V30 15460 C 1517.33 -1.11613 -4.29019 0
M  V30 15461 H 1514.55 -0.313132 -0.593455 0
M  V30 15462 H 1517.09 -1.47199 -1.4196 0
M  V30 15463 H 1515.24 -0.760212 -3.79868 0
M  V30 15464 H 1515.66 -2.89854 -4.37132 0
M  V30 15465 H 1517.13 -1.4751 -5.31925 0
M  V30 15466 H 1517.61 -0.0549698 -4.39166 0
M  V30 15467 H 1518.22 -1.65822 -3.91642 0
M  V30 15468 N 1516.53 1.29665 -0.895815 0
M  V30 15469 C 1517.78 1.9533 -0.518725 0
M  V30 15470 C 1518.1 1.70995 0.937322 0
M  V30 15471 O 1517.37 1.03955 1.66043 0
M  V30 15472 H 1515.95 0.722736 -0.188841 0
M  V30 15473 H 1518.61 1.57991 -1.14126 0
M  V30 15474 H 1517.71 3.04193 -0.698057 0
M  V30 15475 N 1518.01 0.657889 1.43212 0
M  V30 15476 C 1519.26 0.172845 2.0136 0
M  V30 15477 C 1519.58 -1.21911 1.52193 0
M  V30 15478 O 1518.85 -1.81529 0.736492 0
M  V30 15479 H 1517.43 0.0609091 0.744513 0
M  V30 15480 H 1520.09 0.850605 1.75359 0
M  V30 15481 H 1519.19 0.161062 3.11684 0
M  V30 15482 N 1519.49 -1.52437 0.400108 0
M  V30 15483 C 1520.9 -1.86563 -0.0715162 0
M  V30 15484 C 1521.25 -1.3193 -1.4522 0
M  V30 15485 O 1520.37 -0.654955 -2.06251 0
M  V30 15486 C 1520.97 -3.38525 -0.13655 0
M  V30 15487 C 1519.53 -3.72323 -0.55249 0
M  V30 15488 C 1518.67 -2.75896 0.278729 0
M  V30 15489 H 1521.63 -1.46192 0.617547 0
M  V30 15490 H 1521.65 -3.68357 -0.953588 0
M  V30 15491 H 1521.16 -3.78258 0.868468 0
M  V30 15492 H 1519.26 -3.38164 -1.56448 0
M  V30 15493 H 1519.37 -4.7814 -0.303139 0
M  V30 15494 H 1517.74 -2.53394 -0.257608 0
M  V30 15495 H 1518.52 -3.18467 1.28193 0
M  V30 15496 N 1520.96 -0.130252 -1.57061 0
M  V30 15497 C 1522.21 0.525006 -1.95576 0
M  V30 15498 C 1522.54 1.65964 -1.0142 0
M  V30 15499 O 1521.79 1.95659 -0.0401898 0
M  V30 15500 C 1522.09 1.08776 -3.40445 0
M  V30 15501 C 1521.76 0.0733062 -4.5084 0
M  V30 15502 C 1520.42 -0.20561 -4.80761 0
M  V30 15503 C 1522.77 -0.617428 -5.1753 0
M  V30 15504 C 1520.1 -1.18135 -5.74683 0
M  V30 15505 C 1522.45 -1.58188 -6.12503 0
M  V30 15506 C 1521.12 -1.86866 -6.4081 0
M  V30 15507 H 1520.39 0.192113 -0.715663 0
M  V30 15508 H 1523.03 -0.21354 -1.90306 0
M  V30 15509 H 1521.34 1.9033 -3.42464 0
M  V30 15510 H 1523.04 1.60305 -3.67564 0
M  V30 15511 H 1519.63 0.30088 -4.27543 0
M  V30 15512 H 1523.81 -0.415124 -4.94561 0
M  V30 15513 H 1519.07 -1.41017 -5.94915 0
M  V30 15514 H 1523.24 -2.12271 -6.6326 0
M  V30 15515 H 1520.87 -2.62628 -7.13394 0
M  V30 15516 N 1522.44 1.56945 0.143535 0
M  V30 15517 C 1523.37 2.0156 1.17881 0
M  V30 15518 C 1524.35 0.895744 1.44604 0
M  V30 15519 O 1525.54 1.16379 1.55466 0
M  V30 15520 C 1522.67 2.39915 2.51114 0
M  V30 15521 C 1521.62 3.55117 2.38905 0
M  V30 15522 C 1520.95 3.79296 3.7688 0
M  V30 15523 C 1522.25 4.87668 1.87021 0
M  V30 15524 H 1523.94 2.88296 0.80783 0
M  V30 15525 H 1521.49 1.38698 0.387149 0
M  V30 15526 H 1523.44 2.69727 3.23767 0
M  V30 15527 H 1522.17 1.5012 2.90055 0
M  V30 15528 H 1520.83 3.25476 1.68703 0
M  V30 15529 H 1520.47 2.86747 4.13262 0
M  V30 15530 H 1520.17 4.56827 3.69571 0
M  V30 15531 H 1521.7 4.11537 4.51076 0
M  V30 15532 H 1523.11 5.16176 2.4947 0
M  V30 15533 H 1521.51 5.69029 1.90594 0
M  V30 15534 H 1522.58 4.77811 0.82611 0
M  V30 15535 N 1523.92 -0.412991 1.52093 0
M  V30 15536 C 1525.17 -1.1603 1.65962 0
M  V30 15537 C 1525.5 -1.90598 0.387652 0
M  V30 15538 O 1524.75 -1.85308 -0.629243 0
M  V30 15539 C 1525.05 -2.18321 2.82968 0
M  V30 15540 C 1524.72 -1.60589 4.21334 0
M  V30 15541 C 1523.38 -1.44568 4.5897 0
M  V30 15542 C 1525.73 -1.18388 5.07576 0
M  V30 15543 C 1523.06 -0.848584 5.80531 0
M  V30 15544 C 1525.41 -0.600985 6.29739 0
M  V30 15545 C 1524.07 -0.42788 6.66127 0
M  V30 15546 H 1523.34 -0.424583 0.607297 0
M  V30 15547 H 1525.99 -0.448028 1.86185 0
M  V30 15548 H 1524.3 -2.95678 2.57063 0
M  V30 15549 H 1525.99 -2.76009 2.90895 0
M  V30 15550 H 1522.58 -1.7404 3.91673 0
M  V30 15551 H 1526.77 -1.29576 4.79086 0
M  V30 15552 H 1522.02 -0.702447 6.07351 0
M  V30 15553 H 1526.2 -0.265583 6.95893 0
M  V30 15554 H 1523.82 0.0369013 7.60191 0
M  V30 15555 N 1525.4 -1.4265 -0.669982 0
M  V30 15556 C 1526.63 -1.46784 -1.45816 0
M  V30 15557 C 1527.04 -0.080606 -1.88628 0
M  V30 15558 O 1526.4 0.905687 -1.58441 0
M  V30 15559 C 1526.45 -2.39915 -2.70413 0
M  V30 15560 O 1526.17 -3.73241 -2.29396 0
M  V30 15561 C 1527.67 -2.53118 -3.63931 0
M  V30 15562 H 1524.89 -0.499076 -0.448513 0
M  V30 15563 H 1527.44 -1.87216 -0.822819 0
M  V30 15564 H 1525.59 -2.02722 -3.30125 0
M  V30 15565 H 1526.01 -4.23164 -3.09891 0
M  V30 15566 H 1527.48 -3.22395 -4.48069 0
M  V30 15567 H 1527.96 -1.57062 -4.10156 0
M  V30 15568 H 1528.56 -2.91052 -3.10111 0
M  V30 15569 N 1526.88 0.906753 -1.28902 0
M  V30 15570 C 1527.81 2.01497 -1.09233 0
M  V30 15571 C 1528.82 1.62746 -0.0419378 0
M  V30 15572 O 1530.01 1.76198 -0.285728 0
M  V30 15573 C 1527.11 3.32816 -0.639255 0
M  V30 15574 C 1526.28 4.00137 -1.76661 0
M  V30 15575 C 1525.34 5.09742 -1.30573 0
M  V30 15576 O 1524.37 5.32559 -2.00921 0
M  V30 15577 N 1525.57 5.80243 -0.17275 0
M  V30 15578 H 1528.34 2.18927 -2.04673 0
M  V30 15579 H 1525.9 1.0785 -1.20748 0
M  V30 15580 H 1527.89 4.03477 -0.31439 0
M  V30 15581 H 1526.46 3.11807 0.222498 0
M  V30 15582 H 1525.68 3.22933 -2.26071 0
M  V30 15583 H 1526.97 4.41859 -2.52266 0
M  V30 15584 H 1526.37 5.64184 0.413931 0
M  V30 15585 H 1524.92 6.51734 0.0927926 0
M  V30 15586 N 1528.36 1.11264 1.11616 0
M  V30 15587 C 1529.32 0.7726 2.15786 0
M  V30 15588 C 1530.32 -0.207145 1.5946 0
M  V30 15589 O 1531.51 0.0171053 1.74192 0
M  V30 15590 C 1528.64 0.145927 3.40588 0
M  V30 15591 H 1529.83 1.69539 2.47379 0
M  V30 15592 H 1527.39 0.914278 1.2677 0
M  V30 15593 H 1528.12 -0.787178 3.14601 0
M  V30 15594 H 1527.91 0.851161 3.8275 0
M  V30 15595 H 1529.4 -0.0759176 4.17531 0
M  V30 15596 N 1529.83 -1.29188 0.902679 0
M  V30 15597 C 1530.76 -2.3006 0.399357 0
M  V30 15598 C 1531.74 -1.61724 -0.527199 0
M  V30 15599 O 1532.93 -1.89213 -0.437293 0
M  V30 15600 C 1530.06 -3.45309 -0.371331 0
M  V30 15601 C 1529.01 -4.25466 0.465068 0
M  V30 15602 C 1528.34 -5.32941 -0.433295 0
M  V30 15603 C 1529.64 -4.93287 1.71655 0
M  V30 15604 H 1531.33 -2.72409 1.24233 0
M  V30 15605 H 1528.88 -1.30958 0.598822 0
M  V30 15606 H 1530.83 -4.14955 -0.734207 0
M  V30 15607 H 1529.56 -3.01811 -1.24811 0
M  V30 15608 H 1528.22 -3.57532 0.810315 0
M  V30 15609 H 1527.86 -4.85688 -1.3083 0
M  V30 15610 H 1527.56 -5.87472 0.122657 0
M  V30 15611 H 1529.09 -6.05438 -0.792298 0
M  V30 15612 H 1530.5 -5.55353 1.42323 0
M  V30 15613 H 1528.9 -5.57763 2.21405 0
M  V30 15614 H 1529.97 -4.18406 2.45081 0
M  V30 15615 N 1531.31 -0.665475 -1.42861 0
M  V30 15616 C 1532.24 0.00482845 -2.335 0
M  V30 15617 C 1533.22 0.799135 -1.50159 0
M  V30 15618 O 1534.41 0.75816 -1.78789 0
M  V30 15619 C 1531.54 0.963347 -3.33672 0
M  V30 15620 C 1530.49 0.278294 -4.27094 0
M  V30 15621 C 1529.82 1.34911 -5.174 0
M  V30 15622 C 1531.12 -0.836925 -5.15551 0
M  V30 15623 H 1532.81 -0.752129 -2.89799 0
M  V30 15624 H 1530.36 -0.363139 -1.39346 0
M  V30 15625 H 1532.31 1.44128 -3.95986 0
M  V30 15626 H 1531.03 1.75161 -2.75656 0
M  V30 15627 H 1529.69 -0.179314 -3.66161 0
M  V30 15628 H 1529.34 2.12912 -4.55716 0
M  V30 15629 H 1529.04 0.895919 -5.8073 0
M  V30 15630 H 1530.57 1.82816 -5.8259 0
M  V30 15631 H 1531.98 -0.440617 -5.71604 0
M  V30 15632 H 1530.38 -1.21533 -5.87665 0
M  V30 15633 H 1531.45 -1.6897 -4.54507 0
M  V30 15634 N 1532.79 1.52222 -0.408187 0
M  V30 15635 C 1534.21 1.59491 -0.0590201 0
M  V30 15636 C 1534.41 1.42109 1.42854 0
M  V30 15637 O 1533.46 1.24757 2.19527 0
M  V30 15638 C 1534.77 2.9557 -0.553093 0
M  V30 15639 C 1536.32 3.08801 -0.510986 0
M  V30 15640 C 1536.8 4.47358 -0.981554 0
M  V30 15641 N 1538.29 4.53596 -0.938335 0
M  V30 15642 C 1539.02 5.59076 -1.27364 0
M  V30 15643 N 1538.52 6.72113 -1.68035 0
M  V30 15644 N 1540.31 5.49279 -1.19367 0
M  V30 15645 H 1532.46 1.61768 -1.37641 0
M  V30 15646 H 1534.73 0.760959 -0.565372 0
M  V30 15647 H 1534.43 3.13566 -1.59276 0
M  V30 15648 H 1534.31 3.77181 0.0377629 0
M  V30 15649 H 1536.69 2.90489 0.519637 0
M  V30 15650 H 1536.77 2.29098 -1.13788 0
M  V30 15651 H 1536.42 4.66413 -2.0105 0
M  V30 15652 H 1536.35 5.25556 -0.331478 0
M  V30 15653 H 1538.84 3.72453 -0.639297 0
M  V30 15654 H 1539.15 7.48586 -1.91934 0
M  V30 15655 H 1537.5 6.73396 -1.71938 0
M  V30 15656 H 1540.69 4.59853 -0.8748 0
M  V30 15657 H 1540.86 6.31378 -1.45829 0
M  V30 15658 N 1534.27 0.138579 1.5699 0
M  V30 15659 C 1535.5 -0.521806 2.00212 0
M  V30 15660 C 1535.91 -1.58967 1.01857 0
M  V30 15661 O 1535.27 -1.82494 0.0143099 0
M  V30 15662 C 1535.32 -1.13014 3.4338 0
M  V30 15663 O 1535.04 -0.104938 4.37974 0
M  V30 15664 C 1536.54 -1.87195 4.01837 0
M  V30 15665 H 1533.76 -0.136564 0.656956 0
M  V30 15666 H 1536.3 0.230685 2.03195 0
M  V30 15667 H 1534.46 -1.8333 3.41275 0
M  V30 15668 H 1534.87 -0.54948 5.21614 0
M  V30 15669 H 1536.35 -2.25061 5.04035 0
M  V30 15670 H 1536.82 -2.75467 3.42074 0
M  V30 15671 H 1537.43 -1.21597 4.07547 0
M  V30 15672 N 1535.75 -1.57019 -0.13521 0
M  V30 15673 C 1536.97 -1.88528 -0.864399 0
M  V30 15674 C 1537.4 -0.728852 -1.73405 0
M  V30 15675 O 1536.75 0.321196 -1.78432 0
M  V30 15676 C 1536.8 -3.18694 -1.6872 0
M  V30 15677 O 1535.91 -3.03458 -2.79262 0
M  V30 15678 H 1535.25 -0.61909 -0.24005 0
M  V30 15679 H 1537.78 -2.04233 -0.12248 0
M  V30 15680 H 1537.79 -3.51011 -2.0798 0
M  V30 15681 H 1536.46 -4.02462 -1.04868 0
M  V30 15682 H 1535.04 -2.82575 -2.43323 0
M  V30 15683 N 1537.22 0.404919 -1.52309 0
M  V30 15684 C 1538.45 1.17309 -1.70429 0
M  V30 15685 C 1538.87 1.84169 -0.415617 0
M  V30 15686 O 1538.22 1.7205 0.608693 0
M  V30 15687 C 1538.28 2.23306 -2.84282 0
M  V30 15688 O 1538 1.59176 -4.0816 0
M  V30 15689 C 1539.5 3.12972 -3.13948 0
M  V30 15690 H 1536.72 0.352348 -0.571045 0
M  V30 15691 H 1539.26 0.475851 -1.98887 0
M  V30 15692 H 1537.42 2.88693 -2.58332 0
M  V30 15693 H 1537.83 2.29481 -4.71634 0
M  V30 15694 H 1539.3 3.83411 -3.97115 0
M  V30 15695 H 1539.78 3.75582 -2.27672 0
M  V30 15696 H 1540.39 2.53251 -3.41678 0
M  V30 15697 N 1538.7 1.43003 0.662408 0
M  V30 15698 C 1539.95 1.43422 1.41821 0
M  V30 15699 C 1540.26 0.0586909 1.95512 0
M  V30 15700 O 1541.47 -0.0596978 2.71434 0
M  V30 15701 C 1539.93 2.52344 2.56613 0
M  V30 15702 C 1539.53 3.95961 2.09569 0
M  V30 15703 C 1541.28 2.61945 3.34044 0
M  V30 15704 C 1539.19 4.96367 3.21518 0
M  V30 15705 H 1538.12 0.533485 0.532832 0
M  V30 15706 H 1540.77 1.68958 0.715911 0
M  V30 15707 H 1539.15 2.19993 3.2927 0
M  V30 15708 H 1540.32 4.37728 1.43984 0
M  V30 15709 H 1538.64 3.90322 1.45044 0
M  V30 15710 H 1541.23 3.34137 4.17441 0
M  V30 15711 H 1541.58 1.66708 3.81463 0
M  V30 15712 H 1542.11 2.93552 2.68463 0
M  V30 15713 H 1538.85 5.93124 2.79077 0
M  V30 15714 H 1538.37 4.59221 3.85845 0
M  V30 15715 H 1540.05 5.18652 3.86793 0
M  V30 15716 N 1540.18 -0.899904 1.29381 0
M  V30 15717 C 1541.14 -1.98554 1.14494 0
M  V30 15718 C 1542.14 -1.60599 0.0804732 0
M  V30 15719 O 1543.33 -1.71096 0.327395 0
M  V30 15720 C 1540.47 -3.32529 0.750818 0
M  V30 15721 H 1541.66 -2.13189 2.10928 0
M  V30 15722 H 1539.21 -1.08438 1.12565 0
M  V30 15723 H 1539.95 -3.23595 -0.213668 0
M  V30 15724 H 1539.73 -3.61443 1.51992 0
M  V30 15725 H 1541.22 -4.12195 0.669709 0
M  V30 15726 N 1541.66 -1.11854 -1.11024 0
M  V30 15727 C 1542.89 -0.892714 -1.8665 0
M  V30 15728 C 1543.3 0.557721 -1.80374 0
M  V30 15729 O 1542.66 1.3853 -1.1881 0
M  V30 15730 C 1542.71 -1.35135 -3.35292 0
M  V30 15731 O 1542.43 -2.74493 -3.41446 0
M  V30 15732 C 1543.93 -1.16157 -4.27811 0
M  V30 15733 H 1541.15 -0.319409 -0.590101 0
M  V30 15734 H 1543.7 -1.48697 -1.40391 0
M  V30 15735 H 1541.85 -0.80046 -3.7904 0
M  V30 15736 H 1542.26 -2.94474 -4.34034 0
M  V30 15737 H 1543.74 -1.53144 -5.30331 0
M  V30 15738 H 1544.22 -0.101546 -4.39083 0
M  V30 15739 H 1544.82 -1.69966 -3.89861 0
M  V30 15740 N 1543.14 1.28707 -0.909517 0
M  V30 15741 C 1544.37 1.98995 -0.555405 0
M  V30 15742 C 1544.77 1.68183 0.866665 0
M  V30 15743 O 1544.12 0.928626 1.585 0
M  V30 15744 C 1544.18 3.53018 -0.67958 0
M  V30 15745 C 1543.84 4.0741 -2.07042 0
M  V30 15746 C 1544.84 4.21565 -3.04268 0
M  V30 15747 C 1542.53 4.42204 -2.38245 0
M  V30 15748 C 1544.52 4.69762 -4.30816 0
M  V30 15749 C 1542.21 4.90095 -3.65034 0
M  V30 15750 C 1543.2 5.03831 -4.61133 0
M  V30 15751 O 1542.89 5.50679 -5.85668 0
M  V30 15752 H 1542.62 0.64228 -0.210836 0
M  V30 15753 H 1545.18 1.64974 -1.22364 0
M  V30 15754 H 1543.41 3.86673 0.0457104 0
M  V30 15755 H 1545.1 4.0453 -0.33319 0
M  V30 15756 H 1545.86 3.94962 -2.81478 0
M  V30 15757 H 1541.74 4.30766 -1.642 0
M  V30 15758 H 1545.29 4.80398 -5.0583 0
M  V30 15759 H 1541.18 5.16137 -3.8765 0
M  V30 15760 H 1541.95 5.68974 -5.88397 0
M  V30 15761 N 1544.61 0.673042 1.42506 0
M  V30 15762 C 1545.54 0.00755467 2.33499 0
M  V30 15763 C 1546.53 -0.791161 1.50581 0
M  V30 15764 O 1547.71 -0.748668 1.79189 0
M  V30 15765 C 1544.84 -0.945638 3.34178 0
M  V30 15766 C 1543.79 -0.25564 4.27236 0
M  V30 15767 C 1543.12 -1.32165 5.18109 0
M  V30 15768 C 1544.42 0.864254 5.151 0
M  V30 15769 H 1546.11 0.767487 2.89396 0
M  V30 15770 H 1543.66 0.370524 1.39151 0
M  V30 15771 H 1545.61 -1.42026 3.96745 0
M  V30 15772 H 1544.34 -1.73697 2.76581 0
M  V30 15773 H 1543 0.19873 3.66061 0
M  V30 15774 H 1542.64 -2.10492 4.56839 0
M  V30 15775 H 1542.34 -0.865109 5.81197 0
M  V30 15776 H 1543.87 -1.79724 5.83551 0
M  V30 15777 H 1545.28 0.470924 5.71363 0
M  V30 15778 H 1543.68 1.24648 5.87012 0
M  V30 15779 H 1544.75 1.71378 4.53605 0
M  V30 15780 N 1546.09 -1.52004 0.416254 0
M  V30 15781 C 1547.51 -1.59457 0.0674775 0
M  V30 15782 C 1547.71 -1.42865 -1.42098 0
M  V30 15783 O 1546.76 -1.2592 -2.18862 0
M  V30 15784 C 1548.08 -2.95272 0.56876 0
M  V30 15785 C 1549.63 -3.08525 0.527356 0
M  V30 15786 C 1550.1 -4.46832 1.00526 0
M  V30 15787 N 1551.59 -4.53092 0.962377 0
M  V30 15788 C 1552.33 -5.58393 1.30327 0
M  V30 15789 N 1551.82 -6.71212 1.71597 0
M  V30 15790 N 1553.62 -5.48639 1.22278 0
M  V30 15791 H 1545.77 -1.61036 1.38496 0
M  V30 15792 H 1548.03 -0.75795 0.569399 0
M  V30 15793 H 1547.74 -3.12717 1.60937 0
M  V30 15794 H 1547.61 -3.77196 -0.0177595 0
M  V30 15795 H 1550 -2.9076 -0.504225 0
M  V30 15796 H 1550.08 -2.28491 1.15002 0
M  V30 15797 H 1549.72 -4.6534 2.03521 0
M  V30 15798 H 1549.65 -5.25373 0.359345 0
M  V30 15799 H 1552.14 -3.72109 0.65904 0
M  V30 15800 H 1552.46 -7.47558 1.95901 0
M  V30 15801 H 1550.8 -6.72475 1.75507 0
M  V30 15802 H 1553.99 -4.59383 0.899175 0
M  V30 15803 H 1554.16 -6.30596 1.49175 0
M  V30 15804 N 1547.57 -0.146903 -1.56914 0
M  V30 15805 C 1548.82 0.503237 -1.95734 0
M  V30 15806 C 1549.14 1.65407 -1.03275 0
M  V30 15807 O 1548.41 1.95673 -0.0942784 0
M  V30 15808 H 1546.99 0.188899 -0.722721 0
M  V30 15809 H 1549.65 -0.222379 -1.93627 0
M  V30 15810 H 1548.75 0.879445 -2.99453 0
M  V30 15811 N 1549.05 1.57088 0.126881 0
M  V30 15812 C 1550.33 1.7539 0.8659 0
M  V30 15813 C 1550.71 0.720288 1.98432 0
M  V30 15814 O 1550.05 -0.2572 2.27048 0
M  V30 15815 C 1550.26 3.20131 1.38985 0
M  V30 15816 C 1551.61 3.82404 1.84532 0
M  V30 15817 O 1552.64 3.23685 1.48682 0
M  V30 15818 O 1551.49 4.85599 2.50711 0
M  V30 15819 H 1548.59 0.717853 0.41063 0
M  V30 15820 H 1551.13 1.69335 0.111236 0
M  V30 15821 H 1549.91 3.86871 0.587056 0
M  V30 15822 H 1549.53 3.30692 2.20745 0
M  V30 15823 N 1550.53 -0.396836 1.52522 0
M  V30 15824 C 1551.77 -1.14098 1.68384 0
M  V30 15825 C 1552.13 -1.87877 0.414722 0
M  V30 15826 O 1551.42 -1.82247 -0.591318 0
M  V30 15827 C 1551.61 -2.15308 2.85267 0
M  V30 15828 C 1551.44 -1.51469 4.23423 0
M  V30 15829 C 1550.21 -1.28212 4.88763 0
M  V30 15830 C 1552.41 -0.968974 5.05089 0
M  V30 15831 N 1550.39 -0.603954 6.10922 0
M  V30 15832 C 1551.76 -0.418425 6.18586 0
M  V30 15833 C 1553.82 -0.864625 4.90335 0
M  V30 15834 C 1552.52 0.22626 7.18944 0
M  V30 15835 C 1554.55 -0.233774 5.90938 0
M  V30 15836 C 1553.91 0.306041 7.03735 0
M  V30 15837 H 1550.01 -0.403756 0.669705 0
M  V30 15838 H 1552.59 -0.431615 1.89856 0
M  V30 15839 H 1550.76 -2.8359 2.65389 0
M  V30 15840 H 1552.5 -2.82173 2.90104 0
M  V30 15841 H 1549.25 -1.55499 4.47344 0
M  V30 15842 H 1549.68 -0.28114 6.76416 0
M  V30 15843 H 1554.32 -1.26778 4.03345 0
M  V30 15844 H 1552.04 0.641447 8.0555 0
M  V30 15845 H 1555.62 -0.154387 5.81595 0
M  V30 15846 H 1554.5 0.786488 7.80246 0
M  V30 15847 N 1552.01 -1.43353 -0.654814 0
M  V30 15848 C 1553.24 -1.48107 -1.44041 0
M  V30 15849 C 1553.64 -0.0970423 -1.88951 0
M  V30 15850 O 1552.99 0.902686 -1.59991 0
M  V30 15851 C 1553.05 -2.36322 -2.7091 0
M  V30 15852 C 1552.71 -3.83887 -2.4795 0
M  V30 15853 C 1553.71 -4.75036 -2.11274 0
M  V30 15854 C 1551.39 -4.28359 -2.62324 0
M  V30 15855 C 1553.39 -6.08651 -1.89267 0
M  V30 15856 C 1551.08 -5.62028 -2.39933 0
M  V30 15857 C 1552.07 -6.51992 -2.0346 0
M  V30 15858 O 1551.76 -7.83189 -1.813 0
M  V30 15859 H 1551.49 -0.50532 -0.449029 0
M  V30 15860 H 1554.05 -1.88745 -0.810226 0
M  V30 15861 H 1552.28 -1.90569 -3.36482 0
M  V30 15862 H 1553.97 -2.32298 -3.32855 0
M  V30 15863 H 1554.73 -4.41957 -1.99747 0
M  V30 15864 H 1550.61 -3.58611 -2.89688 0
M  V30 15865 H 1554.16 -6.78833 -1.60723 0
M  V30 15866 H 1550.05 -5.94675 -2.51062 0
M  V30 15867 H 1550.82 -7.94751 -1.95738 0
M  V30 15868 N 1553.48 0.89303 -1.29857 0
M  V30 15869 C 1554.9 1.17496 -1.08013 0
M  V30 15870 C 1555.1 2.00829 0.164302 0
M  V30 15871 O 1554.16 2.37396 0.860194 0
M  V30 15872 C 1555.47 1.88944 -2.33924 0
M  V30 15873 C 1557.02 2.01742 -2.3931 0
M  V30 15874 C 1557.49 2.76601 -3.65042 0
M  V30 15875 N 1558.98 2.84152 -3.65803 0
M  V30 15876 C 1559.72 3.42628 -4.59776 0
M  V30 15877 N 1559.21 4.02218 -5.64086 0
M  V30 15878 N 1561.01 3.40366 -4.47334 0
M  V30 15879 H 1553.16 0.33719 -2.09706 0
M  V30 15880 H 1555.42 0.211899 -0.924014 0
M  V30 15881 H 1555.13 1.35151 -3.24695 0
M  V30 15882 H 1555 2.89379 -2.4195 0
M  V30 15883 H 1557.39 2.54708 -1.49022 0
M  V30 15884 H 1557.47 1.0042 -2.35265 0
M  V30 15885 H 1557.11 2.24309 -4.55684 0
M  V30 15886 H 1557.04 3.78283 -3.66346 0
M  V30 15887 H 1559.53 2.41835 -2.90386 0
M  V30 15888 H 1559.85 4.4488 -6.31903 0
M  V30 15889 H 1558.19 4.00661 -5.67887 0
M  V30 15890 H 1561.38 2.93035 -3.65031 0
M  V30 15891 H 1561.56 3.85644 -5.20752 0
M  V30 15892 N 1554.96 1.12442 1.10429 0
M  V30 15893 C 1556.24 0.791191 1.78884 0
M  V30 15894 C 1556.62 -0.719044 1.98477 0
M  V30 15895 O 1555.97 -1.65275 1.57786 0
M  V30 15896 C 1556.18 1.56632 3.11877 0
M  V30 15897 C 1557.52 1.75236 3.86752 0
M  V30 15898 O 1558.55 1.53145 3.21598 0
M  V30 15899 O 1557.41 2.12025 5.03694 0
M  V30 15900 H 1554.5 0.287788 0.775311 0
M  V30 15901 H 1557.05 1.22844 1.17078 0
M  V30 15902 H 1555.82 2.59317 2.93037 0
M  V30 15903 H 1555.44 1.12332 3.81402 0
M  V30 15904 N 1556.44 -1.28223 0.91633 0
M  V30 15905 C 1557.69 -1.95508 0.561095 0
M  V30 15906 C 1558.04 -1.70789 -0.885932 0
M  V30 15907 O 1557.33 -1.01983 -1.62204 0
M  V30 15908 C 1557.53 -3.48112 0.809509 0
M  V30 15909 C 1557.36 -3.87667 2.27913 0
M  V30 15910 C 1556.13 -4.11698 2.92973 0
M  V30 15911 C 1558.32 -3.98127 3.25576 0
M  V30 15912 N 1556.31 -4.37946 4.30205 0
M  V30 15913 C 1557.68 -4.28618 4.4798 0
M  V30 15914 C 1559.73 -3.8066 3.2094 0
M  V30 15915 C 1558.44 -4.43462 5.66334 0
M  V30 15916 C 1560.46 -3.96723 4.38594 0
M  V30 15917 C 1559.82 -4.2759 5.59773 0
M  V30 15918 H 1555.92 -0.739174 0.255237 0
M  V30 15919 H 1558.51 -1.54823 1.18059 0
M  V30 15920 H 1556.68 -3.87781 0.219261 0
M  V30 15921 H 1558.41 -4.02535 0.418046 0
M  V30 15922 H 1555.16 -4.06093 2.43691 0
M  V30 15923 H 1555.59 -4.55148 5.01168 0
M  V30 15924 H 1560.23 -3.55846 2.28328 0
M  V30 15925 H 1557.95 -4.67107 6.59421 0
M  V30 15926 H 1561.53 -3.84641 4.36512 0
M  V30 15927 H 1560.41 -4.39755 6.49296 0
M  V30 15928 N 1557.92 -0.68059 -1.42147 0
M  V30 15929 C 1559.17 -0.204857 -2.01059 0
M  V30 15930 C 1559.49 1.19475 -1.54113 0
M  V30 15931 O 1558.76 1.80334 -0.765279 0
M  V30 15932 H 1557.34 -0.0727459 -0.743449 0
M  V30 15933 H 1560 -0.878396 -1.73983 0
M  V30 15934 H 1559.09 -0.210628 -3.11388 0
M  V30 15935 N 1559.4 1.51781 -0.424309 0
M  V30 15936 C 1560.62 2.06871 0.147968 0
M  V30 15937 C 1561.05 1.29093 1.36808 0
M  V30 15938 O 1560.4 0.325279 1.78358 0
M  V30 15939 C 1560.45 3.57631 0.461757 0
M  V30 15940 O 1559.56 3.82149 1.55035 0
M  V30 15941 H 1558.9 0.663957 0.00757275 0
M  V30 15942 H 1561.43 1.95547 -0.601888 0
M  V30 15943 H 1561.44 4.01668 0.716005 0
M  V30 15944 H 1560.11 4.1367 -0.430081 0
M  V30 15945 H 1558.69 3.49984 1.28709 0
M  V30 15946 N 1560.87 0.155222 1.56834 0
M  V30 15947 C 1562.12 -0.494557 1.96677 0
M  V30 15948 C 1562.45 -1.63973 1.04051 0
M  V30 15949 O 1561.73 -1.94316 0.0844791 0
M  V30 15950 C 1562.01 -0.992902 3.46141 0
M  V30 15951 C 1561.86 0.151335 4.49545 0
M  V30 15952 C 1563.18 -1.87197 3.98303 0
M  V30 15953 H 1560.3 -0.178298 0.715107 0
M  V30 15954 H 1562.94 0.23811 1.88502 0
M  V30 15955 H 1561.09 -1.61724 3.53239 0
M  V30 15956 H 1562.77 0.787945 4.54521 0
M  V30 15957 H 1561.01 0.809262 4.26185 0
M  V30 15958 H 1561.68 -0.23921 5.51481 0
M  V30 15959 H 1564.16 -1.34578 3.93736 0
M  V30 15960 H 1563.03 -2.18972 5.03331 0
M  V30 15961 H 1563.29 -2.81191 3.41151 0
M  V30 15962 N 1562.35 -1.57153 -0.118549 0
M  V30 15963 C 1563.26 -2.03673 -1.16424 0
M  V30 15964 C 1564.28 -0.957203 -1.45305 0
M  V30 15965 O 1565.45 -1.26874 -1.56413 0
M  V30 15966 C 1562.52 -2.43211 -2.47082 0
M  V30 15967 C 1561.58 -3.65248 -2.25593 0
M  V30 15968 C 1560.81 -4.02891 -3.50021 0
M  V30 15969 O 1561.04 -3.40871 -4.57344 0
M  V30 15970 O 1559.97 -4.95989 -3.40996 0
M  V30 15971 H 1563.8 -2.92996 -0.799206 0
M  V30 15972 H 1561.38 -1.45724 -0.329376 0
M  V30 15973 H 1563.26 -2.69374 -3.24061 0
M  V30 15974 H 1561.94 -1.57034 -2.83058 0
M  V30 15975 H 1560.84 -3.44234 -1.46471 0
M  V30 15976 H 1562.18 -4.52131 -1.94521 0
M  V30 15977 N 1563.83 0.388742 -1.5273 0
M  V30 15978 C 1564.76 1.49441 -1.73781 0
M  V30 15979 C 1565.77 1.50602 -0.618285 0
M  V30 15980 O 1566.96 1.545 -0.893986 0
M  V30 15981 C 1564.06 2.88288 -1.78166 0
M  V30 15982 C 1563.24 3.11089 -3.07478 0
M  V30 15983 C 1562.3 4.2992 -3.03407 0
M  V30 15984 O 1561.32 4.26212 -3.77269 0
M  V30 15985 N 1562.52 5.36121 -2.2261 0
M  V30 15986 H 1565.29 1.3177 -2.69178 0
M  V30 15987 H 1562.85 0.578258 -1.51221 0
M  V30 15988 H 1564.84 3.65884 -1.72949 0
M  V30 15989 H 1563.41 2.99317 -0.901553 0
M  V30 15990 H 1562.63 2.21356 -3.26183 0
M  V30 15991 H 1563.92 3.23177 -3.92981 0
M  V30 15992 H 1563.32 5.41988 -1.62067 0
M  V30 15993 H 1561.87 6.12381 -2.23232 0
M  V30 15994 N 1565.31 1.43698 0.647203 0
M  V30 15995 C 1566.54 1.48869 1.43254 0
M  V30 15996 C 1566.95 0.107061 1.88897 0
M  V30 15997 O 1566.29 -0.894189 1.60468 0
M  V30 15998 C 1566.35 2.37755 2.69653 0
M  V30 15999 C 1566.01 3.85197 2.45911 0
M  V30 16000 C 1567.01 4.7615 2.08752 0
M  V30 16001 C 1564.7 4.29744 2.60049 0
M  V30 16002 C 1566.69 6.09647 1.86037 0
M  V30 16003 C 1564.38 5.63293 2.36949 0
M  V30 16004 C 1565.38 6.53061 1.99999 0
M  V30 16005 O 1565.06 7.8414 1.77144 0
M  V30 16006 H 1564.8 0.507694 0.446343 0
M  V30 16007 H 1567.35 1.89172 0.800205 0
M  V30 16008 H 1565.58 1.9235 3.35467 0
M  V30 16009 H 1567.27 2.3406 3.31618 0
M  V30 16010 H 1568.03 4.4301 1.974 0
M  V30 16011 H 1563.91 3.60142 2.87782 0
M  V30 16012 H 1567.46 6.79676 1.57121 0
M  V30 16013 H 1563.35 5.95998 2.47905 0
M  V30 16014 H 1564.12 7.95778 1.91521 0
M  V30 16015 N 1566.79 -0.886131 1.30328 0
M  V30 16016 C 1567.74 -1.979 1.13224 0
M  V30 16017 C 1568.72 -1.60829 0.0477368 0
M  V30 16018 O 1569.91 -1.74914 0.270932 0
M  V30 16019 C 1567.04 -3.33241 0.824943 0
M  V30 16020 C 1566.13 -3.76629 1.94965 0
M  V30 16021 N 1566.52 -3.92125 3.19486 0
M  V30 16022 C 1564.82 -4.06015 1.84575 0
M  V30 16023 C 1565.52 -4.2891 3.92951 0
M  V30 16024 N 1564.49 -4.38707 3.20993 0
M  V30 16025 H 1568.3 -2.07969 2.07668 0
M  V30 16026 H 1565.81 -1.07587 1.21651 0
M  V30 16027 H 1567.81 -4.1126 0.683423 0
M  V30 16028 H 1566.47 -3.24509 -0.111438 0
M  V30 16029 H 1567.48 -3.77288 3.54788 0
M  V30 16030 H 1564.15 -4.05763 0.982969 0
M  V30 16031 H 1565.54 -4.48632 5.00179 0
M  V30 16032 N 1568.26 -1.13026 -1.09832 0
M  V30 16033 C 1569.68 -0.867598 -1.33959 0
M  V30 16034 C 1569.88 0.499047 -1.95222 0
M  V30 16035 O 1568.94 1.24644 -2.19591 0
M  V30 16036 C 1570.25 -1.98893 -2.25526 0
M  V30 16037 C 1571.8 -2.02054 -2.39047 0
M  V30 16038 C 1572.27 -3.13438 -3.33947 0
M  V30 16039 N 1573.76 -3.12921 -3.41518 0
M  V30 16040 C 1574.5 -3.95746 -4.14937 0
M  V30 16041 N 1573.99 -4.88574 -4.91189 0
M  V30 16042 N 1575.79 -3.8386 -4.10619 0
M  V30 16043 H 1567.94 -2.01072 -0.684382 0
M  V30 16044 H 1570.2 -0.875341 -0.363982 0
M  V30 16045 H 1569.91 -2.97405 -1.87731 0
M  V30 16046 H 1569.78 -1.89948 -3.25883 0
M  V30 16047 H 1572.17 -1.04158 -2.76107 0
M  V30 16048 H 1572.25 -2.15072 -1.38483 0
M  V30 16049 H 1571.89 -4.11571 -2.9761 0
M  V30 16050 H 1571.82 -2.97658 -4.34405 0
M  V30 16051 H 1574.31 -2.45677 -2.87144 0
M  V30 16052 H 1574.63 -5.48269 -5.44629 0
M  V30 16053 H 1572.97 -4.92583 -4.90292 0
M  V30 16054 H 1576.16 -3.10669 -3.50146 0
M  V30 16055 H 1576.34 -4.48637 -4.67577 0
M  V30 16056 N 1569.74 1.27735 -0.923117 0
M  V30 16057 C 1570.67 2.29395 -0.435907 0
M  V30 16058 C 1571.65 1.62542 0.501403 0
M  V30 16059 O 1572.84 1.89884 0.407135 0
M  V30 16060 C 1569.97 3.45856 0.316348 0
M  V30 16061 C 1568.92 4.24672 -0.532697 0
M  V30 16062 C 1568.25 5.33563 0.348454 0
M  V30 16063 C 1569.55 4.90494 -1.79481 0
M  V30 16064 H 1571.24 2.70398 -1.28551 0
M  V30 16065 H 1568.79 1.29989 -0.619581 0
M  V30 16066 H 1570.74 4.1607 0.668098 0
M  V30 16067 H 1569.47 3.03758 1.19994 0
M  V30 16068 H 1568.12 3.56198 -0.867093 0
M  V30 16069 H 1567.77 4.87708 1.23086 0
M  V30 16070 H 1567.47 5.87202 -0.216104 0
M  V30 16071 H 1569 6.06622 0.695878 0
M  V30 16072 H 1570.41 5.53019 -1.5114 0
M  V30 16073 H 1568.81 5.5417 -2.30251 0
M  V30 16074 H 1569.88 4.14454 -2.51707 0
M  V30 16075 N 1571.22 0.688118 1.41784 0
M  V30 16076 C 1572.47 0.216263 2.01644 0
M  V30 16077 C 1572.8 -1.17861 1.54345 0
M  V30 16078 O 1572.07 -1.794 0.751392 0
M  V30 16079 C 1572.36 0.265663 3.59119 0
M  V30 16080 C 1572.21 1.69694 4.16562 0
M  V30 16081 C 1573.53 -0.378713 4.38468 0
M  V30 16082 H 1570.65 0.0800582 0.732639 0
M  V30 16083 H 1573.29 0.875428 1.68631 0
M  V30 16084 H 1571.44 -0.295588 3.87374 0
M  V30 16085 H 1573.11 2.31146 3.9921 0
M  V30 16086 H 1571.36 2.23345 3.71886 0
M  V30 16087 H 1572.03 1.68309 5.25715 0
M  V30 16088 H 1574.5 0.0991969 4.15982 0
M  V30 16089 H 1573.38 -0.31357 5.48004 0
M  V30 16090 H 1573.64 -1.45832 4.17355 0
M  V30 16091 N 1572.7 -1.51554 0.432352 0
M  V30 16092 C 1574.11 -1.86673 -0.0319274 0
M  V30 16093 C 1574.46 -1.34981 -1.42389 0
M  V30 16094 O 1573.59 -0.698556 -2.04815 0
M  V30 16095 C 1574.18 -3.38738 -0.0647127 0
M  V30 16096 C 1572.74 -3.73411 -0.47339 0
M  V30 16097 C 1571.89 -2.75242 0.337187 0
M  V30 16098 H 1574.84 -1.44849 0.648417 0
M  V30 16099 H 1574.86 -3.70297 -0.875239 0
M  V30 16100 H 1574.37 -3.76331 0.948507 0
M  V30 16101 H 1572.47 -3.41406 -1.4924 0
M  V30 16102 H 1572.58 -4.78675 -0.20165 0
M  V30 16103 H 1570.95 -2.53883 -0.203801 0
M  V30 16104 H 1571.73 -3.15677 1.34919 0
M  V30 16105 N 1574.18 -0.163538 -1.56749 0
M  V30 16106 C 1575.14 0.755801 -2.1638 0
M  V30 16107 C 1576.14 1.16359 -1.10982 0
M  V30 16108 O 1577.33 1.08182 -1.36537 0
M  V30 16109 C 1574.46 2.02775 -2.74035 0
M  V30 16110 H 1575.65 0.23681 -2.98964 0
M  V30 16111 H 1573.21 0.0859925 -1.56063 0
M  V30 16112 H 1573.94 2.59002 -1.95163 0
M  V30 16113 H 1573.73 1.74439 -3.5116 0
M  V30 16114 H 1575.22 2.684 -3.19923 0
M  V30 16115 N 1575.65 1.57214 0.110213 0
M  V30 16116 C 1576.93 1.76298 0.847249 0
M  V30 16117 C 1577.31 0.741294 1.97656 0
M  V30 16118 O 1576.66 -0.233104 2.27308 0
M  V30 16119 C 1576.87 3.21588 1.35582 0
M  V30 16120 C 1578.22 3.8434 1.80465 0
M  V30 16121 O 1579.24 3.25244 1.45241 0
M  V30 16122 O 1578.1 4.88231 2.45546 0
M  V30 16123 H 1575.19 0.722167 0.402993 0
M  V30 16124 H 1577.74 1.69443 0.0932694 0
M  V30 16125 H 1576.51 3.87472 0.54599 0
M  V30 16126 H 1576.14 3.33015 2.17225 0
M  V30 16127 N 1577.13 -0.380637 1.52934 0
M  V30 16128 C 1578.06 -1.48518 1.74571 0
M  V30 16129 C 1579.08 -1.50272 0.626263 0
M  V30 16130 O 1580.27 -1.54023 0.902167 0
M  V30 16131 C 1577.37 -2.87339 1.79693 0
M  V30 16132 C 1576.54 -3.09454 3.09123 0
M  V30 16133 C 1575.6 -4.28305 3.05682 0
M  V30 16134 O 1574.62 -4.24205 3.79524 0
M  V30 16135 N 1575.83 -5.34932 2.2545 0
M  V30 16136 H 1578.59 -1.30341 2.69873 0
M  V30 16137 H 1576.15 -0.57023 1.51526 0
M  V30 16138 H 1578.14 -3.64961 1.74887 0
M  V30 16139 H 1576.71 -2.98835 0.917414 0
M  V30 16140 H 1575.93 -2.19623 3.27352 0
M  V30 16141 H 1577.22 -3.21089 3.94689 0
M  V30 16142 H 1576.62 -5.41121 1.64939 0
M  V30 16143 H 1575.18 -6.11189 2.26476 0
M  V30 16144 N 1578.61 -1.44039 -0.639573 0
M  V30 16145 C 1579.57 -1.49907 -1.7338 0
M  V30 16146 C 1580.57 -0.382101 -1.56194 0
M  V30 16147 O 1581.76 -0.644396 -1.61843 0
M  V30 16148 C 1578.9 -1.36486 -3.12385 0
M  V30 16149 H 1580.09 -2.4737 -1.69553 0
M  V30 16150 H 1577.64 -1.31006 -0.852474 0
M  V30 16151 H 1578.38 -0.400845 -3.21813 0
M  V30 16152 H 1578.16 -2.17471 -3.26265 0
M  V30 16153 H 1579.65 -1.43555 -3.9215 0
M  V30 16154 N 1580.09 0.879207 -1.30796 0
M  V30 16155 C 1581.5 1.44705 -1.17972 0
M  V30 16156 C 1581.85 1.94992 0.217381 0
M  V30 16157 O 1580.98 1.85494 1.11449 0
M  V30 16158 C 1581.57 2.6302 -2.13555 0
M  V30 16159 C 1580.13 3.15877 -2.04692 0
M  V30 16160 C 1579.28 1.88576 -2.03309 0
M  V30 16161 H 1582.23 0.688604 -1.42982 0
M  V30 16162 H 1582.25 3.39418 -1.71976 0
M  V30 16163 H 1581.76 2.2639 -3.15229 0
M  V30 16164 H 1579.86 3.57151 -1.0618 0
M  V30 16165 H 1579.97 3.78786 -2.93357 0
M  V30 16166 H 1578.34 2.0715 -1.48192 0
M  V30 16167 H 1579.12 1.54195 -3.06723 0
M  V30 16168 N 1581.57 1.13606 1.09231 0
M  V30 16169 C 1582.84 0.81012 1.78035 0
M  V30 16170 C 1583.22 -0.697953 1.99228 0
M  V30 16171 O 1582.57 -1.63592 1.5953 0
M  V30 16172 C 1582.78 1.59932 3.10198 0
M  V30 16173 C 1584.13 1.79328 3.84872 0
M  V30 16174 O 1585.15 1.56547 3.19955 0
M  V30 16175 O 1584.01 2.17355 5.01417 0
M  V30 16176 H 1581.11 0.295995 0.772215 0
M  V30 16177 H 1583.65 1.24079 1.15769 0
M  V30 16178 H 1582.43 2.6241 2.9027 0
M  V30 16179 H 1582.05 1.16371 3.80189 0
M  V30 16180 N 1583.05 -1.27244 0.929878 0
M  V30 16181 C 1584.01 -2.25028 0.435315 0
M  V30 16182 C 1585.01 -1.54453 -0.447332 0
M  V30 16183 O 1586.2 -1.72424 -0.248105 0
M  V30 16184 C 1583.33 -3.38843 -0.373933 0
M  V30 16185 H 1584.52 -2.70293 1.2993 0
M  V30 16186 H 1582.08 -1.39204 0.710771 0
M  V30 16187 H 1582.81 -2.98963 -1.25664 0
M  V30 16188 H 1582.6 -3.91244 0.258946 0
M  V30 16189 H 1584.09 -4.11516 -0.710255 0
M  V30 16190 N 1584.52 -0.695628 -1.41417 0
M  V30 16191 C 1585.77 -0.226954 -2.01526 0
M  V30 16192 C 1586.1 1.1704 -1.54968 0
M  V30 16193 O 1585.38 1.78999 -0.760895 0
M  V30 16194 C 1585.66 -0.284704 -3.58973 0
M  V30 16195 C 1585.51 -1.71901 -4.15656 0
M  V30 16196 C 1586.83 0.355454 -4.38662 0
M  V30 16197 H 1583.95 -0.0839425 -0.732204 0
M  V30 16198 H 1586.59 -0.884359 -1.68164 0
M  V30 16199 H 1584.74 0.275041 -3.87525 0
M  V30 16200 H 1586.42 -2.3326 -3.97979 0
M  V30 16201 H 1584.66 -2.25314 -3.70696 0
M  V30 16202 H 1585.33 -1.71095 -5.24815 0
M  V30 16203 H 1587.81 -0.121256 -4.15923 0
M  V30 16204 H 1586.68 0.284503 -5.48162 0
M  V30 16205 H 1586.94 1.43617 -4.18123 0
M  V30 16206 N 1586 1.51322 -0.440383 0
M  V30 16207 C 1587.25 2.02413 0.125248 0
M  V30 16208 C 1587.58 1.32374 1.42094 0
M  V30 16209 O 1586.86 0.439624 1.89467 0
M  V30 16210 C 1587.14 3.58483 0.340858 0
M  V30 16211 C 1586.99 4.39134 -0.973701 0
M  V30 16212 C 1588.31 4.25891 1.10927 0
M  V30 16213 H 1585.43 0.735683 0.0440452 0
M  V30 16214 H 1588.07 1.80932 -0.579976 0
M  V30 16215 H 1586.22 3.76917 0.941572 0
M  V30 16216 H 1587.89 4.32343 -1.60863 0
M  V30 16217 H 1586.14 4.04097 -1.57759 0
M  V30 16218 H 1586.81 5.46506 -0.776845 0
M  V30 16219 H 1589.28 4.11746 0.600403 0
M  V30 16220 H 1588.16 5.34967 1.2289 0
M  V30 16221 H 1588.42 3.86958 2.13813 0
M  V30 16222 N 1587.48 0.171848 1.5666 0
M  V30 16223 C 1588.39 -0.770721 2.21579 0
M  V30 16224 C 1589.41 -1.25273 1.20759 0
M  V30 16225 O 1590.58 -1.30474 1.53422 0
M  V30 16226 C 1587.65 -1.98256 2.84422 0
M  V30 16227 C 1586.71 -1.54738 4.00443 0
M  V30 16228 C 1585.94 -2.70145 4.6028 0
M  V30 16229 O 1586.16 -3.87026 4.19007 0
M  V30 16230 O 1585.1 -2.44189 5.50141 0
M  V30 16231 H 1588.92 -0.247974 3.02686 0
M  V30 16232 H 1586.51 -0.0563734 1.49294 0
M  V30 16233 H 1588.39 -2.69127 3.24266 0
M  V30 16234 H 1587.07 -2.49435 2.0631 0
M  V30 16235 H 1585.97 -0.808152 3.65267 0
M  V30 16236 H 1587.31 -1.08249 4.80149 0
M  V30 16237 N 1588.96 -1.5727 -0.101874 0
M  V30 16238 C 1589.87 -2.04896 -1.14257 0
M  V30 16239 C 1590.88 -0.972561 -1.44282 0
M  V30 16240 O 1592.06 -1.28526 -1.55058 0
M  V30 16241 C 1589.12 -2.45818 -2.44488 0
M  V30 16242 C 1588.19 -3.6762 -2.21707 0
M  V30 16243 C 1587.42 -4.06581 -3.45728 0
M  V30 16244 O 1587.64 -3.45702 -4.53703 0
M  V30 16245 O 1586.58 -4.99578 -3.35716 0
M  V30 16246 H 1590.4 -2.93827 -0.768085 0
M  V30 16247 H 1587.99 -1.46065 -0.313902 0
M  V30 16248 H 1589.87 -2.72796 -3.21186 0
M  V30 16249 H 1588.54 -1.60028 -2.81377 0
M  V30 16250 H 1587.45 -3.45768 -1.42812 0
M  V30 16251 H 1588.78 -4.54169 -1.89714 0
M  V30 16252 N 1590.44 0.372521 -1.53134 0
M  V30 16253 C 1591.68 1.11368 -1.68646 0
M  V30 16254 C 1592 1.90034 -0.437275 0
M  V30 16255 O 1591.27 1.88062 0.548593 0
M  V30 16256 H 1589.85 0.414129 -0.621696 0
M  V30 16257 H 1592.52 0.42082 -1.90303 0
M  V30 16258 H 1591.61 1.80738 -2.54441 0
M  V30 16259 N 1591.91 1.44376 0.631925 0
M  V30 16260 C 1593.16 1.47335 1.39356 0
M  V30 16261 C 1593.49 0.10525 1.93915 0
M  V30 16262 O 1592.77 -0.877006 1.73605 0
M  V30 16263 C 1593.05 2.53308 2.55943 0
M  V30 16264 C 1592.9 3.99473 2.06739 0
M  V30 16265 C 1594.22 2.55794 3.58131 0
M  V30 16266 H 1591.34 0.536447 0.505365 0
M  V30 16267 H 1593.98 1.76051 0.714572 0
M  V30 16268 H 1592.13 2.28953 3.13868 0
M  V30 16269 H 1593.81 4.34958 1.53652 0
M  V30 16270 H 1592.05 4.11288 1.37929 0
M  V30 16271 H 1592.72 4.69269 2.90672 0
M  V30 16272 H 1595.2 2.77554 3.10005 0
M  V30 16273 H 1594.07 3.31847 4.37228 0
M  V30 16274 H 1594.33 1.59962 4.12146 0
M  V30 16275 N 1593.39 -0.872258 1.31261 0
M  V30 16276 C 1594.64 -1.6199 1.20176 0
M  V30 16277 C 1594.95 -1.94129 -0.239439 0
M  V30 16278 O 1596.16 -2.67366 -0.471956 0
M  V30 16279 C 1594.62 -2.92017 2.10366 0
M  V30 16280 C 1594.22 -2.6737 3.59468 0
M  V30 16281 C 1595.97 -3.70007 2.08075 0
M  V30 16282 C 1593.87 -3.93291 4.41674 0
M  V30 16283 H 1592.8 -0.607793 0.446211 0
M  V30 16284 H 1595.46 -0.964627 1.561 0
M  V30 16285 H 1593.84 -3.58907 1.67338 0
M  V30 16286 H 1595.01 -2.08902 4.10727 0
M  V30 16287 H 1593.33 -2.02738 3.63712 0
M  V30 16288 H 1595.92 -4.63416 2.66739 0
M  V30 16289 H 1596.27 -4.02385 1.06733 0
M  V30 16290 H 1596.8 -3.09998 2.49291 0
M  V30 16291 H 1593.54 -3.66064 5.43762 0
M  V30 16292 H 1593.06 -4.51218 3.95174 0
M  V30 16293 H 1594.74 -4.61197 4.53769 0
M  V30 16294 N 1594.87 -1.14184 -1.08627 0
M  V30 16295 C 1596.1 -0.932104 -1.84714 0
M  V30 16296 C 1596.51 0.519335 -1.81517 0
M  V30 16297 O 1595.87 1.35978 -1.21722 0
M  V30 16298 C 1595.92 -1.42217 -3.3235 0
M  V30 16299 O 1595.64 -2.81674 -3.35547 0
M  V30 16300 C 1597.14 -1.25205 -4.25251 0
M  V30 16301 H 1594.36 -0.331854 -0.583193 0
M  V30 16302 H 1596.91 -1.51641 -1.37205 0
M  V30 16303 H 1595.06 -0.880679 -3.77257 0
M  V30 16304 H 1595.48 -3.03615 -4.2769 0
M  V30 16305 H 1596.95 -1.64358 -5.26963 0
M  V30 16306 H 1597.43 -0.194659 -4.38768 0
M  V30 16307 H 1598.03 -1.78198 -3.86168 0
M  V30 16308 N 1596.35 1.26749 -0.936613 0
M  V30 16309 C 1597.59 1.94251 -0.582616 0
M  V30 16310 C 1597.93 1.73352 0.875361 0
M  V30 16311 O 1597.2 1.06784 1.62565 0
M  V30 16312 C 1597.49 3.48145 -0.920151 0
M  V30 16313 C 1597.34 3.78349 -2.43253 0
M  V30 16314 C 1598.66 4.37971 -0.432326 0
M  V30 16315 H 1595.78 0.705507 -0.213141 0
M  V30 16316 H 1598.42 1.49703 -1.17001 0
M  V30 16317 H 1596.57 3.8622 -0.420279 0
M  V30 16318 H 1598.24 3.50015 -3.00478 0
M  V30 16319 H 1596.48 3.24586 -2.87795 0
M  V30 16320 H 1597.15 4.85902 -2.61922 0
M  V30 16321 H 1599.63 4.07098 -0.860857 0
M  V30 16322 H 1598.51 5.44452 -0.697366 0
M  V30 16323 H 1598.77 4.37029 0.667694 0
M  V30 16324 N 1597.83 0.703118 1.41046 0
M  V30 16325 C 1599.24 0.311167 1.84089 0
M  V30 16326 C 1599.59 -1.15202 1.58818 0
M  V30 16327 O 1598.71 -1.88518 1.06254 0
M  V30 16328 C 1599.31 0.557986 3.34174 0
M  V30 16329 C 1597.87 0.219875 3.75757 0
M  V30 16330 C 1597.01 0.836543 2.64381 0
M  V30 16331 H 1599.97 0.903211 1.30491 0
M  V30 16332 H 1599.99 -0.180865 3.8007 0
M  V30 16333 H 1599.5 1.62298 3.52535 0
M  V30 16334 H 1597.6 -0.840559 3.62995 0
M  V30 16335 H 1597.71 0.680165 4.74247 0
M  V30 16336 H 1596.08 0.265547 2.53312 0
M  V30 16337 H 1596.86 1.90556 2.85558 0
M  V30 16338 N 1599.3 -1.51086 0.448402 0
M  V30 16339 C 1600.55 -2.01778 -0.114116 0
M  V30 16340 C 1600.87 -1.3339 -1.4224 0
M  V30 16341 O 1600.14 -0.471938 -1.9013 0
M  V30 16342 H 1598.72 -0.745634 -0.0451624 0
M  V30 16343 H 1601.39 -1.85639 0.59364 0
M  V30 16344 H 1600.48 -3.10823 -0.28205 0
M  V30 16345 N 1600.78 -0.180154 -1.56567 0
M  V30 16346 C 1602.03 0.456651 -1.98208 0
M  V30 16347 C 1602.38 1.60262 -1.06461 0
M  V30 16348 O 1601.68 1.91307 -0.106011 0
M  V30 16349 C 1601.87 0.978895 -3.43733 0
M  V30 16350 C 1601.7 -0.114936 -4.49553 0
M  V30 16351 C 1600.47 -0.567571 -5.02102 0
M  V30 16352 C 1602.67 -0.918528 -5.06031 0
M  V30 16353 N 1600.65 -1.64078 -5.91567 0
M  V30 16354 C 1602.02 -1.84147 -5.92022 0
M  V30 16355 C 1604.08 -0.96262 -4.88506 0
M  V30 16356 C 1602.78 -2.8048 -6.62362 0
M  V30 16357 C 1604.8 -1.91393 -5.59573 0
M  V30 16358 C 1604.17 -2.82434 -6.45299 0
M  V30 16359 H 1600.27 0.13495 -0.770268 0
M  V30 16360 H 1602.85 -0.282408 -1.92641 0
M  V30 16361 H 1601.02 1.68744 -3.49828 0
M  V30 16362 H 1602.75 1.58506 -3.72368 0
M  V30 16363 H 1599.51 -0.163649 -4.73317 0
M  V30 16364 H 1599.93 -2.17814 -6.41004 0
M  V30 16365 H 1604.57 -0.272775 -4.21919 0
M  V30 16366 H 1602.29 -3.50448 -7.28156 0
M  V30 16367 H 1605.88 -1.95427 -5.47996 0
M  V30 16368 H 1604.76 -3.54847 -6.99324 0
M  V30 16369 N 1602.26 1.57322 0.0935319 0
M  V30 16370 C 1603.51 1.858 0.795165 0
M  V30 16371 C 1603.83 0.769078 1.79193 0
M  V30 16372 O 1603.1 -0.204511 1.9483 0
M  V30 16373 H 1601.68 0.68557 0.296653 0
M  V30 16374 H 1604.34 1.94756 0.0747892 0
M  V30 16375 H 1603.44 2.82588 1.32479 0
M  V30 16376 N 1603.74 -0.364395 1.53329 0
M  V30 16377 C 1605.15 -0.706147 1.43128 0
M  V30 16378 C 1605.35 -1.93231 0.571307 0
M  V30 16379 O 1604.41 -2.52442 0.0542079 0
M  V30 16380 C 1605.72 -0.918245 2.86337 0
M  V30 16381 C 1607.27 -1.01818 2.95976 0
M  V30 16382 C 1607.75 -1.26274 4.40249 0
M  V30 16383 N 1609.24 -1.33042 4.43683 0
M  V30 16384 C 1609.97 -1.53677 5.52423 0
M  V30 16385 N 1609.47 -1.7162 6.71207 0
M  V30 16386 N 1611.26 -1.56056 5.40003 0
M  V30 16387 H 1603.41 0.442091 2.07748 0
M  V30 16388 H 1605.68 0.135735 0.938232 0
M  V30 16389 H 1605.38 -0.0890628 3.51587 0
M  V30 16390 H 1605.26 -1.826 3.30056 0
M  V30 16391 H 1607.64 -1.83791 2.30879 0
M  V30 16392 H 1607.72 -0.0877892 2.55649 0
M  V30 16393 H 1607.37 -0.448026 5.0592 0
M  V30 16394 H 1607.3 -2.20637 4.78149 0
M  V30 16395 H 1609.79 -1.20784 3.58078 0
M  V30 16396 H 1610.1 -1.86942 7.49848 0
M  V30 16397 H 1608.45 -1.68797 6.7419 0
M  V30 16398 H 1611.64 -1.41605 4.46168 0
M  V30 16399 H 1611.81 -1.71796 6.24812 0
M  V30 16400 N 1605.22 -1.44709 -0.62426 0
M  V30 16401 C 1606.63 -1.42523 -1.20599 0
M  V30 16402 C 1606.98 -0.144129 -1.9567 0
M  V30 16403 O 1606.1 0.755175 -2.02796 0
M  V30 16404 C 1606.7 -2.58194 -2.19365 0
M  V30 16405 C 1605.26 -2.59181 -2.72951 0
M  V30 16406 C 1604.4 -2.34461 -1.48065 0
M  V30 16407 H 1607.36 -1.5319 -0.414532 0
M  V30 16408 H 1607.38 -2.3134 -3.02096 0
M  V30 16409 H 1606.89 -3.5142 -1.64699 0
M  V30 16410 H 1604.99 -1.69916 -3.31601 0
M  V30 16411 H 1605.1 -3.57884 -3.18521 0
M  V30 16412 H 1603.47 -1.83688 -1.76439 0
M  V30 16413 H 1604.25 -3.2981 -0.952918 0
M  V30 16414 N 1606.69 0.865285 -1.31722 0
M  V30 16415 C 1607.94 1.61549 -1.21435 0
M  V30 16416 C 1608.26 1.9368 0.226501 0
M  V30 16417 O 1607.53 1.58705 1.14846 0
M  V30 16418 H 1606.11 0.598905 -0.446454 0
M  V30 16419 H 1608.78 1.03563 -1.65108 0
M  V30 16420 H 1607.87 2.55708 -1.78941 0
M  V30 16421 N 1608.17 1.14759 1.0802 0
M  V30 16422 C 1609.58 0.928711 1.61963 0
M  V30 16423 C 1609.93 -0.531568 1.88862 0
M  V30 16424 O 1609.06 -1.40129 1.64902 0
M  V30 16425 C 1609.65 1.67943 2.94246 0
M  V30 16426 C 1608.21 1.50602 3.44958 0
M  V30 16427 C 1607.36 1.69938 2.19126 0
M  V30 16428 H 1610.31 1.29882 0.911945 0
M  V30 16429 H 1610.33 1.14493 3.62866 0
M  V30 16430 H 1609.84 2.7422 2.74636 0
M  V30 16431 H 1607.95 0.466901 3.69663 0
M  V30 16432 H 1608.06 2.27857 4.21447 0
M  V30 16433 H 1606.42 1.12534 2.28491 0
M  V30 16434 H 1607.21 2.77566 2.0202 0
M  V30 16435 N 1609.65 -1.26251 0.943322 0
M  V30 16436 C 1610.9 -1.92946 0.587764 0
M  V30 16437 C 1611.21 -1.74805 -0.877647 0
M  V30 16438 O 1612.42 -2.35976 -1.34267 0
M  V30 16439 C 1610.87 -3.45715 1.00047 0
M  V30 16440 C 1610.48 -3.72586 2.48764 0
M  V30 16441 C 1612.23 -4.18403 0.716905 0
M  V30 16442 C 1610.13 -5.18805 2.83893 0
M  V30 16443 H 1609.06 -0.722366 0.21611 0
M  V30 16444 H 1611.71 -1.43295 1.14625 0
M  V30 16445 H 1610.1 -3.94263 0.370491 0
M  V30 16446 H 1611.27 -3.34735 3.16684 0
M  V30 16447 H 1609.59 -3.13136 2.74472 0
M  V30 16448 H 1612.18 -5.2609 0.955669 0
M  V30 16449 H 1612.53 -4.14856 -0.346396 0
M  V30 16450 H 1613.06 -3.75726 1.3067 0
M  V30 16451 H 1609.8 -5.27454 3.89195 0
M  V30 16452 H 1609.32 -5.57745 2.20636 0
M  V30 16453 H 1611 -5.86828 2.72474 0
M  V30 16454 N 1611.13 -0.710588 -1.40671 0
M  V30 16455 C 1612.55 -0.383638 -1.54921 0
M  V30 16456 C 1612.75 1.10805 -1.68299 0
M  V30 16457 O 1611.8 1.89406 -1.66978 0
M  V30 16458 C 1613.11 -1.14532 -2.78034 0
M  V30 16459 C 1614.66 -1.13113 -2.91847 0
M  V30 16460 C 1615.14 -1.87487 -4.17867 0
M  V30 16461 N 1616.63 -1.8453 -4.24856 0
M  V30 16462 C 1617.36 -2.38904 -5.2126 0
M  V30 16463 N 1616.86 -3.01813 -6.23603 0
M  V30 16464 N 1618.65 -2.29075 -5.13304 0
M  V30 16465 H 1610.8 -1.67789 -1.30233 0
M  V30 16466 H 1613.07 -0.70892 -0.629393 0
M  V30 16467 H 1612.77 -2.19983 -2.74409 0
M  V30 16468 H 1612.65 -0.733669 -3.69996 0
M  V30 16469 H 1615.03 -0.0848347 -2.94978 0
M  V30 16470 H 1615.11 -1.58196 -2.01017 0
M  V30 16471 H 1614.76 -2.92104 -4.15497 0
M  V30 16472 H 1614.69 -1.39827 -5.07697 0
M  V30 16473 H 1617.18 -1.38679 -3.51535 0
M  V30 16474 H 1617.49 -3.40832 -6.9358 0
M  V30 16475 H 1615.84 -3.05896 -6.24062 0
M  V30 16476 H 1619.03 -1.79589 -4.32279 0
M  V30 16477 H 1619.2 -2.71752 -5.88264 0
M  V30 16478 N 1612.61 1.50847 -0.456408 0
M  V30 16479 C 1613.57 2.26755 0.33388 0
M  V30 16480 C 1614.57 1.30947 0.933247 0
M  V30 16481 O 1615.76 1.54499 0.804716 0
M  V30 16482 C 1612.89 3.07378 1.47417 0
M  V30 16483 H 1614.09 2.98061 -0.331634 0
M  V30 16484 H 1611.64 1.54882 -0.210067 0
M  V30 16485 H 1612.37 2.40534 2.17518 0
M  V30 16486 H 1612.16 3.7777 1.05036 0
M  V30 16487 H 1613.65 3.64826 2.03204 0
M  V30 16488 N 1614.09 0.188454 1.56469 0
M  V30 16489 C 1615.02 -0.730379 2.21783 0
M  V30 16490 C 1616 -1.22629 1.17882 0
M  V30 16491 O 1617.18 -1.27634 1.46367 0
M  V30 16492 C 1614.31 -1.95278 2.872 0
M  V30 16493 C 1613.27 -1.59205 3.97288 0
M  V30 16494 C 1612.59 -2.89052 4.49836 0
M  V30 16495 C 1613.89 -0.807027 5.16027 0
M  V30 16496 H 1615.59 -0.185914 2.98822 0
M  V30 16497 H 1613.13 -0.0879804 1.43731 0
M  V30 16498 H 1615.08 -2.60074 3.31571 0
M  V30 16499 H 1613.81 -2.52167 2.07556 0
M  V30 16500 H 1612.47 -0.967713 3.53597 0
M  V30 16501 H 1612.12 -3.44017 3.66963 0
M  V30 16502 H 1611.82 -2.65663 5.24115 0
M  V30 16503 H 1613.34 -3.54847 4.96906 0
M  V30 16504 H 1614.75 -1.35794 5.56986 0
M  V30 16505 H 1613.15 -0.671516 5.96331 0
M  V30 16506 H 1614.22 0.193251 4.84515 0
M  V30 16507 N 1615.56 -1.5737 -0.0851874 0
M  V30 16508 C 1616.97 -1.7544 -0.638575 0
M  V30 16509 C 1617.33 -0.812041 -1.78607 0
M  V30 16510 O 1616.45 0.00710428 -2.16399 0
M  V30 16511 C 1617.05 -3.18134 -1.16517 0
M  V30 16512 C 1615.6 -3.37594 -1.66454 0
M  V30 16513 C 1614.75 -2.71203 -0.578274 0
M  V30 16514 H 1617.7 -1.58073 0.140931 0
M  V30 16515 H 1617.72 -3.21553 -2.0343 0
M  V30 16516 H 1617.24 -3.86696 -0.329794 0
M  V30 16517 H 1615.34 -2.74126 -2.5236 0
M  V30 16518 H 1615.45 -4.45968 -1.75071 0
M  V30 16519 H 1613.81 -2.33379 -1.02011 0
M  V30 16520 H 1614.6 -3.42413 0.246691 0
M  V30 16521 O 1617.08 0.229012 -1.59868 0
M  V30 16522 H 1617.77 0.870815 -1.73022 0
M  V30 END ATOM
M  V30 BEGIN BOND
M  V30 END BOND
M  V30 END CTAB
M  END
$$$$
