drugbank_target|P9WND1 Dihydropteroate synthase (DB03592)
 OpenBabel12092120023D

  0  0  0     0  0            999 V3000
M  V30 BEGIN CTAB
M  V30 COUNTS 4057 4094 0 0 0
M  V30 BEGIN ATOM
M  V30 1 H -0.908 1.98254 -0.117106 0
M  V30 2 N 0 1.576 0 0
M  V30 3 C 0.933 2.03868 1.02534 0
M  V30 4 C 1.911 0.928543 1.3348 0
M  V30 5 O 3.095 1.19667 1.45644 0
M  V30 6 C 0.222 2.43627 2.35294 0
M  V30 7 C -0.732 3.65373 2.2001 0
M  V30 8 S 0.101 5.13292 1.52614 0
M  V30 9 C 1.257 5.56322 2.86805 0
M  V30 10 H 1.49 2.90518 0.631377 0
M  V30 11 H -0.977 1.52953 0.210867 0
M  V30 12 H 0.981 2.67203 3.11629 0
M  V30 13 H -0.358 1.57376 2.7183 0
M  V30 14 H -1.165 3.90944 3.18086 0
M  V30 15 H -1.563 3.418 1.51819 0
M  V30 16 H 0.729 5.58782 3.83104 0
M  V30 17 H 1.672 6.56266 2.65933 0
M  V30 18 H 2.08 4.83886 2.90714 0
M  V30 19 N 1.4781 -0.272755 1.55222 0
M  V30 20 C 2.7031 -1.02683 1.80197 0
M  V30 21 C 3.1281 -1.79142 0.573551 0
M  V30 22 O 2.4861 -1.74917 -0.476849 0
M  V30 23 C 2.5341 -1.9609 3.02624 0
M  V30 24 O 1.6381 -3.04863 2.77727 0
M  V30 25 H 0.9791 -0.293557 0.595584 0
M  V30 26 H 3.5091 -0.30159 2.02365 0
M  V30 27 H 3.5191 -2.38039 3.31363 0
M  V30 28 H 2.1941 -1.39851 3.91682 0
M  V30 29 H 0.7711 -2.67228 2.60084 0
M  V30 30 N 2.9562 -1.48159 -0.537278 0
M  V30 31 C 4.3672 -1.49429 -1.11928 0
M  V30 32 C 4.7182 -0.26 -1.9447 0
M  V30 33 O 3.8432 0.633489 -2.0692 0
M  V30 34 C 4.4382 -2.70758 -2.03656 0
M  V30 35 C 2.9972 -2.74923 -2.57088 0
M  V30 36 C 2.1442 -2.42835 -1.3389 0
M  V30 37 H 5.0952 -1.55381 -0.322886 0
M  V30 38 H 5.1162 -2.48861 -2.87834 0
M  V30 39 H 4.6282 -3.60575 -1.43553 0
M  V30 40 H 2.7292 -1.89296 -3.20933 0
M  V30 41 H 2.8422 -3.76157 -2.9672 0
M  V30 42 H 1.2062 -1.93836 -1.65226 0
M  V30 43 H 1.9892 -3.34884 -0.755504 0
M  V30 44 N 4.4343 0.785586 -1.36625 0
M  V30 45 C 5.3973 1.87999 -1.31107 0
M  V30 46 C 6.3973 1.59316 -0.217959 0
M  V30 47 O 7.5873 1.67656 -0.472977 0
M  V30 48 C 4.7193 3.24861 -1.03334 0
M  V30 49 H 5.9123 1.94307 -2.2844 0
M  V30 50 H 3.4653 0.983813 -1.21453 0
M  V30 51 H 4.2003 3.24235 -0.0647432 0
M  V30 52 H 3.9853 3.4707 -1.82441 0
M  V30 53 H 5.4753 4.04929 -1.02088 0
M  V30 54 N 5.9124 1.20967 1.01018 0
M  V30 55 C 7.3234 1.02319 1.56165 0
M  V30 56 C 7.6744 -0.418546 1.91684 0
M  V30 57 O 6.7994 -1.30096 1.72928 0
M  V30 58 C 7.3944 1.85109 2.8376 0
M  V30 59 C 5.9534 1.70809 3.35412 0
M  V30 60 C 5.1004 1.82643 2.08655 0
M  V30 61 H 8.0514 1.35065 0.833255 0
M  V30 62 H 8.0724 1.35827 3.55431 0
M  V30 63 H 7.5844 2.90035 2.57878 0
M  V30 64 H 5.6854 0.685464 3.66241 0
M  V30 65 H 5.7984 2.52467 4.07182 0
M  V30 66 H 4.1624 1.25896 2.21409 0
M  V30 67 H 4.9454 2.89066 1.85191 0
M  V30 68 N 7.3905 -1.2043 1.01659 0
M  V30 69 C 8.6365 -1.90079 0.706963 0
M  V30 70 C 8.9695 -1.78648 -0.761474 0
M  V30 71 O 8.2445 -1.17069 -1.55323 0
M  V30 72 C 8.5275 -3.41469 1.14327 0
M  V30 73 C 8.3805 -3.61833 2.67201 0
M  V30 74 C 9.6995 -4.34261 0.714529 0
M  V30 75 H 6.8185 -0.690254 0.2583 0
M  V30 76 H 9.4605 -1.41826 1.26433 0
M  V30 77 H 7.6105 -3.82696 0.669056 0
M  V30 78 H 9.2825 -3.2986 3.22475 0
M  V30 79 H 7.5255 -3.05304 3.08175 0
M  V30 80 H 8.1965 -4.67955 2.92783 0
M  V30 81 H 10.6725 -4.00682 1.12221 0
M  V30 82 H 9.5485 -5.38806 1.04784 0
M  V30 83 H 9.8095 -4.40431 -0.383799 0
M  V30 84 N 8.8686 -0.792821 -1.36206 0
M  V30 85 C 9.8006 -0.151469 -2.28699 0
M  V30 86 C 10.8136 0.641262 -1.49638 0
M  V30 87 O 12.0026 0.475885 -1.72039 0
M  V30 88 C 9.1026 0.808424 -3.29117 0
M  V30 89 C 8.2756 0.0650202 -4.37352 0
M  V30 90 C 7.3346 0.941358 -5.17711 0
M  V30 91 O 6.3606 0.397352 -5.67811 0
M  V30 92 N 7.5626 2.2652 -5.3448 0
M  V30 93 H 10.3276 -0.945982 -2.84379 0
M  V30 94 H 7.8886 -0.647032 -1.48409 0
M  V30 95 H 9.8806 1.3986 -3.79765 0
M  V30 96 H 8.4506 1.5038 -2.74052 0
M  V30 97 H 7.6706 -0.706255 -3.87822 0
M  V30 98 H 8.9586 -0.447847 -5.06825 0
M  V30 99 H 8.3566 2.73128 -4.95396 0
M  V30 100 H 6.9136 2.80493 -5.88359 0
M  V30 101 N 10.3467 1.47872 -0.545128 0
M  V30 102 C 11.5927 2.02793 -0.0166104 0
M  V30 103 C 11.9257 1.41987 1.32489 0
M  V30 104 O 11.2007 0.571045 1.85928 0
M  V30 105 C 11.4837 3.59989 0.0893294 0
M  V30 106 C 11.3367 4.3125 -1.27841 0
M  V30 107 C 12.6557 4.32606 0.808724 0
M  V30 108 H 9.7747 0.736962 -0.00751035 0
M  V30 109 H 12.4167 1.76433 -0.705085 0
M  V30 110 H 10.5667 3.82579 0.675681 0
M  V30 111 H 12.2387 4.20035 -1.90704 0
M  V30 112 H 10.4817 3.92076 -1.85632 0
M  V30 113 H 11.1527 5.39736 -1.15713 0
M  V30 114 H 13.6287 4.14936 0.310992 0
M  V30 115 H 12.5047 5.42251 0.851782 0
M  V30 116 H 12.7657 4.00963 1.86229 0
M  V30 117 N 11.8248 0.280983 1.55075 0
M  V30 118 C 12.7578 -0.645439 2.18882 0
M  V30 119 C 13.7358 -1.14786 1.15165 0
M  V30 120 O 14.9198 -1.21975 1.43716 0
M  V30 121 C 12.0468 -1.88088 2.81674 0
M  V30 122 C 11.0928 -1.51343 3.98745 0
M  V30 123 S 11.9258 -0.586548 5.32278 0
M  V30 124 C 13.0818 -1.83024 5.98543 0
M  V30 125 H 13.3148 -0.1033 2.9712 0
M  V30 126 H 10.8478 0.0652099 1.54262 0
M  V30 127 H 12.8058 -2.58997 3.18482 0
M  V30 128 H 11.4668 -2.39417 2.03318 0
M  V30 129 H 10.6598 -2.43289 4.41392 0
M  V30 130 H 10.2618 -0.884477 3.63391 0
M  V30 131 H 12.5538 -2.77342 6.18133 0
M  V30 132 H 13.4968 -1.44668 6.93164 0
M  V30 133 H 13.9048 -1.99785 5.27964 0
M  V30 134 N 13.3029 -1.57598 0.00835791 0
M  V30 135 C 14.5509 -1.90551 -0.6734 0
M  V30 136 C 14.8719 -0.883301 -1.73847 0
M  V30 137 O 14.1419 0.0781442 -1.95744 0
M  V30 138 H 12.7219 -0.703312 -0.251717 0
M  V30 139 H 15.3839 -1.94833 0.0512592 0
M  V30 140 H 14.4799 -2.9056 -1.13935 0
M  V30 141 N 14.781 0.264519 -1.55364 0
M  V30 142 C 16.027 0.99646 -1.76631 0
M  V30 143 C 16.36 1.85632 -0.570478 0
M  V30 144 O 15.635 1.89647 0.43175 0
M  V30 145 C 15.918 1.87187 -3.07625 0
M  V30 146 C 15.771 1.04138 -4.37579 0
M  V30 147 C 17.09 2.85749 -3.34717 0
M  V30 148 H 14.209 0.360841 -0.642622 0
M  V30 149 H 16.851 0.268218 -1.88097 0
M  V30 150 H 15.001 2.49279 -2.9798 0
M  V30 151 H 16.673 0.440517 -4.59192 0
M  V30 152 H 14.916 0.345115 -4.32425 0
M  V30 153 H 15.587 1.68729 -5.2558 0
M  V30 154 H 18.063 2.33793 -3.4421 0
M  V30 155 H 16.939 3.44136 -4.27623 0
M  V30 156 H 17.2 3.61311 -2.54768 0
M  V30 157 N 16.2591 1.48442 0.529413 0
M  V30 158 C 17.1891 1.65902 1.64313 0
M  V30 159 C 18.1701 0.507897 1.6234 0
M  V30 160 O 19.3551 0.740503 1.79528 0
M  V30 161 C 16.4851 1.69911 3.02898 0
M  V30 162 C 15.4391 2.8453 3.19729 0
M  V30 163 C 14.7651 2.73629 4.59381 0
M  V30 164 C 16.0651 4.25821 3.02447 0
M  V30 165 H 17.7591 2.5914 1.49955 0
M  V30 166 H 15.3051 1.24709 0.719982 0
M  V30 167 H 17.2581 1.80715 3.80684 0
M  V30 168 H 15.9821 0.732524 3.18279 0
M  V30 169 H 14.6411 2.73283 2.44361 0
M  V30 170 H 14.2891 1.74938 4.71599 0
M  V30 171 H 13.9891 3.50541 4.71588 0
M  V30 172 H 15.5131 2.86401 5.39265 0
M  V30 173 H 16.9271 4.37898 3.70024 0
M  V30 174 H 15.3241 5.03735 3.26146 0
M  V30 175 H 16.3941 4.42244 1.98867 0
M  V30 176 N 17.7372 -0.778329 1.37039 0
M  V30 177 C 18.6852 -1.91278 1.32345 0
M  V30 178 C 19.6792 -1.68051 0.213331 0
M  V30 179 O 20.8852 -1.75922 0.38098 0
M  V30 180 H 17.2602 -0.628909 0.412283 0
M  V30 181 H 19.2312 -1.92355 2.28127 0
M  V30 182 C 17.9802 -3.28455 1.14073 0
M  V30 183 H 17.3032 -3.46901 1.98746 0
M  V30 184 H 18.7432 -4.08152 1.14837 0
M  V30 185 C 17.2022 -3.36548 -0.154015 0
M  V30 186 O 17.7322 -3.85186 -1.13993 0
M  V30 187 N 15.9382 -2.89894 -0.202475 0
M  V30 188 H 15.4852 -2.50504 0.600476 0
M  V30 189 H 15.4432 -2.9569 -1.06841 0
M  V30 190 N 19.2153 -1.21501 -1.00376 0
M  V30 191 C 20.4613 -1.03452 -1.74429 0
M  V30 192 C 20.7943 0.430764 -1.89362 0
M  V30 193 O 20.0693 1.31962 -1.42886 0
M  V30 194 C 20.3523 -1.73375 -3.15615 0
M  V30 195 C 20.2053 -3.27431 -3.08397 0
M  V30 196 C 21.5243 -1.47732 -4.14564 0
M  V30 197 H 18.6433 -0.377226 -0.633143 0
M  V30 198 H 21.2853 -1.49693 -1.17013 0
M  V30 199 H 19.4353 -1.34064 -3.64636 0
M  V30 200 H 21.1073 -3.76119 -2.67081 0
M  V30 201 H 19.3503 -3.5767 -2.45468 0
M  V30 202 H 20.0213 -3.71524 -4.08258 0
M  V30 203 H 22.4973 -1.8186 -3.74254 0
M  V30 204 H 21.3733 -1.99169 -5.11491 0
M  V30 205 H 21.6343 -0.407589 -4.40217 0
M  V30 206 N 20.6934 1.19889 -1.02296 0
M  V30 207 C 21.9214 1.9339 -0.735399 0
M  V30 208 C 22.3364 1.75148 0.704887 0
M  V30 209 O 21.6934 1.06954 1.47875 0
M  V30 210 C 21.7444 3.45313 -1.06962 0
M  V30 211 O 21.4654 3.62964 -2.45334 0
M  V30 212 C 22.9664 4.35948 -0.804021 0
M  V30 213 H 20.1864 0.61448 -0.269546 0
M  V30 214 H 22.7304 1.522 -1.36585 0
M  V30 215 H 20.8854 3.84359 -0.484455 0
M  V30 216 H 21.2994 4.56886 -2.57595 0
M  V30 217 H 22.7734 5.41174 -1.0879 0
M  V30 218 H 23.2504 4.3842 0.261691 0
M  V30 219 H 23.8564 4.02574 -1.37164 0
M  V30 220 N 22.1715 0.800033 1.35784 0
M  V30 221 C 23.4485 0.30088 1.93272 0
M  V30 222 C 23.8285 -1.20857 1.73081 0
M  V30 223 O 23.1765 -2.00502 1.09596 0
M  V30 224 C 23.3865 0.70511 3.41803 0
M  V30 225 C 24.7345 0.690871 4.18942 0
M  V30 226 O 25.7585 0.646244 3.50289 0
M  V30 227 O 24.6175 0.74332 5.41421 0
M  V30 228 H 21.7115 0.0771605 0.823393 0
M  V30 229 H 24.2575 0.88329 1.449 0
M  V30 230 H 23.0295 1.74571 3.50201 0
M  V30 231 H 22.6525 0.0971541 3.97481 0
M  V30 232 N 23.6496 -1.47581 0.552962 0
M  V30 233 C 24.9266 -1.95563 -0.0381515 0
M  V30 234 C 25.3066 -1.49552 -1.48988 0
M  V30 235 O 24.6546 -0.732414 -2.16444 0
M  V30 236 C 24.8646 -3.48848 0.102919 0
M  V30 237 C 26.2126 -4.24577 -0.0446082 0
M  V30 238 O 27.2366 -3.56187 0.0302548 0
M  V30 239 O 26.0956 -5.46116 -0.204923 0
M  V30 240 H 23.1896 -0.824321 -0.0665067 0
M  V30 241 H 25.7356 -1.58001 0.619186 0
M  V30 242 H 24.5076 -3.75129 1.11328 0
M  V30 243 H 24.1306 -3.93165 -0.592224 0
M  V30 244 N 25.1277 -0.289203 -1.54924 0
M  V30 245 C 26.3527 0.329299 -2.04769 0
M  V30 246 C 26.7777 1.4763 -1.16564 0
M  V30 247 O 26.1357 1.80527 -0.167186 0
M  V30 248 C 26.1837 0.774438 -3.52186 0
M  V30 249 O 25.2877 1.88038 -3.67036 0
M  V30 250 H 24.6287 0.0659259 -0.660719 0
M  V30 251 H 27.1587 -0.42761 -2.00082 0
M  V30 252 H 27.1687 1.06642 -3.93816 0
M  V30 253 H 25.8437 -0.0646707 -4.1585 0
M  V30 254 H 24.4207 1.58985 -3.3731 0
M  V30 255 N 26.6058 1.57591 -0.0167156 0
M  V30 256 C 27.8528 1.91283 0.664597 0
M  V30 257 C 28.1808 0.891949 1.72842 0
M  V30 258 O 27.4358 -0.100931 1.9544 0
M  V30 259 C 27.7348 3.3172 1.33029 0
M  V30 260 C 27.4008 4.4914 0.398047 0
M  V30 261 C 26.0628 4.80992 0.141421 0
M  V30 262 C 28.4148 5.20634 -0.242825 0
M  V30 263 C 25.7428 5.81703 -0.764092 0
M  V30 264 C 28.0948 6.22311 -1.13632 0
M  V30 265 C 26.7588 6.52611 -1.40196 0
M  V30 266 H 26.0288 0.699956 0.243193 0
M  V30 267 H 28.6758 1.9135 -0.0758267 0
M  V30 268 H 26.9808 3.27856 2.14517 0
M  V30 269 H 28.6778 3.55055 1.86379 0
M  V30 270 H 25.2678 4.24262 0.608238 0
M  V30 271 H 29.4518 4.96267 -0.0576019 0
M  V30 272 H 24.7078 6.03532 -0.977732 0
M  V30 273 H 28.8818 6.76834 -1.63917 0
M  V30 274 H 26.5088 7.30467 -2.10529 0
M  V30 275 N 28.0839 -0.256276 1.55502 0
M  V30 276 C 29.3089 -1.00766 1.81276 0
M  V30 277 C 29.7339 -1.78524 0.59252 0
M  V30 278 O 29.0919 -1.75413 -0.45827 0
M  V30 279 C 29.1399 -1.92869 3.04687 0
M  V30 280 O 28.2439 -3.019 2.80945 0
M  V30 281 H 27.5849 -0.287224 0.598664 0
M  V30 282 H 30.1149 -0.280109 2.02674 0
M  V30 283 H 30.1249 -2.34511 3.33869 0
M  V30 284 H 28.7999 -1.35689 3.93143 0
M  V30 285 H 27.3769 -2.64454 2.62904 0
M  V30 286 N 29.562 -1.4872 -0.521534 0
M  V30 287 C 30.839 -1.4766 -1.2828 0
M  V30 288 C 31.219 -0.19292 -2.10217 0
M  V30 289 O 30.567 0.825193 -2.13079 0
M  V30 290 C 30.777 -2.74358 -2.15705 0
M  V30 291 C 32.125 -3.23028 -2.75569 0
M  V30 292 O 33.149 -2.75333 -2.25987 0
M  V30 293 O 32.008 -4.0604 -3.65778 0
M  V30 294 H 29.102 -0.590085 -0.579421 0
M  V30 295 H 31.648 -1.60963 -0.537492 0
M  V30 296 H 30.42 -3.59292 -1.54999 0
M  V30 297 H 30.043 -2.63816 -2.97467 0
M  V30 298 N 31.0401 0.771051 -1.3745 0
M  V30 299 C 32.2881 1.52661 -1.32435 0
M  V30 300 C 32.6091 1.9479 0.0905024 0
M  V30 301 O 31.8791 1.66348 1.03466 0
M  V30 302 H 30.4591 0.566218 -0.487244 0
M  V30 303 H 33.1211 0.917636 -1.71946 0
M  V30 304 H 32.2171 2.42568 -1.96385 0
M  V30 305 N 32.5182 1.22032 0.997298 0
M  V30 306 C 33.7662 1.04016 1.73278 0
M  V30 307 C 34.0872 -0.426255 1.90284 0
M  V30 308 O 33.3572 -1.30694 1.45931 0
M  V30 309 H 31.9372 0.381897 0.642 0
M  V30 310 H 34.5992 1.5347 1.20137 0
M  V30 311 H 33.6952 1.51441 2.72896 0
M  V30 312 N 33.9963 -1.19345 1.0293 0
M  V30 313 C 35.2363 -1.90738 0.734727 0
M  V30 314 C 35.6003 -1.7785 -0.723414 0
M  V30 315 O 36.8013 -2.43844 -1.13108 0
M  V30 316 C 35.0723 -3.37569 1.17396 0
M  V30 317 S 36.6313 -4.27176 1.00329 0
M  V30 318 H 33.4493 -0.658771 0.267474 0
M  V30 319 H 36.0513 -1.4428 1.31922 0
M  V30 320 H 34.7553 -3.44475 2.23081 0
M  V30 321 H 34.2863 -3.8906 0.582772 0
M  V30 322 H 36.3013 -4.96126 -0.0859152 0
M  V30 323 N 35.4744 -0.807222 -1.35358 0
M  V30 324 C 36.7044 -0.399796 -2.02695 0
M  V30 325 C 37.1124 0.994176 -1.60974 0
M  V30 326 O 36.4554 1.65209 -0.803226 0
M  V30 327 C 36.5174 -0.404445 -3.57218 0
M  V30 328 C 36.1814 -1.74904 -4.22206 0
M  V30 329 C 37.1784 -2.70743 -4.4384 0
M  V30 330 C 34.8634 -2.03322 -4.5931 0
M  V30 331 C 36.8574 -3.93183 -5.01683 0
M  V30 332 C 34.5444 -3.26026 -5.16866 0
M  V30 333 C 35.5424 -4.20774 -5.37994 0
M  V30 334 O 35.2304 -5.41312 -5.94337 0
M  V30 335 H 34.9624 -0.160517 -0.656666 0
M  V30 336 H 37.5164 -1.09235 -1.73945 0
M  V30 337 H 35.7464 0.344707 -3.85161 0
M  V30 338 H 37.4354 -0.0192429 -4.05895 0
M  V30 339 H 38.2014 -2.5008 -4.15554 0
M  V30 340 H 34.0804 -1.30384 -4.42178 0
M  V30 341 H 37.6244 -4.6715 -5.1809 0
M  V30 342 H 33.5214 -3.46559 -5.44579 0
M  V30 343 H 34.2894 -5.42618 -6.12787 0
M  V30 344 N 36.9525 1.47285 -0.560781 0
M  V30 345 C 37.8825 2.32857 0.173105 0
M  V30 346 C 38.8635 1.44009 0.905281 0
M  V30 347 O 40.0485 1.7286 0.885046 0
M  V30 348 C 37.1785 3.25861 1.20133 0
M  V30 349 C 36.1325 4.23978 0.585388 0
M  V30 350 C 35.4585 5.06332 1.7185 0
M  V30 351 C 36.7585 5.20242 -0.463178 0
M  V30 352 H 38.4525 2.94466 -0.541307 0
M  V30 353 H 35.9985 1.41601 -0.261764 0
M  V30 354 H 37.9515 3.84569 1.72293 0
M  V30 355 H 36.6755 2.62315 1.94573 0
M  V30 356 H 35.3345 3.66501 0.085054 0
M  V30 357 H 34.9825 4.39186 2.45203 0
M  V30 358 H 34.6825 5.72762 1.31213 0
M  V30 359 H 36.2065 5.67899 2.24329 0
M  V30 360 H 37.6205 5.73293 -0.027502 0
M  V30 361 H 36.0175 5.94896 -0.788627 0
M  V30 362 H 37.0875 4.65504 -1.35773 0
M  V30 363 N 38.4306 0.297415 1.54768 0
M  V30 364 C 39.7076 -0.365847 1.92148 0
M  V30 365 C 40.0876 -1.71975 1.22424 0
M  V30 366 O 39.4356 -2.25666 0.358739 0
M  V30 367 C 39.6456 -0.484056 3.45627 0
M  V30 368 C 40.9936 -0.756594 4.17805 0
M  V30 369 O 42.0176 -0.568007 3.51642 0
M  V30 370 O 40.8766 -1.11863 5.34929 0
M  V30 371 H 37.9706 -0.203919 0.801465 0
M  V30 372 H 40.5166 0.34521 1.66152 0
M  V30 373 H 39.2886 0.467865 3.88493 0
M  V30 374 H 38.9116 -1.24372 3.77647 0
M  V30 375 N 39.9087 -1.5758 0.0250728 0
M  V30 376 C 40.8387 -2.13007 -0.956575 0
M  V30 377 C 41.8197 -1.0452 -1.342 0
M  V30 378 O 43.0047 -1.32332 -1.42133 0
M  V30 379 C 40.1347 -2.65386 -2.24026 0
M  V30 380 C 39.0887 -3.78623 -1.99571 0
M  V30 381 C 38.4147 -4.17414 -3.3417 0
M  V30 382 C 39.7147 -5.04867 -1.33814 0
M  V30 383 H 41.4087 -2.9528 -0.494991 0
M  V30 384 H 38.9547 -1.42042 -0.236651 0
M  V30 385 H 40.9077 -3.02794 -2.93076 0
M  V30 386 H 39.6317 -1.80268 -2.72343 0
M  V30 387 H 38.2907 -3.41646 -1.32941 0
M  V30 388 H 37.9387 -3.29284 -3.80238 0
M  V30 389 H 37.6387 -4.93719 -3.18615 0
M  V30 390 H 39.1627 -4.57402 -4.04495 0
M  V30 391 H 40.5767 -5.39888 -1.92857 0
M  V30 392 H 38.9737 -5.86144 -1.28669 0
M  V30 393 H 40.0437 -4.83904 -0.310561 0
M  V30 394 N 41.3868 0.248026 -1.55636 0
M  V30 395 C 42.6638 0.998988 -1.68165 0
M  V30 396 C 43.0438 2.03409 -0.564621 0
M  V30 397 O 42.3918 2.24378 0.432076 0
M  V30 398 C 42.6018 1.63334 -3.0842 0
M  V30 399 C 43.9498 2.13562 -3.66983 0
M  V30 400 O 44.9738 1.73277 -3.11213 0
M  V30 401 O 43.8328 2.87526 -4.64749 0
M  V30 402 H 40.9268 0.464933 -0.683935 0
M  V30 403 H 43.4728 0.241902 -1.67967 0
M  V30 404 H 42.2448 0.884583 -3.8117 0
M  V30 405 H 41.8678 2.45666 -3.12624 0
M  V30 406 N 42.8649 1.48995 0.513639 0
M  V30 407 C 44.1419 1.48338 1.27495 0
M  V30 408 C 44.5219 0.204065 2.10111 0
M  V30 409 O 43.8699 -0.813881 2.13514 0
M  V30 410 C 44.0799 2.75498 2.14247 0
M  V30 411 C 45.4279 3.24484 2.73852 0
M  V30 412 O 46.4519 2.76528 2.24523 0
M  V30 413 O 45.3109 4.07974 3.6362 0
M  V30 414 H 42.4049 0.593149 0.576284 0
M  V30 415 H 44.9509 1.61246 0.528948 0
M  V30 416 H 43.7229 3.60109 1.53092 0
M  V30 417 H 43.3459 2.6539 2.96064 0
M  V30 418 N 44.343 -0.763751 1.37857 0
M  V30 419 C 45.306 -1.85889 1.34081 0
M  V30 420 C 46.306 -1.58949 0.243277 0
M  V30 421 O 47.496 -1.66882 0.499589 0
M  V30 422 C 44.628 -3.23176 1.08489 0
M  V30 423 H 45.821 -1.90648 2.31502 0
M  V30 424 H 43.374 -0.964367 1.23003 0
M  V30 425 H 44.109 -3.24091 0.116318 0
M  V30 426 H 43.894 -3.44124 1.8794 0
M  V30 427 H 45.384 -4.03254 1.08517 0
M  V30 428 N 45.8211 -1.22559 -0.990812 0
M  V30 429 C 47.0671 -1.05297 -1.73322 0
M  V30 430 C 47.4001 0.410655 -1.89808 0
M  V30 431 O 46.6751 1.30439 -1.44277 0
M  V30 432 C 46.9581 -1.76713 -3.13759 0
M  V30 433 C 46.8111 -3.30684 -3.04907 0
M  V30 434 C 48.1301 -1.52121 -4.12974 0
M  V30 435 H 45.2491 -0.38392 -0.629106 0
M  V30 436 H 47.8911 -1.50926 -1.15418 0
M  V30 437 H 46.0411 -1.37924 -3.63193 0
M  V30 438 H 47.7131 -3.7893 -2.63077 0
M  V30 439 H 45.9561 -3.60253 -2.41661 0
M  V30 440 H 46.6271 -3.75833 -4.04294 0
M  V30 441 H 49.1031 -1.85819 -3.72304 0
M  V30 442 H 47.9791 -2.04582 -5.0935 0
M  V30 443 H 48.2401 -0.454257 -4.3976 0
M  V30 444 N 47.2992 1.18797 -1.03562 0
M  V30 445 C 48.2462 2.22253 -0.622259 0
M  V30 446 C 49.2162 1.61987 0.36736 0
M  V30 447 O 50.4012 1.88986 0.262492 0
M  V30 448 C 47.5412 3.45097 0.0138462 0
M  V30 449 C 46.6542 4.19722 -1.02263 0
M  V30 450 C 45.7892 5.30009 -0.355573 0
M  V30 451 C 44.8282 5.96399 -1.37749 0
M  V30 452 N 43.9652 6.98234 -0.735766 0
M  V30 453 H 48.8052 2.56968 -1.50903 0
M  V30 454 H 46.3422 1.26245 -0.755017 0
M  V30 455 H 48.3002 4.15279 0.399948 0
M  V30 456 H 46.9302 3.11018 0.864158 0
M  V30 457 H 45.9822 3.48418 -1.52673 0
M  V30 458 H 47.2942 4.65227 -1.79903 0
M  V30 459 H 46.4482 6.0664 0.0850095 0
M  V30 460 H 45.1872 4.85592 0.452967 0
M  V30 461 H 44.1922 5.18512 -1.82826 0
M  V30 462 H 45.4172 6.42899 -2.18764 0
M  V30 463 H 43.3632 6.55979 0.0525597 0
M  V30 464 H 43.2802 7.41965 -1.44995 0
M  V30 465 H 44.5482 7.78845 -0.31941 0
M  V30 466 N 48.7773 0.814389 1.34928 0
M  V30 467 C 49.7273 0.202752 2.27097 0
M  V30 468 C 50.7113 -0.62799 1.48139 0
M  V30 469 O 51.9033 -0.483969 1.70255 0
M  V30 470 C 49.0323 -0.64146 3.37254 0
M  V30 471 C 48.1183 0.19944 4.23631 0
M  V30 472 N 48.5093 1.26628 4.89693 0
M  V30 473 C 46.8073 -0.0176433 4.45997 0
M  V30 474 C 47.5083 1.78031 5.53787 0
M  V30 475 N 46.4843 1.08553 5.32651 0
M  V30 476 H 50.2863 1.01893 2.75672 0
M  V30 477 H 47.8003 0.656332 1.48546 0
M  V30 478 H 49.7973 -1.09575 4.02243 0
M  V30 479 H 48.4573 -1.4559 2.9023 0
M  V30 480 H 49.4683 1.64901 4.90946 0
M  V30 481 H 46.1453 -0.800601 4.09752 0
M  V30 482 H 47.5353 2.67236 6.16469 0
M  V30 483 N 50.2554 -1.46986 0.568584 0
M  V30 484 C 51.5034 -2.02041 0.0487022 0
M  V30 485 C 51.8244 -1.44408 -1.31039 0
M  V30 486 O 51.0944 -0.623477 -1.85714 0
M  V30 487 H 49.6744 -0.746849 0.015014 0
M  V30 488 H 52.3364 -1.80257 0.741168 0
M  V30 489 H 51.4324 -3.12085 -0.0308961 0
M  V30 490 N 51.7335 -0.305618 -1.54608 0
M  V30 491 C 52.6635 0.561482 -2.26649 0
M  V30 492 C 53.6445 1.13415 -1.26772 0
M  V30 493 O 54.8295 1.16262 -1.55553 0
M  V30 494 C 51.9595 1.73122 -3.01075 0
M  V30 495 C 50.9135 1.2887 -4.08138 0
M  V30 496 C 50.2395 2.54396 -4.70305 0
M  V30 497 C 51.5395 0.416578 -5.20636 0
M  V30 498 H 53.2335 -0.0393902 -2.99374 0
M  V30 499 H 50.7795 -0.020385 -1.43986 0
M  V30 500 H 52.7325 2.34396 -3.50195 0
M  V30 501 H 51.4565 2.3584 -2.25936 0
M  V30 502 H 50.1155 0.698991 -3.59875 0
M  V30 503 H 49.7635 3.15439 -3.918 0
M  V30 504 H 49.4635 2.25486 -5.42614 0
M  V30 505 H 50.9875 3.16464 -5.2219 0
M  V30 506 H 52.4015 0.935116 -5.65622 0
M  V30 507 H 50.7985 0.221046 -5.99693 0
M  V30 508 H 51.8685 -0.557162 -4.81688 0
M  V30 509 N 53.2116 1.57565 -0.0334293 0
M  V30 510 C 54.1746 2.09393 0.932048 0
M  V30 511 C 55.1746 1.00986 1.25134 0
M  V30 512 O 56.3646 1.27129 1.19096 0
M  V30 513 C 53.4966 2.56338 2.2473 0
M  V30 514 H 54.6896 2.95984 0.483085 0
M  V30 515 H 52.2426 1.54819 0.21468 0
M  V30 516 H 52.9776 1.7309 2.74245 0
M  V30 517 H 52.7626 3.35542 2.02865 0
M  V30 518 H 54.2526 2.96646 2.93923 0
M  V30 519 N 54.6897 -0.239769 1.55765 0
M  V30 520 C 55.6227 -1.32356 1.85895 0
M  V30 521 C 56.6007 -1.46053 0.714662 0
M  V30 522 O 57.7847 -1.62154 0.961157 0
M  V30 523 C 54.9117 -2.6962 2.04994 0
M  V30 524 C 53.9577 -2.73036 3.27648 0
M  V30 525 S 54.7907 -2.28929 4.84099 0
M  V30 526 C 55.9467 -3.68103 5.06212 0
M  V30 527 H 56.1797 -1.06601 2.77531 0
M  V30 528 H 53.7127 -0.441112 1.47965 0
M  V30 529 H 55.6707 -3.48653 2.16682 0
M  V30 530 H 54.3317 -2.92609 1.14188 0
M  V30 531 H 53.5247 -3.7386 3.38 0
M  V30 532 H 53.1267 -2.02052 3.14723 0
M  V30 533 H 55.4187 -4.63656 4.93993 0
M  V30 534 H 56.3617 -3.6268 6.08168 0
M  V30 535 H 56.7697 -3.60947 4.34025 0
M  V30 536 N 56.1678 -1.49265 -0.50573 0
M  V30 537 C 57.1308 -1.65075 -1.59006 0
M  V30 538 C 58.1308 -0.522768 -1.52065 0
M  V30 539 O 59.3208 -0.789117 -1.55302 0
M  V30 540 C 56.4528 -1.64369 -2.98656 0
M  V30 541 H 57.6458 -2.61784 -1.46319 0
M  V30 542 H 55.1988 -1.38226 -0.729616 0
M  V30 543 H 55.9338 -0.692272 -3.16825 0
M  V30 544 H 55.7188 -2.46282 -3.05103 0
M  V30 545 H 57.2088 -1.78674 -3.77446 0
M  V30 546 N 57.6459 0.756429 -1.3826 0
M  V30 547 C 58.6089 1.85176 -1.35065 0
M  V30 548 C 59.6089 1.58818 -0.251703 0
M  V30 549 O 60.7989 1.66615 -0.508433 0
M  V30 550 C 57.9309 3.22596 -1.10201 0
M  V30 551 H 59.1239 1.89417 -2.3251 0
M  V30 552 H 56.6769 0.95783 -1.23512 0
M  V30 553 H 57.4119 3.24025 -0.133504 0
M  V30 554 H 57.1969 3.43122 -1.89762 0
M  V30 555 H 58.6869 4.02673 -1.10654 0
M  V30 556 N 59.124 1.23083 0.984299 0
M  V30 557 C 60.087 1.00979 2.05757 0
M  V30 558 C 61.087 -0.0269573 1.60777 0
M  V30 559 O 62.277 0.212403 1.729 0
M  V30 560 C 59.409 0.527072 3.36801 0
M  V30 561 H 60.602 1.9622 2.26799 0
M  V30 562 H 58.155 1.05072 1.15714 0
M  V30 563 H 58.89 -0.429294 3.21446 0
M  V30 564 H 58.675 1.27515 3.70786 0
M  V30 565 H 60.165 0.392942 4.15747 0
M  V30 566 N 60.6021 -1.18246 1.0419 0
M  V30 567 C 61.8501 -1.87886 0.744543 0
M  V30 568 C 62.1711 -1.8082 -0.730006 0
M  V30 569 O 61.4411 -1.22736 -1.52685 0
M  V30 570 H 60.0211 -0.695556 0.272417 0
M  V30 571 H 62.6831 -1.43494 1.31892 0
M  V30 572 H 61.7791 -2.9389 1.05049 0
M  V30 573 N 62.0802 -0.821533 -1.34494 0
M  V30 574 C 63.0432 -0.247847 -2.27856 0
M  V30 575 C 64.0432 0.573453 -1.50227 0
M  V30 576 O 65.2332 0.389759 -1.69784 0
M  V30 577 C 62.3652 0.652698 -3.34593 0
M  V30 578 H 63.5582 -1.07146 -2.80107 0
M  V30 579 H 61.1112 -0.593291 -1.44602 0
M  V30 580 H 61.8462 1.49943 -2.87555 0
M  V30 581 H 61.6312 0.065292 -3.92046 0
M  V30 582 H 63.1212 1.04793 -4.04238 0
M  V30 583 N 63.5583 1.46682 -0.576371 0
M  V30 584 C 64.8063 2.02013 -0.0594163 0
M  V30 585 C 65.1273 1.45101 1.30271 0
M  V30 586 O 64.3973 0.633317 1.8538 0
M  V30 587 H 62.9773 0.746759 -0.0189745 0
M  V30 588 H 65.6393 1.79862 -0.750717 0
M  V30 589 H 64.7353 3.12097 0.014345 0
M  V30 590 N 65.0364 0.313813 1.54444 0
M  V30 591 C 66.2854 -0.292519 1.99568 0
M  V30 592 C 66.5984 -1.54011 1.20582 0
M  V30 593 O 67.8044 -2.22183 1.56035 0
M  V30 594 C 66.2604 -0.571752 3.55329 0
M  V30 595 C 65.8684 0.658229 4.43138 0
M  V30 596 C 67.6124 -1.13857 4.08946 0
M  V30 597 C 65.5194 0.351439 5.90355 0
M  V30 598 H 64.4494 -0.113079 0.745472 0
M  V30 599 H 67.1004 0.424518 1.78522 0
M  V30 600 H 65.4824 -1.34872 3.72325 0
M  V30 601 H 66.6564 1.43403 4.37918 0
M  V30 602 H 64.9714 1.14458 4.0036 0
M  V30 603 H 67.5684 -1.38257 5.16516 0
M  V30 604 H 67.9114 -2.08489 3.6033 0
M  V30 605 H 68.4444 -0.423015 3.95544 0
M  V30 606 H 65.1834 1.26667 6.43145 0
M  V30 607 H 64.7034 -0.386842 5.98551 0
M  V30 608 H 66.3824 -0.0423134 6.46986 0
M  V30 609 N 66.5145 -1.57545 0.0417849 0
M  V30 610 C 67.7605 -1.92601 -0.635021 0
M  V30 611 C 68.0935 -0.919627 -1.71045 0
M  V30 612 O 67.3685 0.0557892 -1.9442 0
M  V30 613 C 67.6515 -3.38085 -1.23979 0
M  V30 614 C 67.5045 -4.49467 -0.173057 0
M  V30 615 C 68.8235 -3.83776 -2.15416 0
M  V30 616 H 65.9425 -0.700397 -0.229374 0
M  V30 617 H 68.5845 -1.89728 0.101633 0
M  V30 618 H 66.7345 -3.40664 -1.86762 0
M  V30 619 H 68.4065 -4.59018 0.458312 0
M  V30 620 H 66.6495 -4.30909 0.499996 0
M  V30 621 H 67.3205 -5.48323 -0.636054 0
M  V30 622 H 69.7965 -3.83013 -1.62605 0
M  V30 623 H 68.6725 -4.8624 -2.54679 0
M  V30 624 H 68.9335 -3.19998 -3.05047 0
M  V30 625 N 67.9926 0.231505 -1.5589 0
M  V30 626 C 69.2696 0.981096 -1.69215 0
M  V30 627 C 69.6496 2.02799 -0.586164 0
M  V30 628 O 68.9976 2.24823 0.408253 0
M  V30 629 C 69.2076 1.60054 -3.10135 0
M  V30 630 C 70.5556 2.09658 -3.69227 0
M  V30 631 O 71.5796 1.69967 -3.13033 0
M  V30 632 O 70.4386 2.8258 -4.67772 0
M  V30 633 H 67.5326 0.457653 -0.688827 0
M  V30 634 H 70.0786 0.224073 -1.68214 0
M  V30 635 H 68.8506 0.844105 -3.82087 0
M  V30 636 H 68.4736 2.42336 -3.15212 0
M  V30 637 N 69.4707 1.49531 0.497807 0
M  V30 638 C 70.7167 1.59415 1.25358 0
M  V30 639 C 71.0497 0.281422 1.9215 0
M  V30 640 O 70.3247 -0.715249 1.80871 0
M  V30 641 C 70.6077 2.75566 2.3181 0
M  V30 642 C 70.4607 4.16642 1.69498 0
M  V30 643 C 71.7797 2.87347 3.33346 0
M  V30 644 H 68.8987 0.580244 0.454408 0
M  V30 645 H 71.5407 1.81827 0.551262 0
M  V30 646 H 69.6907 2.56587 2.91711 0
M  V30 647 H 71.3627 4.47145 1.13399 0
M  V30 648 H 69.6057 4.22141 0.998978 0
M  V30 649 H 70.2767 4.93792 2.46725 0
M  V30 650 H 72.7527 3.04634 2.83438 0
M  V30 651 H 71.6287 3.70289 4.05188 0
M  V30 652 H 71.8897 1.96834 3.95865 0
M  V30 653 N 70.9488 -0.749086 1.3866 0
M  V30 654 C 72.1968 -1.50535 1.34847 0
M  V30 655 C 72.5178 -1.94909 -0.0595016 0
M  V30 656 O 71.7878 -1.67973 -1.00806 0
M  V30 657 H 70.3678 -0.558395 0.49619 0
M  V30 658 H 73.0298 -0.890165 1.73384 0
M  V30 659 H 72.1258 -2.39413 2.00219 0
M  V30 660 N 72.4269 -1.23603 -0.977757 0
M  V30 661 C 73.6749 -1.06759 -1.71601 0
M  V30 662 C 73.9959 0.395929 -1.90938 0
M  V30 663 O 73.2659 1.28356 -1.47992 0
M  V30 664 H 71.8459 -0.392062 -0.635843 0
M  V30 665 H 74.5079 -1.55362 -1.1768 0
M  V30 666 H 73.6039 -1.55763 -2.70452 0
M  V30 667 N 73.905 1.17692 -1.04816 0
M  V30 668 C 74.815 2.25229 -0.65643 0
M  V30 669 C 75.831 1.71018 0.320761 0
M  V30 670 O 77.007 2.00649 0.173805 0
M  V30 671 C 74.072 3.46684 -0.0332629 0
M  V30 672 C 73.133 4.15997 -1.06042 0
M  V30 673 C 72.366 5.31654 -0.466893 0
M  V30 674 O 72.589 5.65777 0.724758 0
M  V30 675 O 71.523 5.89831 -1.1993 0
M  V30 676 H 75.349 2.61016 -1.55255 0
M  V30 677 H 72.934 1.24919 -0.81949 0
M  V30 678 H 74.816 4.20234 0.313256 0
M  V30 679 H 73.491 3.12703 0.836566 0
M  V30 680 H 72.398 3.44482 -1.45886 0
M  V30 681 H 73.731 4.53996 -1.90127 0
M  V30 682 N 75.3831 0.828654 1.34056 0
M  V30 683 C 76.6081 0.431637 2.02859 0
M  V30 684 C 77.0331 -0.956339 1.61975 0
M  V30 685 O 76.3911 -1.62338 0.807228 0
M  V30 686 C 76.4391 0.548323 3.56407 0
M  V30 687 O 75.5431 -0.429556 4.10157 0
M  V30 688 H 74.8841 0.176886 0.640006 0
M  V30 689 H 77.4141 1.12066 1.71179 0
M  V30 690 H 77.4241 0.426196 4.05768 0
M  V30 691 H 76.0991 1.5606 3.8551 0
M  V30 692 H 74.6761 -0.265836 3.71951 0
M  V30 693 N 76.8612 -1.46375 0.584142 0
M  V30 694 C 78.0862 -2.07268 0.0740405 0
M  V30 695 C 78.5112 -1.42979 -1.22223 0
M  V30 696 O 77.8692 -0.514092 -1.73859 0
M  V30 697 C 77.9172 -3.60518 -0.0767769 0
M  V30 698 O 77.0212 -3.96533 -1.13292 0
M  V30 699 H 76.3622 -0.660961 0.0634524 0
M  V30 700 H 78.8922 -1.87991 0.807492 0
M  V30 701 H 78.9022 -4.07021 -0.282489 0
M  V30 702 H 77.5772 -4.06702 0.86986 0
M  V30 703 H 76.1542 -3.61738 -0.905553 0
M  V30 704 N 78.3393 -0.321999 -1.54275 0
M  V30 705 C 79.7553 0.0306999 -1.5957 0
M  V30 706 C 79.9553 1.50614 -1.33857 0
M  V30 707 O 79.0113 2.2619 -1.12223 0
M  V30 708 C 80.3243 -0.386122 -2.98211 0
M  V30 709 C 81.8723 -0.336647 -3.11184 0
M  V30 710 C 82.3473 -0.728607 -4.52167 0
M  V30 711 N 83.8383 -0.681952 -4.58152 0
M  V30 712 C 84.5733 -0.957449 -5.6535 0
M  V30 713 N 84.0693 -1.3 -6.80494 0
M  V30 714 N 85.8623 -0.883113 -5.55119 0
M  V30 715 H 78.0133 -1.28332 -1.69247 0
M  V30 716 H 80.2763 -0.521716 -0.791528 0
M  V30 717 H 79.9823 -1.41404 -3.22022 0
M  V30 718 H 79.8563 0.249662 -3.76373 0
M  V30 719 H 82.2433 0.682058 -2.8711 0
M  V30 720 H 82.3243 -1.00734 -2.3513 0
M  V30 721 H 81.9683 -1.74522 -4.76974 0
M  V30 722 H 81.8983 -0.0356152 -5.26588 0
M  V30 723 H 84.3893 -0.428985 -3.75457 0
M  V30 724 H 84.7023 -1.49563 -7.58189 0
M  V30 725 H 83.0473 -1.33824 -6.81994 0
M  V30 726 H 86.2383 -0.615001 -4.64042 0
M  V30 727 H 86.4113 -1.10118 -6.38575 0
M  V30 728 N 79.8174 1.5752 -0.0501392 0
M  V30 729 C 81.2284 1.80271 0.485705 0
M  V30 730 C 81.5794 0.96228 1.70981 0
M  V30 731 O 80.7044 0.178578 2.15662 0
M  V30 732 C 81.2994 3.26957 0.887938 0
M  V30 733 C 79.8584 3.5063 1.36877 0
M  V30 734 C 79.0054 2.75165 0.343468 0
M  V30 735 H 81.9564 1.56281 -0.276028 0
M  V30 736 H 81.9774 3.37821 1.75093 0
M  V30 737 H 81.4894 3.881 -0.0031809 0
M  V30 738 H 79.5904 2.94766 2.27911 0
M  V30 739 H 79.7034 4.59343 1.36164 0
M  V30 740 H 78.0674 2.4127 0.816128 0
M  V30 741 H 78.8504 3.39034 -0.539548 0
M  V30 742 N 81.2955 -0.223234 1.56011 0
M  V30 743 C 82.5435 -0.946003 1.78592 0
M  V30 744 C 82.8645 -1.84936 0.618349 0
M  V30 745 O 82.1345 -1.92473 -0.364833 0
M  V30 746 H 80.7145 -0.352298 0.658707 0
M  V30 747 H 83.3765 -0.235494 1.93472 0
M  V30 748 H 82.4725 -1.55381 2.70672 0
M  V30 749 N 82.7736 -1.49793 -0.48987 0
M  V30 750 C 83.7366 -1.66752 -1.57246 0
M  V30 751 C 84.7366 -0.538867 -1.51502 0
M  V30 752 O 85.9266 -0.805545 -1.54456 0
M  V30 753 C 83.0586 -1.67528 -2.96896 0
M  V30 754 H 84.2516 -2.63321 -1.43534 0
M  V30 755 H 81.8046 -1.38992 -0.714914 0
M  V30 756 H 82.5396 -0.725837 -3.16073 0
M  V30 757 H 82.3246 -2.49504 -3.02473 0
M  V30 758 H 83.8146 -1.82667 -3.7553 0
M  V30 759 N 84.2517 0.741722 -1.39055 0
M  V30 760 C 85.4797 1.53098 -1.39171 0
M  V30 761 C 85.8947 1.88794 0.0155099 0
M  V30 762 O 85.2517 1.53626 0.985159 0
M  V30 763 C 85.3027 2.82274 -2.2584 0
M  V30 764 O 85.0237 2.48097 -3.61081 0
M  V30 765 C 86.5247 3.76343 -2.34266 0
M  V30 766 H 83.7447 0.473335 -0.4756 0
M  V30 767 H 86.2887 0.917045 -1.82785 0
M  V30 768 H 84.4437 3.40015 -1.85656 0
M  V30 769 H 84.8577 3.31029 -4.06842 0
M  V30 770 H 86.3317 4.63898 -2.9917 0
M  V30 771 H 86.8087 4.17619 -1.35982 0
M  V30 772 H 87.4147 3.24523 -2.74891 0
M  V30 773 N 85.7298 1.2412 0.971189 0
M  V30 774 C 87.1458 1.00584 1.23916 0
M  V30 775 C 87.3458 -0.287481 1.99439 0
M  V30 776 O 86.4018 -1.00454 2.31658 0
M  V30 777 C 87.7148 2.21864 2.0297 0
M  V30 778 C 89.2628 2.26452 2.16076 0
M  V30 779 C 89.7378 3.47343 2.98524 0
M  V30 780 N 91.2288 3.47639 3.06107 0
M  V30 781 C 91.9638 4.37837 3.70251 0
M  V30 782 N 91.4598 5.38286 4.36142 0
M  V30 783 N 93.2528 4.25558 3.67228 0
M  V30 784 H 85.4038 2.07236 0.465499 0
M  V30 785 H 87.6668 0.909236 0.268315 0
M  V30 786 H 87.3728 3.15771 1.54861 0
M  V30 787 H 87.2468 2.23698 3.03709 0
M  V30 788 H 89.6338 1.33078 2.6339 0
M  V30 789 H 89.7148 2.28645 1.14696 0
M  V30 790 H 89.3588 4.41029 2.51905 0
M  V30 791 H 89.2888 3.42393 4.00093 0
M  V30 792 H 91.7798 2.74966 2.59233 0
M  V30 793 H 92.0928 6.03352 4.82894 0
M  V30 794 H 90.4378 5.42176 4.34822 0
M  V30 795 H 93.6288 3.46322 3.14927 0
M  V30 796 H 93.8018 4.96054 4.16935 0
M  V30 797 N 87.2079 -1.17134 1.05439 0
M  V30 798 C 88.4539 -1.87733 0.767077 0
M  V30 799 C 88.7869 -1.8098 -0.704253 0
M  V30 800 O 88.0619 -1.21951 -1.5152 0
M  V30 801 C 88.3449 -3.37659 1.25133 0
M  V30 802 C 88.1979 -3.53149 2.78578 0
M  V30 803 C 89.5169 -4.31768 0.852324 0
M  V30 804 H 86.6359 -0.681687 0.280129 0
M  V30 805 H 89.2779 -1.37732 1.30881 0
M  V30 806 H 87.4279 -3.80373 0.790469 0
M  V30 807 H 89.0999 -3.19434 3.32806 0
M  V30 808 H 87.3429 -2.95345 3.17732 0
M  V30 809 H 88.0139 -4.58403 3.07523 0
M  V30 810 H 90.4899 -3.96909 1.24911 0
M  V30 811 H 89.3659 -5.35199 1.21873 0
M  V30 812 H 89.6269 -4.41429 -0.243485 0
M  V30 813 N 88.686 -0.835752 -1.33615 0
M  V30 814 C 89.963 -0.352017 -1.92406 0
M  V30 815 C 90.343 1.16225 -1.76224 0
M  V30 816 O 89.691 1.97526 -1.14873 0
M  V30 817 C 89.901 -0.795485 -3.39813 0
M  V30 818 C 91.249 -0.801703 -4.16963 0
M  V30 819 O 92.273 -0.738889 -3.48452 0
M  V30 820 O 91.132 -0.886607 -5.3926 0
M  V30 821 H 88.226 -0.0989641 -0.821057 0
M  V30 822 H 90.772 -0.921397 -1.42507 0
M  V30 823 H 89.544 -1.83795 -3.45449 0
M  V30 824 H 89.167 -0.202505 -3.97084 0
M  V30 825 N 90.1641 1.46063 -0.591896 0
M  V30 826 C 91.5751 1.85944 -0.167822 0
M  V30 827 C 91.9261 1.49429 1.27143 0
M  V30 828 O 91.0511 0.913515 1.96173 0
M  V30 829 C 91.6461 3.37489 -0.297794 0
M  V30 830 C 90.2051 3.76332 0.0714732 0
M  V30 831 C 89.3521 2.7006 -0.629509 0
M  V30 832 H 92.3031 1.37087 -0.799555 0
M  V30 833 H 92.3241 3.77532 0.474349 0
M  V30 834 H 91.8361 3.64034 -1.3454 0
M  V30 835 H 89.9371 3.55405 1.11886 0
M  V30 836 H 90.0501 4.78088 -0.311245 0
M  V30 837 H 88.4141 2.54607 -0.0687867 0
M  V30 838 H 89.1971 2.99444 -1.67894 0
M  V30 839 N 91.6422 0.330177 1.54103 0
M  V30 840 C 92.6052 -0.520144 2.2322 0
M  V30 841 C 93.6052 -1.03828 1.22786 0
M  V30 842 O 94.7952 -0.929652 1.4732 0
M  V30 843 C 91.9272 -1.72317 2.94142 0
M  V30 844 H 93.1202 0.0841605 2.99782 0
M  V30 845 H 90.6732 0.0813433 1.56088 0
M  V30 846 H 91.4082 -2.36653 2.21734 0
M  V30 847 H 91.1932 -1.35898 3.67796 0
M  V30 848 H 92.6832 -2.3266 3.46784 0
M  V30 849 N 93.1203 -1.57491 0.0584922 0
M  V30 850 C 94.3663 -1.93264 -0.614558 0
M  V30 851 C 94.6993 -0.937717 -1.7006 0
M  V30 852 O 93.9743 0.0351652 -1.94468 0
M  V30 853 C 94.2573 -3.3938 -1.20386 0
M  V30 854 C 94.1103 -4.49625 -0.125375 0
M  V30 855 C 95.4293 -3.86039 -2.11334 0
M  V30 856 H 92.5483 -0.702791 -0.221933 0
M  V30 857 H 95.1903 -1.8961 0.12175 0
M  V30 858 H 93.3403 -3.42626 -1.83139 0
M  V30 859 H 95.0123 -4.58506 0.506971 0
M  V30 860 H 93.2553 -4.30354 0.545672 0
M  V30 861 H 93.9263 -5.48967 -0.577861 0
M  V30 862 H 96.4023 -3.84716 -1.58534 0
M  V30 863 H 95.2783 -4.88914 -2.49507 0
M  V30 864 H 95.5393 -3.23215 -3.01636 0
M  V30 865 N 94.5984 0.214957 -1.56127 0
M  V30 866 C 95.5084 1.28727 -1.96129 0
M  V30 867 C 96.5244 1.50916 -0.866044 0
M  V30 868 O 97.7004 1.63918 -1.17016 0
M  V30 869 C 94.7654 2.61569 -2.27558 0
M  V30 870 C 93.8264 2.47625 -3.50685 0
M  V30 871 C 93.0594 3.74132 -3.80606 0
M  V30 872 O 93.2824 4.77438 -3.12104 0
M  V30 873 O 92.2164 3.70849 -4.74083 0
M  V30 874 H 96.0424 0.977855 -2.87527 0
M  V30 875 H 93.6274 0.418358 -1.43423 0
M  V30 876 H 95.5094 3.40012 -2.48938 0
M  V30 877 H 94.1844 2.92178 -1.39332 0
M  V30 878 H 93.0914 1.67361 -3.34576 0
M  V30 879 H 94.4244 2.21954 -4.39315 0
M  V30 880 N 96.0765 1.50051 0.48192 0
M  V30 881 C 97.3045 1.64237 1.25832 0
M  V30 882 C 97.7195 0.321336 1.86045 0
M  V30 883 O 97.0765 -0.695478 1.68729 0
M  V30 884 C 97.1275 2.72548 2.37487 0
M  V30 885 O 96.8485 3.99529 1.79745 0
M  V30 886 C 98.3495 2.9761 3.28547 0
M  V30 887 H 95.5695 0.55237 0.380957 0
M  V30 888 H 98.1135 1.96207 0.576467 0
M  V30 889 H 96.2685 2.43303 3.01467 0
M  V30 890 H 96.6825 4.59342 2.5319 0
M  V30 891 H 98.1565 3.77084 4.03127 0
M  V30 892 H 98.6335 2.0826 3.86684 0
M  V30 893 H 99.2395 3.28345 2.70314 0
M  V30 894 N 97.5546 -0.734337 1.39446 0
M  V30 895 C 98.7796 -1.52866 1.40167 0
M  V30 896 C 99.2046 -1.881 -0.00171513 0
M  V30 897 O 98.5626 -1.51957 -0.988879 0
M  V30 898 C 98.6106 -2.79235 2.28167 0
M  V30 899 O 97.7146 -3.75185 1.71201 0
M  V30 900 H 97.0556 -0.461618 0.477289 0
M  V30 901 H 99.5856 -0.905949 1.8345 0
M  V30 902 H 99.5956 -3.27963 2.42702 0
M  V30 903 H 98.2706 -2.52923 3.30156 0
M  V30 904 H 96.8476 -3.33958 1.65912 0
M  V30 905 N 99.0327 -1.24633 -0.964593 0
M  V30 906 C 100.449 -1.01239 -1.2338 0
M  V30 907 C 100.649 0.2769 -1.99588 0
M  V30 908 O 99.7047 0.992241 -2.32187 0
M  V30 909 C 101.018 -2.22937 -2.01791 0
M  V30 910 C 102.566 -2.27594 -2.14872 0
M  V30 911 C 103.041 -3.48921 -2.96678 0
M  V30 912 N 104.532 -3.49257 -3.04259 0
M  V30 913 C 105.267 -4.39795 -3.67924 0
M  V30 914 N 104.763 -5.40591 -4.33281 0
M  V30 915 N 106.556 -4.275 -3.64966 0
M  V30 916 H 98.7067 -2.0748 -0.454502 0
M  V30 917 H 100.97 -0.910647 -0.26349 0
M  V30 918 H 100.676 -3.16587 -1.53184 0
M  V30 919 H 100.55 -2.25306 -3.02518 0
M  V30 920 H 102.937 -1.34473 -2.6268 0
M  V30 921 H 103.018 -2.2925 -1.13482 0
M  V30 922 H 102.662 -4.42359 -2.49562 0
M  V30 923 H 102.592 -3.4451 -3.98272 0
M  V30 924 H 105.083 -2.76337 -2.57771 0
M  V30 925 H 105.396 -6.05904 -4.79687 0
M  V30 926 H 103.741 -5.44475 -4.3194 0
M  V30 927 H 106.932 -3.47987 -3.13086 0
M  V30 928 H 107.105 -4.98258 -4.14298 0
M  V30 929 N 100.511 1.16574 -1.06058 0
M  V30 930 C 101.757 1.87324 -0.777022 0
M  V30 931 C 102.09 1.81351 0.694645 0
M  V30 932 O 101.365 1.22753 1.50871 0
M  V30 933 C 101.648 3.36991 -1.26922 0
M  V30 934 C 101.501 3.51667 -2.80447 0
M  V30 935 C 102.82 4.3131 -0.87521 0
M  V30 936 H 99.9388 0.680191 -0.28374 0
M  V30 937 H 102.581 1.37036 -1.3161 0
M  V30 938 H 100.731 3.79949 -0.81063 0
M  V30 939 H 102.403 3.17664 -3.34495 0
M  V30 940 H 100.646 2.93656 -3.19294 0
M  V30 941 H 101.317 4.56766 -3.0995 0
M  V30 942 H 103.793 3.9624 -1.27014 0
M  V30 943 H 102.669 5.34545 -1.2471 0
M  V30 944 H 102.93 4.41552 0.220071 0
M  V30 945 N 101.989 0.842826 1.3317 0
M  V30 946 C 103.238 0.436738 1.96915 0
M  V30 947 C 103.551 -1.01025 1.67491 0
M  V30 948 O 104.757 -1.5212 2.24881 0
M  V30 949 C 103.213 0.730021 3.52418 0
M  V30 950 C 102.821 2.19195 3.90714 0
M  V30 951 C 104.565 0.391076 4.22695 0
M  V30 952 C 102.472 2.42907 5.39212 0
M  V30 953 H 101.402 0.15958 0.736919 0
M  V30 954 H 104.053 1.03196 1.51733 0
M  V30 955 H 102.435 0.0643755 3.95948 0
M  V30 956 H 103.609 2.8984 3.58231 0
M  V30 957 H 101.924 2.49425 3.33431 0
M  V30 958 H 104.521 0.545817 5.31907 0
M  V30 959 H 104.864 -0.666294 4.10933 0
M  V30 960 H 105.397 1.01212 3.84709 0
M  V30 961 H 102.136 3.47224 5.55982 0
M  V30 962 H 101.656 1.76827 5.73142 0
M  V30 963 H 103.335 2.2626 6.06148 0
M  V30 964 N 103.467 -1.45747 0.599634 0
M  V30 965 C 104.878 -1.85853 0.177681 0
M  V30 966 C 105.229 -1.50102 -1.26348 0
M  V30 967 O 104.354 -0.923905 -1.95686 0
M  V30 968 C 104.949 -3.37326 0.315688 0
M  V30 969 C 103.508 -3.76365 -0.0515144 0
M  V30 970 C 102.655 -2.69722 0.643822 0
M  V30 971 H 105.606 -1.36661 0.806814 0
M  V30 972 H 105.627 -3.77778 -0.454321 0
M  V30 973 H 105.139 -3.63315 1.36468 0
M  V30 974 H 103.24 -3.55993 -1.09999 0
M  V30 975 H 103.353 -4.77916 0.336594 0
M  V30 976 H 101.717 -2.54567 0.0822881 0
M  V30 977 H 102.5 -2.98549 1.6948 0
M  V30 978 N 104.945 -0.338344 -1.53925 0
M  V30 979 C 106.191 0.260143 -2.01125 0
M  V30 980 C 106.524 1.50617 -1.22589 0
M  V30 981 O 105.799 1.91979 -0.312113 0
M  V30 982 C 106.082 0.579499 -3.55407 0
M  V30 983 C 105.935 -0.678264 -4.44657 0
M  V30 984 C 107.254 1.39122 -4.17532 0
M  V30 985 H 104.373 0.0930772 -0.731099 0
M  V30 986 H 107.015 -0.457852 -1.84401 0
M  V30 987 H 105.165 1.19118 -3.69788 0
M  V30 988 H 106.837 -1.31631 -4.42121 0
M  V30 989 H 105.08 -1.3042 -4.13731 0
M  V30 990 H 105.751 -0.410143 -5.50474 0
M  V30 991 H 108.227 0.874035 -4.06817 0
M  V30 992 H 107.103 1.58342 -5.25565 0
M  V30 993 H 107.364 2.39178 -3.71815 0
M  V30 994 N 106.423 1.57458 -0.0668435 0
M  V30 995 C 107.669 1.93587 0.6043 0
M  V30 996 C 108.002 0.946722 1.69561 0
M  V30 997 O 107.277 -0.0248516 1.94484 0
M  V30 998 C 107.56 3.40014 1.18585 0
M  V30 999 C 107.413 4.49685 0.101529 0
M  V30 1000 C 108.732 3.87154 2.09284 0
M  V30 1001 H 105.851 0.703958 0.218202 0
M  V30 1002 H 108.493 1.89542 -0.131804 0
M  V30 1003 H 106.643 3.43592 1.81319 0
M  V30 1004 H 108.315 4.5823 -0.531279 0
M  V30 1005 H 106.558 4.30059 -0.568487 0
M  V30 1006 H 107.229 5.49266 0.54874 0
M  V30 1007 H 109.705 3.85551 1.56491 0
M  V30 1008 H 108.581 4.90231 2.46911 0
M  V30 1009 H 108.842 3.2481 2.99918 0
M  V30 1010 N 107.901 -0.206675 1.56239 0
M  V30 1011 C 108.848 -1.25617 1.93621 0
M  V30 1012 C 109.818 -1.45824 0.795274 0
M  V30 1013 O 111.003 -1.59148 1.05245 0
M  V30 1014 C 108.143 -2.59839 2.27107 0
M  V30 1015 C 107.256 -2.47308 3.54207 0
M  V30 1016 C 106.391 -3.74155 3.7707 0
M  V30 1017 C 105.43 -3.56407 4.97635 0
M  V30 1018 N 104.567 -4.75238 5.1681 0
M  V30 1019 H 109.407 -0.930383 2.83104 0
M  V30 1020 H 106.944 -0.448065 1.4011 0
M  V30 1021 H 108.902 -3.38021 2.44535 0
M  V30 1022 H 107.532 -2.90485 1.40778 0
M  V30 1023 H 106.584 -1.60483 3.4489 0
M  V30 1024 H 107.896 -2.30122 4.42544 0
M  V30 1025 H 107.05 -4.60778 3.94675 0
M  V30 1026 H 105.789 -3.94282 2.87042 0
M  V30 1027 H 104.794 -2.68168 4.79964 0
M  V30 1028 H 106.019 -3.37736 5.89161 0
M  V30 1029 H 103.965 -4.95651 4.29728 0
M  V30 1030 H 103.882 -4.60835 5.99306 0
M  V30 1031 H 105.15 -5.63246 5.38864 0
M  V30 1032 N 109.379 -1.50304 -0.473955 0
M  V30 1033 C 110.289 -1.7174 -1.5982 0
M  V30 1034 C 111.305 -0.600457 -1.63311 0
M  V30 1035 O 112.481 -0.878441 -1.81233 0
M  V30 1036 C 109.546 -1.80427 -2.96052 0
M  V30 1037 C 108.607 -3.04148 -3.02972 0
M  V30 1038 C 107.84 -3.12411 -4.32706 0
M  V30 1039 O 108.063 -2.27542 -5.23049 0
M  V30 1040 O 106.997 -4.05113 -4.45159 0
M  V30 1041 H 110.823 -2.67035 -1.44657 0
M  V30 1042 H 108.408 -1.34366 -0.653148 0
M  V30 1043 H 110.29 -1.88338 -3.7697 0
M  V30 1044 H 108.965 -0.883156 -3.11419 0
M  V30 1045 H 107.872 -3.0174 -2.21142 0
M  V30 1046 H 109.205 -3.95829 -2.92541 0
M  V30 1047 N 110.857 0.726932 -1.39834 0
M  V30 1048 C 111.787 1.85405 -1.41941 0
M  V30 1049 C 112.768 1.67751 -0.281728 0
M  V30 1050 O 113.953 1.8795 -0.488717 0
M  V30 1051 C 111.083 3.23243 -1.2701 0
M  V30 1052 C 110.037 3.55549 -2.38262 0
M  V30 1053 C 109.363 4.9241 -2.08415 0
M  V30 1054 C 110.663 3.577 -3.80589 0
M  V30 1055 H 112.357 1.83899 -2.36266 0
M  V30 1056 H 109.903 0.883349 -1.13723 0
M  V30 1057 H 111.856 4.01775 -1.27103 0
M  V30 1058 H 110.58 3.25296 -0.291564 0
M  V30 1059 H 109.239 2.79351 -2.37399 0
M  V30 1060 H 108.887 4.91052 -1.0898 0
M  V30 1061 H 108.587 5.14992 -2.82943 0
M  V30 1062 H 110.111 5.73289 -2.10171 0
M  V30 1063 H 111.525 4.26293 -3.83337 0
M  V30 1064 H 109.922 3.91804 -4.54543 0
M  V30 1065 H 110.992 2.57328 -4.10987 0
M  V30 1066 N 112.336 1.25143 0.95797 0
M  V30 1067 C 113.299 1.05321 2.03569 0
M  V30 1068 C 114.299 0.007152 1.60798 0
M  V30 1069 O 115.489 0.24903 1.72411 0
M  V30 1070 C 112.621 0.598394 3.35607 0
M  V30 1071 H 113.814 2.00986 2.22586 0
M  V30 1072 H 111.367 1.07502 1.13459 0
M  V30 1073 H 112.102 -0.361014 3.22284 0
M  V30 1074 H 111.887 1.35351 3.67998 0
M  V30 1075 H 113.377 0.48104 4.1482 0
M  V30 1076 N 113.814 -1.1601 1.06675 0
M  V30 1077 C 114.777 -2.18724 0.685001 0
M  V30 1078 C 115.777 -1.58496 -0.271246 0
M  V30 1079 O 116.967 -1.74119 -0.0531156 0
M  V30 1080 C 114.099 -3.40899 0.00853648 0
M  V30 1081 H 115.292 -2.54011 1.59431 0
M  V30 1082 H 112.845 -1.30352 0.862441 0
M  V30 1083 H 113.58 -3.11173 -0.913337 0
M  V30 1084 H 113.365 -3.8587 0.696204 0
M  V30 1085 H 114.855 -4.16886 -0.24414 0
M  V30 1086 N 115.292 -0.849877 -1.32721 0
M  V30 1087 C 116.224 -0.248332 -2.27851 0
M  V30 1088 C 117.237 0.577218 -1.52224 0
M  V30 1089 O 118.426 0.402489 -1.73903 0
M  V30 1090 C 115.526 0.668107 -3.32249 0
M  V30 1091 C 114.699 -0.120534 -4.37234 0
M  V30 1092 C 113.758 0.720932 -5.21238 0
M  V30 1093 O 112.784 0.156166 -5.68986 0
M  V30 1094 N 113.986 2.03647 -5.43607 0
M  V30 1095 H 116.751 -1.06575 -2.80111 0
M  V30 1096 H 114.312 -0.709395 -1.45531 0
M  V30 1097 H 116.304 1.23627 -3.85355 0
M  V30 1098 H 114.874 1.38621 -2.80184 0
M  V30 1099 H 114.094 -0.870108 -3.84477 0
M  V30 1100 H 115.382 -0.662406 -5.0447 0
M  V30 1101 H 114.78 2.51871 -5.06535 0
M  V30 1102 H 113.337 2.55287 -5.99727 0
M  V30 1103 N 116.77 1.45427 -0.607355 0
M  V30 1104 C 118.018 2.01841 -0.102253 0
M  V30 1105 C 118.339 1.47832 1.27164 0
M  V30 1106 O 117.609 0.672497 1.83995 0
M  V30 1107 H 116.189 0.746188 -0.0348101 0
M  V30 1108 H 118.851 1.78229 -0.7887 0
M  V30 1109 H 117.947 3.12057 -0.0518585 0
M  V30 1110 N 118.248 0.346503 1.53744 0
M  V30 1111 C 119.497 -0.250122 2.00143 0
M  V30 1112 C 119.81 -1.51418 1.23822 0
M  V30 1113 O 121.016 -2.18823 1.60713 0
M  V30 1114 C 119.472 -0.496252 3.56462 0
M  V30 1115 C 119.08 0.752077 4.41642 0
M  V30 1116 C 120.824 -1.05157 4.11269 0
M  V30 1117 C 118.731 0.476583 5.89477 0
M  V30 1118 H 117.661 -0.0972409 0.747703 0
M  V30 1119 H 120.312 0.46229 1.77581 0
M  V30 1120 H 118.694 -1.26944 3.75102 0
M  V30 1121 H 119.868 1.5266 4.34778 0
M  V30 1122 H 118.183 1.22925 3.97842 0
M  V30 1123 H 120.78 -1.27269 5.19333 0
M  V30 1124 H 121.123 -2.00799 3.64672 0
M  V30 1125 H 121.656 -0.339019 3.96353 0
M  V30 1126 H 118.395 1.4028 6.40314 0
M  V30 1127 H 117.915 -0.259794 5.99237 0
M  V30 1128 H 119.594 0.0949315 6.4693 0
M  V30 1129 N 119.726 -1.57421 0.075193 0
M  V30 1130 C 120.954 -1.97946 -0.602076 0
M  V30 1131 C 121.369 -0.953674 -1.62943 0
M  V30 1132 O 120.726 0.0592551 -1.82404 0
M  V30 1133 C 120.777 -3.38546 -1.26762 0
M  V30 1134 O 120.498 -4.37195 -0.281376 0
M  V30 1135 C 121.999 -3.93966 -2.03239 0
M  V30 1136 H 119.219 -0.650918 -0.162931 0
M  V30 1137 H 121.763 -2.03959 0.148601 0
M  V30 1138 H 119.918 -3.33609 -1.96936 0
M  V30 1139 H 120.332 -5.18975 -0.759267 0
M  V30 1140 H 121.806 -4.94555 -2.45193 0
M  V30 1141 H 122.283 -3.30693 -2.8903 0
M  V30 1142 H 122.889 -4.02315 -1.37924 0
M  V30 1143 N 121.204 0.198386 -1.56346 0
M  V30 1144 C 122.45 0.920648 -1.80698 0
M  V30 1145 C 122.783 1.83045 -0.648697 0
M  V30 1146 O 122.058 1.91308 0.350925 0
M  V30 1147 C 122.341 1.73971 -3.15287 0
M  V30 1148 C 122.194 0.85485 -4.41602 0
M  V30 1149 C 123.513 2.71296 -3.46535 0
M  V30 1150 H 120.632 0.333261 -0.657348 0
M  V30 1151 H 123.274 0.188198 -1.89066 0
M  V30 1152 H 121.424 2.36416 -3.08285 0
M  V30 1153 H 123.096 0.245362 -4.60647 0
M  V30 1154 H 121.339 0.161398 -4.335 0
M  V30 1155 H 122.01 1.46286 -5.32264 0
M  V30 1156 H 124.486 2.18983 -3.53816 0
M  V30 1157 H 123.362 3.2569 -4.41834 0
M  V30 1158 H 123.623 3.5018 -2.69864 0
M  V30 1159 N 122.682 1.50554 0.465978 0
M  V30 1160 C 123.907 1.65838 1.24549 0
M  V30 1161 C 124.332 0.343486 1.84937 0
M  V30 1162 O 123.69 -0.69324 1.67523 0
M  V30 1163 C 123.738 2.75533 2.32624 0
M  V30 1164 O 122.842 2.37142 3.37398 0
M  V30 1165 H 122.183 0.553893 0.366194 0
M  V30 1166 H 124.713 1.96959 0.553927 0
M  V30 1167 H 124.723 2.98763 2.77857 0
M  V30 1168 H 123.398 3.70962 1.88043 0
M  V30 1169 H 121.975 2.24377 2.97841 0
M  V30 1170 N 124.16 -0.719506 1.40217 0
M  V30 1171 C 125.409 -1.47486 1.37589 0
M  V30 1172 C 125.722 -1.9559 -0.0201568 0
M  V30 1173 O 126.928 -2.70973 -0.169049 0
M  V30 1174 C 125.384 -2.66575 2.41796 0
M  V30 1175 C 124.992 -2.25358 3.87192 0
M  V30 1176 C 126.736 -3.4433 2.48269 0
M  V30 1177 C 124.643 -3.41262 4.83005 0
M  V30 1178 H 123.573 -0.553901 0.511576 0
M  V30 1179 H 126.224 -0.783427 1.65936 0
M  V30 1180 H 124.606 -3.3787 2.06543 0
M  V30 1181 H 125.78 -1.61509 4.31569 0
M  V30 1182 H 124.095 -1.60657 3.84159 0
M  V30 1183 H 126.692 -4.30569 3.17041 0
M  V30 1184 H 127.035 -3.87872 1.51198 0
M  V30 1185 H 127.568 -2.80076 2.82493 0
M  V30 1186 H 124.307 -3.02755 5.81394 0
M  V30 1187 H 123.827 -4.0404 4.43297 0
M  V30 1188 H 125.506 -4.07383 5.02641 0
M  V30 1189 N 125.638 -1.25649 -0.95132 0
M  V30 1190 C 126.915 -1.01361 -1.67288 0
M  V30 1191 C 127.295 0.459135 -2.06046 0
M  V30 1192 O 126.643 1.43723 -1.7764 0
M  V30 1193 C 126.853 -1.95256 -2.89268 0
M  V30 1194 C 128.201 -2.23289 -3.61147 0
M  V30 1195 O 129.225 -1.93041 -2.99355 0
M  V30 1196 O 128.084 -2.74741 -4.72419 0
M  V30 1197 H 125.178 -0.38464 -0.732107 0
M  V30 1198 H 127.724 -1.36817 -1.00395 0
M  V30 1199 H 126.496 -2.94685 -2.57442 0
M  V30 1200 H 126.119 -1.60218 -3.6389 0
M  V30 1201 N 127.117 1.15442 -1.07289 0
M  V30 1202 C 128.345 1.90096 -0.81676 0
M  V30 1203 C 128.76 1.7798 0.629966 0
M  V30 1204 O 128.117 1.1313 1.43206 0
M  V30 1205 C 128.168 3.40466 -1.21512 0
M  V30 1206 O 127.889 3.52232 -2.60508 0
M  V30 1207 C 129.39 4.32145 -0.988198 0
M  V30 1208 H 126.61 0.602495 -0.295366 0
M  V30 1209 H 129.154 1.4627 -1.42918 0
M  V30 1210 H 127.309 3.81958 -0.647039 0
M  V30 1211 H 127.723 4.45549 -2.76742 0
M  V30 1212 H 129.197 5.36072 -1.31645 0
M  V30 1213 H 129.674 4.39135 0.0755063 0
M  V30 1214 H 130.28 3.96395 -1.54115 0
M  V30 1215 N 128.595 0.856903 1.32268 0
M  V30 1216 C 129.528 0.247937 2.26849 0
M  V30 1217 C 130.506 -0.615382 1.50505 0
M  V30 1218 O 131.69 -0.571689 1.79622 0
M  V30 1219 C 128.817 -0.650093 3.32403 0
M  V30 1220 C 127.863 0.140138 4.2627 0
M  V30 1221 S 128.696 1.51004 5.13769 0
M  V30 1222 C 129.852 0.61778 6.22844 0
M  V30 1223 H 130.085 1.04971 2.78152 0
M  V30 1224 H 127.618 0.654665 1.39834 0
M  V30 1225 H 129.576 -1.16256 3.93694 0
M  V30 1226 H 128.237 -1.4257 2.7988 0
M  V30 1227 H 127.43 -0.543945 5.01056 0
M  V30 1228 H 127.032 0.584267 3.69408 0
M  V30 1229 H 129.324 -0.177053 6.77269 0
M  V30 1230 H 130.267 1.33636 6.95375 0
M  V30 1231 H 130.675 0.191124 5.64176 0
M  V30 1232 N 130.073 -1.45103 0.615059 0
M  V30 1233 C 131.489 -1.57137 0.279322 0
M  V30 1234 C 131.689 -1.60523 -1.21797 0
M  V30 1235 O 130.745 -1.53956 -2.00134 0
M  V30 1236 C 132.058 -2.85062 0.957083 0
M  V30 1237 C 133.606 -2.98749 0.933706 0
M  V30 1238 C 134.081 -4.29455 1.59162 0
M  V30 1239 N 135.572 -4.36231 1.55746 0
M  V30 1240 C 136.307 -5.36051 2.0356 0
M  V30 1241 N 135.803 -6.42367 2.59494 0
M  V30 1242 N 137.596 -5.27456 1.94284 0
M  V30 1243 H 129.747 -1.41148 1.58717 0
M  V30 1244 H 132.01 -0.675331 0.665306 0
M  V30 1245 H 131.716 -2.88488 2.01166 0
M  V30 1246 H 131.59 -3.7407 0.48494 0
M  V30 1247 H 133.977 -2.94886 -0.112347 0
M  V30 1248 H 134.058 -2.11132 1.44419 0
M  V30 1249 H 133.702 -4.34077 2.63704 0
M  V30 1250 H 133.632 -5.15901 1.0561 0
M  V30 1251 H 136.123 -3.60011 1.14893 0
M  V30 1252 H 136.436 -7.14793 2.93752 0
M  V30 1253 H 134.781 -6.43097 2.63537 0
M  V30 1254 H 137.972 -4.43308 1.5032 0
M  V30 1255 H 138.145 -6.05099 2.3186 0
M  V30 1256 N 131.551 -0.354651 -1.53558 0
M  V30 1257 C 132.514 0.484566 -2.24019 0
M  V30 1258 C 133.514 1.01861 -1.24422 0
M  V30 1259 O 134.704 0.906097 -1.4878 0
M  V30 1260 C 131.836 1.67615 -2.96847 0
M  V30 1261 H 133.029 -0.131843 -2.9961 0
M  V30 1262 H 130.582 -0.106165 -1.55939 0
M  V30 1263 H 131.317 2.33095 -2.25471 0
M  V30 1264 H 131.102 1.30029 -3.69912 0
M  V30 1265 H 132.592 2.27114 -3.50441 0
M  V30 1266 N 133.029 1.57378 -0.0835403 0
M  V30 1267 C 134.306 1.85363 0.624507 0
M  V30 1268 C 134.686 0.978239 1.87066 0
M  V30 1269 O 134.034 0.0475908 2.2845 0
M  V30 1270 C 134.244 3.35795 0.950947 0
M  V30 1271 C 135.592 4.03581 1.31939 0
M  V30 1272 O 136.616 3.40609 1.04232 0
M  V30 1273 O 135.475 5.14672 1.83779 0
M  V30 1274 H 132.569 0.766162 0.311329 0
M  V30 1275 H 135.115 1.69307 -0.115362 0
M  V30 1276 H 133.887 3.91244 0.0663899 0
M  V30 1277 H 133.51 3.57154 1.74719 0
M  V30 1278 N 134.507 -0.190092 1.56449 0
M  V30 1279 C 135.753 -0.911052 1.81184 0
M  V30 1280 C 136.086 -1.82699 0.658396 0
M  V30 1281 O 135.361 -1.91491 -0.340775 0
M  V30 1282 C 135.644 -1.72297 3.16205 0
M  V30 1283 C 135.497 -0.831419 4.42049 0
M  V30 1284 C 136.816 -2.69454 3.47969 0
M  V30 1285 H 133.935 -0.32977 0.659106 0
M  V30 1286 H 136.577 -0.178169 1.89163 0
M  V30 1287 H 134.727 -2.34778 3.09534 0
M  V30 1288 H 136.399 -0.220929 4.60771 0
M  V30 1289 H 134.642 -0.138406 4.33579 0
M  V30 1290 H 135.313 -1.43461 5.33032 0
M  V30 1291 H 137.789 -2.17104 3.54972 0
M  V30 1292 H 136.665 -3.23342 4.43555 0
M  V30 1293 H 136.926 -3.48744 2.71717 0
M  V30 1294 N 135.985 -1.50799 -0.457987 0
M  V30 1295 C 136.948 -1.7005 -1.53674 0
M  V30 1296 C 137.948 -0.570881 -1.50325 0
M  V30 1297 O 139.138 -0.838126 -1.52712 0
M  V30 1298 C 136.27 -1.73788 -2.93276 0
M  V30 1299 H 137.463 -2.66306 -1.37917 0
M  V30 1300 H 135.016 -1.40477 -0.685271 0
M  V30 1301 H 135.751 -0.792717 -3.14462 0
M  V30 1302 H 135.536 -2.55864 -2.97113 0
M  V30 1303 H 137.026 -1.90591 -3.71571 0
M  V30 1304 N 137.463 0.71206 -1.40597 0
M  V30 1305 C 138.879 1.02058 -1.22704 0
M  V30 1306 C 139.079 2.01228 -0.104729 0
M  V30 1307 O 138.135 2.4674 0.53624 0
M  V30 1308 C 139.448 1.56094 -2.57012 0
M  V30 1309 C 140.996 1.6806 -2.64054 0
M  V30 1310 C 141.471 2.25501 -3.9864 0
M  V30 1311 N 142.962 2.32882 -4.004 0
M  V30 1312 C 143.697 2.78317 -5.01325 0
M  V30 1313 N 143.193 3.23478 -6.12645 0
M  V30 1314 N 144.986 2.77733 -4.88693 0
M  V30 1315 H 137.137 0.0547896 -2.12329 0
M  V30 1316 H 139.4 0.0869027 -0.944008 0
M  V30 1317 H 139.106 0.906865 -3.39807 0
M  V30 1318 H 138.98 2.54564 -2.78347 0
M  V30 1319 H 141.367 2.32583 -1.81629 0
M  V30 1320 H 141.448 0.681802 -2.46546 0
M  V30 1321 H 141.092 1.61598 -4.81506 0
M  V30 1322 H 141.022 3.26102 -4.13479 0
M  V30 1323 H 143.513 2.00991 -3.20017 0
M  V30 1324 H 143.826 3.56725 -6.85542 0
M  V30 1325 H 142.171 3.21429 -6.16205 0
M  V30 1326 H 145.362 2.4179 -4.00818 0
M  V30 1327 H 145.535 3.12826 -5.67489 0
M  V30 1328 N 138.941 1.26152 0.944643 0
M  V30 1329 C 139.904 1.07474 2.0244 0
M  V30 1330 C 140.904 0.0242064 1.60782 0
M  V30 1331 O 142.094 0.267302 1.72137 0
M  V30 1332 C 139.226 0.633956 3.34953 0
M  V30 1333 H 140.419 2.03336 2.20442 0
M  V30 1334 H 137.972 1.087 1.12312 0
M  V30 1335 H 138.707 -0.326811 3.22649 0
M  V30 1336 H 138.492 1.39247 3.66542 0
M  V30 1337 H 139.982 0.52501 4.14287 0
M  V30 1338 N 140.419 -1.14872 1.07899 0
M  V30 1339 C 141.382 -2.17986 0.708161 0
M  V30 1340 C 142.382 -1.58775 -0.25442 0
M  V30 1341 O 143.572 -1.74166 -0.034645 0
M  V30 1342 C 140.704 -3.40871 0.0446929 0
M  V30 1343 H 141.897 -2.52306 1.62116 0
M  V30 1344 H 139.45 -1.2943 0.876218 0
M  V30 1345 H 140.185 -3.12124 -0.880281 0
M  V30 1346 H 139.97 -3.8511 0.737091 0
M  V30 1347 H 141.46 -4.17121 -0.19991 0
M  V30 1348 N 141.898 -0.863906 -1.31812 0
M  V30 1349 C 142.828 -0.330843 -2.31144 0
M  V30 1350 C 143.809 0.575005 -1.60087 0
M  V30 1351 O 144.994 0.493304 -1.8783 0
M  V30 1352 C 142.124 0.47374 -3.44054 0
M  V30 1353 C 141.078 -0.338481 -4.26659 0
M  V30 1354 C 140.404 0.591412 -5.31419 0
M  V30 1355 C 141.704 -1.56926 -4.98168 0
M  V30 1356 H 143.398 -1.16086 -2.75979 0
M  V30 1357 H 140.944 -0.559657 -1.32679 0
M  V30 1358 H 142.897 0.857143 -4.12591 0
M  V30 1359 H 141.621 1.33721 -2.9797 0
M  V30 1360 H 140.28 -0.703754 -3.59782 0
M  V30 1361 H 139.928 1.45199 -4.81587 0
M  V30 1362 H 139.628 0.0519022 -5.87577 0
M  V30 1363 H 141.152 0.97179 -6.02817 0
M  V30 1364 H 142.566 -1.25764 -5.59336 0
M  V30 1365 H 140.963 -2.04739 -5.64094 0
M  V30 1366 H 142.033 -2.32544 -4.25501 0
M  V30 1367 N 143.376 1.44774 -0.622745 0
M  V30 1368 C 144.308 2.28856 0.125485 0
M  V30 1369 C 145.321 1.40811 0.817069 0
M  V30 1370 O 146.51 1.65044 0.679918 0
M  V30 1371 C 143.61 3.16963 1.19949 0
M  V30 1372 C 142.783 4.33374 0.592064 0
M  V30 1373 C 141.842 5.02577 1.55893 0
M  V30 1374 O 140.868 5.58873 1.07933 0
M  V30 1375 N 142.07 5.03256 2.89334 0
M  V30 1376 H 144.835 2.93713 -0.596068 0
M  V30 1377 H 142.396 1.55129 -0.463303 0
M  V30 1378 H 144.388 3.60123 1.84644 0
M  V30 1379 H 142.958 2.53913 1.82337 0
M  V30 1380 H 142.178 3.93509 -0.233322 0
M  V30 1381 H 143.466 5.08527 0.166738 0
M  V30 1382 H 142.864 4.58836 3.30887 0
M  V30 1383 H 141.421 5.50232 3.49412 0
M  V30 1384 N 144.854 0.36279 1.53368 0
M  V30 1385 C 145.802 -0.500155 2.27159 0
M  V30 1386 C 146.796 -1.08575 1.3003 0
M  V30 1387 O 148.002 -1.02927 1.47668 0
M  V30 1388 H 144.377 -0.180009 0.730138 0
M  V30 1389 H 146.348 0.14401 2.98052 0
M  V30 1390 C 145.097 -1.62937 3.07159 0
M  V30 1391 H 144.42 -1.18806 3.8174 0
M  V30 1392 H 145.86 -2.20795 3.61975 0
M  V30 1393 C 144.319 -2.57007 2.17829 0
M  V30 1394 O 144.849 -3.59752 1.78721 0
M  V30 1395 N 143.055 -2.26131 1.82518 0
M  V30 1396 H 142.602 -1.42616 2.14519 0
M  V30 1397 H 142.56 -2.89327 1.23034 0
M  V30 1398 N 146.332 -1.57332 0.0918853 0
M  V30 1399 C 147.58 -1.93853 -0.571446 0
M  V30 1400 C 147.901 -0.974212 -1.6892 0
M  V30 1401 O 147.171 -0.0257254 -1.95883 0
M  V30 1402 H 145.751 -0.715666 -0.214082 0
M  V30 1403 H 148.413 -1.94287 0.154464 0
M  V30 1404 H 147.509 -2.96191 -0.983729 0
M  V30 1405 N 147.81 0.181792 -1.56548 0
M  V30 1406 C 148.773 1.20894 -1.94724 0
M  V30 1407 C 149.773 1.37738 -0.829747 0
M  V30 1408 O 150.963 1.35323 -1.09697 0
M  V30 1409 C 148.095 2.57593 -2.23291 0
M  V30 1410 H 149.288 0.882275 -2.86629 0
M  V30 1411 H 146.841 0.423838 -1.50444 0
M  V30 1412 H 147.576 2.95291 -1.34067 0
M  V30 1413 H 147.361 2.46735 -3.04736 0
M  V30 1414 H 148.851 3.31637 -2.53785 0
M  V30 1415 N 149.288 1.51039 0.449983 0
M  V30 1416 C 150.22 1.67617 1.56324 0
M  V30 1417 C 151.233 0.557083 1.52972 0
M  V30 1418 O 152.422 0.830989 1.57977 0
M  V30 1419 C 149.522 1.66402 2.95235 0
M  V30 1420 C 148.695 2.9469 3.23229 0
M  V30 1421 C 147.754 2.85832 4.41799 0
M  V30 1422 O 146.78 3.59785 4.41071 0
M  V30 1423 N 147.982 2.00821 5.44657 0
M  V30 1424 H 150.747 2.63648 1.42512 0
M  V30 1425 H 148.308 1.48767 0.638737 0
M  V30 1426 H 150.3 1.58062 3.72557 0
M  V30 1427 H 148.87 0.780182 3.02708 0
M  V30 1428 H 148.09 3.16996 2.34323 0
M  V30 1429 H 149.378 3.79636 3.38754 0
M  V30 1430 H 148.776 1.40091 5.48079 0
M  V30 1431 H 147.333 1.98368 6.20881 0
M  V30 1432 N 150.766 -0.704594 1.40972 0
M  V30 1433 C 151.699 -1.82861 1.36518 0
M  V30 1434 C 152.677 -1.6091 0.23382 0
M  V30 1435 O 153.861 -1.83778 0.419271 0
M  V30 1436 C 150.988 -3.1939 1.12729 0
M  V30 1437 C 150.034 -3.60148 2.28463 0
M  V30 1438 S 150.867 -3.65994 3.90907 0
M  V30 1439 C 152.023 -5.05264 3.69403 0
M  V30 1440 H 152.256 -1.86361 2.3164 0
M  V30 1441 H 149.789 -0.872439 1.27389 0
M  V30 1442 H 151.747 -3.98211 0.996893 0
M  V30 1443 H 150.408 -3.1351 0.192427 0
M  V30 1444 H 149.601 -4.59309 2.07489 0
M  V30 1445 H 149.203 -2.88612 2.37863 0
M  V30 1446 H 151.495 -5.92504 3.28551 0
M  V30 1447 H 152.438 -5.31278 4.68134 0
M  V30 1448 H 152.846 -4.76377 3.02862 0
M  V30 1449 N 152.244 -1.26651 -0.937939 0
M  V30 1450 C 153.49 -1.12553 -1.687 0
M  V30 1451 C 153.823 0.329782 -1.91379 0
M  V30 1452 O 153.098 1.24202 -1.4968 0
M  V30 1453 C 153.381 -1.89862 -3.05981 0
M  V30 1454 C 153.234 -3.43318 -2.90607 0
M  V30 1455 C 154.553 -1.69499 -4.0615 0
M  V30 1456 H 151.672 -0.410257 -0.612257 0
M  V30 1457 H 154.314 -1.55685 -1.08913 0
M  V30 1458 H 152.464 -1.53204 -3.57017 0
M  V30 1459 H 154.136 -3.89747 -2.46769 0
M  V30 1460 H 152.379 -3.70179 -2.26164 0
M  V30 1461 H 153.05 -3.92642 -3.8799 0
M  V30 1462 H 155.526 -2.01442 -3.64088 0
M  V30 1463 H 154.402 -2.26002 -5.00214 0
M  V30 1464 H 154.663 -0.640365 -4.37438 0
M  V30 1465 N 153.722 1.14298 -1.08507 0
M  V30 1466 C 154.67 2.21483 -0.710483 0
M  V30 1467 C 155.664 1.66998 0.284234 0
M  V30 1468 O 156.87 1.79401 0.146692 0
M  V30 1469 H 153.245 0.721578 -0.211729 0
M  V30 1470 H 155.216 2.50348 -1.62384 0
M  V30 1471 C 153.965 3.4743 -0.137007 0
M  V30 1472 H 153.288 3.89686 -0.893592 0
M  V30 1473 H 154.728 4.2391 0.0872789 0
M  V30 1474 C 153.187 3.17548 1.12538 0
M  V30 1475 O 153.717 3.35437 2.21009 0
M  V30 1476 N 151.923 2.71499 1.03617 0
M  V30 1477 H 151.47 2.57143 0.153403 0
M  V30 1478 H 151.428 2.51881 1.88158 0
M  V30 1479 N 155.201 0.870884 1.31352 0
M  V30 1480 C 156.478 0.402907 1.91405 0
M  V30 1481 C 156.858 -1.11512 1.79244 0
M  V30 1482 O 156.206 -1.94411 1.2007 0
M  V30 1483 C 156.416 0.885301 3.37585 0
M  V30 1484 C 157.764 0.911971 4.14691 0
M  V30 1485 O 158.788 0.831016 3.46371 0
M  V30 1486 O 157.647 1.02927 5.3672 0
M  V30 1487 H 154.741 0.120698 0.818145 0
M  V30 1488 H 157.287 0.958857 1.40014 0
M  V30 1489 H 156.059 1.92889 3.40455 0
M  V30 1490 H 155.682 0.307714 3.96407 0
M  V30 1491 N 156.679 -1.44442 0.630414 0
M  V30 1492 C 157.925 -2.02351 0.134816 0
M  V30 1493 C 158.258 -1.4947 -1.23986 0
M  V30 1494 O 157.533 -0.678475 -1.82283 0
M  V30 1495 C 157.816 -3.59898 0.120707 0
M  V30 1496 C 157.669 -4.23063 1.52767 0
M  V30 1497 C 158.988 -4.36585 -0.555127 0
M  V30 1498 H 156.107 -0.73527 0.0504646 0
M  V30 1499 H 158.749 -1.72022 0.806751 0
M  V30 1500 H 156.899 -3.85868 -0.451477 0
M  V30 1501 H 158.571 -4.08202 2.14869 0
M  V30 1502 H 156.814 -3.80586 2.08175 0
M  V30 1503 H 157.485 -5.32071 1.46984 0
M  V30 1504 H 159.961 -4.16044 -0.0685429 0
M  V30 1505 H 158.837 -5.46294 -0.534185 0
M  V30 1506 H 159.098 -4.11138 -1.62535 0
M  V30 1507 N 158.157 -0.370918 -1.53173 0
M  V30 1508 C 159.382 0.220293 -2.06227 0
M  V30 1509 C 159.807 1.41243 -1.24225 0
M  V30 1510 O 159.165 1.79387 -0.262645 0
M  V30 1511 C 159.213 0.586663 -3.55796 0
M  V30 1512 O 158.317 1.68317 -3.76488 0
M  V30 1513 H 157.658 0.0308099 -0.663285 0
M  V30 1514 H 160.188 -0.533068 -1.97534 0
M  V30 1515 H 160.198 0.85617 -3.98916 0
M  V30 1516 H 158.873 -0.285013 -4.14922 0
M  V30 1517 H 157.45 1.40881 -3.45264 0
M  V30 1518 N 159.635 1.57281 -0.100228 0
M  V30 1519 C 160.883 1.94153 0.561157 0
M  V30 1520 C 161.204 0.983157 1.68401 0
M  V30 1521 O 160.474 0.0361132 1.95867 0
M  V30 1522 H 159.054 0.716791 0.210283 0
M  V30 1523 H 161.716 1.94202 -0.164765 0
M  V30 1524 H 160.812 2.96709 0.968008 0
M  V30 1525 N 161.113 -0.173488 1.56642 0
M  V30 1526 C 162.361 -0.888706 1.81512 0
M  V30 1527 C 162.682 -1.82875 0.676872 0
M  V30 1528 O 161.952 -1.93536 -0.303414 0
M  V30 1529 H 160.532 -0.331164 0.669582 0
M  V30 1530 H 163.194 -0.173823 1.94123 0
M  V30 1531 H 162.29 -1.46691 2.75478 0
M  V30 1532 N 162.591 -1.51276 -0.441967 0
M  V30 1533 C 164.007 -1.39349 -0.778083 0
M  V30 1534 C 164.207 -0.472212 -1.95889 0
M  V30 1535 O 163.263 0.0743551 -2.5239 0
M  V30 1536 C 164.576 -2.81292 -1.0628 0
M  V30 1537 C 166.124 -2.9041 -1.16751 0
M  V30 1538 C 166.599 -4.33251 -1.48519 0
M  V30 1539 N 168.09 -4.36336 -1.55453 0
M  V30 1540 C 168.825 -5.43885 -1.81596 0
M  V30 1541 N 168.321 -6.61601 -2.05562 0
M  V30 1542 N 170.114 -5.3136 -1.8334 0
M  V30 1543 H 162.265 -2.09729 0.335774 0
M  V30 1544 H 164.528 -0.943925 0.0878028 0
M  V30 1545 H 164.234 -3.50678 -0.267905 0
M  V30 1546 H 164.108 -3.20334 -1.99163 0
M  V30 1547 H 166.495 -2.21225 -1.95304 0
M  V30 1548 H 166.576 -2.54871 -0.217801 0
M  V30 1549 H 166.22 -5.02984 -0.704958 0
M  V30 1550 H 166.15 -4.66299 -2.44689 0
M  V30 1551 H 168.641 -3.51466 -1.38853 0
M  V30 1552 H 168.954 -7.39361 -2.24867 0
M  V30 1553 H 167.299 -6.64725 -2.02894 0
M  V30 1554 H 170.49 -4.38382 -1.64132 0
M  V30 1555 H 170.663 -6.15258 -2.03377 0
M  V30 1556 N 164.069 0.697108 -1.41344 0
M  V30 1557 C 165.032 1.79281 -1.42797 0
M  V30 1558 C 166.032 1.57607 -0.318837 0
M  V30 1559 O 167.222 1.64309 -0.578642 0
M  V30 1560 C 164.354 3.17632 -1.23785 0
M  V30 1561 H 165.547 1.79385 -2.40335 0
M  V30 1562 H 163.1 0.904582 -1.27464 0
M  V30 1563 H 163.835 3.23167 -0.270814 0
M  V30 1564 H 163.62 3.34765 -2.04144 0
M  V30 1565 H 165.11 3.97617 -1.27633 0
M  V30 1566 N 165.547 1.27147 0.931209 0
M  V30 1567 C 166.824 1.0401 1.65654 0
M  V30 1568 C 167.204 -0.426297 2.06751 0
M  V30 1569 O 166.552 -1.40879 1.79904 0
M  V30 1570 C 166.762 1.99834 2.86125 0
M  V30 1571 C 168.11 2.29007 3.57549 0
M  V30 1572 O 169.134 1.97779 2.96246 0
M  V30 1573 O 167.993 2.82222 4.67989 0
M  V30 1574 H 165.087 0.396239 0.725895 0
M  V30 1575 H 167.633 1.38397 0.982056 0
M  V30 1576 H 166.405 2.98744 2.52721 0
M  V30 1577 H 166.028 1.65987 3.61295 0
M  V30 1578 N 167.025 -1.13721 1.09112 0
M  V30 1579 C 168.436 -1.6648 0.845068 0
M  V30 1580 C 168.787 -1.85911 -0.62701 0
M  V30 1581 O 167.912 -1.57556 -1.48341 0
M  V30 1582 C 168.507 -3.02413 1.52748 0
M  V30 1583 C 167.066 -3.52176 1.32849 0
M  V30 1584 C 166.213 -2.27492 1.58564 0
M  V30 1585 H 169.164 -0.976872 1.25072 0
M  V30 1586 H 169.185 -3.68223 0.958752 0
M  V30 1587 H 168.697 -2.88238 2.59885 0
M  V30 1588 H 166.798 -3.7156 0.278137 0
M  V30 1589 H 166.911 -4.32499 2.0611 0
M  V30 1590 H 165.275 -2.33923 1.00758 0
M  V30 1591 H 166.058 -2.15886 2.66924 0
M  V30 1592 N 168.503 -0.877838 -1.30888 0
M  V30 1593 C 169.466 -0.344265 -2.266 0
M  V30 1594 C 170.466 0.50922 -1.52524 0
M  V30 1595 O 171.656 0.317398 -1.71284 0
M  V30 1596 C 168.788 0.510198 -3.37061 0
M  V30 1597 H 169.981 -1.1893 -2.7531 0
M  V30 1598 H 167.534 -0.654088 -1.41956 0
M  V30 1599 H 168.269 1.37612 -2.93655 0
M  V30 1600 H 168.054 -0.101047 -3.9197 0
M  V30 1601 H 169.544 0.875537 -4.08319 0
M  V30 1602 N 169.982 1.44106 -0.638065 0
M  V30 1603 C 170.915 2.27924 0.112161 0
M  V30 1604 C 171.893 1.38945 0.844574 0
M  V30 1605 O 173.077 1.68386 0.847248 0
M  V30 1606 C 170.204 3.18029 1.16512 0
M  V30 1607 C 169.25 4.23163 0.532458 0
M  V30 1608 S 170.083 5.31131 -0.682666 0
M  V30 1609 C 171.239 6.24805 0.37013 0
M  V30 1610 H 171.472 2.91205 -0.598887 0
M  V30 1611 H 169.005 1.48394 -0.426441 0
M  V30 1612 H 170.963 3.70492 1.76766 0
M  V30 1613 H 169.624 2.53955 1.8484 0
M  V30 1614 H 168.817 4.86252 1.32571 0
M  V30 1615 H 168.419 3.74 0.00437644 0
M  V30 1616 H 170.711 6.66042 1.24071 0
M  V30 1617 H 171.654 7.07741 -0.225349 0
M  V30 1618 H 172.062 5.60154 0.699141 0
M  V30 1619 N 171.46 0.379036 1.52974 0
M  V30 1620 C 172.708 -0.206014 2.01047 0
M  V30 1621 C 173.029 -1.48175 1.26765 0
M  V30 1622 O 172.299 -1.92085 0.384743 0
M  V30 1623 H 170.879 -0.0791184 0.742798 0
M  V30 1624 H 173.541 0.508366 1.88153 0
M  V30 1625 H 172.637 -0.423501 3.09213 0
M  V30 1626 N 172.938 -1.57226 0.108567 0
M  V30 1627 C 174.349 -1.8195 -0.418464 0
M  V30 1628 C 174.7 -1.02508 -1.67292 0
M  V30 1629 O 173.825 -0.258496 -2.14851 0
M  V30 1630 C 174.42 -3.30028 -0.765979 0
M  V30 1631 C 172.979 -3.55469 -1.23769 0
M  V30 1632 C 172.126 -2.7625 -0.241106 0
M  V30 1633 H 175.077 -1.55149 0.33384 0
M  V30 1634 H 175.098 -3.44086 -1.62434 0
M  V30 1635 H 174.61 -3.87821 0.147219 0
M  V30 1636 H 172.711 -3.03022 -2.16814 0
M  V30 1637 H 172.824 -4.6408 -1.19022 0
M  V30 1638 H 171.188 -2.44133 -0.72602 0
M  V30 1639 H 171.971 -3.36797 0.665007 0
M  V30 1640 N 174.416 0.165178 -1.56732 0
M  V30 1641 C 175.346 1.20651 -1.99914 0
M  V30 1642 C 176.327 1.45827 -0.875705 0
M  V30 1643 O 177.512 1.57057 -1.14223 0
M  V30 1644 C 174.642 2.54401 -2.36427 0
M  V30 1645 C 173.596 2.43782 -3.51787 0
M  V30 1646 C 172.922 3.82078 -3.7406 0
M  V30 1647 C 174.222 1.93732 -4.85041 0
M  V30 1648 H 175.916 0.847534 -2.87154 0
M  V30 1649 H 173.462 0.40625 -1.38151 0
M  V30 1650 H 175.415 3.27458 -2.65234 0
M  V30 1651 H 174.139 2.92098 -1.46103 0
M  V30 1652 H 172.798 1.73178 -3.23117 0
M  V30 1653 H 172.446 4.17179 -2.81017 0
M  V30 1654 H 172.146 3.7584 -4.51684 0
M  V30 1655 H 173.67 4.56712 -4.05274 0
M  V30 1656 H 175.084 2.56569 -5.12684 0
M  V30 1657 H 173.481 1.98428 -5.66345 0
M  V30 1658 H 174.551 0.891962 -4.76626 0
M  V30 1659 N 175.894 1.51508 0.433938 0
M  V30 1660 C 176.824 1.76016 1.53429 0
M  V30 1661 C 177.805 0.610112 1.58782 0
M  V30 1662 O 178.99 0.853177 1.74455 0
M  V30 1663 C 176.12 1.88831 2.9148 0
M  V30 1664 C 175.074 3.04288 3.00987 0
M  V30 1665 C 174.4 3.0229 4.4105 0
M  V30 1666 C 175.7 4.44193 2.74754 0
M  V30 1667 H 177.394 2.68152 1.33171 0
M  V30 1668 H 174.94 1.29035 0.639214 0
M  V30 1669 H 176.893 2.04559 3.6842 0
M  V30 1670 H 175.617 0.933455 3.12976 0
M  V30 1671 H 174.276 2.8827 2.26486 0
M  V30 1672 H 173.924 2.04576 4.59519 0
M  V30 1673 H 173.624 3.79822 4.4834 0
M  V30 1674 H 175.148 3.20116 5.1996 0
M  V30 1675 H 176.562 4.60544 3.41426 0
M  V30 1676 H 174.959 5.23457 2.9345 0
M  V30 1677 H 176.029 4.53996 1.70339 0
M  V30 1678 N 177.372 -0.689602 1.41712 0
M  V30 1679 C 178.335 -1.78521 1.43746 0
M  V30 1680 C 179.335 -1.57436 0.327191 0
M  V30 1681 O 180.525 -1.64 0.587348 0
M  V30 1682 C 177.657 -3.16971 1.25467 0
M  V30 1683 H 178.85 -1.78108 2.41283 0
M  V30 1684 H 176.403 -0.89781 1.27942 0
M  V30 1685 H 177.138 -3.23019 0.287948 0
M  V30 1686 H 176.923 -3.33678 2.05917 0
M  V30 1687 H 178.413 -3.96935 1.2974 0
M  V30 1688 N 178.85 -1.27639 -0.924453 0
M  V30 1689 C 179.76 -1.12466 -2.05885 0
M  V30 1690 C 180.776 -0.053869 -1.73917 0
M  V30 1691 O 181.952 -0.261012 -1.99702 0
M  V30 1692 C 179.017 -0.776768 -3.37886 0
M  V30 1693 C 178.078 -1.92878 -3.83532 0
M  V30 1694 C 177.311 -1.59739 -5.09234 0
M  V30 1695 O 177.534 -0.506782 -5.68144 0
M  V30 1696 O 176.468 -2.43761 -5.50331 0
M  V30 1697 H 180.294 -2.07671 -2.21599 0
M  V30 1698 H 177.879 -1.06857 -1.04413 0
M  V30 1699 H 179.761 -0.596229 -4.17161 0
M  V30 1700 H 178.436 0.145732 -3.23372 0
M  V30 1701 H 177.343 -2.1644 -3.0513 0
M  V30 1702 H 178.676 -2.8316 -4.02593 0
M  V30 1703 N 180.328 1.1314 -1.09713 0
M  V30 1704 C 181.291 2.16831 -0.742751 0
M  V30 1705 C 182.291 1.59159 0.229129 0
M  V30 1706 O 183.481 1.74199 0.00693237 0
M  V30 1707 C 180.613 3.40756 -0.0989168 0
M  V30 1708 H 181.806 2.49695 -1.66109 0
M  V30 1709 H 179.359 1.2802 -0.896699 0
M  V30 1710 H 180.094 3.13485 0.830514 0
M  V30 1711 H 179.879 3.83888 -0.798265 0
M  V30 1712 H 181.369 4.17386 0.133524 0
M  V30 1713 N 181.806 0.884767 1.30421 0
M  V30 1714 C 183.083 0.423185 1.90967 0
M  V30 1715 C 183.463 -1.09605 1.80416 0
M  V30 1716 O 182.811 -1.93126 1.22125 0
M  V30 1717 C 183.021 0.921056 3.36627 0
M  V30 1718 C 184.369 0.955903 4.137 0
M  V30 1719 O 185.393 0.867706 3.4547 0
M  V30 1720 O 184.252 1.08614 5.35598 0
M  V30 1721 H 181.346 0.129369 0.816819 0
M  V30 1722 H 183.892 0.973653 1.3899 0
M  V30 1723 H 182.664 1.96489 3.3839 0
M  V30 1724 H 182.287 0.349741 3.96059 0
M  V30 1725 N 183.284 -1.43765 0.645699 0
M  V30 1726 C 184.53 -2.02197 0.156271 0
M  V30 1727 C 184.863 -1.50776 -1.22393 0
M  V30 1728 O 184.138 -0.697771 -1.81553 0
M  V30 1729 C 184.421 -3.59749 0.158872 0
M  V30 1730 C 184.274 -4.21419 1.57245 0
M  V30 1731 C 185.593 -4.37149 -0.50879 0
M  V30 1732 H 182.712 -0.734694 0.0582602 0
M  V30 1733 H 185.354 -1.71157 0.824951 0
M  V30 1734 H 183.504 -3.86325 -0.410525 0
M  V30 1735 H 185.176 -4.059 2.19186 0
M  V30 1736 H 183.419 -3.78356 2.122 0
M  V30 1737 H 184.09 -5.30482 1.52619 0
M  V30 1738 H 186.566 -4.16093 -0.024412 0
M  V30 1739 H 185.442 -5.4683 -0.476213 0
M  V30 1740 H 185.703 -4.12839 -1.58165 0
M  V30 1741 N 184.763 -0.387143 -1.52771 0
M  V30 1742 C 186.174 0.0873634 -1.86495 0
M  V30 1743 C 186.525 1.46336 -1.30691 0
M  V30 1744 O 185.65 2.068 -0.637409 0
M  V30 1745 C 186.245 0.165305 -3.38396 0
M  V30 1746 C 184.804 0.584101 -3.7184 0
M  V30 1747 C 183.951 -0.255279 -2.76122 0
M  V30 1748 H 186.902 -0.605104 -1.46711 0
M  V30 1749 H 186.923 0.984848 -3.67534 0
M  V30 1750 H 186.435 -0.836301 -3.78982 0
M  V30 1751 H 184.536 1.59315 -3.36823 0
M  V30 1752 H 184.649 0.343749 -4.77865 0
M  V30 1753 H 183.013 0.279126 -2.53166 0
M  V30 1754 H 183.796 -1.25482 -3.19545 0
M  V30 1755 N 186.241 1.57166 -0.116904 0
M  V30 1756 C 187.487 1.96206 0.536166 0
M  V30 1757 C 187.842 0.99915 1.64422 0
M  V30 1758 O 187.135 0.0288195 1.91578 0
M  V30 1759 C 187.329 3.39508 1.11664 0
M  V30 1760 C 187.158 4.49651 0.0663474 0
M  V30 1761 C 185.928 5.03982 -0.36474 0
M  V30 1762 C 188.126 5.09322 -0.713829 0
M  V30 1763 N 186.108 5.97699 -1.40102 0
M  V30 1764 C 187.479 5.98963 -1.60136 0
M  V30 1765 C 189.534 4.91989 -0.764948 0
M  V30 1766 C 188.237 6.73128 -2.53556 0
M  V30 1767 C 190.263 5.66833 -1.68685 0
M  V30 1768 C 189.625 6.56158 -2.56196 0
M  V30 1769 H 185.724 0.764203 0.165886 0
M  V30 1770 H 188.308 1.93623 -0.204535 0
M  V30 1771 H 186.479 3.42743 1.82707 0
M  V30 1772 H 188.211 3.65677 1.73386 0
M  V30 1773 H 184.966 4.73592 0.027252 0
M  V30 1774 H 185.39 6.49262 -1.91802 0
M  V30 1775 H 190.032 4.22676 -0.102501 0
M  V30 1776 H 187.75 7.41689 -3.20816 0
M  V30 1777 H 191.336 5.55427 -1.73181 0
M  V30 1778 H 190.216 7.13057 -3.26372 0
M  V30 1779 N 187.719 -0.156864 1.56817 0
M  V30 1780 C 188.965 -0.872416 1.83076 0
M  V30 1781 C 189.298 -1.81261 0.697001 0
M  V30 1782 O 188.573 -1.92171 -0.30008 0
M  V30 1783 C 188.856 -1.65551 3.19789 0
M  V30 1784 C 188.709 -0.737467 4.43713 0
M  V30 1785 C 190.028 -2.62012 3.53606 0
M  V30 1786 H 187.147 -0.315715 0.665953 0
M  V30 1787 H 189.789 -0.138004 1.89498 0
M  V30 1788 H 187.939 -2.28159 3.14445 0
M  V30 1789 H 189.611 -0.123143 4.61136 0
M  V30 1790 H 187.854 -0.0464067 4.33775 0
M  V30 1791 H 188.525 -1.32122 5.35955 0
M  V30 1792 H 191.001 -2.09525 3.59497 0
M  V30 1793 H 189.877 -3.13861 4.50314 0
M  V30 1794 H 190.138 -3.42902 2.79053 0
M  V30 1795 N 189.197 -1.51736 -0.425897 0
M  V30 1796 C 190.127 -1.76827 -1.52494 0
M  V30 1797 C 191.108 -0.618524 -1.58456 0
M  V30 1798 O 192.293 -0.862416 -1.74 0
M  V30 1799 C 189.423 -1.90374 -2.90474 0
M  V30 1800 C 188.377 -3.0588 -2.99369 0
M  V30 1801 C 187.703 -3.04625 -4.3944 0
M  V30 1802 C 189.003 -4.45644 -2.72394 0
M  V30 1803 H 190.697 -2.68855 -1.31748 0
M  V30 1804 H 188.243 -1.29372 -0.632362 0
M  V30 1805 H 190.196 -2.0651 -3.6733 0
M  V30 1806 H 188.92 -0.95004 -3.12477 0
M  V30 1807 H 187.579 -2.89467 -2.24954 0
M  V30 1808 H 187.227 -2.0701 -4.58428 0
M  V30 1809 H 186.927 -3.82195 -4.46319 0
M  V30 1810 H 188.451 -3.22869 -5.18255 0
M  V30 1811 H 189.865 -4.62348 -3.38979 0
M  V30 1812 H 188.262 -5.25006 -2.9067 0
M  V30 1813 H 189.332 -4.54893 -1.67929 0
M  V30 1814 N 190.675 0.682077 -1.42076 0
M  V30 1815 C 191.608 1.80666 -1.3941 0
M  V30 1816 C 192.586 1.60518 -0.25939 0
M  V30 1817 O 193.77 1.83088 -0.448456 0
M  V30 1818 C 190.897 3.17556 -1.17796 0
M  V30 1819 C 189.943 3.56468 -2.34164 0
M  V30 1820 S 190.776 3.59729 -3.96681 0
M  V30 1821 C 191.932 4.99323 -3.77395 0
M  V30 1822 H 192.165 1.82652 -2.34575 0
M  V30 1823 H 189.698 0.852062 -1.2876 0
M  V30 1824 H 191.656 3.96575 -1.06012 0
M  V30 1825 H 190.317 3.13164 -0.242279 0
M  V30 1826 H 189.51 4.5595 -2.1477 0
M  V30 1827 H 189.112 2.84792 -2.42425 0
M  V30 1828 H 191.404 5.87202 -3.37935 0
M  V30 1829 H 192.347 5.23763 -4.76527 0
M  V30 1830 H 192.755 4.71498 -3.10403 0
M  V30 1831 N 192.153 1.28127 0.917671 0
M  V30 1832 C 193.103 1.08361 2.00604 0
M  V30 1833 C 194.087 0.00847518 1.60898 0
M  V30 1834 O 195.279 0.228167 1.75523 0
M  V30 1835 C 192.408 0.743376 3.35155 0
M  V30 1836 C 191.494 1.85716 3.81275 0
M  V30 1837 N 191.885 3.09822 3.99805 0
M  V30 1838 C 190.183 1.74612 4.10398 0
M  V30 1839 C 190.884 3.82368 4.38372 0
M  V30 1840 N 189.86 3.10192 4.4641 0
M  V30 1841 H 193.662 2.02531 2.12975 0
M  V30 1842 H 191.176 1.18989 1.10523 0
M  V30 1843 H 193.173 0.582859 4.12805 0
M  V30 1844 H 191.833 -0.190595 3.2414 0
M  V30 1845 H 192.844 3.45475 3.85833 0
M  V30 1846 H 189.521 0.883657 4.08041 0
M  V30 1847 H 190.911 4.89082 4.60704 0
M  V30 1848 N 193.631 -1.12557 1.10312 0
M  V30 1849 C 194.877 -1.84515 0.855901 0
M  V30 1850 C 195.232 -1.82409 -0.611936 0
M  V30 1851 O 194.525 -1.25778 -1.44535 0
M  V30 1852 C 194.719 -3.31462 1.33669 0
M  V30 1853 C 194.548 -3.47879 2.84974 0
M  V30 1854 C 193.318 -3.61589 3.52961 0
M  V30 1855 C 195.516 -3.43152 3.83081 0
M  V30 1856 N 193.498 -3.66359 4.926 0
M  V30 1857 C 194.869 -3.54401 5.08724 0
M  V30 1858 C 196.924 -3.2661 3.75807 0
M  V30 1859 C 195.627 -3.50815 6.2795 0
M  V30 1860 C 197.653 -3.24335 4.94531 0
M  V30 1861 C 197.015 -3.36144 6.19021 0
M  V30 1862 H 193.114 -0.690967 0.366182 0
M  V30 1863 H 195.698 -1.34763 1.40524 0
M  V30 1864 H 193.869 -3.7976 0.814686 0
M  V30 1865 H 195.601 -3.91272 1.03385 0
M  V30 1866 H 192.356 -3.63652 3.03404 0
M  V30 1867 H 192.78 -3.72411 5.65366 0
M  V30 1868 H 197.422 -3.16375 2.80476 0
M  V30 1869 H 195.14 -3.5982 7.23571 0
M  V30 1870 H 198.726 -3.12719 4.9061 0
M  V30 1871 H 197.606 -3.34357 7.09348 0
M  V30 1872 N 195.109 -0.891671 -1.2995 0
M  V30 1873 C 196.525 -0.58662 -1.48428 0
M  V30 1874 C 196.725 0.873951 -1.81561 0
M  V30 1875 O 195.781 1.65471 -1.90724 0
M  V30 1876 C 197.094 -1.50553 -2.60296 0
M  V30 1877 C 198.642 -1.50988 -2.74175 0
M  V30 1878 C 199.117 -2.41488 -3.89163 0
M  V30 1879 N 200.608 -2.39489 -3.96483 0
M  V30 1880 C 201.343 -3.06223 -4.84784 0
M  V30 1881 N 200.839 -3.82206 -5.77833 0
M  V30 1882 N 202.632 -2.95421 -4.78208 0
M  V30 1883 H 194.783 -1.83644 -1.06718 0
M  V30 1884 H 197.046 -0.786455 -0.529332 0
M  V30 1885 H 196.752 -2.54581 -2.42654 0
M  V30 1886 H 196.626 -1.22008 -3.56923 0
M  V30 1887 H 199.013 -0.47708 -2.91218 0
M  V30 1888 H 199.094 -1.83567 -1.78148 0
M  V30 1889 H 198.738 -3.44857 -3.72876 0
M  V30 1890 H 198.668 -2.06222 -4.84541 0
M  V30 1891 H 201.159 -1.84278 -3.29924 0
M  V30 1892 H 201.472 -4.302 -6.41988 0
M  V30 1893 H 199.817 -3.86313 -5.77743 0
M  V30 1894 H 203.008 -2.35581 -4.04499 0
M  V30 1895 H 203.181 -3.47704 -5.46814 0
M  V30 1896 N 196.587 1.43421 -0.653314 0
M  V30 1897 C 197.55 2.29182 0.0287951 0
M  V30 1898 C 198.55 1.42213 0.750465 0
M  V30 1899 O 199.74 1.63843 0.591701 0
M  V30 1900 C 196.872 3.24278 1.05151 0
M  V30 1901 H 198.065 2.90985 -0.725786 0
M  V30 1902 H 195.618 1.50702 -0.414545 0
M  V30 1903 H 196.353 2.6737 1.83532 0
M  V30 1904 H 196.138 3.88396 0.537687 0
M  V30 1905 H 197.628 3.88647 1.52786 0
M  V30 1906 N 198.065 0.39524 1.52563 0
M  V30 1907 C 199.311 -0.185318 2.01952 0
M  V30 1908 C 199.644 -1.45964 1.28095 0
M  V30 1909 O 198.919 -1.90689 0.38315 0
M  V30 1910 C 199.202 -0.447193 3.57312 0
M  V30 1911 C 199.055 0.842828 4.41833 0
M  V30 1912 C 200.374 -1.23529 4.22408 0
M  V30 1913 H 197.493 -0.0658788 0.73405 0
M  V30 1914 H 200.135 0.525975 1.82575 0
M  V30 1915 H 198.285 -1.05312 3.73954 0
M  V30 1916 H 199.957 1.4795 4.36931 0
M  V30 1917 H 198.2 1.45686 4.08605 0
M  V30 1918 H 198.871 0.614165 5.48573 0
M  V30 1919 H 201.347 -0.722445 4.0978 0
M  V30 1920 H 200.223 -1.38727 5.3108 0
M  V30 1921 H 200.484 -2.25213 3.80436 0
M  V30 1922 N 199.544 -1.57102 0.125237 0
M  V30 1923 C 200.769 -2.0019 -0.542101 0
M  V30 1924 C 201.194 -1.00449 -1.59034 0
M  V30 1925 O 200.552 0.0229423 -1.81285 0
M  V30 1926 C 200.6 -3.42129 -1.13929 0
M  V30 1927 O 199.704 -3.45307 -2.2547 0
M  V30 1928 H 199.045 -0.650171 -0.134812 0
M  V30 1929 H 201.575 -2.03461 0.215553 0
M  V30 1930 H 201.585 -3.80471 -1.4733 0
M  V30 1931 H 200.26 -4.14237 -0.371531 0
M  V30 1932 H 198.837 -3.1879 -1.93462 0
M  V30 1933 N 201.022 0.148545 -1.56898 0
M  V30 1934 C 201.985 1.16736 -1.97244 0
M  V30 1935 C 202.985 1.35947 -0.858777 0
M  V30 1936 O 204.175 1.32966 -1.12542 0
M  V30 1937 C 201.307 2.52798 -2.28705 0
M  V30 1938 H 202.5 0.821279 -2.88435 0
M  V30 1939 H 200.053 0.391831 -1.51309 0
M  V30 1940 H 200.788 2.92381 -1.403 0
M  V30 1941 H 200.573 2.40216 -3.09901 0
M  V30 1942 H 202.063 3.26179 -2.60762 0
M  V30 1943 N 202.5 1.5196 0.417844 0
M  V30 1944 C 203.777 1.56146 1.17803 0
M  V30 1945 C 204.157 0.337275 2.08388 0
M  V30 1946 O 203.505 -0.676447 2.18258 0
M  V30 1947 C 203.715 2.88566 1.96293 0
M  V30 1948 C 205.063 3.41244 2.52662 0
M  V30 1949 O 206.087 2.90247 2.06483 0
M  V30 1950 O 204.946 4.30273 3.36938 0
M  V30 1951 H 202.04 0.628598 0.537395 0
M  V30 1952 H 204.586 1.64283 0.425331 0
M  V30 1953 H 203.358 3.69116 1.2988 0
M  V30 1954 H 202.981 2.83681 2.78587 0
M  V30 1955 N 203.978 -0.674533 1.42435 0
M  V30 1956 C 205.206 -1.46283 1.46317 0
M  V30 1957 C 205.621 -1.88653 0.0745836 0
M  V30 1958 O 204.978 -1.58151 -0.91074 0
M  V30 1959 C 205.029 -2.71178 2.3905 0
M  V30 1960 O 204.75 -2.30586 3.72507 0
M  V30 1961 C 206.251 -3.64738 2.51955 0
M  V30 1962 H 203.471 -0.450104 0.497642 0
M  V30 1963 H 206.015 -0.828792 1.86953 0
M  V30 1964 H 204.17 -3.3077 2.01667 0
M  V30 1965 H 204.584 -3.11241 4.22172 0
M  V30 1966 H 206.058 -4.49096 3.20962 0
M  V30 1967 H 206.535 -4.10656 1.55752 0
M  V30 1968 H 207.141 -3.11038 2.90061 0
M  V30 1969 N 205.456 -1.28612 -0.910864 0
M  V30 1970 C 206.867 -1.14406 -1.47541 0
M  V30 1971 C 207.218 0.264901 -1.94403 0
M  V30 1972 O 206.343 1.15942 -1.82719 0
M  V30 1973 C 206.938 -2.07073 -2.68153 0
M  V30 1974 C 205.497 -1.96923 -3.20778 0
M  V30 1975 C 204.644 -1.98646 -1.93481 0
M  V30 1976 H 207.595 -1.41259 -0.723291 0
M  V30 1977 H 207.616 -1.63642 -3.43514 0
M  V30 1978 H 207.128 -3.09611 -2.34015 0
M  V30 1979 H 205.229 -0.97433 -3.59635 0
M  V30 1980 H 205.342 -2.84026 -3.85832 0
M  V30 1981 H 203.706 -1.43093 -2.10705 0
M  V30 1982 H 204.489 -3.02868 -1.61634 0
M  V30 1983 N 206.934 1.1197 -1.10907 0
M  V30 1984 C 207.884 2.15946 -0.731538 0
M  V30 1985 C 208.868 1.58758 0.261699 0
M  V30 1986 O 210.06 1.76863 0.0696722 0
M  V30 1987 C 207.189 3.42877 -0.170299 0
M  V30 1988 C 206.275 4.07037 -1.19087 0
M  V30 1989 N 206.666 4.46135 -2.38322 0
M  V30 1990 C 204.964 4.33884 -1.03252 0
M  V30 1991 C 205.665 4.96331 -3.03366 0
M  V30 1992 N 204.641 4.9214 -2.30865 0
M  V30 1993 H 208.443 2.43947 -1.63912 0
M  V30 1994 H 205.957 1.28927 -0.987505 0
M  V30 1995 H 207.954 4.16732 0.118271 0
M  V30 1996 H 206.614 3.16343 0.731935 0
M  V30 1997 H 207.625 4.38345 -2.75815 0
M  V30 1998 H 204.302 4.17084 -0.186256 0
M  V30 1999 H 205.692 5.36257 -4.04818 0
M  V30 2000 N 208.412 0.89855 1.29475 0
M  V30 2001 C 209.658 0.524658 1.95896 0
M  V30 2002 C 209.991 -0.926468 1.70676 0
M  V30 2003 O 209.266 -1.65665 1.01908 0
M  V30 2004 C 209.549 0.81633 3.50725 0
M  V30 2005 C 209.402 2.31907 3.85408 0
M  V30 2006 C 210.721 0.302038 4.39062 0
M  V30 2007 H 207.84 0.19209 0.711527 0
M  V30 2008 H 210.482 1.12502 1.53112 0
M  V30 2009 H 208.632 0.305369 3.87298 0
M  V30 2010 H 210.304 2.89949 3.58786 0
M  V30 2011 H 208.547 2.78027 3.32992 0
M  V30 2012 H 209.218 2.47373 4.93468 0
M  V30 2013 H 211.694 0.739551 4.09475 0
M  V30 2014 H 210.57 0.535331 5.46283 0
M  V30 2015 H 210.831 -0.797216 4.34853 0
M  V30 2016 N 209.89 -1.43072 0.660911 0
M  V30 2017 C 211.301 -1.84932 0.256348 0
M  V30 2018 C 211.652 -1.55325 -1.19868 0
M  V30 2019 O 210.777 -1.00607 -1.91591 0
M  V30 2020 C 211.372 -3.35684 0.458475 0
M  V30 2021 C 209.931 -3.76245 0.108161 0
M  V30 2022 C 209.078 -2.66749 0.757641 0
M  V30 2023 H 212.029 -1.33116 0.864051 0
M  V30 2024 H 212.05 -3.79365 -0.293683 0
M  V30 2025 H 211.562 -3.572 1.51755 0
M  V30 2026 H 209.663 -3.60338 -0.948014 0
M  V30 2027 H 209.776 -4.76058 0.538992 0
M  V30 2028 H 208.14 -2.53989 0.190185 0
M  V30 2029 H 208.923 -2.91092 1.81989 0
M  V30 2030 N 211.368 -0.403325 -1.52352 0
M  V30 2031 C 212.614 0.174605 -2.02047 0
M  V30 2032 C 212.947 1.45282 -1.28867 0
M  V30 2033 O 212.222 1.90483 -0.393257 0
M  V30 2034 C 212.505 0.428238 -3.57545 0
M  V30 2035 C 212.358 -0.866248 -4.4138 0
M  V30 2036 C 213.677 1.21287 -4.23057 0
M  V30 2037 H 210.796 0.0619851 -0.734389 0
M  V30 2038 H 213.438 -0.53565 -1.82293 0
M  V30 2039 H 211.588 1.03327 -3.74507 0
M  V30 2040 H 213.26 -1.50265 -4.3614 0
M  V30 2041 H 211.503 -1.47851 -4.07827 0
M  V30 2042 H 212.174 -0.643249 -5.48239 0
M  V30 2043 H 214.65 0.700703 -4.10158 0
M  V30 2044 H 213.526 1.35909 -5.31808 0
M  V30 2045 H 213.787 2.23193 -3.81625 0
M  V30 2046 N 212.846 1.57033 -0.133567 0
M  V30 2047 C 214.262 1.58035 0.222944 0
M  V30 2048 C 214.462 1.14713 1.6566 0
M  V30 2049 O 213.518 0.841218 2.38075 0
M  V30 2050 C 214.831 3.00691 -0.0236116 0
M  V30 2051 C 216.379 3.12973 0.0411512 0
M  V30 2052 C 216.854 4.57654 -0.177899 0
M  V30 2053 N 218.345 4.63033 -0.124365 0
M  V30 2054 C 219.08 5.72771 -0.268553 0
M  V30 2055 N 218.576 6.91206 -0.46972 0
M  V30 2056 N 220.369 5.61718 -0.2071 0
M  V30 2057 H 212.52 1.8349 -1.06981 0
M  V30 2058 H 214.783 0.848677 -0.422436 0
M  V30 2059 H 214.489 3.36726 -1.0153 0
M  V30 2060 H 214.363 3.70614 0.701808 0
M  V30 2061 H 216.75 2.76787 1.02338 0
M  V30 2062 H 216.831 2.45564 -0.716383 0
M  V30 2063 H 216.475 4.94542 -1.15717 0
M  V30 2064 H 216.405 5.23173 0.599797 0
M  V30 2065 H 218.896 3.7789 0.027011 0
M  V30 2066 H 219.209 7.70693 -0.570212 0
M  V30 2067 H 217.554 6.93156 -0.505876 0
M  V30 2068 H 220.745 4.68072 -0.0507986 0
M  V30 2069 H 220.918 6.47195 -0.322909 0
M  V30 2070 N 214.325 -0.140222 1.56975 0
M  V30 2071 C 215.555 -0.865181 1.87612 0
M  V30 2072 C 215.963 -1.74942 0.72055 0
M  V30 2073 O 215.306 -1.80917 -0.318561 0
M  V30 2074 C 215.368 -1.76782 3.13031 0
M  V30 2075 C 215.032 -1.06005 4.44536 0
M  V30 2076 C 216.029 -0.410768 5.18275 0
M  V30 2077 C 213.714 -1.04754 4.91255 0
M  V30 2078 C 215.708 0.241572 6.36942 0
M  V30 2079 C 213.395 -0.391394 6.09845 0
M  V30 2080 C 214.393 0.252029 6.82535 0
M  V30 2081 O 214.081 0.897757 7.98871 0
M  V30 2082 H 213.813 -0.255188 0.625983 0
M  V30 2083 H 216.367 -0.135653 2.04952 0
M  V30 2084 H 214.597 -2.53846 2.91718 0
M  V30 2085 H 216.286 -2.36533 3.29859 0
M  V30 2086 H 217.052 -0.412195 4.83245 0
M  V30 2087 H 212.931 -1.53777 4.34596 0
M  V30 2088 H 216.475 0.744375 6.93617 0
M  V30 2089 H 212.372 -0.387656 6.44335 0
M  V30 2090 H 213.14 0.800102 8.1458 0
M  V30 2091 N 215.803 -1.52179 -0.40978 0
M  V30 2092 C 217.051 -1.65878 -1.15451 0
M  V30 2093 C 217.372 -0.390771 -1.91044 0
M  V30 2094 O 216.642 0.594323 -1.86667 0
M  V30 2095 H 215.222 -0.611405 -0.429177 0
M  V30 2096 H 217.884 -1.89219 -0.467134 0
M  V30 2097 H 216.98 -2.49954 -1.86894 0
M  V30 2098 N 217.281 0.66697 -1.42791 0
M  V30 2099 C 218.229 1.80157 -1.47127 0
M  V30 2100 C 219.223 1.65825 -0.346199 0
M  V30 2101 O 220.429 1.72338 -0.519572 0
M  V30 2102 H 216.804 0.594158 -0.460956 0
M  V30 2103 H 218.775 1.73619 -2.42692 0
M  V30 2104 C 217.524 3.18351 -1.39813 0
M  V30 2105 H 216.847 3.3001 -2.25684 0
M  V30 2106 H 218.287 3.97736 -1.46908 0
M  V30 2107 C 216.746 3.36707 -0.11391 0
M  V30 2108 O 217.276 3.93027 0.830241 0
M  V30 2109 N 215.482 2.90586 -0.0285295 0
M  V30 2110 H 215.029 2.4494 -0.79764 0
M  V30 2111 H 214.987 3.03245 0.830063 0
M  V30 2112 N 218.759 1.29093 0.90403 0
M  V30 2113 C 220.005 1.16986 1.65656 0
M  V30 2114 C 220.338 -0.278925 1.92186 0
M  V30 2115 O 219.613 -1.2019 1.5292 0
M  V30 2116 C 219.896 1.97908 3.0084 0
M  V30 2117 C 219.749 3.50903 2.81403 0
M  V30 2118 C 221.068 1.80208 4.01513 0
M  V30 2119 H 218.187 0.426346 0.601164 0
M  V30 2120 H 220.829 1.58518 1.04747 0
M  V30 2121 H 218.979 1.62616 3.52829 0
M  V30 2122 H 220.651 3.96153 2.36348 0
M  V30 2123 H 218.894 3.76045 2.1627 0
M  V30 2124 H 219.565 4.02791 3.77443 0
M  V30 2125 H 222.041 2.11025 3.58619 0
M  V30 2126 H 220.917 2.39184 4.94047 0
M  V30 2127 H 221.178 0.756119 4.35586 0
M  V30 2128 N 220.237 -1.11381 1.11499 0
M  V30 2129 C 221.483 -1.83403 0.865512 0
M  V30 2130 C 221.816 -1.84459 -0.607329 0
M  V30 2131 O 221.091 -1.29811 -1.44842 0
M  V30 2132 C 221.374 -3.30552 1.42855 0
M  V30 2133 C 221.227 -3.37886 2.96906 0
M  V30 2134 C 222.546 -4.26643 1.08 0
M  V30 2135 H 219.665 -0.665879 0.31587 0
M  V30 2136 H 222.307 -1.30601 1.37998 0
M  V30 2137 H 220.457 -3.75648 0.990985 0
M  V30 2138 H 222.129 -3.01343 3.49271 0
M  V30 2139 H 220.372 -2.78088 3.32941 0
M  V30 2140 H 221.043 -4.41458 3.31389 0
M  V30 2141 H 223.519 -3.89729 1.45775 0
M  V30 2142 H 222.395 -5.27986 1.50072 0
M  V30 2143 H 222.656 -4.42099 -0.00915037 0
M  V30 2144 N 221.715 -0.905404 -1.28997 0
M  V30 2145 C 222.678 -0.392253 -2.25819 0
M  V30 2146 C 223.678 0.476753 -1.5357 0
M  V30 2147 O 224.868 0.280994 -1.71919 0
M  V30 2148 C 222 0.438588 -3.38067 0
M  V30 2149 H 223.193 -1.24743 -2.72725 0
M  V30 2150 H 220.746 -0.684051 -1.40536 0
M  V30 2151 H 221.481 1.31352 -2.96508 0
M  V30 2152 H 221.266 -0.184167 -3.91667 0
M  V30 2153 H 222.756 0.78873 -4.10084 0
M  V30 2154 N 223.193 1.4272 -0.668489 0
M  V30 2155 C 224.103 2.34596 0.0139753 0
M  V30 2156 C 225.119 1.5474 0.795703 0
M  V30 2157 O 226.295 1.87334 0.739466 0
M  V30 2158 C 223.36 3.33202 0.957982 0
M  V30 2159 C 222.421 4.28957 0.17149 0
M  V30 2160 C 221.654 5.22853 1.07053 0
M  V30 2161 O 221.877 5.21531 2.31001 0
M  V30 2162 O 220.811 5.9952 0.534727 0
M  V30 2163 H 224.637 2.9448 -0.742661 0
M  V30 2164 H 222.222 1.43117 -0.428705 0
M  V30 2165 H 224.104 3.93796 1.50008 0
M  V30 2166 H 222.779 2.758 1.69458 0
M  V30 2167 H 221.686 3.71796 -0.414558 0
M  V30 2168 H 223.019 4.89383 -0.52586 0
M  V30 2169 N 224.671 0.411399 1.52136 0
M  V30 2170 C 225.917 -0.163888 2.02137 0
M  V30 2171 C 226.25 -1.44597 1.29636 0
M  V30 2172 O 225.525 -1.90272 0.403353 0
M  V30 2173 C 225.808 -0.40927 3.57767 0
M  V30 2174 C 225.661 0.889643 4.40914 0
M  V30 2175 C 226.98 -1.19042 4.23694 0
M  V30 2176 H 224.099 -0.0580896 0.734707 0
M  V30 2177 H 226.741 0.54531 1.82007 0
M  V30 2178 H 224.891 -1.0134 3.7505 0
M  V30 2179 H 226.563 1.52575 4.35337 0
M  V30 2180 H 224.806 1.50011 4.07037 0
M  V30 2181 H 225.477 0.672314 5.4789 0
M  V30 2182 H 227.953 -0.678942 4.10524 0
M  V30 2183 H 226.829 -1.33086 5.32522 0
M  V30 2184 H 227.09 -2.21166 3.82803 0
M  V30 2185 N 226.149 -1.5696 0.141893 0
M  V30 2186 C 227.565 -1.58151 -0.21456 0
M  V30 2187 C 227.765 -1.1559 -1.65049 0
M  V30 2188 O 226.821 -0.853832 -2.37626 0
M  V30 2189 C 228.134 -3.00674 0.0395576 0
M  V30 2190 C 229.682 -3.1299 -0.0245529 0
M  V30 2191 C 230.157 -4.57554 0.202167 0
M  V30 2192 N 231.648 -4.62961 0.148919 0
M  V30 2193 C 232.383 -5.7262 0.298924 0
M  V30 2194 N 231.879 -6.90947 0.50637 0
M  V30 2195 N 233.672 -5.61601 0.236886 0
M  V30 2196 H 225.823 -1.8292 1.07953 0
M  V30 2197 H 228.086 -0.846425 0.42693 0
M  V30 2198 H 227.792 -3.36183 1.03315 0
M  V30 2199 H 227.666 -3.70981 -0.682143 0
M  V30 2200 H 230.053 -2.77326 -1.00869 0
M  V30 2201 H 230.134 -2.4518 0.729396 0
M  V30 2202 H 229.778 -4.93922 1.18338 0
M  V30 2203 H 229.708 -5.23484 -0.572044 0
M  V30 2204 H 232.199 -3.77899 -0.00697015 0
M  V30 2205 H 232.512 -7.7038 0.611076 0
M  V30 2206 H 230.857 -6.92878 0.542628 0
M  V30 2207 H 234.048 -4.68039 0.0756209 0
M  V30 2208 H 234.221 -6.47015 0.357227 0
M  V30 2209 N 227.627 0.131896 -1.57047 0
M  V30 2210 C 228.59 1.14638 -1.98471 0
M  V30 2211 C 229.59 1.35029 -0.873148 0
M  V30 2212 O 230.78 1.31764 -1.13946 0
M  V30 2213 C 227.912 2.50358 -2.31373 0
M  V30 2214 H 229.105 0.79064 -2.8929 0
M  V30 2215 H 226.658 0.375761 -1.51716 0
M  V30 2216 H 227.393 2.90876 -1.43393 0
M  V30 2217 H 227.178 2.36915 -3.12432 0
M  V30 2218 H 228.668 3.23395 -2.64207 0
M  V30 2219 N 229.106 1.52395 0.401703 0
M  V30 2220 C 230.383 1.57387 1.16141 0
M  V30 2221 C 230.763 0.359359 2.08019 0
M  V30 2222 O 230.111 -0.65326 2.18963 0
M  V30 2223 C 230.321 2.90631 1.93221 0
M  V30 2224 C 231.669 3.43904 2.49028 0
M  V30 2225 O 232.693 2.92421 2.03393 0
M  V30 2226 O 231.552 4.33823 3.32356 0
M  V30 2227 H 228.646 0.634262 0.530698 0
M  V30 2228 H 231.192 1.64725 0.407883 0
M  V30 2229 H 229.964 3.70473 1.25958 0
M  V30 2230 H 229.587 2.8662 2.75563 0
M  V30 2231 N 230.584 -0.659388 1.43143 0
M  V30 2232 C 231.514 -1.78422 1.50625 0
M  V30 2233 C 232.495 -1.66216 0.361443 0
M  V30 2234 O 233.68 -1.85404 0.577834 0
M  V30 2235 C 230.81 -3.16815 1.42287 0
M  V30 2236 C 229.764 -3.43777 2.54954 0
M  V30 2237 C 229.09 -4.81905 2.31671 0
M  V30 2238 C 230.39 -3.39134 3.97222 0
M  V30 2239 H 232.084 -1.72417 2.44771 0
M  V30 2240 H 229.63 -0.828084 1.17808 0
M  V30 2241 H 231.583 -3.95253 1.46127 0
M  V30 2242 H 230.307 -3.23534 0.446435 0
M  V30 2243 H 228.966 -2.67707 2.50457 0
M  V30 2244 H 228.614 -4.85294 1.32284 0
M  V30 2245 H 228.314 -5.00906 3.07192 0
M  V30 2246 H 229.838 -5.62609 2.37284 0
M  V30 2247 H 231.252 -4.07518 4.03239 0
M  V30 2248 H 229.649 -3.69671 4.72719 0
M  V30 2249 H 230.719 -2.37426 4.22797 0
M  V30 2250 N 232.062 -1.29571 -0.897171 0
M  V30 2251 C 232.992 -1.17473 -2.01798 0
M  V30 2252 C 233.973 -0.068323 -1.69963 0
M  V30 2253 O 235.158 -0.248239 -1.92607 0
M  V30 2254 C 232.288 -0.853099 -3.36659 0
M  V30 2255 C 231.242 -1.9161 -3.82713 0
M  V30 2256 C 230.568 -1.44773 -5.14728 0
M  V30 2257 C 231.868 -3.32535 -4.02763 0
M  V30 2258 H 233.562 -2.11237 -2.12177 0
M  V30 2259 H 231.108 -1.01699 -1.01948 0
M  V30 2260 H 233.061 -0.755165 -4.14578 0
M  V30 2261 H 231.785 0.120236 -3.26379 0
M  V30 2262 H 230.444 -2.00346 -3.07013 0
M  V30 2263 H 230.092 -0.462995 -5.00865 0
M  V30 2264 H 229.792 -2.15865 -5.46513 0
M  V30 2265 H 231.316 -1.36334 -5.95185 0
M  V30 2266 H 232.73 -3.26626 -4.71156 0
M  V30 2267 H 231.127 -4.01607 -4.45905 0
M  V30 2268 H 232.197 -3.75326 -3.07016 0
M  V30 2269 N 233.54 1.10788 -1.12088 0
M  V30 2270 C 234.503 2.15207 -0.788577 0
M  V30 2271 C 235.503 1.59609 0.195317 0
M  V30 2272 O 236.693 1.74174 -0.0300193 0
M  V30 2273 C 233.825 3.4047 -0.171174 0
M  V30 2274 H 235.018 2.46116 -1.71368 0
M  V30 2275 H 232.571 1.26089 -0.923652 0
M  V30 2276 H 233.306 3.15176 0.763832 0
M  V30 2277 H 233.091 3.82109 -0.879514 0
M  V30 2278 H 234.581 4.17576 0.04496 0
M  V30 2279 N 235.018 0.912232 1.28515 0
M  V30 2280 C 236.243 0.559774 1.99703 0
M  V30 2281 C 236.668 -0.851393 1.67729 0
M  V30 2282 O 236.026 -1.56875 0.908834 0
M  V30 2283 C 236.074 0.773874 3.52198 0
M  V30 2284 O 235.178 -0.167842 4.12058 0
M  V30 2285 H 234.519 0.21723 0.627461 0
M  V30 2286 H 237.049 1.22725 1.63706 0
M  V30 2287 H 237.059 0.683386 4.02236 0
M  V30 2288 H 235.734 1.80261 3.74805 0
M  V30 2289 H 234.311 -0.0287509 3.72889 0
M  V30 2290 N 236.496 -1.42363 0.676048 0
M  V30 2291 C 237.742 -2.0182 0.199125 0
M  V30 2292 C 238.075 -1.53339 -1.19168 0
M  V30 2293 O 237.35 -0.736124 -1.80032 0
M  V30 2294 C 237.633 -3.59331 0.235144 0
M  V30 2295 C 237.486 -4.17989 1.66149 0
M  V30 2296 C 238.805 -4.3813 -0.41595 0
M  V30 2297 H 235.924 -0.733293 0.0738311 0
M  V30 2298 H 238.566 -1.69368 0.86107 0
M  V30 2299 H 236.716 -3.87109 -0.328487 0
M  V30 2300 H 238.388 -4.0116 2.27747 0
M  V30 2301 H 236.631 -3.7377 2.20178 0
M  V30 2302 H 237.302 -5.27126 1.63837 0
M  V30 2303 H 239.778 -4.16051 0.0638529 0
M  V30 2304 H 238.654 -5.47717 -0.360115 0
M  V30 2305 H 238.915 -4.16101 -1.49373 0
M  V30 2306 N 237.974 -0.419461 -1.51915 0
M  V30 2307 C 238.937 0.389116 -2.25873 0
M  V30 2308 C 239.937 0.964924 -1.28631 0
M  V30 2309 O 241.127 0.842179 -1.52489 0
M  V30 2310 C 238.259 1.54874 -3.03689 0
M  V30 2311 H 239.452 -0.258799 -2.98781 0
M  V30 2312 H 237.005 -0.172209 -1.55348 0
M  V30 2313 H 237.74 2.23323 -2.35154 0
M  V30 2314 H 237.525 1.14223 -3.75094 0
M  V30 2315 H 239.015 2.12046 -3.59759 0
M  V30 2316 N 239.452 1.56882 -0.150215 0
M  V30 2317 C 240.729 1.87844 0.545327 0
M  V30 2318 C 241.109 1.0567 1.82749 0
M  V30 2319 O 240.457 0.144442 2.28043 0
M  V30 2320 C 240.667 3.39526 0.80767 0
M  V30 2321 C 242.015 4.08814 1.14703 0
M  V30 2322 O 243.039 3.44723 0.896917 0
M  V30 2323 O 241.898 5.22004 1.61784 0
M  V30 2324 H 238.992 0.778677 0.278553 0
M  V30 2325 H 241.538 1.68666 -0.187068 0
M  V30 2326 H 240.31 3.91173 -0.0996096 0
M  V30 2327 H 239.933 3.64243 1.59413 0
M  V30 2328 N 240.93 -0.123565 1.57115 0
M  V30 2329 C 241.893 -1.13583 1.99076 0
M  V30 2330 C 242.893 -1.34564 0.880296 0
M  V30 2331 O 244.083 -1.31158 1.14644 0
M  V30 2332 C 241.215 -2.49128 2.32698 0
M  V30 2333 H 242.408 -0.775287 2.89706 0
M  V30 2334 H 239.961 -0.36771 1.51913 0
M  V30 2335 H 240.696 -2.90111 1.44934 0
M  V30 2336 H 240.481 -2.35255 3.13684 0
M  V30 2337 H 241.971 -3.2199 2.65918 0
M  V30 2338 N 242.408 -1.52605 -0.393616 0
M  V30 2339 C 243.654 -1.67672 -1.14079 0
M  V30 2340 C 243.987 -0.413121 -1.89755 0
M  V30 2341 O 243.262 0.588952 -1.85369 0
M  V30 2342 C 243.545 -2.9088 -2.12276 0
M  V30 2343 C 243.398 -4.27329 -1.40394 0
M  V30 2344 C 244.717 -3.09628 -3.12759 0
M  V30 2345 H 241.836 -0.610168 -0.413356 0
M  V30 2346 H 244.478 -1.85193 -0.424696 0
M  V30 2347 H 242.628 -2.76073 -2.73342 0
M  V30 2348 H 244.3 -4.53894 -0.82327 0
M  V30 2349 H 242.543 -4.2802 -0.705801 0
M  V30 2350 H 243.214 -5.09615 -2.12123 0
M  V30 2351 H 245.69 -3.23436 -2.61779 0
M  V30 2352 H 244.566 -3.97322 -3.78717 0
M  V30 2353 H 244.827 -2.23637 -3.81365 0
M  V30 2354 N 243.887 0.651787 -1.4349 0
M  V30 2355 C 244.85 1.74647 -1.48429 0
M  V30 2356 C 245.85 1.56513 -0.368817 0
M  V30 2357 O 247.04 1.62385 -0.630623 0
M  V30 2358 C 244.172 3.13533 -1.33827 0
M  V30 2359 H 245.365 1.71649 -2.4592 0
M  V30 2360 H 242.918 0.863573 -1.30277 0
M  V30 2361 H 243.653 3.22142 -0.37349 0
M  V30 2362 H 243.438 3.28101 -2.14691 0
M  V30 2363 H 244.928 3.93356 -1.40218 0
M  V30 2364 N 245.365 1.30045 0.890287 0
M  V30 2365 C 246.328 1.15963 1.977 0
M  V30 2366 C 247.328 0.0923777 1.60534 0
M  V30 2367 O 248.518 0.340071 1.70848 0
M  V30 2368 C 245.65 0.775451 3.31963 0
M  V30 2369 H 246.843 2.12502 2.11619 0
M  V30 2370 H 244.396 1.13366 1.07601 0
M  V30 2371 H 245.131 -0.189671 3.23745 0
M  V30 2372 H 244.916 1.54668 3.60306 0
M  V30 2373 H 246.406 0.700251 4.11687 0
M  V30 2374 N 246.843 -1.10192 1.12674 0
M  V30 2375 C 248.091 -1.81845 0.881861 0
M  V30 2376 C 248.412 -1.85737 -0.593867 0
M  V30 2377 O 247.682 -1.33724 -1.4316 0
M  V30 2378 H 246.262 -0.673432 0.323261 0
M  V30 2379 H 248.924 -1.33316 1.42172 0
M  V30 2380 H 248.02 -2.85288 1.2656 0
M  V30 2381 N 248.321 -0.919034 -1.28029 0
M  V30 2382 C 249.567 -0.555757 -1.95036 0
M  V30 2383 C 249.9 0.899198 -1.72128 0
M  V30 2384 O 249.175 1.64023 -1.04531 0
M  V30 2385 C 249.458 -0.872024 -3.49382 0
M  V30 2386 C 249.311 -2.3801 -3.81669 0
M  V30 2387 C 250.63 -0.37185 -4.38526 0
M  V30 2388 H 247.749 -0.203386 -0.708381 0
M  V30 2389 H 250.391 -1.14924 -1.51303 0
M  V30 2390 H 248.541 -0.366946 -3.86763 0
M  V30 2391 H 250.213 -2.9562 -3.54128 0
M  V30 2392 H 248.456 -2.83289 -3.28526 0
M  V30 2393 H 249.127 -2.55192 -4.8947 0
M  V30 2394 H 251.603 -0.804602 -4.08247 0
M  V30 2395 H 250.479 -0.622173 -5.45362 0
M  V30 2396 H 250.74 0.727934 -4.36066 0
M  V30 2397 N 249.799 1.42003 -0.683588 0
M  V30 2398 C 251.076 1.95112 -0.138075 0
M  V30 2399 C 251.456 1.62359 1.34918 0
M  V30 2400 O 250.804 0.924311 2.08971 0
M  V30 2401 C 251.014 3.46505 -0.416581 0
M  V30 2402 C 252.362 4.23254 -0.337834 0
M  V30 2403 O 253.386 3.54468 -0.35082 0
M  V30 2404 O 252.245 5.45743 -0.287596 0
M  V30 2405 H 249.339 0.826961 -0.00797996 0
M  V30 2406 H 251.885 1.51784 -0.758924 0
M  V30 2407 H 250.657 3.63582 -1.4465 0
M  V30 2408 H 250.28 3.969 0.235839 0
M  V30 2409 N 251.277 0.427512 1.51691 0
M  V30 2410 C 252.688 -0.0378867 1.86662 0
M  V30 2411 C 253.039 -1.42819 1.34525 0
M  V30 2412 O 252.164 -2.05037 0.692014 0
M  V30 2413 C 252.759 -0.0755266 3.38716 0
M  V30 2414 C 251.318 -0.485309 3.73258 0
M  V30 2415 C 250.465 0.328399 2.75349 0
M  V30 2416 H 253.416 0.64379 1.45055 0
M  V30 2417 H 253.437 -0.887056 3.70016 0
M  V30 2418 H 252.949 0.936487 3.76632 0
M  V30 2419 H 251.05 -1.50329 3.40928 0
M  V30 2420 H 251.163 -0.21693 4.78609 0
M  V30 2421 H 249.527 -0.211905 2.53817 0
M  V30 2422 H 250.31 1.3391 3.16106 0
M  V30 2423 N 252.755 -1.56801 0.158532 0
M  V30 2424 C 253.718 -2.16138 -0.762705 0
M  V30 2425 C 254.718 -1.1061 -1.16713 0
M  V30 2426 O 255.908 -1.36191 -1.08617 0
M  V30 2427 C 253.04 -2.73386 -2.03649 0
M  V30 2428 H 254.233 -2.98886 -0.246354 0
M  V30 2429 H 251.786 -1.56035 -0.0909744 0
M  V30 2430 H 252.521 -1.94335 -2.59623 0
M  V30 2431 H 252.306 -3.50601 -1.75559 0
M  V30 2432 H 253.796 -3.19065 -2.6942 0
M  V30 2433 N 254.233 0.115231 -1.57178 0
M  V30 2434 C 255.649 0.468877 -1.52557 0
M  V30 2435 C 255.849 1.81649 -0.872125 0
M  V30 2436 O 254.905 2.48347 -0.45606 0
M  V30 2437 C 256.218 0.4499 -2.97315 0
M  V30 2438 C 257.766 0.533185 -3.08425 0
M  V30 2439 C 258.241 0.54456 -4.54751 0
M  V30 2440 N 259.732 0.605892 -4.5922 0
M  V30 2441 C 260.467 0.636203 -5.6986 0
M  V30 2442 N 259.963 0.623931 -6.89985 0
M  V30 2443 N 261.756 0.679496 -5.57978 0
M  V30 2444 H 253.907 -0.767712 -1.9804 0
M  V30 2445 H 256.17 -0.283609 -0.904583 0
M  V30 2446 H 255.876 -0.472721 -3.48509 0
M  V30 2447 H 255.75 1.27632 -3.5495 0
M  V30 2448 H 258.137 1.44623 -2.57232 0
M  V30 2449 H 258.218 -0.320995 -2.53778 0
M  V30 2450 H 257.862 -0.364452 -5.06591 0
M  V30 2451 H 257.792 1.41568 -5.07214 0
M  V30 2452 H 260.283 0.621386 -3.72756 0
M  V30 2453 H 260.596 0.649787 -7.70063 0
M  V30 2454 H 258.941 0.591296 -6.9248 0
M  V30 2455 H 262.132 0.686472 -4.63039 0
M  V30 2456 H 262.305 0.69965 -6.44212 0
M  V30 2457 N 255.711 1.52812 0.385517 0
M  V30 2458 C 256.641 1.80808 1.47752 0
M  V30 2459 C 257.622 0.660318 1.5676 0
M  V30 2460 O 258.807 0.908246 1.71652 0
M  V30 2461 C 255.937 1.98008 2.85324 0
M  V30 2462 C 254.891 3.13709 2.91154 0
M  V30 2463 C 254.217 3.16169 4.31209 0
M  V30 2464 C 255.517 4.52709 2.60483 0
M  V30 2465 H 257.211 2.72253 1.24573 0
M  V30 2466 H 254.757 1.31003 0.597839 0
M  V30 2467 H 256.71 2.16176 3.61726 0
M  V30 2468 H 255.434 1.03255 3.09848 0
M  V30 2469 H 254.093 2.95329 2.17201 0
M  V30 2470 H 253.741 2.19092 4.52778 0
M  V30 2471 H 253.441 3.93894 4.36029 0
M  V30 2472 H 254.965 3.36496 5.09512 0
M  V30 2473 H 256.379 4.71173 3.26602 0
M  V30 2474 H 254.776 5.32528 2.76648 0
M  V30 2475 H 255.846 4.59186 1.55809 0
M  V30 2476 N 257.189 -0.644168 1.43834 0
M  V30 2477 C 258.435 -1.40603 1.46146 0
M  V30 2478 C 258.768 -1.93997 0.0887717 0
M  V30 2479 O 258.043 -1.72854 -0.891724 0
M  V30 2480 C 258.326 -2.58086 2.51124 0
M  V30 2481 C 258.179 -2.10126 3.97702 0
M  V30 2482 C 259.498 -3.60291 2.52742 0
M  V30 2483 H 256.617 -0.509905 0.532134 0
M  V30 2484 H 259.259 -0.729502 1.75437 0
M  V30 2485 H 257.409 -3.15801 2.26278 0
M  V30 2486 H 259.081 -1.57342 4.33637 0
M  V30 2487 H 257.324 -1.41419 4.10101 0
M  V30 2488 H 257.995 -2.94649 4.66783 0
M  V30 2489 H 260.471 -3.12352 2.7491 0
M  V30 2490 H 259.347 -4.40032 3.28121 0
M  V30 2491 H 259.608 -4.1349 1.56455 0
M  V30 2492 N 258.668 -1.30515 -0.883378 0
M  V30 2493 C 259.598 -1.19607 -2.00541 0
M  V30 2494 C 260.579 -0.086346 -1.69881 0
M  V30 2495 O 261.764 -0.268654 -1.92333 0
M  V30 2496 C 258.894 -0.888758 -3.35736 0
M  V30 2497 C 257.848 -1.95659 -3.8066 0
M  V30 2498 C 257.174 -1.50224 -5.13164 0
M  V30 2499 C 258.474 -3.36788 -3.99213 0
M  V30 2500 H 260.168 -2.13476 -2.09925 0
M  V30 2501 H 257.714 -1.02775 -1.00863 0
M  V30 2502 H 259.667 -0.799094 -4.13754 0
M  V30 2503 H 258.391 0.0856125 -3.26488 0
M  V30 2504 H 257.05 -2.03591 -3.04871 0
M  V30 2505 H 256.698 -0.516092 -5.00345 0
M  V30 2506 H 256.398 -2.2165 -5.44192 0
M  V30 2507 H 257.922 -1.42639 -5.93706 0
M  V30 2508 H 259.336 -3.31605 -4.67665 0
M  V30 2509 H 257.733 -4.06314 -4.41621 0
M  V30 2510 H 258.803 -3.78561 -3.03017 0
M  V30 2511 N 260.146 1.09593 -1.13257 0
M  V30 2512 C 261.423 1.78293 -0.804432 0
M  V30 2513 C 261.803 1.99004 0.70431 0
M  V30 2514 O 261.151 1.59007 1.641 0
M  V30 2515 C 261.361 3.10707 -1.5894 0
M  V30 2516 C 262.709 3.85443 -1.78099 0
M  V30 2517 O 263.733 3.20454 -1.55525 0
M  V30 2518 O 262.592 5.02108 -2.15753 0
M  V30 2519 H 259.686 0.773156 -0.293528 0
M  V30 2520 H 262.232 1.16164 -1.23709 0
M  V30 2521 H 261.004 2.91106 -2.61482 0
M  V30 2522 H 260.627 3.80558 -1.15157 0
M  V30 2523 N 261.624 0.925811 1.2754 0
M  V30 2524 C 263.035 0.610102 1.7645 0
M  V30 2525 C 263.386 -0.874723 1.75622 0
M  V30 2526 O 262.511 -1.68444 1.35851 0
M  V30 2527 C 263.106 1.10073 3.20421 0
M  V30 2528 C 261.665 0.835723 3.67005 0
M  V30 2529 C 260.812 1.26054 2.46993 0
M  V30 2530 H 263.763 1.10579 1.13833 0
M  V30 2531 H 263.784 0.447557 3.77859 0
M  V30 2532 H 263.296 2.18143 3.20991 0
M  V30 2533 H 261.397 -0.231249 3.71882 0
M  V30 2534 H 261.51 1.45193 4.56569 0
M  V30 2535 H 259.874 0.679111 2.45479 0
M  V30 2536 H 260.657 2.34984 2.50275 0
M  V30 2537 N 263.102 -1.41638 0.69111 0
M  V30 2538 C 264.35 -2.00902 0.219758 0
M  V30 2539 C 264.671 -1.54994 -1.18329 0
M  V30 2540 O 263.941 -0.778628 -1.79762 0
M  V30 2541 H 262.521 -0.74289 0.0782558 0
M  V30 2542 H 265.183 -1.73327 0.891271 0
M  V30 2543 H 264.279 -3.11224 0.233708 0
M  V30 2544 N 264.58 -0.43555 -1.51462 0
M  V30 2545 C 265.51 0.367376 -2.30592 0
M  V30 2546 C 266.491 1.02263 -1.35928 0
M  V30 2547 O 267.676 1.02661 -1.64847 0
M  V30 2548 C 264.806 1.46983 -3.14664 0
M  V30 2549 C 263.76 0.938161 -4.17591 0
M  V30 2550 C 263.086 2.13622 -4.90173 0
M  V30 2551 C 264.386 -0.0261621 -5.22293 0
M  V30 2552 H 266.08 -0.292969 -2.97963 0
M  V30 2553 H 263.626 -0.14234 -1.43295 0
M  V30 2554 H 265.579 2.03873 -3.688 0
M  V30 2555 H 264.303 2.15843 -2.4511 0
M  V30 2556 H 262.962 0.391481 -3.64504 0
M  V30 2557 H 262.61 2.81098 -4.17124 0
M  V30 2558 H 262.31 1.78688 -5.59772 0
M  V30 2559 H 263.834 2.7107 -5.47132 0
M  V30 2560 H 265.248 0.452384 -5.71512 0
M  V30 2561 H 263.645 -0.287992 -5.99409 0
M  V30 2562 H 264.715 -0.963391 -4.75233 0
M  V30 2563 N 266.058 1.56714 -0.166846 0
M  V30 2564 C 267.306 1.96358 0.478305 0
M  V30 2565 C 267.627 1.0537 1.6408 0
M  V30 2566 O 266.897 0.119154 1.95537 0
M  V30 2567 H 265.477 0.725065 0.179692 0
M  V30 2568 H 268.139 1.93329 -0.246985 0
M  V30 2569 H 267.235 3.00547 0.841292 0
M  V30 2570 N 267.536 -0.106894 1.57237 0
M  V30 2571 C 268.783 -0.812526 1.85484 0
M  V30 2572 C 269.111 -1.79304 0.753687 0
M  V30 2573 O 268.366 -1.94047 -0.253853 0
M  V30 2574 C 268.665 -1.58628 3.20268 0
M  V30 2575 C 268.331 -0.748967 4.44636 0
M  V30 2576 C 266.993 -0.518104 4.78403 0
M  V30 2577 C 269.345 -0.166122 5.20935 0
M  V30 2578 C 266.673 0.305659 5.85903 0
M  V30 2579 C 269.025 0.644899 6.29304 0
M  V30 2580 C 267.689 0.885965 6.61594 0
M  V30 2581 H 266.959 -0.297324 0.678734 0
M  V30 2582 H 269.606 -0.0744332 1.91355 0
M  V30 2583 H 267.911 -2.39562 3.10028 0
M  V30 2584 H 269.608 -2.13643 3.39349 0
M  V30 2585 H 266.198 -0.939006 4.18187 0
M  V30 2586 H 270.382 -0.33167 4.95191 0
M  V30 2587 H 265.638 0.501528 6.0934 0
M  V30 2588 H 269.812 1.10345 6.87602 0
M  V30 2589 H 267.439 1.52609 7.44725 0
M  V30 2590 N 269.014 -1.53014 -0.377408 0
M  V30 2591 C 269.977 -1.77957 -1.44444 0
M  V30 2592 C 270.977 -0.649763 -1.47087 0
M  V30 2593 O 272.167 -0.917897 -1.48055 0
M  V30 2594 C 269.299 -1.89089 -2.83651 0
M  V30 2595 H 270.492 -2.73243 -1.23606 0
M  V30 2596 H 268.045 -1.43912 -0.609844 0
M  V30 2597 H 268.78 -0.958293 -3.09818 0
M  V30 2598 H 268.565 -2.71254 -2.83132 0
M  V30 2599 H 270.055 -2.1002 -3.60945 0
M  V30 2600 N 270.492 0.636531 -1.44174 0
M  V30 2601 C 271.439 1.74875 -1.50624 0
M  V30 2602 C 272.409 1.62275 -0.35442 0
M  V30 2603 O 273.594 1.82276 -0.563908 0
M  V30 2604 C 270.734 3.13102 -1.45125 0
M  V30 2605 C 269.847 3.36717 -2.7064 0
M  V30 2606 C 268.982 4.64885 -2.57013 0
M  V30 2607 C 268.021 4.8166 -3.77717 0
M  V30 2608 N 267.158 6.01101 -3.62798 0
M  V30 2609 H 271.998 1.68697 -2.45653 0
M  V30 2610 H 269.535 0.823004 -1.21922 0
M  V30 2611 H 271.493 3.93034 -1.39929 0
M  V30 2612 H 270.123 3.18308 -0.536671 0
M  V30 2613 H 269.175 2.50763 -2.86046 0
M  V30 2614 H 270.487 3.44993 -3.60252 0
M  V30 2615 H 269.641 5.52969 -2.49619 0
M  V30 2616 H 268.38 4.58957 -1.64953 0
M  V30 2617 H 267.385 3.92007 -3.85501 0
M  V30 2618 H 268.61 4.89406 -4.70807 0
M  V30 2619 H 266.556 5.96273 -2.73486 0
M  V30 2620 H 266.473 6.10409 -4.46023 0
M  V30 2621 H 267.741 6.91761 -3.59286 0
M  V30 2622 N 271.97 1.30982 0.876444 0
M  V30 2623 C 273.198 1.23242 1.6619 0
M  V30 2624 C 273.613 -0.203345 1.87702 0
M  V30 2625 O 272.97 -1.13317 1.43057 0
M  V30 2626 C 273.021 1.96623 3.03351 0
M  V30 2627 O 272.742 3.34594 2.82804 0
M  V30 2628 C 274.243 1.95644 3.97792 0
M  V30 2629 H 271.463 0.426126 0.518322 0
M  V30 2630 H 274.007 1.7275 1.09442 0
M  V30 2631 H 272.162 1.50892 3.56806 0
M  V30 2632 H 272.576 3.71873 3.69879 0
M  V30 2633 H 274.05 2.51511 4.91372 0
M  V30 2634 H 274.527 0.937395 4.2908 0
M  V30 2635 H 275.133 2.41225 3.50272 0
M  V30 2636 N 273.449 -1.08991 1.13837 0
M  V30 2637 C 274.412 -2.13925 0.822715 0
M  V30 2638 C 275.412 -1.599 -0.1699 0
M  V30 2639 O 276.602 -1.74104 0.0577251 0
M  V30 2640 C 273.734 -3.40155 0.225318 0
M  V30 2641 H 274.927 -2.43358 1.75262 0
M  V30 2642 H 272.48 -1.24603 0.943594 0
M  V30 2643 H 273.215 -3.16352 -0.713594 0
M  V30 2644 H 273 -3.80661 0.940193 0
M  V30 2645 H 274.49 -4.17594 0.0214784 0
M  V30 2646 N 274.927 -0.932562 -1.27047 0
M  V30 2647 C 275.859 -0.392734 -2.2581 0
M  V30 2648 C 276.872 0.479241 -1.55586 0
M  V30 2649 O 278.061 0.291078 -1.76111 0
M  V30 2650 C 275.161 0.455456 -3.35826 0
M  V30 2651 C 274.334 -0.398355 -4.35582 0
M  V30 2652 C 273.393 0.387985 -5.24768 0
M  V30 2653 O 272.419 -0.206003 -5.68827 0
M  V30 2654 N 273.621 1.68664 -5.55457 0
M  V30 2655 H 276.386 -1.24173 -2.72766 0
M  V30 2656 H 273.947 -0.800511 -1.40725 0
M  V30 2657 H 275.939 0.988692 -3.92437 0
M  V30 2658 H 274.509 1.20522 -2.88432 0
M  V30 2659 H 273.729 -1.11286 -3.78165 0
M  V30 2660 H 275.017 -0.981889 -4.99236 0
M  V30 2661 H 274.415 2.19147 -5.21528 0
M  V30 2662 H 272.972 2.1663 -6.14748 0
M  V30 2663 N 276.405 1.4127 -0.698611 0
M  V30 2664 C 277.355 2.27997 -0.0119836 0
M  V30 2665 C 278.339 1.42363 0.749765 0
M  V30 2666 O 279.531 1.65607 0.624758 0
M  V30 2667 C 276.66 3.30702 0.921458 0
M  V30 2668 C 275.746 4.23814 0.155796 0
M  V30 2669 N 276.137 4.98572 -0.852015 0
M  V30 2670 C 274.435 4.44284 0.390836 0
M  V30 2671 C 275.136 5.66744 -1.3106 0
M  V30 2672 N 274.112 5.39867 -0.635944 0
M  V30 2673 H 277.914 2.83232 -0.784649 0
M  V30 2674 H 275.428 1.53518 -0.529711 0
M  V30 2675 H 277.425 3.91661 1.42854 0
M  V30 2676 H 276.085 2.77028 1.69369 0
M  V30 2677 H 277.096 5.03024 -1.23235 0
M  V30 2678 H 273.773 4.01614 1.14071 0
M  V30 2679 H 275.163 6.36672 -2.14707 0
M  V30 2680 N 277.883 0.443576 1.51229 0
M  V30 2681 C 278.831 -0.37904 2.29491 0
M  V30 2682 C 279.825 -1.0153 1.35603 0
M  V30 2683 O 281.031 -0.94955 1.52917 0
M  V30 2684 H 277.406 -0.141053 0.738653 0
M  V30 2685 H 279.377 0.301799 2.9687 0
M  V30 2686 C 278.126 -1.46426 3.15364 0
M  V30 2687 H 277.449 -0.984037 3.87501 0
M  V30 2688 H 278.889 -2.01297 3.7317 0
M  V30 2689 C 277.348 -2.45099 2.31146 0
M  V30 2690 O 277.878 -3.49773 1.9754 0
M  V30 2691 N 276.084 -2.16139 1.94249 0
M  V30 2692 H 275.631 -1.31044 2.21777 0
M  V30 2693 H 275.589 -2.82398 1.38198 0
M  V30 2694 N 279.361 -1.56624 0.175154 0
M  V30 2695 C 280.607 -1.98061 -0.462976 0
M  V30 2696 C 280.962 -1.05949 -1.60601 0
M  V30 2697 O 280.255 -0.0999027 -1.91339 0
M  V30 2698 C 280.449 -3.43419 -0.989864 0
M  V30 2699 C 280.278 -4.49587 0.100583 0
M  V30 2700 C 279.048 -5.02281 0.551539 0
M  V30 2701 C 281.246 -5.06322 0.902369 0
M  V30 2702 N 279.228 -5.92088 1.62189 0
M  V30 2703 C 280.599 -5.92607 1.82256 0
M  V30 2704 C 282.654 -4.88811 0.947019 0
M  V30 2705 C 281.357 -6.63254 2.78364 0
M  V30 2706 C 283.383 -5.60182 1.89606 0
M  V30 2707 C 282.745 -6.46197 2.80372 0
M  V30 2708 H 278.844 -0.769833 -0.137409 0
M  V30 2709 H 281.428 -1.9273 0.276256 0
M  V30 2710 H 279.599 -3.49288 -1.6986 0
M  V30 2711 H 281.331 -3.7186 -1.59694 0
M  V30 2712 H 278.086 -4.73367 0.148537 0
M  V30 2713 H 278.51 -6.41696 2.15767 0
M  V30 2714 H 283.152 -4.22004 0.259304 0
M  V30 2715 H 280.87 -7.29271 3.48122 0
M  V30 2716 H 284.456 -5.48617 1.93676 0
M  V30 2717 H 283.336 -7.00453 3.52612 0
M  V30 2718 N 280.839 0.0985539 -1.57292 0
M  V30 2719 C 281.802 1.10402 -2.00858 0
M  V30 2720 C 282.802 1.33146 -0.901593 0
M  V30 2721 O 283.992 1.29318 -1.16716 0
M  V30 2722 C 281.124 2.45394 -2.36632 0
M  V30 2723 H 282.317 0.729099 -2.90902 0
M  V30 2724 H 279.87 0.343495 -1.52479 0
M  V30 2725 H 280.605 2.87769 -1.49531 0
M  V30 2726 H 280.39 2.30235 -3.17387 0
M  V30 2727 H 281.88 3.17718 -2.71007 0
M  V30 2728 N 282.317 1.53212 0.369288 0
M  V30 2729 C 283.566 1.68436 1.10961 0
M  V30 2730 C 283.879 0.440738 1.9057 0
M  V30 2731 O 285.085 0.473446 2.6734 0
M  V30 2732 C 283.541 2.97744 2.0218 0
M  V30 2733 C 283.149 4.29355 1.279 0
M  V30 2734 C 284.893 3.22334 2.76226 0
M  V30 2735 C 282.8 5.49755 2.17999 0
M  V30 2736 H 281.73 0.627568 0.41794 0
M  V30 2737 H 284.381 1.79713 0.370884 0
M  V30 2738 H 282.763 2.8026 2.79768 0
M  V30 2739 H 283.937 4.57458 0.554007 0
M  V30 2740 H 282.252 4.11179 0.657311 0
M  V30 2741 H 284.849 4.09471 3.43857 0
M  V30 2742 H 285.192 2.38238 3.41392 0
M  V30 2743 H 285.725 3.40475 2.05723 0
M  V30 2744 H 282.464 6.36318 1.57417 0
M  V30 2745 H 281.984 5.25937 2.88359 0
M  V30 2746 H 283.663 5.84401 2.77641 0
M  V30 2747 N 283.795 -0.628877 1.44509 0
M  V30 2748 C 284.725 -1.75187 1.54376 0
M  V30 2749 C 285.706 -1.65411 0.396618 0
M  V30 2750 O 286.891 -1.84137 0.617031 0
M  V30 2751 C 284.021 -3.13725 1.48976 0
M  V30 2752 C 282.975 -3.38291 2.62189 0
M  V30 2753 C 282.301 -4.76883 2.41841 0
M  V30 2754 C 283.601 -3.30632 4.04326 0
M  V30 2755 H 285.295 -1.67187 2.48373 0
M  V30 2756 H 282.841 -0.802909 1.19538 0
M  V30 2757 H 284.794 -3.92064 1.54478 0
M  V30 2758 H 283.518 -3.22515 0.514961 0
M  V30 2759 H 282.177 -2.62334 2.56079 0
M  V30 2760 H 281.825 -4.82378 1.42548 0
M  V30 2761 H 281.525 -4.94278 3.17747 0
M  V30 2762 H 283.049 -5.57449 2.49165 0
M  V30 2763 H 284.463 -3.98873 4.11793 0
M  V30 2764 H 282.86 -3.59561 4.80454 0
M  V30 2765 H 283.93 -2.28404 4.27738 0
M  V30 2766 N 285.273 -1.31445 -0.869486 0
M  V30 2767 C 286.223 -1.15731 -1.96444 0
M  V30 2768 C 287.207 -0.0681855 -1.60755 0
M  V30 2769 O 288.399 -0.293154 -1.74555 0
M  V30 2770 C 285.528 -0.867255 -3.32165 0
M  V30 2771 C 284.614 -1.99738 -3.74119 0
M  V30 2772 N 285.005 -3.24447 -3.88031 0
M  V30 2773 C 283.303 -1.89723 -4.03635 0
M  V30 2774 C 284.004 -3.98374 -4.23879 0
M  V30 2775 N 282.98 -3.26547 -4.3459 0
M  V30 2776 H 286.782 -2.10296 -2.05312 0
M  V30 2777 H 284.296 -1.23009 -1.06031 0
M  V30 2778 H 286.293 -0.735668 -4.10358 0
M  V30 2779 H 284.953 0.0701614 -3.24624 0
M  V30 2780 H 285.964 -3.59557 -3.72746 0
M  V30 2781 H 282.641 -1.03449 -4.04481 0
M  V30 2782 H 284.031 -5.05844 -4.42235 0
M  V30 2783 N 286.751 1.08385 -1.14413 0
M  V30 2784 C 287.714 2.13486 -0.834048 0
M  V30 2785 C 288.714 1.59988 0.161418 0
M  V30 2786 O 289.904 1.74071 -0.0669575 0
M  V30 2787 C 287.036 3.4003 -0.243354 0
M  V30 2788 H 288.229 2.42425 -1.7655 0
M  V30 2789 H 285.782 1.24101 -0.950189 0
M  V30 2790 H 286.517 3.16726 0.696807 0
M  V30 2791 H 286.302 3.80157 -0.960367 0
M  V30 2792 H 287.792 4.17577 -0.0436242 0
M  V30 2793 N 288.23 0.939286 1.26551 0
M  V30 2794 C 289.16 0.465044 2.28822 0
M  V30 2795 C 290.141 -0.480692 1.63167 0
M  V30 2796 O 291.326 -0.382955 1.90387 0
M  V30 2797 C 288.456 -0.27234 3.46231 0
M  V30 2798 C 287.41 0.58666 4.2396 0
M  V30 2799 C 286.736 -0.280573 5.33963 0
M  V30 2800 C 288.036 1.85704 4.88171 0
M  V30 2801 H 289.73 1.31979 2.68741 0
M  V30 2802 H 287.276 0.636061 1.29191 0
M  V30 2803 H 289.229 -0.615133 4.16886 0
M  V30 2804 H 287.953 -1.16121 3.0526 0
M  V30 2805 H 286.612 0.91232 3.55067 0
M  V30 2806 H 286.26 -1.16874 4.89234 0
M  V30 2807 H 285.96 0.29076 5.8688 0
M  V30 2808 H 287.484 -0.618678 6.07458 0
M  V30 2809 H 288.898 1.58161 5.51052 0
M  V30 2810 H 287.295 2.37279 5.51197 0
M  V30 2811 H 288.365 2.56957 4.11219 0
M  V30 2812 N 289.708 -1.40897 0.706093 0
M  V30 2813 C 291.119 -1.84023 0.315052 0
M  V30 2814 C 291.47 -1.5906 -1.14866 0
M  V30 2815 O 290.595 -1.06651 -1.88293 0
M  V30 2816 C 291.19 -3.34055 0.565038 0
M  V30 2817 C 289.749 -3.7571 0.227806 0
M  V30 2818 C 288.896 -2.64204 0.842122 0
M  V30 2819 H 291.847 -1.303 0.905963 0
M  V30 2820 H 291.868 -3.80107 -0.172843 0
M  V30 2821 H 291.38 -3.52192 1.63042 0
M  V30 2822 H 289.481 -3.63172 -0.832895 0
M  V30 2823 H 289.594 -4.74103 0.690174 0
M  V30 2824 H 287.958 -2.53255 0.270893 0
M  V30 2825 H 288.741 -2.85155 1.91158 0
M  V30 2826 N 291.186 -0.45159 -1.50991 0
M  V30 2827 C 292.096 0.358431 -2.31846 0
M  V30 2828 C 293.112 1.01438 -1.41373 0
M  V30 2829 O 294.288 1.00663 -1.74439 0
M  V30 2830 C 291.353 1.43704 -3.15515 0
M  V30 2831 C 290.414 0.799742 -4.21785 0
M  V30 2832 C 289.647 1.82696 -5.01456 0
M  V30 2833 O 289.87 3.05105 -4.81941 0
M  V30 2834 O 288.804 1.40958 -5.85162 0
M  V30 2835 H 292.63 -0.302032 -3.02194 0
M  V30 2836 H 290.215 -0.213825 -1.47862 0
M  V30 2837 H 292.097 2.06227 -3.67489 0
M  V30 2838 H 290.772 2.08133 -2.47916 0
M  V30 2839 H 289.679 0.136084 -3.73852 0
M  V30 2840 H 291.012 0.198718 -4.91799 0
M  V30 2841 N 292.664 1.56529 -0.183458 0
M  V30 2842 C 293.594 2.21549 0.737456 0
M  V30 2843 C 294.575 1.17489 1.23005 0
M  V30 2844 O 295.76 1.45959 1.281 0
M  V30 2845 C 292.89 2.86575 1.96194 0
M  V30 2846 C 291.844 3.96778 1.60473 0
M  V30 2847 C 291.17 4.48911 2.90487 0
M  V30 2848 C 292.47 5.15767 0.823497 0
M  V30 2849 H 294.164 2.98761 0.195453 0
M  V30 2850 H 291.71 1.43702 0.0925686 0
M  V30 2851 H 293.663 3.30739 2.61131 0
M  V30 2852 H 292.387 2.06749 2.52828 0
M  V30 2853 H 291.046 3.53286 0.978997 0
M  V30 2854 H 290.694 3.65862 3.45186 0
M  V30 2855 H 290.394 5.23265 2.67335 0
M  V30 2856 H 291.918 4.95771 3.56432 0
M  V30 2857 H 293.332 5.56549 1.37571 0
M  V30 2858 H 291.729 5.96114 0.690551 0
M  V30 2859 H 292.799 4.84574 -0.177782 0
M  V30 2860 N 294.142 -0.090211 1.57342 0
M  V30 2861 C 295.388 -0.793982 1.86611 0
M  V30 2862 C 295.721 -1.78142 0.773252 0
M  V30 2863 O 294.996 -1.93271 -0.218304 0
M  V30 2864 C 295.279 -1.51839 3.26523 0
M  V30 2865 C 295.132 -0.548609 4.46442 0
M  V30 2866 C 296.451 -2.46779 3.64401 0
M  V30 2867 H 293.57 -0.287186 0.678744 0
M  V30 2868 H 296.212 -0.0575076 1.89913 0
M  V30 2869 H 294.362 -2.14617 3.23839 0
M  V30 2870 H 296.034 0.0725513 4.61243 0
M  V30 2871 H 294.277 0.137614 4.33582 0
M  V30 2872 H 294.948 -1.09271 5.41076 0
M  V30 2873 H 297.424 -1.94089 3.68061 0
M  V30 2874 H 296.3 -2.94479 4.63221 0
M  V30 2875 H 296.561 -3.30758 2.93346 0
M  V30 2876 N 295.62 -1.53406 -0.361157 0
M  V30 2877 C 296.583 -1.79479 -1.42548 0
M  V30 2878 C 297.583 -0.665327 -1.4639 0
M  V30 2879 O 298.773 -0.933549 -1.47073 0
M  V30 2880 C 295.905 -1.92087 -2.8163 0
M  V30 2881 H 297.098 -2.74538 -1.20701 0
M  V30 2882 H 294.651 -1.4455 -0.594546 0
M  V30 2883 H 295.386 -0.991099 -3.08784 0
M  V30 2884 H 295.171 -2.74241 -2.80239 0
M  V30 2885 H 296.661 -2.13836 -3.58697 0
M  V30 2886 N 297.098 0.621204 -1.44841 0
M  V30 2887 C 298.326 1.40752 -1.51646 0
M  V30 2888 C 298.741 1.88246 -0.144549 0
M  V30 2889 O 298.098 1.61422 0.851416 0
M  V30 2890 C 298.149 2.62119 -2.4895 0
M  V30 2891 O 297.87 2.16602 -3.80808 0
M  V30 2892 C 299.371 3.55135 -2.65319 0
M  V30 2893 H 296.591 0.431325 -0.514004 0
M  V30 2894 H 299.135 0.758835 -1.899 0
M  V30 2895 H 297.29 3.23058 -2.13805 0
M  V30 2896 H 297.704 2.95358 -4.33433 0
M  V30 2897 H 299.178 4.36874 -3.37409 0
M  V30 2898 H 299.655 4.04592 -1.70886 0
M  V30 2899 H 300.261 3.00058 -3.01405 0
M  V30 2900 N 298.576 1.31904 0.862503 0
M  V30 2901 C 299.824 1.21776 1.61292 0
M  V30 2902 C 300.145 -0.222413 1.93727 0
M  V30 2903 O 299.415 -1.1451 1.58947 0
M  V30 2904 H 297.995 0.447717 0.597962 0
M  V30 2905 H 300.657 1.65326 1.03215 0
M  V30 2906 H 299.753 1.7948 2.5533 0
M  V30 2907 N 300.054 -1.07777 1.14986 0
M  V30 2908 C 301.303 -1.79669 0.916617 0
M  V30 2909 C 301.616 -1.87474 -0.557917 0
M  V30 2910 O 302.822 -2.55845 -0.908617 0
M  V30 2911 C 301.278 -3.22848 1.59051 0
M  V30 2912 C 300.886 -3.23257 3.10176 0
M  V30 2913 C 302.63 -3.99379 1.43864 0
M  V30 2914 C 300.537 -4.61063 3.70372 0
M  V30 2915 H 299.467 -0.673349 0.33929 0
M  V30 2916 H 302.118 -1.21003 1.37951 0
M  V30 2917 H 300.5 -3.8168 1.0553 0
M  V30 2918 H 301.674 -2.74095 3.70417 0
M  V30 2919 H 299.989 -2.60222 3.25074 0
M  V30 2920 H 302.586 -5.0122 1.86232 0
M  V30 2921 H 302.929 -4.14511 0.385564 0
M  V30 2922 H 303.462 -3.47032 1.94457 0
M  V30 2923 H 300.201 -4.51135 4.7556 0
M  V30 2924 H 299.721 -5.1048 3.14913 0
M  V30 2925 H 301.4 -5.30034 3.71043 0
M  V30 2926 N 301.532 -0.945985 -1.26051 0
M  V30 2927 C 302.943 -0.638096 -1.75457 0
M  V30 2928 C 303.294 0.846672 -1.76991 0
M  V30 2929 O 302.419 1.66262 -1.38513 0
M  V30 2930 C 303.014 -1.15157 -3.18629 0
M  V30 2931 C 301.573 -0.894004 -3.65629 0
M  V30 2932 C 300.72 -1.29967 -2.44957 0
M  V30 2933 H 303.671 -1.12376 -1.1206 0
M  V30 2934 H 303.692 -0.507615 -3.77099 0
M  V30 2935 H 303.204 -2.23222 -3.1748 0
M  V30 2936 H 301.305 0.172057 -3.72203 0
M  V30 2937 H 301.418 -1.52439 -4.54202 0
M  V30 2938 H 299.782 -0.718078 -2.44368 0
M  V30 2939 H 300.565 -2.38935 -2.46505 0
M  V30 2940 N 303.011 1.40521 -0.713556 0
M  V30 2941 C 304.257 2.01221 -0.252564 0
M  V30 2942 C 304.59 1.56444 1.1506 0
M  V30 2943 O 303.865 0.783597 1.78017 0
M  V30 2944 C 304.148 3.58582 -0.330332 0
M  V30 2945 C 304.001 4.13437 -1.77173 0
M  V30 2946 C 305.32 4.39079 0.299641 0
M  V30 2947 H 302.439 0.731077 -0.0932471 0
M  V30 2948 H 305.081 1.67026 -0.905673 0
M  V30 2949 H 303.231 3.87844 0.225737 0
M  V30 2950 H 304.903 3.9498 -2.38303 0
M  V30 2951 H 303.146 3.67801 -2.3001 0
M  V30 2952 H 303.817 5.22597 -1.77755 0
M  V30 2953 H 306.293 4.15735 -0.174139 0
M  V30 2954 H 305.169 5.4848 0.214771 0
M  V30 2955 H 305.43 4.19915 1.38288 0
M  V30 2956 N 304.489 0.459591 1.5075 0
M  V30 2957 C 305.419 -0.330644 2.31147 0
M  V30 2958 C 306.4 -1.00087 1.37538 0
M  V30 2959 O 307.585 -1.00025 1.66459 0
M  V30 2960 C 304.715 -1.41958 3.16962 0
M  V30 2961 C 303.669 -0.871608 4.19031 0
M  V30 2962 C 302.995 -2.05797 4.9351 0
M  V30 2963 C 304.295 0.109251 5.22186 0
M  V30 2964 H 305.989 0.340336 2.97459 0
M  V30 2965 H 303.535 0.165119 1.4305 0
M  V30 2966 H 305.488 -1.9798 3.71997 0
M  V30 2967 H 304.212 -2.11917 2.48513 0
M  V30 2968 H 302.871 -0.333442 3.6508 0
M  V30 2969 H 302.519 -2.74427 4.21544 0
M  V30 2970 H 302.219 -1.6976 5.62544 0
M  V30 2971 H 303.743 -2.62331 5.51375 0
M  V30 2972 H 305.157 -0.361405 5.7216 0
M  V30 2973 H 303.554 0.383316 5.98875 0
M  V30 2974 H 304.624 1.03887 4.73641 0
M  V30 2975 N 305.967 -1.56429 0.191757 0
M  V30 2976 C 307.213 -1.97777 -0.448554 0
M  V30 2977 C 307.546 -1.07847 -1.61501 0
M  V30 2978 O 306.821 -0.129774 -1.94067 0
M  V30 2979 C 307.104 -3.48362 -0.911906 0
M  V30 2980 C 306.957 -4.4907 0.256136 0
M  V30 2981 C 308.276 -4.02561 -1.77857 0
M  V30 2982 H 305.395 -0.719071 -0.161572 0
M  V30 2983 H 308.037 -1.87896 0.282007 0
M  V30 2984 H 306.187 -3.56914 -1.53442 0
M  V30 2985 H 307.859 -4.5256 0.893733 0
M  V30 2986 H 306.102 -4.24181 0.908436 0
M  V30 2987 H 306.773 -5.51889 -0.11053 0
M  V30 2988 H 309.249 -3.96767 -1.25359 0
M  V30 2989 H 308.125 -5.08301 -2.07174 0
M  V30 2990 H 308.386 -3.47616 -2.73158 0
M  V30 2991 N 307.445 0.0818655 -1.57387 0
M  V30 2992 C 308.693 0.781368 -1.86384 0
M  V30 2993 C 309.014 1.78618 -0.782342 0
M  V30 2994 O 308.284 1.94976 0.190061 0
M  V30 2995 H 306.864 0.291562 -0.687751 0
M  V30 2996 H 309.526 0.060348 -1.94807 0
M  V30 2997 H 308.622 1.3038 -2.83562 0
M  V30 2998 N 308.923 1.53595 0.353017 0
M  V30 2999 C 309.886 1.80232 1.41594 0
M  V30 3000 C 310.886 0.673081 1.46035 0
M  V30 3001 O 312.076 0.941335 1.46576 0
M  V30 3002 C 309.208 1.93578 2.80607 0
M  V30 3003 H 310.401 2.75174 1.19244 0
M  V30 3004 H 307.954 1.44864 0.586872 0
M  V30 3005 H 308.689 1.00746 3.08254 0
M  V30 3006 H 308.474 2.75724 2.78781 0
M  V30 3007 H 309.964 2.15735 3.57558 0
M  V30 3008 N 310.401 -0.613514 1.45168 0
M  V30 3009 C 311.626 -1.40437 1.52618 0
M  V30 3010 C 312.051 -1.87438 0.157707 0
M  V30 3011 O 311.409 -1.59791 -0.856537 0
M  V30 3012 C 311.457 -2.58894 2.51011 0
M  V30 3013 O 310.561 -3.59326 2.02382 0
M  V30 3014 H 309.902 -0.419506 0.514695 0
M  V30 3015 H 312.432 -0.747215 1.90467 0
M  V30 3016 H 312.442 -3.06214 2.69624 0
M  V30 3017 H 311.117 -2.24032 3.50403 0
M  V30 3018 H 309.694 -3.18695 1.93618 0
M  V30 3019 N 311.879 -1.3236 -0.855495 0
M  V30 3020 C 313.295 -1.11332 -1.14356 0
M  V30 3021 C 313.495 0.106751 -2.01217 0
M  V30 3022 O 312.551 0.791891 -2.39761 0
M  V30 3023 C 313.864 -2.39237 -1.82171 0
M  V30 3024 C 315.412 -2.44986 -1.9481 0
M  V30 3025 C 315.887 -3.7281 -2.66039 0
M  V30 3026 N 317.378 -3.73787 -2.73565 0
M  V30 3027 C 318.113 -4.69394 -3.29327 0
M  V30 3028 N 317.609 -5.75367 -3.85907 0
M  V30 3029 N 319.402 -4.56893 -3.27423 0
M  V30 3030 H 311.553 -2.10586 -0.277027 0
M  V30 3031 H 313.816 -0.929701 -0.185364 0
M  V30 3032 H 313.522 -3.28431 -1.25802 0
M  V30 3033 H 313.396 -2.50134 -2.82335 0
M  V30 3034 H 315.783 -1.56252 -2.50338 0
M  V30 3035 H 315.864 -2.38043 -0.936448 0
M  V30 3036 H 315.508 -4.61918 -2.11174 0
M  V30 3037 H 315.438 -3.77024 -3.67642 0
M  V30 3038 H 317.929 -2.97189 -2.33424 0
M  V30 3039 H 318.242 -6.44378 -4.26611 0
M  V30 3040 H 316.587 -5.79123 -3.84242 0
M  V30 3041 H 319.778 -3.73269 -2.82467 0
M  V30 3042 H 319.951 -5.31577 -3.7058 0
M  V30 3043 N 313.357 1.07166 -1.15556 0
M  V30 3044 C 314.304 2.14417 -0.854055 0
M  V30 3045 C 315.274 1.64965 0.193806 0
M  V30 3046 O 316.459 1.90703 0.0609443 0
M  V30 3047 C 313.599 3.43304 -0.351574 0
M  V30 3048 C 312.712 4.06537 -1.46123 0
M  V30 3049 C 311.847 5.23266 -0.914677 0
M  V30 3050 C 310.886 5.78464 -2.00114 0
M  V30 3051 N 310.023 6.86521 -1.47083 0
M  V30 3052 H 314.863 2.39548 -1.77259 0
M  V30 3053 H 312.4 1.17543 -0.884425 0
M  V30 3054 H 314.358 4.17179 -0.0419409 0
M  V30 3055 H 312.988 3.18419 0.530037 0
M  V30 3056 H 312.04 3.30297 -1.88701 0
M  V30 3057 H 313.352 4.43567 -2.28144 0
M  V30 3058 H 312.506 6.04131 -0.557698 0
M  V30 3059 H 311.245 4.87658 -0.0636583 0
M  V30 3060 H 310.25 4.96243 -2.36692 0
M  V30 3061 H 311.475 6.16126 -2.85597 0
M  V30 3062 H 309.421 6.52849 -0.642198 0
M  V30 3063 H 309.338 7.22446 -2.22729 0
M  V30 3064 H 310.606 7.71087 -1.14215 0
M  V30 3065 N 314.835 0.952656 1.25548 0
M  V30 3066 C 316.251 0.656769 1.4546 0
M  V30 3067 C 316.451 -0.78633 1.85524 0
M  V30 3068 O 315.507 -1.56183 1.98402 0
M  V30 3069 C 316.82 1.62801 2.52817 0
M  V30 3070 C 318.368 1.63897 2.66659 0
M  V30 3071 C 318.843 2.5978 3.77198 0
M  V30 3072 N 320.334 2.58133 3.84606 0
M  V30 3073 C 321.069 3.29003 4.69621 0
M  V30 3074 N 320.565 4.09339 5.58939 0
M  V30 3075 N 322.358 3.179 4.63569 0
M  V30 3076 H 314.509 1.88526 0.978344 0
M  V30 3077 H 316.772 0.810815 0.491206 0
M  V30 3078 H 316.478 2.65869 2.30232 0
M  V30 3079 H 316.352 1.38898 3.50695 0
M  V30 3080 H 318.739 0.615481 2.8861 0
M  V30 3081 H 318.82 1.91858 1.69187 0
M  V30 3082 H 318.464 3.62254 3.55997 0
M  V30 3083 H 318.394 2.29105 4.7415 0
M  V30 3084 H 320.885 1.99809 3.20757 0
M  V30 3085 H 321.198 4.6034 6.20731 0
M  V30 3086 H 319.543 4.13438 5.58654 0
M  V30 3087 H 322.734 2.54612 3.92798 0
M  V30 3088 H 322.907 3.73398 5.29602 0
M  V30 3089 N 316.313 -1.40141 0.720998 0
M  V30 3090 C 317.56 -2.00787 0.262842 0
M  V30 3091 C 317.888 -1.5718 -1.14563 0
M  V30 3092 O 317.143 -0.785391 -1.79249 0
M  V30 3093 C 317.442 -3.56165 0.296892 0
M  V30 3094 C 317.108 -4.19373 1.65641 0
M  V30 3095 C 315.77 -4.36352 2.02855 0
M  V30 3096 C 318.122 -4.54578 2.54968 0
M  V30 3097 C 315.45 -4.8582 3.28931 0
M  V30 3098 C 317.802 -5.05447 3.80402 0
M  V30 3099 C 316.466 -5.20635 4.17726 0
M  V30 3100 H 315.736 -0.734731 0.0961807 0
M  V30 3101 H 318.383 -1.67673 0.925093 0
M  V30 3102 H 316.688 -3.8922 -0.448932 0
M  V30 3103 H 318.385 -4.00929 -0.0755208 0
M  V30 3104 H 314.975 -4.06549 1.35704 0
M  V30 3105 H 319.159 -4.41091 2.27491 0
M  V30 3106 H 314.415 -4.95764 3.57811 0
M  V30 3107 H 318.589 -5.31663 4.49786 0
M  V30 3108 H 316.216 -5.58728 5.15487 0
M  V30 3109 N 317.792 -0.46758 -1.50504 0
M  V30 3110 C 318.722 0.318381 -2.31319 0
M  V30 3111 C 319.703 0.993564 -1.38066 0
M  V30 3112 O 320.888 0.991411 -1.66987 0
M  V30 3113 C 318.018 1.40275 -3.17711 0
M  V30 3114 C 316.972 0.849373 -4.19487 0
M  V30 3115 C 316.298 2.03177 -4.94594 0
M  V30 3116 C 317.598 -0.136942 -5.2212 0
M  V30 3117 H 319.292 -0.356106 -2.97275 0
M  V30 3118 H 316.838 -0.172703 -1.42961 0
M  V30 3119 H 318.791 1.96004 -3.73042 0
M  V30 3120 H 317.515 2.10596 -2.49634 0
M  V30 3121 H 316.174 0.314076 -3.65252 0
M  V30 3122 H 315.822 2.72187 -4.22993 0
M  V30 3123 H 315.522 1.66774 -5.63436 0
M  V30 3124 H 317.046 2.59403 -5.52759 0
M  V30 3125 H 318.46 0.331056 -5.72343 0
M  V30 3126 H 316.857 -0.41507 -5.98663 0
M  V30 3127 H 317.927 -1.06398 -4.73083 0
M  V30 3128 N 319.27 1.56325 -0.20005 0
M  V30 3129 C 320.518 1.97329 0.436547 0
M  V30 3130 C 320.839 1.08826 1.61808 0
M  V30 3131 O 320.109 0.160604 1.95241 0
M  V30 3132 H 318.689 0.728714 0.164272 0
M  V30 3133 H 321.351 1.92761 -0.287937 0
M  V30 3134 H 320.447 3.02264 0.777353 0
M  V30 3135 N 320.748 -0.0735177 1.57428 0
M  V30 3136 C 321.711 -1.07192 2.02589 0
M  V30 3137 C 322.711 -1.31695 0.922661 0
M  V30 3138 O 323.901 -1.27445 1.18758 0
M  V30 3139 C 321.033 -2.41599 2.40506 0
M  V30 3140 H 322.226 -0.682727 2.92025 0
M  V30 3141 H 319.779 -0.319193 1.53006 0
M  V30 3142 H 320.514 -2.85354 1.5409 0
M  V30 3143 H 320.299 -2.25156 3.21009 0
M  V30 3144 H 321.789 -3.13367 2.76027 0
M  V30 3145 N 322.226 -1.5378 -0.344866 0
M  V30 3146 C 323.156 -1.84662 -1.42906 0
M  V30 3147 C 324.137 -0.701648 -1.54955 0
M  V30 3148 O 325.322 -0.953438 -1.69184 0
M  V30 3149 C 322.452 -2.05503 -2.79974 0
M  V30 3150 C 321.406 -3.21318 -2.82734 0
M  V30 3151 C 320.732 -3.2749 -4.22675 0
M  V30 3152 C 322.032 -4.59456 -2.48389 0
M  V30 3153 H 323.726 -2.75461 -1.17311 0
M  V30 3154 H 321.272 -1.32542 -0.562896 0
M  V30 3155 H 323.225 -2.25691 -3.55867 0
M  V30 3156 H 321.949 -1.11434 -3.07002 0
M  V30 3157 H 320.608 -3.00984 -2.09294 0
M  V30 3158 H 320.256 -2.31019 -4.4681 0
M  V30 3159 H 319.956 -4.05316 -4.25433 0
M  V30 3160 H 321.48 -3.49887 -5.00412 0
M  V30 3161 H 322.894 -4.79667 -3.13995 0
M  V30 3162 H 321.291 -5.39675 -2.62432 0
M  V30 3163 H 322.361 -4.63155 -1.4358 0
M  V30 3164 N 323.704 0.605807 -1.45491 0
M  V30 3165 C 324.634 1.72709 -1.57143 0
M  V30 3166 C 325.615 1.6476 -0.422884 0
M  V30 3167 O 326.8 1.83132 -0.646247 0
M  V30 3168 C 323.93 3.11316 -1.53948 0
M  V30 3169 C 322.884 3.34077 -2.67537 0
M  V30 3170 C 322.21 4.72975 -2.49397 0
M  V30 3171 C 323.51 3.24158 -4.09535 0
M  V30 3172 H 325.204 1.63214 -2.51001 0
M  V30 3173 H 322.75 0.78379 -1.208 0
M  V30 3174 H 324.703 3.89557 -1.60696 0
M  V30 3175 H 323.427 3.21655 -0.566205 0
M  V30 3176 H 322.086 2.58227 -2.6022 0
M  V30 3177 H 321.734 4.8005 -1.50205 0
M  V30 3178 H 321.434 4.8916 -3.25571 0
M  V30 3179 H 322.958 5.53414 -2.58002 0
M  V30 3180 H 324.372 3.92271 -4.18086 0
M  V30 3181 H 322.769 3.51872 -4.86113 0
M  V30 3182 H 323.839 2.2157 -4.31317 0
M  V30 3183 N 325.182 1.32811 0.848464 0
M  V30 3184 C 326.145 1.22194 1.9391 0
M  V30 3185 C 327.145 0.143404 1.60159 0
M  V30 3186 O 328.335 0.394253 1.6968 0
M  V30 3187 C 325.467 0.88067 3.29328 0
M  V30 3188 H 326.66 2.19127 2.04752 0
M  V30 3189 H 324.213 1.16731 1.0394 0
M  V30 3190 H 324.948 -0.0865776 3.24184 0
M  V30 3191 H 324.733 1.66052 3.55203 0
M  V30 3192 H 326.223 0.830871 4.09251 0
M  V30 3193 N 326.66 -1.06551 1.16123 0
M  V30 3194 C 327.908 -1.78947 0.939267 0
M  V30 3195 C 328.229 -1.87532 -0.534476 0
M  V30 3196 O 327.499 -1.38211 -1.38833 0
M  V30 3197 H 326.079 -0.662807 0.344523 0
M  V30 3198 H 328.741 -1.28725 1.46342 0
M  V30 3199 H 327.837 -2.81117 1.35572 0
M  V30 3200 N 328.138 -0.959301 -1.25041 0
M  V30 3201 C 329.549 -0.65667 -1.74771 0
M  V30 3202 C 329.9 0.827852 -1.77879 0
M  V30 3203 O 329.025 1.64783 -1.40269 0
M  V30 3204 C 329.62 -1.1853 -3.1739 0
M  V30 3205 C 328.179 -0.932734 -3.6466 0
M  V30 3206 C 327.326 -1.32558 -2.43564 0
M  V30 3207 H 330.277 -1.13558 -1.10862 0
M  V30 3208 H 330.298 -0.547582 -3.76539 0
M  V30 3209 H 329.81 -2.26576 -3.15095 0
M  V30 3210 H 327.911 0.13257 -3.72364 0
M  V30 3211 H 328.024 -1.57248 -4.52559 0
M  V30 3212 H 326.388 -0.743956 -2.43593 0
M  V30 3213 H 327.171 -2.41537 -2.43957 0
M  V30 3214 N 329.616 1.39756 -0.72842 0
M  V30 3215 C 330.893 1.94574 -0.200079 0
M  V30 3216 C 331.273 1.66569 1.29684 0
M  V30 3217 O 330.621 0.990326 2.05924 0
M  V30 3218 C 330.831 3.45004 -0.526608 0
M  V30 3219 C 332.179 4.21965 -0.472318 0
M  V30 3220 O 333.203 3.53173 -0.463413 0
M  V30 3221 O 332.062 5.44552 -0.461075 0
M  V30 3222 H 329.156 0.826289 -0.0342851 0
M  V30 3223 H 331.702 1.49293 -0.806829 0
M  V30 3224 H 330.474 3.58796 -1.56144 0
M  V30 3225 H 330.097 3.97449 0.109449 0
M  V30 3226 N 331.094 0.475555 1.50254 0
M  V30 3227 C 332.342 -0.077738 2.0195 0
M  V30 3228 C 332.663 -1.39813 1.35931 0
M  V30 3229 O 331.933 -1.89249 0.506123 0
M  V30 3230 H 330.513 -0.031719 0.746326 0
M  V30 3231 H 333.175 0.626995 1.84539 0
M  V30 3232 H 332.271 -0.225995 3.11281 0
M  V30 3233 N 332.573 -1.56217 0.208337 0
M  V30 3234 C 333.819 -1.98242 -0.427552 0
M  V30 3235 C 334.152 -1.09554 -1.60348 0
M  V30 3236 O 333.427 -0.15035 -1.93918 0
M  V30 3237 C 333.71 -3.4931 -0.874907 0
M  V30 3238 C 333.563 -4.48773 0.303751 0
M  V30 3239 C 334.882 -4.04424 -1.73577 0
M  V30 3240 H 332.001 -0.720744 -0.153936 0
M  V30 3241 H 334.643 -1.87586 0.30192 0
M  V30 3242 H 332.793 -3.58522 -1.49648 0
M  V30 3243 H 334.465 -4.51586 0.941682 0
M  V30 3244 H 332.708 -4.23194 0.953375 0
M  V30 3245 H 333.379 -5.51976 -0.0519883 0
M  V30 3246 H 335.855 -3.98075 -1.21143 0
M  V30 3247 H 334.731 -5.1047 -2.01771 0
M  V30 3248 H 334.992 -3.50494 -2.69456 0
M  V30 3249 N 334.051 0.0651679 -1.57465 0
M  V30 3250 C 334.984 1.10876 -1.99453 0
M  V30 3251 C 335.962 1.37205 -0.872555 0
M  V30 3252 O 337.146 1.50468 -1.13542 0
M  V30 3253 C 334.273 2.45167 -2.3369 0
M  V30 3254 C 333.319 2.3493 -3.55964 0
M  V30 3255 S 334.152 1.73708 -5.06543 0
M  V30 3256 C 335.308 3.09563 -5.43987 0
M  V30 3257 H 335.541 0.750967 -2.87659 0
M  V30 3258 H 333.074 0.273933 -1.51951 0
M  V30 3259 H 335.032 3.22412 -2.54088 0
M  V30 3260 H 333.693 2.78105 -1.46001 0
M  V30 3261 H 332.886 3.3398 -3.77457 0
M  V30 3262 H 332.488 1.65823 -3.3523 0
M  V30 3263 H 334.78 4.05882 -5.42463 0
M  V30 3264 H 335.723 2.92843 -6.44708 0
M  V30 3265 H 336.131 3.10474 -4.71451 0
M  V30 3266 N 335.529 1.53961 0.336706 0
M  V30 3267 C 336.945 1.44378 0.680241 0
M  V30 3268 C 337.145 0.606034 1.9217 0
M  V30 3269 O 336.201 0.099688 2.52303 0
M  V30 3270 C 337.514 2.87945 0.8665 0
M  V30 3271 C 339.062 2.97763 0.964682 0
M  V30 3272 C 339.537 4.42453 1.18321 0
M  V30 3273 N 341.028 4.46008 1.25025 0
M  V30 3274 C 341.763 5.55102 1.43697 0
M  V30 3275 N 341.259 6.7419 1.59498 0
M  V30 3276 N 343.052 5.42727 1.463 0
M  V30 3277 H 335.203 2.06918 -0.479455 0
M  V30 3278 H 337.466 0.935634 -0.152619 0
M  V30 3279 H 337.172 3.51691 0.0256937 0
M  V30 3280 H 337.046 3.33293 1.76623 0
M  V30 3281 H 339.433 2.34153 1.796 0
M  V30 3282 H 339.514 2.55766 0.041708 0
M  V30 3283 H 339.158 5.06645 0.356788 0
M  V30 3284 H 339.088 4.82048 2.11985 0
M  V30 3285 H 341.579 3.60196 1.14312 0
M  V30 3286 H 341.892 7.53095 1.734 0
M  V30 3287 H 340.237 6.77123 1.56621 0
M  V30 3288 H 343.428 4.48647 1.33543 0
M  V30 3289 H 343.601 6.27806 1.6051 0
M  V30 3290 N 337.007 -0.598083 1.45811 0
M  V30 3291 C 338.418 -1.18011 1.44673 0
M  V30 3292 C 338.769 -1.95378 0.179364 0
M  V30 3293 O 337.894 -2.04124 -0.718509 0
M  V30 3294 C 338.489 -2.14677 2.62105 0
M  V30 3295 C 337.048 -2.68236 2.64057 0
M  V30 3296 C 336.195 -1.43816 2.37091 0
M  V30 3297 H 339.146 -0.38686 1.53913 0
M  V30 3298 H 339.167 -2.97878 2.36746 0
M  V30 3299 H 338.679 -1.5834 3.5433 0
M  V30 3300 H 336.78 -3.28486 1.75864 0
M  V30 3301 H 336.893 -3.12021 3.63566 0
M  V30 3302 H 335.257 -1.731 1.86838 0
M  V30 3303 H 336.04 -0.893333 3.31473 0
M  V30 3304 N 338.485 -1.33259 -0.841409 0
M  V30 3305 C 339.713 -1.27605 -1.62864 0
M  V30 3306 C 340.128 0.153507 -1.88175 0
M  V30 3307 O 339.485 1.09485 -1.46011 0
M  V30 3308 C 339.536 -2.04596 -2.98031 0
M  V30 3309 O 339.257 -3.41975 -2.73834 0
M  V30 3310 C 340.758 -2.06122 -3.92465 0
M  V30 3311 H 337.978 -0.439718 -0.506842 0
M  V30 3312 H 340.522 -1.75591 -1.04824 0
M  V30 3313 H 338.677 -1.60299 -3.5268 0
M  V30 3314 H 339.091 -3.81549 -3.59889 0
M  V30 3315 H 340.565 -2.64451 -4.84531 0
M  V30 3316 H 341.042 -1.05083 -4.26444 0
M  V30 3317 H 341.648 -2.50427 -3.43753 0
M  V30 3318 N 339.963 1.05934 -1.16686 0
M  V30 3319 C 341.24 1.75643 -0.860747 0
M  V30 3320 C 341.62 2.01144 0.640641 0
M  V30 3321 O 340.968 1.64147 1.58959 0
M  V30 3322 C 341.178 3.05493 -1.68745 0
M  V30 3323 C 342.526 3.79581 -1.90271 0
M  V30 3324 O 343.55 3.15344 -1.65641 0
M  V30 3325 O 342.409 4.9499 -2.31618 0
M  V30 3326 H 339.503 0.763426 -0.317977 0
M  V30 3327 H 342.049 1.1217 -1.27342 0
M  V30 3328 H 340.821 2.8264 -2.70611 0
M  V30 3329 H 340.444 3.76702 -1.27206 0
M  V30 3330 N 341.441 0.965919 1.2453 0
M  V30 3331 C 342.689 0.625593 1.92174 0
M  V30 3332 C 343.01 -0.841652 1.75901 0
M  V30 3333 O 342.28 -1.60061 1.12948 0
M  V30 3334 H 340.86 0.228388 0.71123 0
M  V30 3335 H 343.522 1.2266 1.51461 0
M  V30 3336 H 342.618 0.864653 2.99884 0
M  V30 3337 N 342.919 -1.39368 0.735821 0
M  V30 3338 C 344.335 -1.54204 0.411492 0
M  V30 3339 C 344.535 -1.70268 -1.07755 0
M  V30 3340 O 343.591 -1.70364 -1.86366 0
M  V30 3341 C 344.904 -2.75925 1.19523 0
M  V30 3342 C 346.452 -2.89761 1.18354 0
M  V30 3343 C 346.927 -4.14421 1.94986 0
M  V30 3344 N 348.418 -4.21462 1.92156 0
M  V30 3345 C 349.153 -5.16871 2.48258 0
M  V30 3346 N 348.649 -6.18063 3.13001 0
M  V30 3347 N 350.442 -5.09093 2.38287 0
M  V30 3348 H 342.593 -1.27189 1.70108 0
M  V30 3349 H 344.856 -0.616517 0.720147 0
M  V30 3350 H 344.562 -2.70401 2.24892 0
M  V30 3351 H 344.436 -3.68614 0.800222 0
M  V30 3352 H 346.823 -2.94777 0.137975 0
M  V30 3353 H 346.904 -1.98133 1.61793 0
M  V30 3354 H 346.548 -4.10166 2.99543 0
M  V30 3355 H 346.478 -5.05095 1.48953 0
M  V30 3356 H 348.969 -3.48979 1.44991 0
M  V30 3357 H 349.282 -6.87326 3.53275 0
M  V30 3358 H 347.627 -6.18448 3.17091 0
M  V30 3359 H 350.818 -4.28973 1.8735 0
M  V30 3360 H 350.991 -5.83272 2.82308 0
M  V30 3361 N 344.397 -0.483516 -1.5 0
M  V30 3362 C 345.674 0.129337 -1.95172 0
M  V30 3363 C 346.054 1.55802 -1.4244 0
M  V30 3364 O 345.402 2.19625 -0.630649 0
M  V30 3365 C 345.612 0.0599251 -3.48949 0
M  V30 3366 C 346.96 0.242617 -4.23906 0
M  V30 3367 O 347.984 0.135933 -3.55941 0
M  V30 3368 O 346.843 0.459454 -5.44565 0
M  V30 3369 H 343.937 0.104887 -0.820322 0
M  V30 3370 H 346.483 -0.544807 -1.60717 0
M  V30 3371 H 345.255 -0.937079 -3.79914 0
M  V30 3372 H 344.878 0.774984 -3.89974 0
M  V30 3373 N 345.875 1.56104 -0.216619 0
M  V30 3374 C 347.103 2.02563 0.421413 0
M  V30 3375 C 347.518 1.0965 1.53695 0
M  V30 3376 O 346.875 0.10521 1.82196 0
M  V30 3377 C 346.926 3.48584 0.957665 0
M  V30 3378 O 346.647 4.37953 -0.113389 0
M  V30 3379 C 348.148 4.10664 1.66943 0
M  V30 3380 H 345.368 0.662944 0.103665 0
M  V30 3381 H 347.912 2.01793 -0.331629 0
M  V30 3382 H 346.067 3.49985 1.661 0
M  V30 3383 H 346.481 5.23704 0.288932 0
M  V30 3384 H 347.955 5.14622 1.99671 0
M  V30 3385 H 348.432 3.55373 2.58083 0
M  V30 3386 H 349.038 4.13098 1.01142 0
M  V30 3387 N 347.353 -0.0568162 1.57498 0
M  V30 3388 C 348.316 -1.05038 2.03715 0
M  V30 3389 C 349.316 -1.30709 0.936577 0
M  V30 3390 O 350.506 -1.26178 1.20103 0
M  V30 3391 C 347.638 -2.39034 2.43055 0
M  V30 3392 H 348.831 -0.651715 2.92733 0
M  V30 3393 H 346.384 -0.302947 1.53336 0
M  V30 3394 H 347.119 -2.83703 1.57108 0
M  V30 3395 H 346.904 -2.21739 3.2338 0
M  V30 3396 H 348.394 -3.10421 2.79336 0
M  V30 3397 N 348.832 -1.54138 -0.328536 0
M  V30 3398 C 350.06 -1.76062 -1.08673 0
M  V30 3399 C 350.475 -0.506852 -1.81869 0
M  V30 3400 O 349.832 0.522223 -1.74869 0
M  V30 3401 C 349.883 -2.95054 -2.08866 0
M  V30 3402 O 349.604 -4.15583 -1.38644 0
M  V30 3403 C 351.105 -3.2915 -2.96943 0
M  V30 3404 H 348.325 -0.587889 -0.323461 0
M  V30 3405 H 350.869 -2.0101 -0.376175 0
M  V30 3406 H 349.024 -2.72394 -2.75464 0
M  V30 3407 H 349.438 -4.82481 -2.05699 0
M  V30 3408 H 350.912 -4.15723 -3.63151 0
M  V30 3409 H 351.389 -2.461 -3.63774 0
M  V30 3410 H 351.995 -3.53871 -2.35914 0
M  V30 3411 N 350.31 0.590341 -1.46126 0
M  V30 3412 C 351.273 1.68194 -1.55703 0
M  V30 3413 C 352.273 1.54808 -0.434868 0
M  V30 3414 O 353.463 1.59564 -0.698928 0
M  V30 3415 C 350.595 3.07575 -1.47005 0
M  V30 3416 H 351.788 1.61064 -2.52979 0
M  V30 3417 H 349.341 0.807541 -1.33823 0
M  V30 3418 H 350.076 3.20268 -0.509785 0
M  V30 3419 H 349.861 3.187 -2.28414 0
M  V30 3420 H 351.351 3.87055 -1.56776 0
M  V30 3421 N 351.788 1.33704 0.83433 0
M  V30 3422 C 353.034 1.25603 1.59222 0
M  V30 3423 C 353.367 -0.176659 1.93395 0
M  V30 3424 O 352.642 -1.11915 1.59076 0
M  V30 3425 C 352.925 2.13576 2.89926 0
M  V30 3426 C 352.778 3.65326 2.62406 0
M  V30 3427 C 354.097 2.01238 3.91397 0
M  V30 3428 H 351.216 0.457613 0.577719 0
M  V30 3429 H 353.858 1.63848 0.961972 0
M  V30 3430 H 352.008 1.8109 3.43713 0
M  V30 3431 H 353.68 4.08124 2.15017 0
M  V30 3432 H 351.923 3.8698 1.96033 0
M  V30 3433 H 352.594 4.22232 3.55562 0
M  V30 3434 H 355.07 2.29738 3.46929 0
M  V30 3435 H 353.946 2.65036 4.80673 0
M  V30 3436 H 354.207 0.985951 4.30966 0
M  V30 3437 N 353.266 -1.05314 1.17247 0
M  V30 3438 C 354.515 -1.77685 0.954521 0
M  V30 3439 C 354.828 -1.88616 -0.518025 0
M  V30 3440 O 356.034 -2.57714 -0.854144 0
M  V30 3441 C 354.49 -3.19402 1.65863 0
M  V30 3442 C 354.098 -3.16605 3.16963 0
M  V30 3443 C 355.842 -3.96237 1.52303 0
M  V30 3444 C 353.749 -4.53103 3.80068 0
M  V30 3445 H 352.679 -0.666 0.353496 0
M  V30 3446 H 355.33 -1.1805 1.40486 0
M  V30 3447 H 353.712 -3.79355 1.13602 0
M  V30 3448 H 354.886 -2.66176 3.76148 0
M  V30 3449 H 353.201 -2.53268 3.30521 0
M  V30 3450 H 355.798 -4.97157 1.96822 0
M  V30 3451 H 356.141 -4.136 0.473401 0
M  V30 3452 H 356.674 -3.42829 2.01775 0
M  V30 3453 H 353.413 -4.40946 4.85023 0
M  V30 3454 H 352.933 -5.03686 3.2567 0
M  V30 3455 H 354.612 -5.22045 3.82202 0
M  V30 3456 N 354.744 -0.972509 -1.24016 0
M  V30 3457 C 355.969 -0.654417 -1.96805 0
M  V30 3458 C 356.394 0.770398 -1.716 0
M  V30 3459 O 355.752 1.52361 -0.982647 0
M  V30 3460 C 355.8 -0.941031 -3.48105 0
M  V30 3461 O 354.904 -0.0289472 -4.1239 0
M  V30 3462 H 354.245 -0.24692 -0.616382 0
M  V30 3463 H 356.775 -1.30396 -1.57664 0
M  V30 3464 H 356.785 -0.87452 -3.98517 0
M  V30 3465 H 355.46 -1.97939 -3.65777 0
M  V30 3466 H 354.037 -0.149192 -3.72601 0
M  V30 3467 N 356.222 1.38976 -0.743202 0
M  V30 3468 C 357.185 2.28901 -0.117014 0
M  V30 3469 C 358.185 1.46698 0.658503 0
M  V30 3470 O 359.375 1.67274 0.486305 0
M  V30 3471 C 356.507 3.30309 0.84315 0
M  V30 3472 H 357.7 2.8578 -0.909373 0
M  V30 3473 H 355.253 1.47761 -0.509547 0
M  V30 3474 H 355.988 2.785 1.66157 0
M  V30 3475 H 355.773 3.91029 0.289594 0
M  V30 3476 H 357.263 3.97577 1.2776 0
M  V30 3477 N 357.7 0.491464 1.49741 0
M  V30 3478 C 358.63 -0.28154 2.31796 0
M  V30 3479 C 359.611 -0.971473 1.3963 0
M  V30 3480 O 360.796 -0.964719 1.68543 0
M  V30 3481 C 357.926 -1.35203 3.19902 0
M  V30 3482 C 356.88 -0.782529 4.20786 0
M  V30 3483 C 356.206 -1.95283 4.97764 0
M  V30 3484 C 357.506 0.21999 5.21837 0
M  V30 3485 H 359.2 0.403355 2.96671 0
M  V30 3486 H 356.746 0.195425 1.42668 0
M  V30 3487 H 358.699 -1.90045 3.76113 0
M  V30 3488 H 357.423 -2.06598 2.52953 0
M  V30 3489 H 356.082 -0.255928 3.65706 0
M  V30 3490 H 355.73 -2.65423 4.2727 0
M  V30 3491 H 355.43 -1.57789 5.66018 0
M  V30 3492 H 356.954 -2.50577 5.56816 0
M  V30 3493 H 358.368 -0.23996 5.72798 0
M  V30 3494 H 356.765 0.51026 5.97927 0
M  V30 3495 H 357.835 1.13911 4.7133 0
M  V30 3496 N 359.178 -1.55987 0.224894 0
M  V30 3497 C 360.141 -2.19178 -0.670348 0
M  V30 3498 C 361.141 -1.15461 -1.11917 0
M  V30 3499 O 362.331 -1.40675 -1.02743 0
M  V30 3500 C 359.463 -2.81777 -1.9187 0
M  V30 3501 H 360.656 -2.99662 -0.119364 0
M  V30 3502 H 358.209 -1.5628 -0.0247128 0
M  V30 3503 H 358.944 -2.05172 -2.51147 0
M  V30 3504 H 358.729 -3.57732 -1.60531 0
M  V30 3505 H 360.219 -3.30205 -2.55645 0
M  V30 3506 N 360.656 0.0484629 -1.57525 0
M  V30 3507 C 361.619 1.03956 -2.04269 0
M  V30 3508 C 362.619 1.30211 -0.943496 0
M  V30 3509 O 363.809 1.25539 -1.20771 0
M  V30 3510 C 360.941 2.37742 -2.44319 0
M  V30 3511 H 362.134 0.636182 -2.93075 0
M  V30 3512 H 359.687 0.294811 -1.53494 0
M  V30 3513 H 360.422 2.82866 -1.5861 0
M  V30 3514 H 360.207 2.20021 -3.24551 0
M  V30 3515 H 361.697 3.08936 -2.80978 0
M  V30 3516 N 362.134 1.5431 0.320358 0
M  V30 3517 C 363.064 1.86912 1.3995 0
M  V30 3518 C 364.045 0.726211 1.53819 0
M  V30 3519 O 365.23 0.980233 1.67646 0
M  V30 3520 C 362.36 2.09932 2.7667 0
M  V30 3521 C 361.314 3.25776 2.77586 0
M  V30 3522 C 360.64 3.34173 4.17412 0
M  V30 3523 C 361.94 4.6335 2.41048 0
M  V30 3524 H 363.634 2.77292 1.12914 0
M  V30 3525 H 361.18 1.33421 0.541738 0
M  V30 3526 H 363.133 2.31324 3.52232 0
M  V30 3527 H 361.857 1.16304 3.0519 0
M  V30 3528 H 360.516 3.04276 2.04479 0
M  V30 3529 H 360.164 2.38098 4.43078 0
M  V30 3530 H 359.864 4.12033 4.18931 0
M  V30 3531 H 361.388 3.57803 4.94782 0
M  V30 3532 H 362.802 4.84602 3.06324 0
M  V30 3533 H 361.199 5.43782 2.53813 0
M  V30 3534 H 362.269 4.65381 1.36193 0
M  V30 3535 N 363.613 -0.582584 1.46437 0
M  V30 3536 C 364.563 -1.68654 1.53426 0
M  V30 3537 C 365.547 -1.55971 0.395194 0
M  V30 3538 O 366.739 -1.64884 0.643612 0
M  V30 3539 C 363.868 -3.07439 1.52762 0
M  V30 3540 C 362.954 -3.25418 2.71963 0
M  V30 3541 N 363.345 -3.13556 3.96883 0
M  V30 3542 C 361.643 -3.56357 2.68189 0
M  V30 3543 C 362.344 -3.33543 4.76575 0
M  V30 3544 N 361.32 -3.58704 4.08451 0
M  V30 3545 H 365.122 -1.58014 2.47808 0
M  V30 3546 H 362.636 -0.786617 1.42078 0
M  V30 3547 H 364.633 -3.86671 1.55857 0
M  V30 3548 H 363.293 -3.1921 0.594573 0
M  V30 3549 H 364.304 -2.9142 4.28129 0
M  V30 3550 H 360.981 -3.74812 1.83908 0
M  V30 3551 H 362.371 -3.29555 5.85528 0
M  V30 3552 N 365.091 -1.34144 -0.827227 0
M  V30 3553 C 366.339 -1.26009 -1.58007 0
M  V30 3554 C 366.66 0.170971 -1.94249 0
M  V30 3555 O 365.93 1.10256 -1.61927 0
M  V30 3556 H 364.51 -0.463414 -0.585881 0
M  V30 3557 H 367.172 -1.68005 -0.987951 0
M  V30 3558 H 366.268 -1.86187 -2.50481 0
M  V30 3559 N 366.569 1.04691 -1.17803 0
M  V30 3560 C 367.532 2.10724 -0.901545 0
M  V30 3561 C 368.532 1.6042 0.110437 0
M  V30 3562 O 369.722 1.7377 -0.122303 0
M  V30 3563 C 366.854 3.39084 -0.351409 0
M  V30 3564 H 368.047 2.36686 -1.84174 0
M  V30 3565 H 365.6 1.21015 -0.98919 0
M  V30 3566 H 366.335 3.18782 0.59569 0
M  V30 3567 H 366.12 3.76909 -1.08083 0
M  V30 3568 H 367.61 4.17227 -0.176451 0
M  V30 3569 N 368.047 0.979072 1.23499 0
M  V30 3570 C 369.293 0.6578 1.9247 0
M  V30 3571 C 369.648 -0.799746 1.74991 0
M  V30 3572 O 368.941 -1.56922 1.09937 0
M  V30 3573 C 369.135 0.981932 3.43646 0
M  V30 3574 C 368.964 2.46944 3.75831 0
M  V30 3575 C 367.734 3.13119 3.96591 0
M  V30 3576 C 369.932 3.45006 3.81412 0
M  V30 3577 N 367.914 4.51489 4.15969 0
M  V30 3578 C 369.285 4.68778 4.05768 0
M  V30 3579 C 371.34 3.39505 3.64198 0
M  V30 3580 C 370.043 5.87723 4.14697 0
M  V30 3581 C 372.069 4.57814 3.7438 0
M  V30 3582 C 371.431 5.80381 3.99171 0
M  V30 3583 H 367.53 0.291746 0.72554 0
M  V30 3584 H 370.114 1.25626 1.48749 0
M  V30 3585 H 368.285 0.412179 3.86207 0
M  V30 3586 H 370.017 0.618068 3.99953 0
M  V30 3587 H 366.772 2.63619 3.93449 0
M  V30 3588 H 367.196 5.23221 4.29615 0
M  V30 3589 H 371.838 2.45773 3.44029 0
M  V30 3590 H 369.556 6.81874 4.33675 0
M  V30 3591 H 373.142 4.55132 3.62417 0
M  V30 3592 H 372.022 6.70398 4.06861 0
M  V30 3593 N 369.525 -1.3858 0.750561 0
M  V30 3594 C 370.773 -1.99789 0.30477 0
M  V30 3595 C 371.094 -1.59874 -1.11649 0
M  V30 3596 O 370.364 -0.85417 -1.76297 0
M  V30 3597 H 368.944 -0.738902 0.109694 0
M  V30 3598 H 371.606 -1.69391 0.963983 0
M  V30 3599 H 370.702 -3.09952 0.365499 0
M  V30 3600 N 371.003 -0.499398 -1.49478 0
M  V30 3601 C 372.249 0.0457576 -2.02748 0
M  V30 3602 C 372.582 1.36793 -1.37846 0
M  V30 3603 O 371.857 1.87596 -0.513601 0
M  V30 3604 C 372.14 0.199986 -3.59544 0
M  V30 3605 C 371.993 -1.1452 -4.34977 0
M  V30 3606 C 373.312 0.94137 -4.29914 0
M  V30 3607 H 370.431 0.0151552 -0.736844 0
M  V30 3608 H 373.073 -0.650498 -1.78518 0
M  V30 3609 H 371.223 0.793007 -3.8032 0
M  V30 3610 H 372.895 -1.77697 -4.25701 0
M  V30 3611 H 371.138 -1.73488 -3.97598 0
M  V30 3612 H 371.809 -0.990607 -5.43039 0
M  V30 3613 H 374.285 0.43844 -4.13784 0
M  V30 3614 H 373.161 1.01812 -5.39375 0
M  V30 3615 H 373.422 1.98471 -3.95046 0
M  V30 3616 N 372.481 1.55866 -0.233164 0
M  V30 3617 C 373.897 1.59133 0.121988 0
M  V30 3618 C 374.097 1.25016 1.58029 0
M  V30 3619 O 373.153 0.990922 2.32243 0
M  V30 3620 C 374.466 2.99932 -0.214792 0
M  V30 3621 C 376.014 3.12601 -0.157971 0
M  V30 3622 C 376.489 4.55597 -0.46859 0
M  V30 3623 N 377.98 4.61305 -0.418585 0
M  V30 3624 C 378.715 5.69903 -0.63227 0
M  V30 3625 N 378.211 6.86819 -0.90835 0
M  V30 3626 N 380.004 5.59264 -0.563913 0
M  V30 3627 H 372.155 1.76315 -1.18434 0
M  V30 3628 H 374.418 0.820093 -0.475553 0
M  V30 3629 H 374.124 3.29588 -1.22739 0
M  V30 3630 H 373.998 3.74327 0.464691 0
M  V30 3631 H 376.385 2.82735 0.845283 0
M  V30 3632 H 376.466 2.40511 -0.871102 0
M  V30 3633 H 376.11 4.86182 -1.46934 0
M  V30 3634 H 376.04 5.25928 0.265865 0
M  V30 3635 H 378.531 3.77297 -0.213368 0
M  V30 3636 H 378.844 7.65507 -1.05919 0
M  V30 3637 H 377.189 6.88536 -0.945673 0
M  V30 3638 H 380.38 4.66802 -0.348372 0
M  V30 3639 H 380.553 6.43831 -0.733847 0
M  V30 3640 N 373.959 -0.0401083 1.57549 0
M  V30 3641 C 375.205 -0.734211 1.89043 0
M  V30 3642 C 375.538 -1.75591 0.829535 0
M  V30 3643 O 374.813 -1.93868 -0.156706 0
M  V30 3644 C 375.096 -1.41374 3.31188 0
M  V30 3645 C 374.949 -0.406299 4.47961 0
M  V30 3646 C 376.268 -2.35061 3.72068 0
M  V30 3647 H 373.387 -0.265447 0.687537 0
M  V30 3648 H 376.029 0.00294087 1.9 0
M  V30 3649 H 374.179 -2.04206 3.30503 0
M  V30 3650 H 375.851 0.219255 4.60779 0
M  V30 3651 H 374.094 0.275485 4.32924 0
M  V30 3652 H 374.765 -0.920022 5.44279 0
M  V30 3653 H 377.241 -1.82282 3.74049 0
M  V30 3654 H 376.117 -2.79593 4.72355 0
M  V30 3655 H 376.378 -3.21258 3.0372 0
M  V30 3656 N 375.437 -1.54477 -0.31217 0
M  V30 3657 C 376.387 -1.81037 -1.38598 0
M  V30 3658 C 377.371 -0.666941 -1.46426 0
M  V30 3659 O 378.563 -0.927269 -1.50767 0
M  V30 3660 C 375.692 -2.05127 -2.75277 0
M  V30 3661 C 374.778 -3.25624 -2.71716 0
M  V30 3662 N 375.169 -4.46428 -2.37773 0
M  V30 3663 C 373.467 -3.27427 -3.02833 0
M  V30 3664 C 374.168 -5.28406 -2.43232 0
M  V30 3665 N 373.144 -4.6586 -2.80135 0
M  V30 3666 H 376.946 -2.7201 -1.11301 0
M  V30 3667 H 374.46 -1.53826 -0.520705 0
M  V30 3668 H 376.457 -2.22299 -3.52688 0
M  V30 3669 H 375.117 -1.15416 -3.03495 0
M  V30 3670 H 376.128 -4.73227 -2.1042 0
M  V30 3671 H 372.805 -2.47786 -3.36018 0
M  V30 3672 H 374.195 -6.34903 -2.19882 0
M  V30 3673 N 376.915 0.57481 -1.46744 0
M  V30 3674 C 378.192 1.3352 -1.4294 0
M  V30 3675 C 378.572 2.10775 -0.117009 0
M  V30 3676 O 377.92 2.09966 0.901474 0
M  V30 3677 C 378.13 2.25456 -2.66403 0
M  V30 3678 C 379.478 2.87035 -3.12883 0
M  V30 3679 O 380.502 2.35766 -2.67007 0
M  V30 3680 O 379.361 3.80179 -3.92589 0
M  V30 3681 H 376.455 0.600318 -0.568812 0
M  V30 3682 H 379.001 0.595171 -1.58921 0
M  V30 3683 H 377.773 1.67851 -3.53471 0
M  V30 3684 H 377.396 3.06785 -2.52921 0
M  V30 3685 N 378.394 1.34581 0.820102 0
M  V30 3686 C 379.64 1.27285 1.57881 0
M  V30 3687 C 379.973 -0.156137 1.93571 0
M  V30 3688 O 379.248 -1.10222 1.60254 0
M  V30 3689 C 379.531 2.16639 2.87645 0
M  V30 3690 C 379.384 3.68088 2.58517 0
M  V30 3691 C 380.703 2.05378 3.8924 0
M  V30 3692 H 377.822 0.463714 0.572833 0
M  V30 3693 H 380.464 1.64859 0.944539 0
M  V30 3694 H 378.614 1.84725 3.41773 0
M  V30 3695 H 380.286 4.10382 2.10676 0
M  V30 3696 H 378.529 3.89038 1.91917 0
M  V30 3697 H 379.2 4.2598 3.51063 0
M  V30 3698 H 381.676 2.33404 3.44473 0
M  V30 3699 H 380.552 2.7012 4.77835 0
M  V30 3700 H 380.813 1.0316 4.29896 0
M  V30 3701 N 379.872 -1.04064 1.18357 0
M  V30 3702 C 381.288 -1.2947 0.933258 0
M  V30 3703 C 381.488 -1.97466 -0.401169 0
M  V30 3704 O 380.544 -2.25528 -1.13549 0
M  V30 3705 C 381.857 -2.15337 2.09882 0
M  V30 3706 C 383.405 -2.28683 2.13712 0
M  V30 3707 C 383.88 -3.17917 3.29686 0
M  V30 3708 N 385.371 -3.25504 3.29547 0
M  V30 3709 C 386.106 -3.94706 4.15926 0
M  V30 3710 N 385.602 -4.66239 5.12439 0
M  V30 3711 N 387.395 -3.90986 4.0384 0
M  V30 3712 H 379.546 -0.583359 2.04232 0
M  V30 3713 H 381.809 -0.319921 0.892387 0
M  V30 3714 H 381.515 -1.72682 3.06389 0
M  V30 3715 H 381.389 -3.16015 2.05947 0
M  V30 3716 H 383.776 -2.70575 1.17784 0
M  V30 3717 H 383.857 -1.27596 2.21705 0
M  V30 3718 H 383.501 -2.76736 4.25887 0
M  V30 3719 H 383.431 -4.19036 3.1893 0
M  V30 3720 H 385.922 -2.74547 2.59677 0
M  V30 3721 H 386.235 -5.16638 5.74722 0
M  V30 3722 H 384.58 -4.65143 5.16398 0
M  V30 3723 H 387.771 -3.34234 3.27727 0
M  V30 3724 H 387.944 -4.44646 4.71375 0
M  V30 3725 N 381.35 -0.985608 -1.22978 0
M  V30 3726 C 382.313 -0.535071 -2.22867 0
M  V30 3727 C 383.313 0.378123 -1.56291 0
M  V30 3728 O 384.503 0.171092 -1.73358 0
M  V30 3729 C 381.635 0.222702 -3.40172 0
M  V30 3730 H 382.828 -1.41835 -2.6424 0
M  V30 3731 H 380.381 -0.772042 -1.35901 0
M  V30 3732 H 381.116 1.12229 -3.04262 0
M  V30 3733 H 380.901 -0.43288 -3.89703 0
M  V30 3734 H 382.391 0.526335 -4.1427 0
M  V30 3735 N 382.828 1.3818 -0.7579 0
M  V30 3736 C 384.053 2.04827 -0.325679 0
M  V30 3737 C 384.478 1.56788 1.03919 0
M  V30 3738 O 383.836 0.721811 1.66312 0
M  V30 3739 C 383.884 3.58774 -0.362447 0
M  V30 3740 O 382.988 4.07372 0.642033 0
M  V30 3741 H 382.329 0.64833 -0.143402 0
M  V30 3742 H 384.859 1.7677 -1.03023 0
M  V30 3743 H 384.869 4.07434 -0.214844 0
M  V30 3744 H 383.544 3.93096 -1.35824 0
M  V30 3745 H 382.121 3.70068 0.458688 0
M  V30 3746 N 384.306 0.507319 1.49211 0
M  V30 3747 C 385.552 -0.0350047 2.0277 0
M  V30 3748 C 385.885 -1.3606 1.38569 0
M  V30 3749 O 385.16 -1.87321 0.523542 0
M  V30 3750 C 385.443 -0.180916 3.59645 0
M  V30 3751 C 385.296 1.16825 4.34364 0
M  V30 3752 C 386.615 -0.918558 4.30407 0
M  V30 3753 H 383.734 -0.0112473 0.736914 0
M  V30 3754 H 386.376 0.659956 1.7817 0
M  V30 3755 H 384.526 -0.772826 3.80736 0
M  V30 3756 H 386.198 1.79952 4.24753 0
M  V30 3757 H 384.441 1.75594 3.96673 0
M  V30 3758 H 385.112 1.01939 5.42506 0
M  V30 3759 H 387.588 -0.41649 4.1401 0
M  V30 3760 H 386.464 -0.989505 5.39907 0
M  V30 3761 H 386.725 -1.96373 3.96093 0
M  V30 3762 N 385.784 -1.5574 0.241426 0
M  V30 3763 C 387.061 -1.90704 -0.434881 0
M  V30 3764 C 387.441 -1.16145 -1.76277 0
M  V30 3765 O 386.789 -0.277152 -2.26813 0
M  V30 3766 C 386.999 -3.43657 -0.608343 0
M  V30 3767 C 388.347 -4.14806 -0.906725 0
M  V30 3768 O 389.371 -3.49366 -0.694408 0
M  V30 3769 O 388.23 -5.30548 -1.31075 0
M  V30 3770 H 385.324 -0.793592 -0.23268 0
M  V30 3771 H 387.87 -1.67288 0.285086 0
M  V30 3772 H 386.642 -3.89927 0.327505 0
M  V30 3773 H 386.265 -3.72918 -1.37906 0
M  V30 3774 N 387.262 0.0317525 -1.57568 0
M  V30 3775 C 388.225 1.01783 -2.0536 0
M  V30 3776 C 389.225 1.29203 -0.957253 0
M  V30 3777 O 390.415 1.24251 -1.22095 0
M  V30 3778 C 387.547 2.35137 -2.46827 0
M  V30 3779 H 388.74 0.605062 -2.93733 0
M  V30 3780 H 386.293 0.278514 -1.53799 0
M  V30 3781 H 387.028 2.81168 -1.61602 0
M  V30 3782 H 386.813 2.16566 -3.26866 0
M  V30 3783 H 388.303 3.05938 -2.84239 0
M  V30 3784 N 388.74 1.54641 0.303973 0
M  V30 3785 C 389.989 1.7299 1.03717 0
M  V30 3786 C 390.302 0.521168 1.88529 0
M  V30 3787 O 391.508 0.586408 2.65092 0
M  V30 3788 C 389.964 3.06051 1.89369 0
M  V30 3789 C 389.572 4.34393 1.09574 0
M  V30 3790 C 391.316 3.3376 2.62306 0
M  V30 3791 C 389.223 5.58506 1.94486 0
M  V30 3792 H 388.153 0.64473 0.390947 0
M  V30 3793 H 390.804 1.81124 0.294328 0
M  V30 3794 H 389.186 2.91874 2.67629 0
M  V30 3795 H 390.36 4.59396 0.359485 0
M  V30 3796 H 388.675 4.13597 0.482324 0
M  V30 3797 H 391.272 4.23687 3.26181 0
M  V30 3798 H 391.615 2.52503 3.3098 0
M  V30 3799 H 392.148 3.48894 1.91097 0
M  V30 3800 H 388.887 6.42422 1.30287 0
M  V30 3801 H 388.407 5.37694 2.65792 0
M  V30 3802 H 390.086 5.95651 2.52605 0
M  V30 3803 N 390.218 -0.567019 1.47046 0
M  V30 3804 C 391.165 -1.67489 1.58796 0
M  V30 3805 C 392.135 -1.60399 0.43144 0
M  V30 3806 O 393.32 -1.79378 0.650233 0
M  V30 3807 C 390.46 -3.05821 1.59899 0
M  V30 3808 C 389.573 -3.2342 2.86397 0
M  V30 3809 C 388.708 -4.52093 2.789 0
M  V30 3810 C 387.747 -4.6309 4.00267 0
M  V30 3811 N 386.884 -5.83106 3.91064 0
M  V30 3812 H 391.724 -1.56785 2.53422 0
M  V30 3813 H 389.261 -0.763896 1.2571 0
M  V30 3814 H 391.219 -3.8591 1.58522 0
M  V30 3815 H 389.849 -3.15384 0.687929 0
M  V30 3816 H 388.901 -2.3683 2.97684 0
M  V30 3817 H 390.213 -3.27412 3.76301 0
M  V30 3818 H 389.367 -5.4043 2.75718 0
M  V30 3819 H 388.106 -4.50565 1.86662 0
M  V30 3820 H 387.111 -3.73168 4.03765 0
M  V30 3821 H 388.336 -4.66386 4.93621 0
M  V30 3822 H 386.282 -5.82546 3.01623 0
M  V30 3823 H 386.199 -5.88434 4.74638 0
M  V30 3824 H 387.467 -6.73831 3.91882 0
M  V30 3825 N 391.696 -1.35014 -0.812953 0
M  V30 3826 C 392.942 -1.2812 -1.57204 0
M  V30 3827 C 393.275 0.145869 -1.93651 0
M  V30 3828 O 392.55 1.0937 -1.60836 0
M  V30 3829 C 392.833 -2.18162 -2.86492 0
M  V30 3830 C 392.686 -3.69454 -2.56561 0
M  V30 3831 C 394.005 -2.07439 -3.88145 0
M  V30 3832 H 391.124 -0.466746 -0.570366 0
M  V30 3833 H 393.766 -1.65357 -0.935783 0
M  V30 3834 H 391.916 -1.86535 -3.40789 0
M  V30 3835 H 393.588 -4.11493 -2.08497 0
M  V30 3836 H 391.831 -3.9005 -1.89851 0
M  V30 3837 H 392.502 -4.27835 -3.48799 0
M  V30 3838 H 394.978 -2.35228 -3.4323 0
M  V30 3839 H 393.854 -2.7265 -4.76396 0
M  V30 3840 H 394.115 -1.05439 -4.29343 0
M  V30 3841 N 393.175 1.03435 -1.18907 0
M  V30 3842 C 394.421 1.77005 -0.989798 0
M  V30 3843 C 394.754 1.88205 0.478816 0
M  V30 3844 O 394.029 1.39481 1.35556 0
M  V30 3845 C 394.312 3.19925 -1.65287 0
M  V30 3846 C 394.165 3.1663 -3.19477 0
M  V30 3847 C 395.484 4.18189 -1.37134 0
M  V30 3848 H 392.603 0.642538 -0.360991 0
M  V30 3849 H 395.245 1.20784 -1.46667 0
M  V30 3850 H 393.395 3.67929 -1.24741 0
M  V30 3851 H 395.067 2.76567 -3.692 0
M  V30 3852 H 393.31 2.54491 -3.51307 0
M  V30 3853 H 393.981 4.1758 -3.61013 0
M  V30 3854 H 396.457 3.78761 -1.72276 0
M  V30 3855 H 395.333 5.16394 -1.86087 0
M  V30 3856 H 395.594 4.41112 -0.295424 0
M  V30 3857 N 394.653 0.992116 1.22453 0
M  V30 3858 C 395.563 0.55065 2.28046 0
M  V30 3859 C 396.579 -0.400189 1.69335 0
M  V30 3860 O 397.755 -0.267215 1.99619 0
M  V30 3861 C 394.82 -0.128496 3.46462 0
M  V30 3862 C 393.881 0.865208 4.20491 0
M  V30 3863 C 393.114 0.218377 5.33253 0
M  V30 3864 O 393.337 -0.987894 5.6178 0
M  V30 3865 O 392.271 0.922845 5.94783 0
M  V30 3866 H 396.097 1.4291 2.67975 0
M  V30 3867 H 393.682 0.760326 1.28606 0
M  V30 3868 H 395.564 -0.508947 4.18315 0
M  V30 3869 H 394.239 -0.981526 3.0846 0
M  V30 3870 H 393.146 1.29658 3.50913 0
M  V30 3871 H 394.479 1.68741 4.62371 0
M  V30 3872 N 396.131 -1.37776 0.765217 0
M  V30 3873 C 397.094 -2.28686 0.153416 0
M  V30 3874 C 398.094 -1.47727 -0.635081 0
M  V30 3875 O 399.284 -1.68027 -0.459632 0
M  V30 3876 C 396.416 -3.31608 -0.790495 0
M  V30 3877 H 397.609 -2.84297 0.954723 0
M  V30 3878 H 395.162 -1.46932 0.53299 0
M  V30 3879 H 395.897 -2.81109 -1.61705 0
M  V30 3880 H 395.682 -3.9144 -0.227348 0
M  V30 3881 H 397.172 -3.99559 -1.21419 0
M  V30 3882 N 397.609 -0.515225 -1.4894 0
M  V30 3883 C 398.855 0.016187 -2.03394 0
M  V30 3884 C 399.21 1.33377 -1.38666 0
M  V30 3885 O 398.503 1.84461 -0.518141 0
M  V30 3886 C 398.697 0.210595 -3.56779 0
M  V30 3887 C 398.526 -1.08659 -4.36375 0
M  V30 3888 C 397.296 -1.64237 -4.77864 0
M  V30 3889 C 399.494 -1.9935 -4.74093 0
M  V30 3890 N 397.476 -2.88398 -5.41941 0
M  V30 3891 C 398.847 -3.08088 -5.38035 0
M  V30 3892 C 400.902 -1.99856 -4.56029 0
M  V30 3893 C 399.605 -4.17377 -5.85823 0
M  V30 3894 C 401.631 -3.08129 -5.04787 0
M  V30 3895 C 400.993 -4.15586 -5.68742 0
M  V30 3896 H 397.092 -0.0352107 -0.781207 0
M  V30 3897 H 399.676 -0.693237 -1.8194 0
M  V30 3898 H 397.847 0.889088 -3.78087 0
M  V30 3899 H 399.579 0.740287 -3.97872 0
M  V30 3900 H 396.334 -1.18566 -4.58518 0
M  V30 3901 H 396.758 -3.51572 -5.78555 0
M  V30 3902 H 401.4 -1.18079 -4.05977 0
M  V30 3903 H 399.118 -4.99943 -6.34888 0
M  V30 3904 H 402.704 -3.09557 -4.92611 0
M  V30 3905 H 401.584 -4.97987 -6.05787 0
M  V30 3906 N 399.087 1.5561 -0.249682 0
M  V30 3907 C 400.02 2.17537 0.689408 0
M  V30 3908 C 400.998 1.12829 1.17083 0
M  V30 3909 O 402.182 1.41229 1.24846 0
M  V30 3910 C 399.309 2.77828 1.93725 0
M  V30 3911 C 398.355 3.95615 1.59346 0
M  V30 3912 S 399.188 5.30988 0.69367 0
M  V30 3913 C 400.344 5.94734 1.95046 0
M  V30 3914 H 400.577 2.96852 0.163142 0
M  V30 3915 H 398.11 1.54362 -0.0341166 0
M  V30 3916 H 400.068 3.13199 2.65361 0
M  V30 3917 H 398.729 1.98454 2.43465 0
M  V30 3918 H 397.922 4.364 2.52132 0
M  V30 3919 H 397.524 3.61535 0.957512 0
M  V30 3920 H 399.816 6.12419 2.89739 0
M  V30 3921 H 400.759 6.90109 1.58604 0
M  V30 3922 H 401.167 5.23832 2.10381 0
M  V30 3923 N 400.565 -0.0233959 1.57583 0
M  V30 3924 C 401.813 -0.711654 1.89156 0
M  V30 3925 C 402.134 -1.75591 0.848096 0
M  V30 3926 O 401.404 -1.95547 -0.117566 0
M  V30 3927 H 399.984 -0.265835 0.698098 0
M  V30 3928 H 402.646 0.0119948 1.94896 0
M  V30 3929 H 401.742 -1.19766 2.88206 0
M  V30 3930 N 402.043 -1.548 -0.295768 0
M  V30 3931 C 403.006 -1.85363 -1.34808 0
M  V30 3932 C 404.006 -0.726817 -1.43436 0
M  V30 3933 O 405.196 -0.995088 -1.42981 0
M  V30 3934 C 402.328 -2.03859 -2.73229 0
M  V30 3935 H 403.521 -2.7941 -1.08949 0
M  V30 3936 H 401.074 -1.46942 -0.532702 0
M  V30 3937 H 401.809 -1.12117 -3.04303 0
M  V30 3938 H 401.594 -2.8588 -2.68356 0
M  V30 3939 H 403.084 -2.28857 -3.49305 0
M  V30 3940 N 403.521 0.559213 -1.47345 0
M  V30 3941 C 404.431 1.69388 -1.62311 0
M  V30 3942 C 405.447 1.6648 -0.505993 0
M  V30 3943 O 406.623 1.85964 -0.773262 0
M  V30 3944 C 403.688 3.05894 -1.63185 0
M  V30 3945 C 402.749 3.19885 -2.86307 0
M  V30 3946 C 401.982 4.49879 -2.87131 0
M  V30 3947 O 402.205 5.35217 -1.97229 0
M  V30 3948 O 401.139 4.67618 -3.78968 0
M  V30 3949 H 404.965 1.59706 -2.58317 0
M  V30 3950 H 402.55 0.728989 -1.30407 0
M  V30 3951 H 404.432 3.87133 -1.66451 0
M  V30 3952 H 403.107 3.15964 -0.70345 0
M  V30 3953 H 402.014 2.38052 -2.88587 0
M  V30 3954 H 403.347 3.14718 -3.78435 0
M  V30 3955 N 404.999 1.35443 0.805782 0
M  V30 3956 C 406.415 1.15499 1.10146 0
M  V30 3957 C 406.615 -0.0319975 2.01475 0
M  V30 3958 O 405.671 -0.70236 2.42535 0
M  V30 3959 C 406.984 2.45833 1.73166 0
M  V30 3960 C 408.532 2.52047 1.85583 0
M  V30 3961 C 409.007 3.82427 2.52019 0
M  V30 3962 N 410.498 3.83682 2.59504 0
M  V30 3963 C 411.233 4.81294 3.11679 0
M  V30 3964 N 410.729 5.89294 3.64287 0
M  V30 3965 N 412.522 4.6873 3.1024 0
M  V30 3966 H 404.673 2.11469 0.198678 0
M  V30 3967 H 406.936 0.93594 0.150731 0
M  V30 3968 H 406.642 3.32874 1.13526 0
M  V30 3969 H 406.516 2.6044 2.72857 0
M  V30 3970 H 408.903 1.65435 2.44367 0
M  V30 3971 H 408.984 2.41354 0.847455 0
M  V30 3972 H 408.628 4.69437 1.93885 0
M  V30 3973 H 408.558 3.90409 3.53395 0
M  V30 3974 H 411.049 3.05648 2.22234 0
M  V30 3975 H 411.362 6.59768 4.02401 0
M  V30 3976 H 409.707 5.92985 3.62483 0
M  V30 3977 H 412.898 3.83496 2.68419 0
M  V30 3978 H 413.071 5.44965 3.50596 0
M  V30 3979 N 406.477 -1.02803 1.19454 0
M  V30 3980 C 407.726 -1.7562 0.991996 0
M  V30 3981 C 408.039 -1.89672 -0.477901 0
M  V30 3982 O 409.245 -2.59468 -0.799287 0
M  V30 3983 C 407.701 -3.15812 1.72601 0
M  V30 3984 C 407.309 -3.0981 3.23607 0
M  V30 3985 C 409.053 -3.92918 1.60674 0
M  V30 3986 C 406.96 -4.44939 3.89594 0
M  V30 3987 H 405.89 -0.658352 0.367543 0
M  V30 3988 H 408.541 -1.15044 1.42959 0
M  V30 3989 H 406.923 -3.7686 1.21624 0
M  V30 3990 H 408.097 -2.58138 3.81709 0
M  V30 3991 H 406.412 -2.46201 3.35819 0
M  V30 3992 H 409.009 -4.9287 2.07323 0
M  V30 3993 H 409.352 -4.12502 0.561025 0
M  V30 3994 H 409.885 -3.38472 2.09001 0
M  V30 3995 H 406.624 -4.30559 4.94267 0
M  V30 3996 H 406.144 -4.96664 3.36281 0
M  V30 3997 H 407.823 -5.1382 3.93189 0
M  V30 3998 N 407.956 -0.998596 -1.21925 0
M  V30 3999 C 408.866 -0.562736 -2.27751 0
M  V30 4000 C 409.882 0.391203 -1.69545 0
M  V30 4001 O 411.058 0.256625 -1.99758 0
M  V30 4002 C 408.123 0.11012 -3.46525 0
M  V30 4003 C 407.184 -0.887495 -4.20026 0
M  V30 4004 C 406.417 -0.246654 -5.3313 0
M  V30 4005 O 406.64 0.958088 -5.62296 0
M  V30 4006 O 405.574 -0.954374 -5.94286 0
M  V30 4007 H 409.4 -1.44329 -2.67213 0
M  V30 4008 H 406.985 -0.767135 -1.28201 0
M  V30 4009 H 408.867 0.486756 -4.18579 0
M  V30 4010 H 407.542 0.965154 -3.08976 0
M  V30 4011 H 406.449 -1.31517 -3.5022 0
M  V30 4012 H 407.782 -1.71191 -4.6147 0
M  V30 4013 N 409.434 1.37368 -0.772513 0
M  V30 4014 C 410.85 1.53059 -0.452231 0
M  V30 4015 C 411.05 1.73065 1.03203 0
M  V30 4016 O 410.106 1.75245 1.81784 0
M  V30 4017 C 411.419 2.72659 -1.26797 0
M  V30 4018 C 412.967 2.86521 -1.25995 0
M  V30 4019 C 413.442 4.09105 -2.05905 0
M  V30 4020 N 414.933 4.16219 -2.03263 0
M  V30 4021 C 415.668 5.10107 -2.61875 0
M  V30 4022 N 415.164 6.09547 -3.29278 0
M  V30 4023 N 416.957 5.02596 -2.51701 0
M  V30 4024 H 409.108 1.22634 -1.7342 0
M  V30 4025 H 411.371 0.597206 -0.736239 0
M  V30 4026 H 411.077 2.64343 -2.31982 0
M  V30 4027 H 410.951 3.66363 -0.897672 0
M  V30 4028 H 413.338 2.94308 -0.216081 0
M  V30 4029 H 413.419 1.93774 -1.66989 0
M  V30 4030 H 413.063 4.0208 -3.10313 0
M  V30 4031 H 412.993 5.00968 -1.62292 0
M  V30 4032 H 415.484 3.45012 -1.54192 0
M  V30 4033 H 415.797 6.77718 -3.71374 0
M  V30 4034 H 414.142 6.09824 -3.33377 0
M  V30 4035 H 417.333 4.23855 -1.98657 0
M  V30 4036 H 417.506 5.75582 -2.97673 0
M  V30 4037 N 410.912 0.523116 1.48665 0
M  V30 4038 C 412.189 -0.0775449 1.95446 0
M  V30 4039 C 412.569 -1.5197 1.4652 0
M  V30 4040 O 411.917 -2.17876 0.688657 0
M  V30 4041 C 412.127 0.0326135 3.48985 0
M  V30 4042 C 413.475 -0.130141 4.24401 0
M  V30 4043 O 414.499 -0.0415142 3.56176 0
M  V30 4044 O 413.358 -0.31491 5.45592 0
M  V30 4045 H 410.452 -0.0831012 0.822814 0
M  V30 4046 H 412.998 0.587227 1.59216 0
M  V30 4047 H 411.77 1.03748 3.77296 0
M  V30 4048 H 411.393 -0.671317 3.91892 0
M  V30 4049 N 412.39 -1.55475 0.257931 0
M  V30 4050 C 413.638 -1.98813 -0.363009 0
M  V30 4051 C 413.959 -1.14757 -1.57657 0
M  V30 4052 O 413.229 -0.232956 -1.9451 0
M  V30 4053 H 411.809 -0.734308 -0.137113 0
M  V30 4054 H 414.471 -1.9156 0.359281 0
M  V30 4055 H 413.567 -3.04941 -0.664634 0
M  V30 4056 O 413.907 -0.12294 -1.61031 0
M  V30 4057 H 414.598 0.475096 -1.87783 0
M  V30 END ATOM
M  V30 BEGIN BOND
M  V30 END BOND
M  V30 END CTAB
M  END
$$$$
