drugbank_target|P9WNS5 Deoxyuridine 5'-triphosphate nucleotidohydrolase (DB01965; DB02333; DB03413; DB03800)
 OpenBabel12092119523D

  0  0  0     0  0            999 V3000
M  V30 BEGIN CTAB
M  V30 COUNTS 2243 2260 0 0 0
M  V30 BEGIN ATOM
M  V30 1 H -0.908 1.98254 -0.117106 0
M  V30 2 N 0 1.576 0 0
M  V30 3 C 0.933 2.03868 1.02534 0
M  V30 4 C 1.911 0.928543 1.3348 0
M  V30 5 O 3.095 1.19667 1.45644 0
M  V30 6 C 0.222 2.43627 2.35294 0
M  V30 7 C -0.732 3.65373 2.2001 0
M  V30 8 S 0.101 5.13292 1.52614 0
M  V30 9 C 1.257 5.56322 2.86805 0
M  V30 10 H 1.49 2.90518 0.631377 0
M  V30 11 H -0.977 1.52953 0.210867 0
M  V30 12 H 0.981 2.67203 3.11629 0
M  V30 13 H -0.358 1.57376 2.7183 0
M  V30 14 H -1.165 3.90944 3.18086 0
M  V30 15 H -1.563 3.418 1.51819 0
M  V30 16 H 0.729 5.58782 3.83104 0
M  V30 17 H 1.672 6.56266 2.65933 0
M  V30 18 H 2.08 4.83886 2.90714 0
M  V30 19 N 1.4781 -0.272755 1.55222 0
M  V30 20 C 2.7031 -1.02683 1.80197 0
M  V30 21 C 3.1281 -1.79142 0.573551 0
M  V30 22 O 2.4861 -1.74917 -0.476849 0
M  V30 23 C 2.5341 -1.9609 3.02624 0
M  V30 24 O 1.6381 -3.04863 2.77727 0
M  V30 25 H 0.9791 -0.293557 0.595584 0
M  V30 26 H 3.5091 -0.30159 2.02365 0
M  V30 27 H 3.5191 -2.38039 3.31363 0
M  V30 28 H 2.1941 -1.39851 3.91682 0
M  V30 29 H 0.7711 -2.67228 2.60084 0
M  V30 30 N 2.9562 -1.48159 -0.537278 0
M  V30 31 C 4.1842 -1.59454 -1.31841 0
M  V30 32 C 4.5992 -0.252065 -1.8711 0
M  V30 33 O 3.9562 0.757621 -1.66031 0
M  V30 34 C 4.0072 -2.63546 -2.47439 0
M  V30 35 O 3.7282 -3.92583 -1.94449 0
M  V30 36 C 5.2292 -2.85212 -3.39366 0
M  V30 37 H 2.4492 -0.53785 -0.401196 0
M  V30 38 H 4.9932 -1.93932 -0.648891 0
M  V30 39 H 3.1482 -2.31946 -3.1029 0
M  V30 40 H 3.5622 -4.49629 -2.70063 0
M  V30 41 H 5.0362 -3.61863 -4.16844 0
M  V30 42 H 5.5132 -1.93765 -3.94147 0
M  V30 43 H 6.1192 -3.18086 -2.82314 0
M  V30 44 N 4.4343 0.785586 -1.36625 0
M  V30 45 C 5.6623 1.57448 -1.3423 0
M  V30 46 C 6.0773 1.88649 0.0755653 0
M  V30 47 O 5.4343 1.50414 1.03354 0
M  V30 48 C 5.4853 2.89316 -2.16745 0
M  V30 49 O 5.2063 2.59459 -3.53005 0
M  V30 50 C 6.7073 3.83606 -2.22174 0
M  V30 51 H 3.9273 0.488226 -0.4603 0
M  V30 52 H 6.4713 0.974733 -1.79775 0
M  V30 53 H 4.6263 3.4575 -1.74745 0
M  V30 54 H 5.0403 3.43804 -3.96105 0
M  V30 55 H 6.5143 4.73181 -2.8426 0
M  V30 56 H 6.9913 4.21734 -1.22627 0
M  V30 57 H 7.5973 3.33104 -2.64427 0
M  V30 58 N 5.9124 1.20967 1.01018 0
M  V30 59 C 6.8424 0.988272 2.11555 0
M  V30 60 C 7.8234 -0.0849778 1.69888 0
M  V30 61 O 9.0084 0.0738202 1.9406 0
M  V30 62 C 6.1384 0.546528 3.42973 0
M  V30 63 C 5.0924 1.56375 3.9841 0
M  V30 64 C 4.4184 0.97842 5.25672 0
M  V30 65 C 5.7184 2.94922 4.31066 0
M  V30 66 H 7.4124 1.91276 2.30334 0
M  V30 67 H 4.9584 0.921073 1.1069 0
M  V30 68 H 6.9114 0.378839 4.19694 0
M  V30 69 H 5.6354 -0.413598 3.23971 0
M  V30 70 H 4.2944 1.71891 3.23804 0
M  V30 71 H 3.9424 0.0101688 5.02999 0
M  V30 72 H 3.6424 1.65784 5.63728 0
M  V30 73 H 5.1664 0.821939 6.05043 0
M  V30 74 H 6.5804 2.8288 4.9865 0
M  V30 75 H 4.9774 3.5983 4.80253 0
M  V30 76 H 6.0474 3.4616 3.39561 0
M  V30 77 N 7.3905 -1.2043 1.01659 0
M  V30 78 C 8.3535 -2.21433 0.591616 0
M  V30 79 C 9.3535 -1.57203 -0.338226 0
M  V30 80 O 10.5435 -1.73737 -0.126918 0
M  V30 81 C 7.6755 -3.40628 -0.136058 0
M  V30 82 H 8.8685 -2.60545 1.48514 0
M  V30 83 H 6.4215 -1.33893 0.806379 0
M  V30 84 H 7.1565 -3.07019 -1.04449 0
M  V30 85 H 6.9415 -3.88475 0.531917 0
M  V30 86 H 8.4315 -4.15475 -0.420735 0
M  V30 87 N 8.8686 -0.792821 -1.36206 0
M  V30 88 C 10.1176 -0.363353 -1.984 0
M  V30 89 C 10.4306 1.07172 -1.63626 0
M  V30 90 O 11.6366 1.60362 -2.19081 0
M  V30 91 C 10.0926 -0.59872 -3.54885 0
M  V30 92 C 9.7006 -2.04543 -3.9858 0
M  V30 93 C 11.4446 -0.233926 -4.23855 0
M  V30 94 C 9.3516 -2.22727 -5.47856 0
M  V30 95 H 8.2816 -0.13212 -0.742334 0
M  V30 96 H 10.9326 -0.974935 -1.55458 0
M  V30 97 H 9.3146 0.0826222 -3.95914 0
M  V30 98 H 10.4886 -2.76345 -3.68741 0
M  V30 99 H 8.8036 -2.36879 -3.42458 0
M  V30 100 H 11.4006 -0.348027 -5.33566 0
M  V30 101 H 11.7436 0.818351 -4.08177 0
M  V30 102 H 12.2766 -0.868639 -3.882 0
M  V30 103 H 9.0156 -3.2635 -5.68486 0
M  V30 104 H 8.5356 -1.55434 -5.7931 0
M  V30 105 H 10.2146 -2.03607 -6.14128 0
M  V30 106 N 10.3467 1.47872 -0.545128 0
M  V30 107 C 11.5927 2.02793 -0.0166104 0
M  V30 108 C 11.9257 1.41987 1.32489 0
M  V30 109 O 11.2007 0.571045 1.85928 0
M  V30 110 C 11.4837 3.59989 0.0893294 0
M  V30 111 C 11.3367 4.3125 -1.27841 0
M  V30 112 C 12.6557 4.32606 0.808724 0
M  V30 113 H 9.7747 0.736962 -0.00751035 0
M  V30 114 H 12.4167 1.76433 -0.705085 0
M  V30 115 H 10.5667 3.82579 0.675681 0
M  V30 116 H 12.2387 4.20035 -1.90704 0
M  V30 117 H 10.4817 3.92076 -1.85632 0
M  V30 118 H 11.1527 5.39736 -1.15713 0
M  V30 119 H 13.6287 4.14936 0.310992 0
M  V30 120 H 12.5047 5.42251 0.851782 0
M  V30 121 H 12.7657 4.00963 1.86229 0
M  V30 122 N 11.8248 0.280983 1.55075 0
M  V30 123 C 13.2408 -0.0729964 1.59433 0
M  V30 124 C 13.4408 -1.5411 1.29817 0
M  V30 125 O 12.4968 -2.29086 1.06187 0
M  V30 126 C 13.8098 0.306921 2.9913 0
M  V30 127 C 15.3578 0.254023 3.11968 0
M  V30 128 C 15.8328 0.608467 4.5394 0
M  V30 129 N 17.3238 0.560241 4.59799 0
M  V30 130 C 18.0588 0.80722 5.6769 0
M  V30 131 N 17.5548 1.11912 6.83701 0
M  V30 132 N 19.3478 0.735623 5.57266 0
M  V30 133 H 11.4988 1.238 1.7259 0
M  V30 134 H 13.7618 0.500547 0.805082 0
M  V30 135 H 13.4678 1.32816 3.25657 0
M  V30 136 H 13.3418 -0.349363 3.75579 0
M  V30 137 H 15.7288 -0.75794 2.852 0
M  V30 138 H 15.8098 0.944649 2.37718 0
M  V30 139 H 15.4538 1.61814 4.81434 0
M  V30 140 H 15.3838 -0.104013 5.26497 0
M  V30 141 H 17.8748 0.329288 3.76463 0
M  V30 142 H 18.1878 1.29409 7.61888 0
M  V30 143 H 16.5328 1.15695 6.85303 0
M  V30 144 H 19.7238 0.491752 4.6551 0
M  V30 145 H 19.8968 0.931482 6.4127 0
M  V30 146 N 13.3029 -1.57598 0.00835791 0
M  V30 147 C 14.2329 -2.1198 -0.979113 0
M  V30 148 C 15.2139 -1.03091 -1.35301 0
M  V30 149 O 16.3989 -1.30818 -1.43528 0
M  V30 150 C 13.5289 -2.62995 -2.26828 0
M  V30 151 C 12.4829 -3.76485 -2.03576 0
M  V30 152 C 11.8089 -4.13846 -3.38579 0
M  V30 153 C 13.1089 -5.0342 -1.39161 0
M  V30 154 H 14.8029 -2.94738 -0.526281 0
M  V30 155 H 12.3489 -1.41783 -0.251704 0
M  V30 156 H 14.3019 -2.99669 -2.96271 0
M  V30 157 H 13.0259 -1.7737 -2.7424 0
M  V30 158 H 11.6849 -3.40217 -1.36557 0
M  V30 159 H 11.3329 -3.25232 -3.83709 0
M  V30 160 H 11.0329 -4.90312 -3.23834 0
M  V30 161 H 12.5569 -4.53086 -4.09323 0
M  V30 162 H 13.9709 -5.37812 -1.98573 0
M  V30 163 H 12.3679 -5.84746 -1.34878 0
M  V30 164 H 13.4379 -4.83548 -0.361868 0
M  V30 165 N 14.781 0.264519 -1.55364 0
M  V30 166 C 16.058 1.01677 -1.67096 0
M  V30 167 C 16.438 2.03996 -0.543015 0
M  V30 168 O 15.786 2.23907 0.45585 0
M  V30 169 C 15.996 1.66596 -3.0667 0
M  V30 170 C 17.344 2.17442 -3.64697 0
M  V30 171 O 18.368 1.76568 -3.09358 0
M  V30 172 O 17.227 2.92439 -4.61673 0
M  V30 173 H 14.321 0.472161 -0.678965 0
M  V30 174 H 16.867 0.259703 -1.67701 0
M  V30 175 H 15.639 0.924962 -3.80211 0
M  V30 176 H 15.262 2.48968 -3.10001 0
M  V30 177 N 16.2591 1.48442 0.529413 0
M  V30 178 C 17.6701 1.5002 1.11134 0
M  V30 179 C 18.0211 0.27031 1.94329 0
M  V30 180 O 17.1461 -0.622507 2.07253 0
M  V30 181 C 17.7411 2.71834 2.02217 0
M  V30 182 C 16.3001 2.76283 2.55627 0
M  V30 183 C 15.4471 2.43542 1.326 0
M  V30 184 H 18.3981 1.5555 0.314641 0
M  V30 185 H 18.4191 2.50384 2.8651 0
M  V30 186 H 17.9311 3.61331 1.41639 0
M  V30 187 H 16.0321 1.90995 3.19924 0
M  V30 188 H 16.1451 3.77725 2.94721 0
M  V30 189 H 14.5091 1.94709 1.64196 0
M  V30 190 H 15.2921 3.3528 0.737734 0
M  V30 191 N 17.7372 -0.778329 1.37039 0
M  V30 192 C 18.9852 -1.53361 1.31623 0
M  V30 193 C 19.3062 -1.94739 -0.100831 0
M  V30 194 O 18.5762 -1.65797 -1.04347 0
M  V30 195 H 17.1562 -0.568794 0.484234 0
M  V30 196 H 19.8182 -0.926742 1.71457 0
M  V30 197 H 18.9142 -2.43606 1.95096 0
M  V30 198 N 19.2153 -1.21501 -1.00376 0
M  V30 199 C 20.1453 -0.999478 -2.11028 0
M  V30 200 C 21.1263 0.0759671 -1.6993 0
M  V30 201 O 22.3113 -0.0841106 -1.94018 0
M  V30 202 C 19.4413 -0.564709 -3.42678 0
M  V30 203 C 18.3953 -1.58486 -3.97576 0
M  V30 204 C 17.7213 -1.00628 -5.25146 0
M  V30 205 C 19.0213 -2.97204 -4.29496 0
M  V30 206 H 20.7153 -1.92495 -2.29317 0
M  V30 207 H 18.2613 -0.92693 -1.102 0
M  V30 208 H 20.2143 -0.401091 -4.19487 0
M  V30 209 H 18.9383 0.396411 -3.24185 0
M  V30 210 H 17.5973 -1.73606 -3.22888 0
M  V30 211 H 17.2453 -0.0368439 -5.02987 0
M  V30 212 H 16.9453 -1.68771 -5.62841 0
M  V30 213 H 18.4693 -0.854015 -6.04598 0
M  V30 214 H 19.8833 -2.8552 -4.97143 0
M  V30 215 H 18.2803 -3.62372 -4.78338 0
M  V30 216 H 19.3503 -3.47956 -3.3772 0
M  V30 217 N 20.6934 1.19889 -1.02296 0
M  V30 218 C 22.1044 1.71124 -0.746568 0
M  V30 219 C 22.4554 1.81939 0.734335 0
M  V30 220 O 21.5804 1.48639 1.57275 0
M  V30 221 C 22.1754 3.10804 -1.34857 0
M  V30 222 C 20.7344 3.59323 -1.1209 0
M  V30 223 C 19.8814 2.3635 -1.45031 0
M  V30 224 H 22.8324 1.04813 -1.19163 0
M  V30 225 H 22.8534 3.73186 -0.742437 0
M  V30 226 H 22.3654 3.029 -2.42638 0
M  V30 227 H 20.4664 3.7255 -0.0610337 0
M  V30 228 H 20.5794 4.4378 -1.80544 0
M  V30 229 H 18.9434 2.39399 -0.869487 0
M  V30 230 H 19.7264 2.31081 -2.53883 0
M  V30 231 N 22.1715 0.800033 1.35784 0
M  V30 232 C 23.1015 0.220184 2.3246 0
M  V30 233 C 24.0825 -0.65073 1.57161 0
M  V30 234 O 25.2675 -0.582359 1.85263 0
M  V30 235 C 22.3975 -0.637353 3.41402 0
M  V30 236 C 21.3515 0.134531 4.27789 0
M  V30 237 C 20.6775 -0.844285 5.27992 0
M  V30 238 C 21.9775 1.32979 5.05088 0
M  V30 239 H 23.6715 1.02787 2.81203 0
M  V30 240 H 21.2175 0.495717 1.35199 0
M  V30 241 H 23.1705 -1.05302 4.08031 0
M  V30 242 H 21.8945 -1.47785 2.91251 0
M  V30 243 H 20.5535 0.531296 3.6273 0
M  V30 244 H 20.2015 -1.68011 4.74111 0
M  V30 245 H 19.9015 -0.332184 5.8666 0
M  V30 246 H 21.4255 -1.2583 5.97494 0
M  V30 247 H 22.8395 0.98934 5.64699 0
M  V30 248 H 21.2365 1.77593 5.7322 0
M  V30 249 H 22.3065 2.11978 4.36111 0
M  V30 250 N 23.6496 -1.47581 0.552962 0
M  V30 251 C 25.0606 -1.86324 0.118463 0
M  V30 252 C 25.4116 -1.46006 -1.3106 0
M  V30 253 O 24.5366 -0.861182 -1.98526 0
M  V30 254 C 25.1316 -3.3816 0.20821 0
M  V30 255 C 23.6906 -3.7601 -0.171226 0
M  V30 256 C 22.8376 -2.71634 0.557686 0
M  V30 257 H 25.7886 -1.39159 0.762928 0
M  V30 258 H 25.8096 -3.76141 -0.574278 0
M  V30 259 H 25.3216 -3.67473 1.24841 0
M  V30 260 H 23.4226 -3.52313 -1.21269 0
M  V30 261 H 23.5356 -4.78745 0.184379 0
M  V30 262 H 21.8996 -2.547 0.00125792 0
M  V30 263 H 22.6826 -3.0379 1.59896 0
M  V30 264 N 25.1277 -0.289203 -1.54924 0
M  V30 265 C 26.3527 0.329299 -2.04769 0
M  V30 266 C 26.7777 1.4763 -1.16564 0
M  V30 267 O 26.1357 1.80527 -0.167186 0
M  V30 268 C 26.1837 0.774438 -3.52186 0
M  V30 269 O 25.2877 1.88038 -3.67036 0
M  V30 270 H 24.6287 0.0659259 -0.660719 0
M  V30 271 H 27.1587 -0.42761 -2.00082 0
M  V30 272 H 27.1687 1.06642 -3.93816 0
M  V30 273 H 25.8437 -0.0646707 -4.1585 0
M  V30 274 H 24.4207 1.58985 -3.3731 0
M  V30 275 N 26.6058 1.57591 -0.0167156 0
M  V30 276 C 28.0218 1.55946 0.339557 0
M  V30 277 C 28.2218 1.02109 1.73713 0
M  V30 278 O 27.2778 0.662303 2.43659 0
M  V30 279 C 28.5908 3.00037 0.199499 0
M  V30 280 C 30.1388 3.11805 0.273193 0
M  V30 281 C 30.6138 4.57713 0.162068 0
M  V30 282 N 32.1048 4.6268 0.219444 0
M  V30 283 C 32.8398 5.73185 0.157054 0
M  V30 284 N 32.3358 6.92786 0.0442936 0
M  V30 285 N 34.1288 5.61707 0.21014 0
M  V30 286 H 26.2798 1.90921 -0.930758 0
M  V30 287 H 28.5428 0.877674 -0.358319 0
M  V30 288 H 28.2488 3.4333 -0.76273 0
M  V30 289 H 28.1228 3.64387 0.974786 0
M  V30 290 H 30.5098 2.68433 1.22587 0
M  V30 291 H 30.5908 2.50201 -0.532256 0
M  V30 292 H 30.2348 5.01763 -0.78714 0
M  V30 293 H 30.1648 5.17283 0.986222 0
M  V30 294 H 32.6558 3.76649 0.307246 0
M  V30 295 H 32.9688 7.728 0.00304069 0
M  V30 296 H 31.3138 6.94999 0.00968457 0
M  V30 297 H 34.5048 4.6716 0.296546 0
M  V30 298 H 34.6778 6.47807 0.158054 0
M  V30 299 N 28.0839 -0.256276 1.55502 0
M  V30 300 C 29.0469 -1.30047 1.88734 0
M  V30 301 C 30.0469 -1.4154 0.763086 0
M  V30 302 O 31.2369 -1.40403 1.03115 0
M  V30 303 C 28.3689 -2.67953 2.10747 0
M  V30 304 H 29.5619 -1.01802 2.82093 0
M  V30 305 H 27.1149 -0.495134 1.4825 0
M  V30 306 H 27.8499 -3.01351 1.19825 0
M  V30 307 H 27.6349 -2.60993 2.92617 0
M  V30 308 H 29.1249 -3.43368 2.37673 0
M  V30 309 N 29.562 -1.4872 -0.521534 0
M  V30 310 C 30.512 -1.60269 -1.62166 0
M  V30 311 C 31.496 -0.45935 -1.54204 0
M  V30 312 O 32.688 -0.711241 -1.62081 0
M  V30 313 C 29.817 -1.65344 -3.00859 0
M  V30 314 C 28.903 -2.85187 -3.13894 0
M  V30 315 N 29.294 -4.09509 -2.96877 0
M  V30 316 C 27.592 -2.82695 -3.44963 0
M  V30 317 C 28.293 -4.89959 -3.13552 0
M  V30 318 N 27.269 -4.22934 -3.41508 0
M  V30 319 H 31.071 -2.5413 -1.47632 0
M  V30 320 H 28.585 -1.45209 -0.727194 0
M  V30 321 H 30.582 -1.71713 -3.79895 0
M  V30 322 H 29.242 -0.726058 -3.16478 0
M  V30 323 H 30.253 -4.39814 -2.73467 0
M  V30 324 H 26.93 -1.99249 -3.66887 0
M  V30 325 H 28.32 -5.98654 -3.05061 0
M  V30 326 N 31.0401 0.771051 -1.3745 0
M  V30 327 C 32.3171 1.519 -1.23231 0
M  V30 328 C 32.6971 2.10383 0.173809 0
M  V30 329 O 32.0451 1.95583 1.18151 0
M  V30 330 C 32.2551 2.59933 -2.32886 0
M  V30 331 C 33.6031 3.27316 -2.70461 0
M  V30 332 O 34.6271 2.70228 -2.32068 0
M  V30 333 O 33.4861 4.30531 -3.36608 0
M  V30 334 H 30.5801 0.672803 -0.480901 0
M  V30 335 H 33.1261 0.807957 -1.49232 0
M  V30 336 H 31.8981 2.14842 -3.27045 0
M  V30 337 H 31.5211 3.38637 -2.08353 0
M  V30 338 N 32.5182 1.22032 0.997298 0
M  V30 339 C 33.7662 1.04016 1.73278 0
M  V30 340 C 34.0872 -0.426255 1.90284 0
M  V30 341 O 33.3572 -1.30694 1.45931 0
M  V30 342 H 31.9372 0.381897 0.642 0
M  V30 343 H 34.5992 1.5347 1.20137 0
M  V30 344 H 33.6952 1.51441 2.72896 0
M  V30 345 N 33.9963 -1.19345 1.0293 0
M  V30 346 C 35.2733 -1.84811 0.640642 0
M  V30 347 C 35.6533 -1.91855 -0.88062 0
M  V30 348 O 35.0013 -1.43587 -1.7775 0
M  V30 349 C 35.2113 -3.23755 1.30321 0
M  V30 350 C 36.5593 -3.99912 1.42673 0
M  V30 351 O 37.5833 -3.33155 1.26041 0
M  V30 352 O 36.4423 -5.19494 1.6967 0
M  V30 353 H 33.5363 -0.796443 0.222726 0
M  V30 354 H 36.0823 -1.26831 1.12748 0
M  V30 355 H 34.8543 -3.13466 2.34211 0
M  V30 356 H 34.4773 -3.89381 0.804261 0
M  V30 357 N 35.4744 -0.807222 -1.35358 0
M  V30 358 C 36.4374 -0.223665 -2.28106 0
M  V30 359 C 37.4374 0.589354 -1.4961 0
M  V30 360 O 38.6274 0.407745 -1.69361 0
M  V30 361 C 35.7594 0.688149 -3.33882 0
M  V30 362 H 36.9524 -1.04169 -2.81227 0
M  V30 363 H 34.5054 -0.577921 -1.45223 0
M  V30 364 H 35.2404 1.52984 -2.85948 0
M  V30 365 H 35.0254 0.10687 -3.91954 0
M  V30 366 H 36.5154 1.09075 -4.03104 0
M  V30 367 N 36.9525 1.47285 -0.560781 0
M  V30 368 C 38.2005 2.02064 -0.0379868 0
M  V30 369 C 38.5215 1.43711 1.31803 0
M  V30 370 O 37.7915 0.61362 1.86042 0
M  V30 371 H 36.3715 0.746918 -0.0110531 0
M  V30 372 H 39.0335 1.80648 -0.731598 0
M  V30 373 H 38.1295 3.12064 0.0474463 0
M  V30 374 N 38.4306 0.297415 1.54768 0
M  V30 375 C 39.6766 -0.313376 2.00364 0
M  V30 376 C 40.0096 -1.53815 1.18553 0
M  V30 377 O 39.2846 -1.92739 0.261103 0
M  V30 378 C 39.5676 -0.673525 3.53745 0
M  V30 379 C 39.4206 0.560133 4.46299 0
M  V30 380 C 40.7396 -1.50143 4.13697 0
M  V30 381 H 37.8586 -0.112428 0.728374 0
M  V30 382 H 40.5006 0.4088 1.8555 0
M  V30 383 H 38.6506 -1.28881 3.665 0
M  V30 384 H 40.3226 1.19863 4.45455 0
M  V30 385 H 38.5656 1.19405 4.17043 0
M  V30 386 H 39.2366 0.26405 5.51368 0
M  V30 387 H 41.7126 -0.981588 4.04356 0
M  V30 388 H 40.5886 -1.72221 5.21182 0
M  V30 389 H 40.8496 -2.48952 3.65343 0
M  V30 390 N 39.9087 -1.5758 0.0250728 0
M  V30 391 C 41.1857 -1.82917 -0.692873 0
M  V30 392 C 41.5657 -0.908137 -1.90568 0
M  V30 393 O 40.9137 0.0372298 -2.2847 0
M  V30 394 C 41.1237 -3.32034 -1.07492 0
M  V30 395 C 42.4717 -3.98406 -1.46826 0
M  V30 396 O 43.4957 -3.36505 -1.16801 0
M  V30 397 O 42.3547 -5.07497 -2.02754 0
M  V30 398 H 39.4487 -0.754079 -0.33955 0
M  V30 399 H 41.9947 -1.69619 0.0524456 0
M  V30 400 H 40.7667 -3.90728 -0.211552 0
M  V30 401 H 40.3897 -3.50424 -1.87854 0
M  V30 402 N 41.3868 0.248026 -1.55636 0
M  V30 403 C 42.3168 1.31079 -1.93237 0
M  V30 404 C 43.2978 1.50264 -0.797174 0
M  V30 405 O 44.4828 1.62891 -1.05737 0
M  V30 406 C 41.6128 2.66575 -2.22609 0
M  V30 407 C 40.5668 2.62087 -3.3837 0
M  V30 408 C 39.8928 4.01369 -3.53281 0
M  V30 409 C 41.1928 2.19171 -4.7409 0
M  V30 410 H 42.8868 0.998556 -2.82257 0
M  V30 411 H 40.4328 0.47891 -1.35803 0
M  V30 412 H 42.3858 3.41057 -2.47503 0
M  V30 413 H 41.1098 2.99432 -1.30414 0
M  V30 414 H 39.7688 1.90063 -3.13483 0
M  V30 415 H 39.4168 4.31489 -2.58508 0
M  V30 416 H 39.1168 3.99254 -4.31127 0
M  V30 417 H 40.6408 4.77552 -3.80495 0
M  V30 418 H 42.0548 2.83384 -4.98363 0
M  V30 419 H 40.4518 2.2817 -5.5503 0
M  V30 420 H 41.5218 1.14336 -4.71227 0
M  V30 421 N 42.8649 1.48995 0.513639 0
M  V30 422 C 44.0949 1.61297 1.291 0
M  V30 423 C 44.5029 0.278656 1.87137 0
M  V30 424 O 43.8459 -0.744325 1.67945 0
M  V30 425 C 43.9079 2.61326 2.46879 0
M  V30 426 C 43.5719 4.05993 2.09807 0
M  V30 427 C 44.5689 4.93183 1.64519 0
M  V30 428 C 42.2539 4.51642 2.19829 0
M  V30 429 C 44.2479 6.24056 1.2974 0
M  V30 430 C 41.9349 5.82532 1.84662 0
M  V30 431 C 42.9329 6.68562 1.3969 0
M  V30 432 O 42.6209 7.97014 1.04992 0
M  V30 433 H 42.3529 0.546236 0.39825 0
M  V30 434 H 44.9069 1.95673 0.62459 0
M  V30 435 H 43.1369 2.22104 3.16554 0
M  V30 436 H 44.8259 2.6329 3.08923 0
M  V30 437 H 45.5919 4.59147 1.56233 0
M  V30 438 H 41.4709 3.84855 2.53786 0
M  V30 439 H 45.0149 6.91161 0.945659 0
M  V30 440 H 40.9119 6.16099 1.92594 0
M  V30 441 H 41.6799 8.09913 1.18249 0
M  V30 442 N 44.343 -0.763751 1.37857 0
M  V30 443 C 45.568 -1.55805 1.36893 0
M  V30 444 C 45.993 -1.88054 -0.0416135 0
M  V30 445 O 45.351 -1.49825 -1.02089 0
M  V30 446 C 45.399 -2.84012 2.22192 0
M  V30 447 O 44.503 -3.78732 1.63204 0
M  V30 448 H 43.844 -0.471638 0.46739 0
M  V30 449 H 46.374 -0.944657 1.81487 0
M  V30 450 H 46.384 -3.33037 2.35691 0
M  V30 451 H 45.059 -2.59869 3.24716 0
M  V30 452 H 43.636 -3.37402 1.58791 0
M  V30 453 N 45.8211 -1.22559 -0.990812 0
M  V30 454 C 46.7841 -0.998863 -2.0629 0
M  V30 455 C 47.7841 0.0354834 -1.60761 0
M  V30 456 O 48.9741 -0.203231 -1.7301 0
M  V30 457 C 46.1061 -0.509203 -3.37076 0
M  V30 458 H 47.2991 -1.95014 -2.27837 0
M  V30 459 H 44.8521 -1.04456 -1.16269 0
M  V30 460 H 45.5871 0.446335 -3.21214 0
M  V30 461 H 45.3721 -1.25547 -3.71457 0
M  V30 462 H 46.8621 -0.370888 -4.1595 0
M  V30 463 N 47.2992 1.18797 -1.03562 0
M  V30 464 C 48.2092 2.25913 -0.632505 0
M  V30 465 C 49.2252 1.70668 0.338882 0
M  V30 466 O 50.4012 2.00453 0.195076 0
M  V30 467 C 47.4662 3.467 0.00350942 0
M  V30 468 C 46.5272 4.17098 -1.01624 0
M  V30 469 C 45.7602 5.32119 -0.410478 0
M  V30 470 O 45.9832 5.64976 0.784725 0
M  V30 471 O 44.9172 5.9107 -1.13667 0
M  V30 472 H 48.7432 2.62648 -1.52478 0
M  V30 473 H 46.3282 1.25781 -0.806195 0
M  V30 474 H 48.2102 4.19878 0.35781 0
M  V30 475 H 46.8852 3.11798 0.869686 0
M  V30 476 H 45.7922 3.4601 -1.42224 0
M  V30 477 H 47.1252 4.55987 -1.85301 0
M  V30 478 N 48.7773 0.814389 1.34928 0
M  V30 479 C 50.0543 0.321363 1.92942 0
M  V30 480 C 50.4343 -1.19014 1.74353 0
M  V30 481 O 49.7823 -1.99328 1.11716 0
M  V30 482 C 49.9923 0.741323 3.41036 0
M  V30 483 C 51.3403 0.735266 4.18185 0
M  V30 484 O 52.3643 0.68336 3.49584 0
M  V30 485 O 51.2233 0.800703 5.40602 0
M  V30 486 H 48.3173 0.0858893 0.822528 0
M  V30 487 H 50.8633 0.898609 1.43955 0
M  V30 488 H 49.6353 1.78276 3.4833 0
M  V30 489 H 49.2583 0.139307 3.97356 0
M  V30 490 N 50.2554 -1.46986 0.568584 0
M  V30 491 C 51.5014 -2.02741 0.0488709 0
M  V30 492 C 51.8344 -1.44077 -1.30214 0
M  V30 493 O 51.1094 -0.600552 -1.84996 0
M  V30 494 C 51.3924 -3.60086 -0.032047 0
M  V30 495 C 51.2454 -4.29162 1.34686 0
M  V30 496 C 52.5644 -4.33838 -0.739798 0
M  V30 497 H 49.6834 -0.736749 0.0192338 0
M  V30 498 H 52.3254 -1.75289 0.733065 0
M  V30 499 H 50.4754 -3.83606 -0.61473 0
M  V30 500 H 52.1474 -4.16948 1.97362 0
M  V30 501 H 50.3904 -3.89073 1.91846 0
M  V30 502 H 51.0614 -5.37826 1.24285 0
M  V30 503 H 53.5374 -4.15378 -0.244939 0
M  V30 504 H 52.4134 -5.43537 -0.765406 0
M  V30 505 H 52.6744 -4.03875 -1.79827 0
M  V30 506 N 51.7335 -0.305618 -1.54608 0
M  V30 507 C 52.6435 0.57778 -2.27374 0
M  V30 508 C 53.6595 1.14451 -1.31061 0
M  V30 509 O 54.8355 1.16831 -1.6405 0
M  V30 510 C 51.9005 1.73123 -3.00382 0
M  V30 511 C 50.9615 1.19812 -4.12242 0
M  V30 512 C 50.1945 2.2966 -4.81759 0
M  V30 513 O 50.4175 3.49651 -4.50666 0
M  V30 514 O 49.3515 1.96091 -5.69062 0
M  V30 515 H 53.1775 -0.012624 -3.03697 0
M  V30 516 H 50.7625 -0.0719184 -1.49227 0
M  V30 517 H 52.6445 2.40315 -3.4616 0
M  V30 518 H 51.3195 2.30815 -2.26949 0
M  V30 519 H 50.2265 0.491798 -3.70853 0
M  V30 520 H 51.5595 0.666566 -4.87666 0
M  V30 521 N 53.2116 1.57565 -0.0334293 0
M  V30 522 C 54.1416 2.13511 0.945265 0
M  V30 523 C 55.1226 1.05231 1.33643 0
M  V30 524 O 56.3076 1.33084 1.41429 0
M  V30 525 C 53.4376 2.6657 2.22616 0
M  V30 526 C 52.3916 3.79676 1.97561 0
M  V30 527 C 51.7176 4.1918 3.31952 0
M  V30 528 C 53.0176 5.0557 1.31135 0
M  V30 529 H 54.7116 2.95538 0.479325 0
M  V30 530 H 52.2576 1.42166 0.229115 0
M  V30 531 H 54.2106 3.04344 2.91466 0
M  V30 532 H 52.9346 1.8171 2.71384 0
M  V30 533 H 51.5936 3.42347 1.31127 0
M  V30 534 H 51.2416 3.31296 3.78487 0
M  V30 535 H 50.9416 4.95402 3.15992 0
M  V30 536 H 52.4656 4.59541 4.02063 0
M  V30 537 H 53.8796 5.40903 1.89992 0
M  V30 538 H 52.2766 5.86818 1.25559 0
M  V30 539 H 53.3466 4.84062 0.284894 0
M  V30 540 N 54.6897 -0.239769 1.55765 0
M  V30 541 C 55.6527 -1.28038 1.90103 0
M  V30 542 C 56.6527 -1.40723 0.778055 0
M  V30 543 O 57.8427 -1.39301 1.04599 0
M  V30 544 C 54.9747 -2.65702 2.13577 0
M  V30 545 H 56.1677 -0.988048 2.83157 0
M  V30 546 H 53.7207 -0.479382 1.48767 0
M  V30 547 H 54.4557 -3.00063 1.23015 0
M  V30 548 H 54.2407 -2.57875 2.95369 0
M  V30 549 H 55.7307 -3.40828 2.41301 0
M  V30 550 N 56.1678 -1.49265 -0.50573 0
M  V30 551 C 57.5788 -1.51769 -1.08734 0
M  V30 552 C 57.9298 -0.301192 -1.93874 0
M  V30 553 O 57.0548 0.589456 -2.08217 0
M  V30 554 C 57.6498 -2.75017 -1.97867 0
M  V30 555 C 56.2088 -2.80314 -2.51199 0
M  V30 556 C 55.3558 -2.4562 -1.28709 0
M  V30 557 H 58.3068 -1.56031 -0.289855 0
M  V30 558 H 58.3278 -2.5491 -2.82491 0
M  V30 559 H 57.8398 -3.63539 -1.35873 0
M  V30 560 H 55.9408 -1.96061 -3.16845 0
M  V30 561 H 56.0538 -3.82366 -2.88675 0
M  V30 562 H 54.4178 -1.97297 -1.61078 0
M  V30 563 H 55.2008 -3.36411 -0.6843 0
M  V30 564 N 57.6459 0.756429 -1.3826 0
M  V30 565 C 58.8939 1.51248 -1.34047 0
M  V30 566 C 59.2149 1.94875 0.0698372 0
M  V30 567 O 58.4849 1.67436 1.01696 0
M  V30 568 H 57.0649 0.561018 -0.493222 0
M  V30 569 H 59.7269 0.899347 -1.7291 0
M  V30 570 H 58.8229 2.40472 -1.98947 0
M  V30 571 N 59.124 1.23083 0.984299 0
M  V30 572 C 60.54 0.992637 1.24975 0
M  V30 573 C 60.74 -0.308618 1.99123 0
M  V30 574 O 59.796 -1.02905 2.30579 0
M  V30 575 C 61.109 2.19698 2.05312 0
M  V30 576 C 62.657 2.24147 2.18465 0
M  V30 577 C 63.132 3.44157 3.02192 0
M  V30 578 N 64.623 3.44372 3.09777 0
M  V30 579 C 65.358 4.33886 3.74874 0
M  V30 580 N 64.854 5.3363 4.41827 0
M  V30 581 N 66.647 4.21639 3.71721 0
M  V30 582 H 58.798 2.06731 0.487453 0
M  V30 583 H 61.061 0.906339 0.277944 0
M  V30 584 H 60.767 3.1411 1.58201 0
M  V30 585 H 60.641 2.20465 3.06064 0
M  V30 586 H 63.028 1.30277 2.64786 0
M  V30 587 H 63.109 2.27415 1.17115 0
M  V30 588 H 62.753 4.38332 2.56568 0
M  V30 589 H 62.683 3.3813 4.03702 0
M  V30 590 H 65.174 2.72201 2.62135 0
M  V30 591 H 65.487 5.98196 4.89266 0
M  V30 592 H 63.832 5.37534 4.40548 0
M  V30 593 H 67.023 3.42962 3.18582 0
M  V30 594 H 67.196 4.91604 4.22173 0
M  V30 595 N 60.6021 -1.18246 1.0419 0
M  V30 596 C 62.0181 -1.40269 0.761366 0
M  V30 597 C 62.2181 -1.90777 -0.648578 0
M  V30 598 O 61.2741 -2.0929 -1.41258 0
M  V30 599 C 62.5871 -2.40237 1.8085 0
M  V30 600 C 64.1351 -2.53961 1.82955 0
M  V30 601 C 64.6101 -3.57194 2.86664 0
M  V30 602 N 66.1011 -3.64702 2.85563 0
M  V30 603 C 66.8361 -4.44309 3.6246 0
M  V30 604 N 66.3321 -5.27514 4.49111 0
M  V30 605 N 68.1251 -4.39084 3.50944 0
M  V30 606 H 60.2761 -0.837882 1.95175 0
M  V30 607 H 62.5391 -0.430608 0.84456 0
M  V30 608 H 62.2451 -2.10176 2.81991 0
M  V30 609 H 62.1191 -3.39601 1.64168 0
M  V30 610 H 64.5061 -2.83338 0.824855 0
M  V30 611 H 64.5871 -1.54706 2.03715 0
M  V30 612 H 64.2311 -3.28558 3.87314 0
M  V30 613 H 64.1611 -4.5613 2.6316 0
M  V30 614 H 66.6521 -3.05289 2.22727 0
M  V30 615 H 66.9651 -5.85411 5.04493 0
M  V30 616 H 65.3101 -5.2693 4.53178 0
M  V30 617 H 68.5011 -3.7313 2.82651 0
M  V30 618 H 68.6741 -5.00883 4.11121 0
M  V30 619 N 62.0802 -0.821533 -1.34494 0
M  V30 620 C 63.0432 -0.247847 -2.27856 0
M  V30 621 C 64.0432 0.573453 -1.50227 0
M  V30 622 O 65.2332 0.389759 -1.69784 0
M  V30 623 C 62.3652 0.652698 -3.34593 0
M  V30 624 H 63.5582 -1.07146 -2.80107 0
M  V30 625 H 61.1112 -0.593291 -1.44602 0
M  V30 626 H 61.8462 1.49943 -2.87555 0
M  V30 627 H 61.6312 0.065292 -3.92046 0
M  V30 628 H 63.1212 1.04793 -4.04238 0
M  V30 629 N 63.5583 1.46682 -0.576371 0
M  V30 630 C 64.4883 2.33028 0.148397 0
M  V30 631 C 65.4693 1.44961 0.889956 0
M  V30 632 O 66.6543 1.73789 0.866662 0
M  V30 633 C 63.7843 3.27117 1.1667 0
M  V30 634 C 62.7383 4.24575 0.540386 0
M  V30 635 C 62.0643 5.08126 1.6647 0
M  V30 636 C 63.3643 5.19722 -0.518331 0
M  V30 637 H 65.0583 2.93875 -0.572509 0
M  V30 638 H 62.6043 1.41315 -0.276768 0
M  V30 639 H 64.5573 3.86374 1.68204 0
M  V30 640 H 63.2813 2.64364 1.9178 0
M  V30 641 H 61.9403 3.66571 0.0461769 0
M  V30 642 H 61.5883 4.41762 2.40531 0
M  V30 643 H 61.2883 5.74122 1.25131 0
M  V30 644 H 62.8123 5.70246 2.18293 0
M  V30 645 H 64.2263 5.73232 -0.0883058 0
M  V30 646 H 62.6233 5.94026 -0.851679 0
M  V30 647 H 63.6933 4.64037 -1.40703 0
M  V30 648 N 65.0364 0.313813 1.54444 0
M  V30 649 C 66.2824 -0.292108 2.00685 0
M  V30 650 C 66.6154 -1.52548 1.20177 0
M  V30 651 O 65.8904 -1.92452 0.281531 0
M  V30 652 C 66.1734 -0.635968 3.5444 0
M  V30 653 C 66.0264 0.607437 4.4568 0
M  V30 654 C 67.3454 -1.45747 4.15266 0
M  V30 655 H 64.4644 -0.104697 0.729526 0
M  V30 656 H 67.1064 0.428457 1.85106 0
M  V30 657 H 65.2564 -1.24986 3.67846 0
M  V30 658 H 66.9284 1.24581 4.44159 0
M  V30 659 H 65.1714 1.23822 4.15753 0
M  V30 660 H 65.8424 0.322515 5.51057 0
M  V30 661 H 68.3184 -0.938645 4.05375 0
M  V30 662 H 67.1944 -1.66683 5.2298 0
M  V30 663 H 67.4554 -2.45063 3.67963 0
M  V30 664 N 66.5145 -1.57545 0.0417849 0
M  V30 665 C 67.9305 -1.56467 -0.314704 0
M  V30 666 C 68.1305 -1.04859 -1.72066 0
M  V30 667 O 67.1865 -0.700983 -2.42575 0
M  V30 668 C 68.4995 -3.00317 -0.15174 0
M  V30 669 C 70.0475 -3.12201 -0.223553 0
M  V30 670 C 70.5225 -4.57913 -0.0892295 0
M  V30 671 N 72.0135 -4.6297 -0.145808 0
M  V30 672 C 72.7485 -5.73362 -0.0658459 0
M  V30 673 N 72.2445 -6.92769 0.0659282 0
M  V30 674 N 74.0375 -5.6197 -0.12075 0
M  V30 675 H 66.1885 -1.89416 0.961014 0
M  V30 676 H 68.4515 -0.871862 0.372237 0
M  V30 677 H 68.1575 -3.42073 0.817254 0
M  V30 678 H 68.0315 -3.65892 -0.916692 0
M  V30 679 H 70.4185 -2.70349 -1.18301 0
M  V30 680 H 70.4995 -2.49323 0.571994 0
M  V30 681 H 70.1435 -5.00448 0.866867 0
M  V30 682 H 70.0735 -5.18786 -0.903802 0
M  V30 683 H 72.5645 -3.7709 -0.247286 0
M  V30 684 H 72.8775 -7.72707 0.119905 0
M  V30 685 H 71.2225 -6.94927 0.100885 0
M  V30 686 H 74.4135 -4.67572 -0.222187 0
M  V30 687 H 74.5865 -6.47977 -0.0549735 0
M  V30 688 N 67.9926 0.231505 -1.5589 0
M  V30 689 C 69.2206 0.974505 -1.82513 0
M  V30 690 C 69.6356 1.78344 -0.619591 0
M  V30 691 O 68.9926 1.77792 0.411848 0
M  V30 692 C 69.0436 1.90007 -3.07538 0
M  V30 693 O 68.7646 1.12385 -4.2344 0
M  V30 694 C 70.2656 2.75779 -3.47075 0
M  V30 695 H 67.4856 0.286065 -0.606966 0
M  V30 696 H 70.0296 0.249739 -2.02969 0
M  V30 697 H 68.1846 2.57891 -2.89086 0
M  V30 698 H 68.5986 1.75125 -4.944 0
M  V30 699 H 70.0726 3.36443 -4.37619 0
M  V30 700 H 70.5496 3.47672 -2.68367 0
M  V30 701 H 71.1556 2.13323 -3.67931 0
M  V30 702 N 69.4707 1.49531 0.497807 0
M  V30 703 C 70.7187 1.58865 1.24926 0
M  V30 704 C 71.0397 0.278721 1.92998 0
M  V30 705 O 70.3097 -0.702144 1.82885 0
M  V30 706 H 68.8897 0.585343 0.464094 0
M  V30 707 H 71.5517 1.86174 0.57666 0
M  V30 708 H 70.6477 2.38633 2.01149 0
M  V30 709 N 70.9488 -0.749086 1.3866 0
M  V30 710 C 72.1948 -1.51056 1.35314 0
M  V30 711 C 72.5278 -1.94121 -0.0553751 0
M  V30 712 O 71.8028 -1.65763 -1.01749 0
M  V30 713 C 72.0858 -2.76003 2.31288 0
M  V30 714 C 71.9388 -2.39047 3.8102 0
M  V30 715 C 73.2578 -3.78046 2.2532 0
M  V30 716 H 70.3768 -0.547972 0.492844 0
M  V30 717 H 73.0188 -0.857628 1.69543 0
M  V30 718 H 71.1688 -3.31716 2.02229 0
M  V30 719 H 72.8408 -1.89074 4.20771 0
M  V30 720 H 71.0838 -1.71449 3.98482 0
M  V30 721 H 71.7548 -3.28462 4.4364 0
M  V30 722 H 74.2308 -3.31884 2.50983 0
M  V30 723 H 73.1068 -4.63159 2.94576 0
M  V30 724 H 73.3678 -4.23957 1.25352 0
M  V30 725 N 72.4269 -1.23603 -0.977757 0
M  V30 726 C 73.3899 -1.02069 -2.05218 0
M  V30 727 C 74.3899 0.0184305 -1.60789 0
M  V30 728 O 75.5799 -0.221569 -1.72785 0
M  V30 729 C 72.7119 -0.544926 -3.36517 0
M  V30 730 H 73.9049 -1.9742 -2.25755 0
M  V30 731 H 71.4579 -1.05684 -1.15155 0
M  V30 732 H 72.1929 0.412241 -3.21669 0
M  V30 733 H 71.9779 -1.2948 -3.70105 0
M  V30 734 H 73.4679 -0.414985 -4.15533 0
M  V30 735 N 73.905 1.17692 -1.04816 0
M  V30 736 C 75.151 1.88137 -0.75711 0
M  V30 737 C 75.484 1.80604 0.713841 0
M  V30 738 O 74.759 1.21146 1.52164 0
M  V30 739 C 75.042 3.38318 -1.2334 0
M  V30 740 C 74.895 3.54622 -2.76701 0
M  V30 741 C 76.214 4.32214 -0.829415 0
M  V30 742 H 73.333 0.683163 -0.27651 0
M  V30 743 H 75.975 1.38424 -1.30149 0
M  V30 744 H 74.125 3.80787 -0.770286 0
M  V30 745 H 75.797 3.21194 -3.31107 0
M  V30 746 H 74.04 2.97026 -3.16161 0
M  V30 747 H 74.711 4.60028 -3.05088 0
M  V30 748 H 77.187 3.97565 -1.22805 0
M  V30 749 H 76.063 5.35838 -1.19033 0
M  V30 750 H 76.324 4.41294 0.266891 0
M  V30 751 N 75.3831 0.828654 1.34056 0
M  V30 752 C 76.3461 0.259927 2.27721 0
M  V30 753 C 77.3461 -0.565478 1.50529 0
M  V30 754 O 78.5361 -0.38075 1.69988 0
M  V30 755 C 75.6681 -0.634944 3.34935 0
M  V30 756 H 76.8611 1.0863 2.79534 0
M  V30 757 H 74.4141 0.600951 1.44285 0
M  V30 758 H 75.1491 -1.48416 2.88346 0
M  V30 759 H 74.9341 -0.0444999 3.92075 0
M  V30 760 H 76.4241 -1.02648 4.04788 0
M  V30 761 N 76.8612 -1.46375 0.584142 0
M  V30 762 C 78.1072 -2.02678 0.0703716 0
M  V30 763 C 78.4402 -1.4545 -1.28678 0
M  V30 764 O 77.7152 -0.62014 -1.84349 0
M  V30 765 C 77.9982 -3.60099 0.00614674 0
M  V30 766 C 77.8512 -4.27709 1.3923 0
M  V30 767 C 79.1702 -4.34598 -0.693742 0
M  V30 768 H 76.2892 -0.736504 0.027047 0
M  V30 769 H 78.9312 -1.74501 0.751615 0
M  V30 770 H 77.0812 -3.84236 -0.574009 0
M  V30 771 H 78.7532 -4.14832 2.01773 0
M  V30 772 H 76.9962 -3.87016 1.95962 0
M  V30 773 H 77.6672 -5.36478 1.29982 0
M  V30 774 H 80.1432 -4.15615 -0.200869 0
M  V30 775 H 79.0192 -5.44318 -0.707714 0
M  V30 776 H 79.2802 -4.05759 -1.75533 0
M  V30 777 N 78.3393 -0.321999 -1.54275 0
M  V30 778 C 79.7503 0.166384 -1.85957 0
M  V30 779 C 80.1013 1.51747 -1.24367 0
M  V30 780 O 79.2263 2.09317 -0.549124 0
M  V30 781 C 79.8213 0.308681 -3.37391 0
M  V30 782 C 78.3803 0.741286 -3.69028 0
M  V30 783 C 77.5273 -0.137937 -2.76957 0
M  V30 784 H 80.4783 -0.542335 -1.49146 0
M  V30 785 H 80.4993 1.13984 -3.63026 0
M  V30 786 H 80.0113 -0.674809 -3.82188 0
M  V30 787 H 78.1123 1.73458 -3.29762 0
M  V30 788 H 78.2253 0.546118 -4.75977 0
M  V30 789 H 76.5893 0.386251 -2.51754 0
M  V30 790 H 77.3723 -1.11816 -3.2458 0
M  V30 791 N 79.8174 1.5752 -0.0501392 0
M  V30 792 C 81.0644 1.9265 0.623874 0
M  V30 793 C 81.3924 0.928411 1.70912 0
M  V30 794 O 80.6474 -0.0594525 1.9561 0
M  V30 795 C 80.9464 3.34467 1.25963 0
M  V30 796 C 80.6124 4.49883 0.302689 0
M  V30 797 C 79.2744 4.81184 0.0393636 0
M  V30 798 C 81.6264 5.20002 -0.353205 0
M  V30 799 C 78.9544 5.79951 -0.887308 0
M  V30 800 C 81.3064 6.1976 -1.26806 0
M  V30 801 C 79.9704 6.49491 -1.54007 0
M  V30 802 H 79.2404 0.704957 0.228292 0
M  V30 803 H 81.8874 1.91146 -0.116398 0
M  V30 804 H 80.1924 3.32333 2.07514 0
M  V30 805 H 81.8894 3.58928 1.78806 0
M  V30 806 H 78.4794 4.25457 0.518109 0
M  V30 807 H 82.6634 4.96033 -0.162854 0
M  V30 808 H 77.9194 6.01322 -1.10553 0
M  V30 809 H 82.0934 6.73205 -1.78236 0
M  V30 810 H 79.7204 7.25837 -2.25976 0
M  V30 811 N 81.2955 -0.223234 1.56011 0
M  V30 812 C 82.5435 -0.946003 1.78592 0
M  V30 813 C 82.8645 -1.84936 0.618349 0
M  V30 814 O 82.1345 -1.92473 -0.364833 0
M  V30 815 H 80.7145 -0.352298 0.658707 0
M  V30 816 H 83.3765 -0.235494 1.93472 0
M  V30 817 H 82.4725 -1.55381 2.70672 0
M  V30 818 N 82.7736 -1.49793 -0.48987 0
M  V30 819 C 83.7066 -1.61898 -1.60823 0
M  V30 820 C 84.6846 -0.467651 -1.5573 0
M  V30 821 O 85.8686 -0.684682 -1.75626 0
M  V30 822 C 82.9956 -1.58422 -2.99366 0
M  V30 823 C 82.0416 -2.78889 -3.22682 0
M  V30 824 S 82.8746 -4.40429 -3.04602 0
M  V30 825 C 84.0306 -4.39617 -4.4552 0
M  V30 826 H 84.2636 -2.56502 -1.50312 0
M  V30 827 H 81.7966 -1.38822 -0.675849 0
M  V30 828 H 83.7546 -1.57103 -3.79248 0
M  V30 829 H 82.4156 -0.650866 -3.07283 0
M  V30 830 H 81.6086 -2.72708 -4.23847 0
M  V30 831 H 81.2106 -2.77678 -2.50541 0
M  V30 832 H 83.5026 -4.12022 -5.37814 0
M  V30 833 H 84.4456 -5.41097 -4.56749 0
M  V30 834 H 84.8536 -3.69554 -4.2672 0
M  V30 835 N 84.2517 0.741722 -1.39055 0
M  V30 836 C 85.4977 1.50336 -1.36113 0
M  V30 837 C 85.8307 1.94148 0.0450796 0
M  V30 838 O 85.1057 1.66301 1.00868 0
M  V30 839 C 85.3887 2.74773 -2.32749 0
M  V30 840 C 85.2417 2.37023 -3.82283 0
M  V30 841 C 86.5607 3.76846 -2.27322 0
M  V30 842 H 83.6797 0.545351 -0.495743 0
M  V30 843 H 86.3217 0.848624 -1.69995 0
M  V30 844 H 84.4717 3.30639 -2.03986 0
M  V30 845 H 86.1437 1.8684 -4.21768 0
M  V30 846 H 84.3867 1.69334 -3.99385 0
M  V30 847 H 85.0577 3.26104 -4.45376 0
M  V30 848 H 87.5337 3.30548 -2.5274 0
M  V30 849 H 86.4097 4.6159 -2.97028 0
M  V30 850 H 86.6707 4.23286 -1.27599 0
M  V30 851 N 85.7298 1.2412 0.971189 0
M  V30 852 C 86.9778 1.07668 1.71032 0
M  V30 853 C 87.2988 -0.385797 1.91146 0
M  V30 854 O 86.5688 -1.27569 1.4867 0
M  V30 855 H 85.1488 0.395429 0.633755 0
M  V30 856 H 87.8108 1.55984 1.16855 0
M  V30 857 H 86.9068 1.57195 2.69622 0
M  V30 858 N 87.2079 -1.17134 1.05439 0
M  V30 859 C 88.1379 -2.2342 0.678649 0
M  V30 860 C 89.1189 -1.66971 -0.32476 0
M  V30 861 O 90.3039 -1.93149 -0.201802 0
M  V30 862 C 87.4339 -3.47256 0.0552099 0
M  V30 863 C 86.3879 -4.16543 0.98365 0
M  V30 864 C 85.7139 -5.34231 0.223961 0
M  V30 865 C 87.0139 -4.68495 2.3089 0
M  V30 866 H 88.7079 -2.55105 1.56722 0
M  V30 867 H 86.2539 -1.2262 0.754998 0
M  V30 868 H 88.2069 -4.20828 -0.21946 0
M  V30 869 H 86.9309 -3.14846 -0.868319 0
M  V30 870 H 85.5899 -3.44887 1.24293 0
M  V30 871 H 85.2379 -4.98071 -0.702412 0
M  V30 872 H 84.9379 -5.81527 0.842627 0
M  V30 873 H 86.4619 -6.10585 -0.0433671 0
M  V30 874 H 87.8759 -5.33691 2.09396 0
M  V30 875 H 86.2729 -5.26379 2.88176 0
M  V30 876 H 87.3429 -3.85169 2.94572 0
M  V30 877 N 88.686 -0.835752 -1.33615 0
M  V30 878 C 89.932 -0.430596 -1.98176 0
M  V30 879 C 90.265 1.00684 -1.66061 0
M  V30 880 O 89.54 1.70339 -0.938877 0
M  V30 881 C 89.823 -0.648065 -3.5422 0
M  V30 882 C 89.676 -2.13255 -3.96033 0
M  V30 883 C 90.995 -0.0922113 -4.40003 0
M  V30 884 H 88.114 -0.157924 -0.719881 0
M  V30 885 H 90.756 -1.05069 -1.58305 0
M  V30 886 H 88.906 -0.120237 -3.88314 0
M  V30 887 H 90.578 -2.725 -3.72211 0
M  V30 888 H 88.821 -2.61823 -3.45878 0
M  V30 889 H 89.492 -2.23547 -5.04708 0
M  V30 890 H 91.968 -0.543343 -4.12537 0
M  V30 891 H 90.844 -0.274083 -5.48215 0
M  V30 892 H 91.105 1.00378 -4.30554 0
M  V30 893 N 90.1641 1.46063 -0.591896 0
M  V30 894 C 91.1141 2.27458 0.157172 0
M  V30 895 C 92.0981 1.3641 0.853301 0
M  V30 896 O 93.2901 1.60517 0.74588 0
M  V30 897 C 90.4191 3.22956 1.16423 0
M  V30 898 C 89.5051 4.2149 0.469742 0
M  V30 899 N 89.8961 5.03519 -0.479839 0
M  V30 900 C 88.1941 4.40161 0.719319 0
M  V30 901 C 88.8951 5.74904 -0.886591 0
M  V30 902 N 87.8711 5.43097 -0.233731 0
M  V30 903 H 91.6731 2.88272 -0.572392 0
M  V30 904 H 89.1871 1.57024 -0.414375 0
M  V30 905 H 91.1841 3.79986 1.71513 0
M  V30 906 H 89.8441 2.63701 1.89451 0
M  V30 907 H 90.8551 5.1078 -0.855823 0
M  V30 908 H 87.5321 3.92046 1.43548 0
M  V30 909 H 88.9221 6.50844 -1.66888 0
M  V30 910 N 91.6422 0.330177 1.54103 0
M  V30 911 C 93.0532 -0.15652 1.86043 0
M  V30 912 C 93.4042 -1.51086 1.2517 0
M  V30 913 O 92.5292 -2.09023 0.560217 0
M  V30 914 C 93.1242 -0.290784 3.3755 0
M  V30 915 C 91.6832 -0.721705 3.69416 0
M  V30 916 C 90.8302 0.152622 2.7688 0
M  V30 917 H 93.7812 0.550237 1.48856 0
M  V30 918 H 93.8022 -1.12058 3.63625 0
M  V30 919 H 93.3142 0.695068 3.81825 0
M  V30 920 H 91.4152 -1.71706 3.30678 0
M  V30 921 H 91.5282 -0.520869 4.7626 0
M  V30 922 H 89.8922 -0.372894 2.51956 0
M  V30 923 H 90.6752 1.13536 3.23982 0
M  V30 924 N 93.1203 -1.57491 0.0584922 0
M  V30 925 C 94.5363 -1.56792 -0.298091 0
M  V30 926 C 94.7363 -1.06679 -1.70944 0
M  V30 927 O 93.7923 -0.726672 -2.41818 0
M  V30 928 C 95.1053 -3.00461 -0.119879 0
M  V30 929 C 96.6533 -3.1242 -0.190428 0
M  V30 930 C 97.1283 -4.57982 -0.0406567 0
M  V30 931 N 98.6193 -4.63099 -0.0966958 0
M  V30 932 C 99.3543 -5.734 -0.00502943 0
M  V30 933 N 98.8503 -6.9266 0.139402 0
M  V30 934 N 100.643 -5.62067 -0.0611391 0
M  V30 935 H 92.7943 -1.88386 0.98105 0
M  V30 936 H 95.0573 -0.867865 0.381463 0
M  V30 937 H 94.7633 -3.41187 0.85349 0
M  V30 938 H 94.6373 -3.66843 -0.877833 0
M  V30 939 H 97.0243 -2.71589 -1.15427 0
M  V30 940 H 97.1053 -2.48702 0.598405 0
M  V30 941 H 96.7493 -4.995 0.919897 0
M  V30 942 H 96.6793 -5.19715 -0.848727 0
M  V30 943 H 99.1703 -3.77331 -0.207277 0
M  V30 944 H 99.4833 -7.72536 0.201855 0
M  V30 945 H 97.8283 -6.94781 0.174586 0
M  V30 946 H 101.019 -4.67782 -0.172583 0
M  V30 947 H 101.192 -6.47999 0.0137562 0
M  V30 948 N 94.5984 0.214957 -1.56127 0
M  V30 949 C 95.8234 0.95924 -1.83884 0
M  V30 950 C 96.2484 1.7689 -0.639644 0
M  V30 951 O 95.6064 1.76566 0.411601 0
M  V30 952 C 95.6544 1.84723 -3.09693 0
M  V30 953 O 94.7584 2.94346 -2.8885 0
M  V30 954 H 94.0994 0.27125 -0.606069 0
M  V30 955 H 96.6294 0.226276 -2.03345 0
M  V30 956 H 96.6394 2.25576 -3.39969 0
M  V30 957 H 95.3144 1.25218 -3.96602 0
M  V30 958 H 93.8914 2.57391 -2.69823 0
M  V30 959 N 96.0765 1.50051 0.48192 0
M  V30 960 C 97.3245 1.60181 1.23234 0
M  V30 961 C 97.6455 0.299176 1.92691 0
M  V30 962 O 96.9155 -0.682708 1.83619 0
M  V30 963 H 95.4955 0.590232 0.457859 0
M  V30 964 H 98.1575 1.86775 0.556881 0
M  V30 965 H 97.2535 2.40753 1.98607 0
M  V30 966 N 97.5546 -0.734337 1.39446 0
M  V30 967 C 98.4846 -1.86155 1.40955 0
M  V30 968 C 99.4656 -1.67898 0.272827 0
M  V30 969 O 100.651 -1.88207 0.478743 0
M  V30 970 C 97.7806 -3.23912 1.25294 0
M  V30 971 C 96.7346 -3.56808 2.36373 0
M  V30 972 C 96.0606 -4.93508 2.058 0
M  V30 973 C 97.3606 -3.59713 3.78687 0
M  V30 974 H 99.0546 -1.8515 2.35287 0
M  V30 975 H 96.6006 -0.889367 1.13253 0
M  V30 976 H 98.5536 -4.02443 1.2497 0
M  V30 977 H 97.2776 -3.25446 0.274308 0
M  V30 978 H 95.9366 -2.80606 2.35914 0
M  V30 979 H 95.5846 -4.91623 1.06374 0
M  V30 980 H 95.2846 -5.16486 2.80208 0
M  V30 981 H 96.8086 -5.74396 2.07128 0
M  V30 982 H 98.2226 -4.2832 3.81071 0
M  V30 983 H 96.6196 -3.94209 4.52459 0
M  V30 984 H 97.6896 -2.59504 4.09617 0
M  V30 985 N 99.0327 -1.24633 -0.964593 0
M  V30 986 C 99.9957 -1.0424 -2.04124 0
M  V30 987 C 100.996 0.00137563 -1.608 0
M  V30 988 O 102.186 -0.239883 -1.7254 0
M  V30 989 C 99.3177 -0.580588 -3.3592 0
M  V30 990 H 100.511 -1.99803 -2.23649 0
M  V30 991 H 98.0637 -1.06899 -1.14027 0
M  V30 992 H 98.7987 0.3781 -3.22088 0
M  V30 993 H 98.5837 -1.33398 -3.6871 0
M  V30 994 H 100.074 -0.459034 -4.15069 0
M  V30 995 N 100.511 1.16574 -1.06058 0
M  V30 996 C 101.739 1.90952 -0.796552 0
M  V30 997 C 102.154 1.77302 0.648808 0
M  V30 998 O 101.511 1.11605 1.44397 0
M  V30 999 C 101.562 3.41736 -1.17894 0
M  V30 1000 O 101.283 3.54975 -2.56758 0
M  V30 1001 C 102.784 4.33169 -0.942308 0
M  V30 1002 H 100.004 0.605594 -0.288959 0
M  V30 1003 H 102.548 1.47777 -1.41358 0
M  V30 1004 H 100.703 3.82623 -0.606491 0
M  V30 1005 H 101.117 4.4846 -2.72 0
M  V30 1006 H 102.591 5.37439 -1.25952 0
M  V30 1007 H 103.068 4.3903 0.122078 0
M  V30 1008 H 103.674 3.98007 -1.49902 0
M  V30 1009 N 101.989 0.842826 1.3317 0
M  V30 1010 C 103.405 0.531128 1.50503 0
M  V30 1011 C 103.605 -0.940734 1.78192 0
M  V30 1012 O 102.661 -1.72436 1.84451 0
M  V30 1013 C 103.974 1.40789 2.65705 0
M  V30 1014 C 105.522 1.40708 2.79589 0
M  V30 1015 C 105.997 2.26878 3.97857 0
M  V30 1016 N 107.488 2.24609 4.05099 0
M  V30 1017 C 108.223 2.88019 4.95815 0
M  V30 1018 N 107.719 3.60496 5.9162 0
M  V30 1019 N 109.512 2.77469 4.88843 0
M  V30 1020 H 101.663 1.79557 1.1346 0
M  V30 1021 H 103.926 0.766267 0.558156 0
M  V30 1022 H 103.632 2.454 2.51936 0
M  V30 1023 H 103.506 1.08677 3.61205 0
M  V30 1024 H 105.893 0.368668 2.92788 0
M  V30 1025 H 105.974 1.76829 1.84838 0
M  V30 1026 H 105.618 3.3078 3.85418 0
M  V30 1027 H 105.548 1.88096 4.91861 0
M  V30 1028 H 108.039 1.71906 3.36536 0
M  V30 1029 H 108.352 4.06076 6.57512 0
M  V30 1030 H 106.697 3.64604 5.91683 0
M  V30 1031 H 109.888 2.20406 4.12963 0
M  V30 1032 H 110.061 3.2717 5.59342 0
M  V30 1033 N 103.467 -1.45747 0.599634 0
M  V30 1034 C 104.713 -2.02592 0.0918643 0
M  V30 1035 C 105.046 -1.46806 -1.27128 0
M  V30 1036 O 104.321 -0.639658 -1.83681 0
M  V30 1037 C 104.604 -3.60073 0.0443398 0
M  V30 1038 C 104.457 -4.26208 1.43759 0
M  V30 1039 C 105.776 -4.35309 -0.647608 0
M  V30 1040 H 102.895 -0.736175 0.034857 0
M  V30 1041 H 105.537 -1.73694 0.770081 0
M  V30 1042 H 103.687 -3.84823 -0.533224 0
M  V30 1043 H 105.359 -4.12668 2.06162 0
M  V30 1044 H 103.602 -3.84916 2.00056 0
M  V30 1045 H 104.273 -5.35069 1.35665 0
M  V30 1046 H 106.749 -4.15805 -0.156776 0
M  V30 1047 H 105.625 -5.45038 -0.649942 0
M  V30 1048 H 105.886 -4.07598 -1.71219 0
M  V30 1049 N 104.945 -0.338344 -1.53925 0
M  V30 1050 C 106.193 0.259245 -2.0043 0
M  V30 1051 C 106.514 1.51484 -1.22791 0
M  V30 1052 O 105.784 1.93037 -0.33368 0
M  V30 1053 H 104.364 0.0987845 -0.740439 0
M  V30 1054 H 107.026 -0.458302 -1.89435 0
M  V30 1055 H 106.122 0.505334 -3.07982 0
M  V30 1056 N 106.423 1.57458 -0.0668435 0
M  V30 1057 C 107.353 2.15468 0.899764 0
M  V30 1058 C 108.334 1.08042 1.31381 0
M  V30 1059 O 109.519 1.36054 1.38574 0
M  V30 1060 C 106.649 2.71232 2.16911 0
M  V30 1061 C 105.603 3.83781 1.89463 0
M  V30 1062 C 104.929 4.26127 3.22986 0
M  V30 1063 C 106.229 5.08238 1.20381 0
M  V30 1064 H 107.923 2.96488 0.416529 0
M  V30 1065 H 105.469 1.4262 0.198908 0
M  V30 1066 H 107.422 3.10458 2.84945 0
M  V30 1067 H 106.146 1.87426 2.67468 0
M  V30 1068 H 104.805 3.45051 1.23836 0
M  V30 1069 H 104.453 3.39249 3.71374 0
M  V30 1070 H 104.153 5.01993 3.05413 0
M  V30 1071 H 105.677 4.67966 3.92225 0
M  V30 1072 H 107.091 5.44811 1.78475 0
M  V30 1073 H 105.488 5.89349 1.13083 0
M  V30 1074 H 106.558 4.84558 0.182153 0
M  V30 1075 N 107.901 -0.206675 1.56239 0
M  V30 1076 C 109.126 -0.949474 1.8439 0
M  V30 1077 C 109.551 -1.76549 0.649016 0
M  V30 1078 O 108.909 -1.76782 -0.402231 0
M  V30 1079 C 108.957 -1.83078 3.10668 0
M  V30 1080 O 108.061 -2.9281 2.90407 0
M  V30 1081 H 107.402 -0.268033 0.607499 0
M  V30 1082 H 109.932 -0.215488 2.03462 0
M  V30 1083 H 109.942 -2.2377 3.41161 0
M  V30 1084 H 108.617 -1.23112 3.97261 0
M  V30 1085 H 107.194 -2.55956 2.71184 0
M  V30 1086 N 109.379 -1.50304 -0.473955 0
M  V30 1087 C 110.628 -1.60392 -1.22301 0
M  V30 1088 C 110.941 -0.308411 -1.93153 0
M  V30 1089 O 112.147 -0.288156 -2.69966 0
M  V30 1090 C 110.603 -2.83109 -2.2221 0
M  V30 1091 C 110.211 -4.19524 -1.57173 0
M  V30 1092 C 111.955 -3.0254 -2.97775 0
M  V30 1093 C 109.862 -5.33431 -2.55353 0
M  V30 1094 H 108.792 -0.597286 -0.460179 0
M  V30 1095 H 111.443 -1.76731 -0.493803 0
M  V30 1096 H 109.825 -2.60322 -2.9841 0
M  V30 1097 H 110.999 -4.52554 -0.867824 0
M  V30 1098 H 109.314 -4.05674 -0.939002 0
M  V30 1099 H 111.911 -3.84811 -3.71248 0
M  V30 1100 H 112.254 -2.14154 -3.56992 0
M  V30 1101 H 112.787 -3.25494 -2.28688 0
M  V30 1102 H 109.526 -6.23962 -2.00878 0
M  V30 1103 H 109.046 -5.04823 -3.23904 0
M  V30 1104 H 110.725 -5.63887 -3.17239 0
M  V30 1105 N 110.857 0.726932 -1.39834 0
M  V30 1106 C 112.103 1.48884 -1.377 0
M  V30 1107 C 112.436 1.94185 0.0244852 0
M  V30 1108 O 111.711 1.67361 0.990986 0
M  V30 1109 C 111.994 2.72288 -2.3565 0
M  V30 1110 C 111.847 2.32956 -3.84775 0
M  V30 1111 C 113.166 3.74414 -2.31306 0
M  V30 1112 H 110.285 0.540062 -0.5015 0
M  V30 1113 H 112.927 0.830547 -1.70886 0
M  V30 1114 H 111.077 3.28457 -2.07481 0
M  V30 1115 H 112.749 1.82356 -4.23726 0
M  V30 1116 H 110.992 1.65088 -4.01159 0
M  V30 1117 H 111.663 3.21362 -4.4881 0
M  V30 1118 H 114.139 3.27849 -2.56231 0
M  V30 1119 H 113.015 4.58414 -3.01907 0
M  V30 1120 H 113.276 4.21909 -1.32081 0
M  V30 1121 N 112.336 1.25143 0.95797 0
M  V30 1122 C 113.284 1.05019 2.07542 0
M  V30 1123 C 114.278 -0.0178751 1.69391 0
M  V30 1124 O 115.484 0.137472 1.79474 0
M  V30 1125 H 111.859 0.32265 0.679265 0
M  V30 1126 H 113.83 1.99759 2.21673 0
M  V30 1127 C 112.579 0.682074 3.40944 0
M  V30 1128 H 111.902 1.49573 3.70767 0
M  V30 1129 H 113.342 0.580945 4.20001 0
M  V30 1130 C 111.801 -0.611608 3.31302 0
M  V30 1131 O 112.331 -1.65465 3.66038 0
M  V30 1132 N 110.537 -0.595982 2.84423 0
M  V30 1133 H 110.084 0.253192 2.56353 0
M  V30 1134 H 110.042 -1.46173 2.78354 0
M  V30 1135 N 113.814 -1.1601 1.06675 0
M  V30 1136 C 115.039 -1.91068 0.806706 0
M  V30 1137 C 115.464 -1.77112 -0.633485 0
M  V30 1138 O 114.822 -1.09908 -1.44187 0
M  V30 1139 C 114.87 -3.39655 1.21106 0
M  V30 1140 O 113.974 -4.10893 0.352189 0
M  V30 1141 H 113.315 -0.595125 0.294486 0
M  V30 1142 H 115.845 -1.46955 1.42356 0
M  V30 1143 H 115.855 -3.90434 1.18428 0
M  V30 1144 H 114.53 -3.49132 2.26008 0
M  V30 1145 H 113.107 -3.70285 0.440868 0
M  V30 1146 N 115.292 -0.849877 -1.32721 0
M  V30 1147 C 116.703 -0.506188 -1.79707 0
M  V30 1148 C 117.054 0.975627 -1.70223 0
M  V30 1149 O 116.179 1.76078 -1.25799 0
M  V30 1150 C 116.774 -0.912044 -3.26293 0
M  V30 1151 C 115.333 -0.620326 -3.71253 0
M  V30 1152 C 114.48 -1.11439 -2.53922 0
M  V30 1153 H 117.431 -1.03754 -1.20087 0
M  V30 1154 H 117.452 -0.226493 -3.79825 0
M  V30 1155 H 116.964 -1.99057 -3.33164 0
M  V30 1156 H 115.065 0.447674 -3.69901 0
M  V30 1157 H 115.178 -1.18327 -4.64258 0
M  V30 1158 H 113.542 -0.534834 -2.49021 0
M  V30 1159 H 114.325 -2.19992 -2.6355 0
M  V30 1160 N 116.77 1.45427 -0.607355 0
M  V30 1161 C 118.018 2.01841 -0.102253 0
M  V30 1162 C 118.339 1.47832 1.27164 0
M  V30 1163 O 117.609 0.672497 1.83995 0
M  V30 1164 H 116.189 0.746188 -0.0348101 0
M  V30 1165 H 118.851 1.78229 -0.7887 0
M  V30 1166 H 117.947 3.12057 -0.0518585 0
M  V30 1167 N 118.248 0.346503 1.53744 0
M  V30 1168 C 119.476 -0.25041 2.05379 0
M  V30 1169 C 119.891 -1.43979 1.22129 0
M  V30 1170 O 119.248 -1.80677 0.257321 0
M  V30 1171 C 119.299 -0.662575 3.55376 0
M  V30 1172 O 119.02 0.479515 4.35468 0
M  V30 1173 C 120.521 -1.31989 4.23195 0
M  V30 1174 H 117.741 -0.0478198 0.669294 0
M  V30 1175 H 120.285 0.499346 1.9831 0
M  V30 1176 H 118.44 -1.36227 3.62658 0
M  V30 1177 H 118.854 0.15037 5.24284 0
M  V30 1178 H 120.328 -1.55902 5.29527 0
M  V30 1179 H 120.805 -2.27436 3.75725 0
M  V30 1180 H 121.411 -0.662154 4.20114 0
M  V30 1181 N 119.726 -1.57421 0.075193 0
M  V30 1182 C 120.975 -1.92794 -0.592731 0
M  V30 1183 C 121.288 -0.957478 -1.70563 0
M  V30 1184 O 122.494 -1.20417 -2.43335 0
M  V30 1185 C 120.95 -3.42495 -1.10569 0
M  V30 1186 C 120.558 -4.47994 -0.0236121 0
M  V30 1187 C 122.302 -3.86864 -1.74748 0
M  V30 1188 C 120.209 -5.88829 -0.550803 0
M  V30 1189 H 119.139 -0.719591 -0.225177 0
M  V30 1190 H 121.79 -1.82902 0.147978 0
M  V30 1191 H 120.172 -3.47471 -1.89947 0
M  V30 1192 H 121.346 -4.54637 0.751099 0
M  V30 1193 H 119.661 -4.13113 0.522159 0
M  V30 1194 H 122.258 -4.8947 -2.15229 0
M  V30 1195 H 122.601 -3.24417 -2.60882 0
M  V30 1196 H 123.134 -3.84504 -1.01986 0
M  V30 1197 H 119.873 -6.54929 0.273457 0
M  V30 1198 H 119.393 -5.85698 -1.29296 0
M  V30 1199 H 121.072 -6.38811 -1.02613 0
M  V30 1200 N 121.204 0.198386 -1.56346 0
M  V30 1201 C 122.481 0.944982 -1.71258 0
M  V30 1202 C 122.861 2.0151 -0.629048 0
M  V30 1203 O 122.209 2.25639 0.360473 0
M  V30 1204 C 122.419 1.5344 -3.1346 0
M  V30 1205 C 123.767 2.01778 -3.73591 0
M  V30 1206 O 124.791 1.63288 -3.16568 0
M  V30 1207 O 123.65 2.72594 -4.73661 0
M  V30 1208 H 120.744 0.442939 -0.69838 0
M  V30 1209 H 123.29 0.188342 -1.68652 0
M  V30 1210 H 122.062 0.762869 -3.83792 0
M  V30 1211 H 121.685 2.35596 -3.20282 0
M  V30 1212 N 122.682 1.50554 0.465978 0
M  V30 1213 C 123.645 1.69233 1.54574 0
M  V30 1214 C 124.645 0.562901 1.50626 0
M  V30 1215 O 125.835 0.830016 1.53155 0
M  V30 1216 C 122.967 1.7223 2.94193 0
M  V30 1217 H 124.16 2.65571 1.39327 0
M  V30 1218 H 121.713 1.40111 0.692711 0
M  V30 1219 H 122.448 0.77603 3.14878 0
M  V30 1220 H 122.233 2.54285 2.98466 0
M  V30 1221 H 123.723 1.88618 3.72576 0
M  V30 1222 N 124.16 -0.719506 1.40217 0
M  V30 1223 C 125.408 -1.47641 1.3801 0
M  V30 1224 C 125.729 -1.94992 -0.018145 0
M  V30 1225 O 124.999 -1.70073 -0.972207 0
M  V30 1226 H 123.579 -0.547744 0.507923 0
M  V30 1227 H 126.241 -0.853187 1.75233 0
M  V30 1228 H 125.337 -2.35112 2.05253 0
M  V30 1229 N 125.638 -1.25649 -0.95132 0
M  V30 1230 C 126.868 -1.13179 -1.72841 0
M  V30 1231 C 127.276 0.316827 -1.86528 0
M  V30 1232 O 126.619 1.22948 -1.3649 0
M  V30 1233 C 126.681 -1.71644 -3.15878 0
M  V30 1234 C 126.345 -3.20667 -3.25609 0
M  V30 1235 C 127.342 -4.17616 -3.09666 0
M  V30 1236 C 125.027 -3.6094 -3.49324 0
M  V30 1237 C 127.021 -5.52817 -3.17289 0
M  V30 1238 C 124.708 -4.96278 -3.56584 0
M  V30 1239 C 125.706 -5.92025 -3.40581 0
M  V30 1240 O 125.394 -7.24899 -3.47528 0
M  V30 1241 H 125.126 -0.395389 -0.54831 0
M  V30 1242 H 127.68 -1.66566 -1.20187 0
M  V30 1243 H 125.91 -1.12707 -3.69911 0
M  V30 1244 H 127.599 -1.54225 -3.75459 0
M  V30 1245 H 128.365 -3.87842 -2.91211 0
M  V30 1246 H 124.244 -2.86907 -3.6084 0
M  V30 1247 H 127.788 -6.2753 -3.04716 0
M  V30 1248 H 123.685 -5.25716 -3.74556 0
M  V30 1249 H 124.453 -7.33039 -3.64138 0
M  V30 1250 N 127.117 1.15442 -1.07289 0
M  V30 1251 C 128.533 1.38201 -0.798288 0
M  V30 1252 C 128.733 1.92429 0.597769 0
M  V30 1253 O 127.789 2.12962 1.3566 0
M  V30 1254 C 129.102 2.35357 -1.87156 0
M  V30 1255 C 130.65 2.49021 -1.89624 0
M  V30 1256 C 131.125 3.49468 -2.96034 0
M  V30 1257 N 132.616 3.57003 -2.95132 0
M  V30 1258 C 133.351 4.34543 -3.74112 0
M  V30 1259 N 132.847 5.15421 -4.6294 0
M  V30 1260 N 134.64 4.29625 -3.62462 0
M  V30 1261 H 126.791 0.78584 -1.97328 0
M  V30 1262 H 129.054 0.408065 -0.855679 0
M  V30 1263 H 128.76 2.02626 -2.87464 0
M  V30 1264 H 128.634 3.35129 -1.73114 0
M  V30 1265 H 131.021 2.81051 -0.899687 0
M  V30 1266 H 131.102 1.4925 -2.07745 0
M  V30 1267 H 130.746 3.18173 -3.95889 0
M  V30 1268 H 130.676 4.48992 -2.75161 0
M  V30 1269 H 133.167 2.99276 -2.30743 0
M  V30 1270 H 133.48 5.7183 -5.19837 0
M  V30 1271 H 131.825 5.14729 -4.66989 0
M  V30 1272 H 135.016 3.65505 -2.92444 0
M  V30 1273 H 135.189 4.89807 -4.24256 0
M  V30 1274 N 128.595 0.856903 1.32268 0
M  V30 1275 C 129.843 0.460474 1.96784 0
M  V30 1276 C 130.164 -0.987701 1.68135 0
M  V30 1277 O 129.434 -1.69058 0.989765 0
M  V30 1278 H 128.014 0.167289 0.728027 0
M  V30 1279 H 130.676 1.09383 1.61312 0
M  V30 1280 H 129.772 0.60739 3.06133 0
M  V30 1281 N 130.073 -1.45103 0.615059 0
M  V30 1282 C 130.983 -2.34382 -0.101034 0
M  V30 1283 C 131.999 -1.51681 -0.852585 0
M  V30 1284 O 133.175 -1.8446 -0.808484 0
M  V30 1285 C 130.24 -3.29417 -1.08099 0
M  V30 1286 C 129.301 -4.28025 -0.330577 0
M  V30 1287 C 128.534 -5.1852 -1.26385 0
M  V30 1288 O 128.757 -5.12598 -2.50198 0
M  V30 1289 O 127.691 -5.97122 -0.756866 0
M  V30 1290 H 131.517 -2.97033 0.632855 0
M  V30 1291 H 129.102 -1.4461 0.375293 0
M  V30 1292 H 130.984 -3.87958 -1.6452 0
M  V30 1293 H 129.659 -2.69321 -1.79577 0
M  V30 1294 H 128.566 -3.73078 0.276283 0
M  V30 1295 H 129.899 -4.90997 0.343866 0
M  V30 1296 N 131.551 -0.354651 -1.53558 0
M  V30 1297 C 132.8 0.239504 -2.00273 0
M  V30 1298 C 133.113 1.50759 -1.24623 0
M  V30 1299 O 134.319 2.17968 -1.61871 0
M  V30 1300 C 132.775 0.477341 -3.5672 0
M  V30 1301 C 132.383 -0.775488 -4.41237 0
M  V30 1302 C 134.127 1.02975 -4.11821 0
M  V30 1303 C 132.034 -0.507838 -5.89216 0
M  V30 1304 H 130.964 0.0932743 -0.748208 0
M  V30 1305 H 133.615 -0.471701 -1.77334 0
M  V30 1306 H 131.997 1.24953 -3.7577 0
M  V30 1307 H 133.171 -1.54963 -4.33962 0
M  V30 1308 H 131.486 -1.25033 -3.97185 0
M  V30 1309 H 134.083 1.24513 -5.2 0
M  V30 1310 H 134.426 1.98862 -3.65731 0
M  V30 1311 H 134.959 0.317994 -3.96527 0
M  V30 1312 H 131.698 -1.43674 -6.39561 0
M  V30 1313 H 131.218 0.228011 -5.99366 0
M  V30 1314 H 132.897 -0.129238 -6.46871 0
M  V30 1315 N 133.029 1.57378 -0.0835403 0
M  V30 1316 C 133.976 2.13384 0.879539 0
M  V30 1317 C 134.946 1.04936 1.28754 0
M  V30 1318 O 136.131 1.32662 1.37133 0
M  V30 1319 C 133.271 2.70932 2.13752 0
M  V30 1320 C 132.384 3.93575 1.7811 0
M  V30 1321 C 131.519 4.39326 2.98607 0
M  V30 1322 C 130.558 5.54587 2.59037 0
M  V30 1323 N 129.695 5.95243 3.72331 0
M  V30 1324 H 134.535 2.9537 0.395076 0
M  V30 1325 H 132.072 1.45953 0.183349 0
M  V30 1326 H 134.03 3.02411 2.87408 0
M  V30 1327 H 132.66 1.91693 2.59718 0
M  V30 1328 H 131.712 3.68483 0.94469 0
M  V30 1329 H 133.024 4.77258 1.45005 0
M  V30 1330 H 132.178 4.72528 3.80529 0
M  V30 1331 H 130.917 3.5452 3.34913 0
M  V30 1332 H 129.922 5.21024 1.75539 0
M  V30 1333 H 131.147 6.41133 2.23887 0
M  V30 1334 H 129.093 5.13385 4.08378 0
M  V30 1335 H 129.01 6.73694 3.43034 0
M  V30 1336 H 130.278 6.33072 4.54797 0
M  V30 1337 N 134.507 -0.190092 1.56449 0
M  V30 1338 C 135.753 -0.911052 1.81184 0
M  V30 1339 C 136.086 -1.82699 0.658396 0
M  V30 1340 O 135.361 -1.91491 -0.340775 0
M  V30 1341 C 135.644 -1.72297 3.16205 0
M  V30 1342 C 135.497 -0.831419 4.42049 0
M  V30 1343 C 136.816 -2.69454 3.47969 0
M  V30 1344 H 133.935 -0.32977 0.659106 0
M  V30 1345 H 136.577 -0.178169 1.89163 0
M  V30 1346 H 134.727 -2.34778 3.09534 0
M  V30 1347 H 136.399 -0.220929 4.60771 0
M  V30 1348 H 134.642 -0.138406 4.33579 0
M  V30 1349 H 135.313 -1.43461 5.33032 0
M  V30 1350 H 137.789 -2.17104 3.54972 0
M  V30 1351 H 136.665 -3.23342 4.43555 0
M  V30 1352 H 136.926 -3.48744 2.71717 0
M  V30 1353 N 135.985 -1.50799 -0.457987 0
M  V30 1354 C 136.948 -1.7005 -1.53674 0
M  V30 1355 C 137.948 -0.570881 -1.50325 0
M  V30 1356 O 139.138 -0.838126 -1.52712 0
M  V30 1357 C 136.27 -1.73788 -2.93276 0
M  V30 1358 H 137.463 -2.66306 -1.37917 0
M  V30 1359 H 135.016 -1.40477 -0.685271 0
M  V30 1360 H 135.751 -0.792717 -3.14462 0
M  V30 1361 H 135.536 -2.55864 -2.97113 0
M  V30 1362 H 137.026 -1.90591 -3.71571 0
M  V30 1363 N 137.463 0.71206 -1.40597 0
M  V30 1364 C 138.393 1.83889 -1.43899 0
M  V30 1365 C 139.374 1.67442 -0.299504 0
M  V30 1366 O 140.559 1.87421 -0.508624 0
M  V30 1367 C 137.689 3.21877 -1.30431 0
M  V30 1368 C 136.643 3.53002 -2.42019 0
M  V30 1369 C 135.969 4.90172 -2.13626 0
M  V30 1370 C 137.269 3.53643 -3.84362 0
M  V30 1371 H 138.963 1.81383 -2.38203 0
M  V30 1372 H 136.509 0.871237 -1.14654 0
M  V30 1373 H 138.462 4.00404 -1.31357 0
M  V30 1374 H 137.186 3.24968 -0.326049 0
M  V30 1375 H 135.845 2.76818 -2.40349 0
M  V30 1376 H 135.493 4.89869 -1.14182 0
M  V30 1377 H 135.193 5.11962 -2.88389 0
M  V30 1378 H 136.717 5.71028 -2.1624 0
M  V30 1379 H 138.131 4.22203 -3.87837 0
M  V30 1380 H 136.528 3.86961 -4.58673 0
M  V30 1381 H 137.598 2.52954 -4.13693 0
M  V30 1382 N 138.941 1.26152 0.944643 0
M  V30 1383 C 140.19 1.10883 1.68487 0
M  V30 1384 C 140.503 -0.348153 1.92477 0
M  V30 1385 O 141.709 -0.621459 2.64292 0
M  V30 1386 C 140.165 1.93624 3.03377 0
M  V30 1387 C 139.773 3.43875 2.87148 0
M  V30 1388 C 141.517 1.86954 3.81115 0
M  V30 1389 C 139.424 4.18875 4.1749 0
M  V30 1390 H 138.354 0.41135 0.631907 0
M  V30 1391 H 141.005 1.50433 1.05082 0
M  V30 1392 H 139.387 1.46904 3.67743 0
M  V30 1393 H 140.561 3.98338 2.31653 0
M  V30 1394 H 138.876 3.51744 2.22856 0
M  V30 1395 H 141.473 2.40275 4.77673 0
M  V30 1396 H 141.816 0.839518 4.07747 0
M  V30 1397 H 142.349 2.31477 3.23517 0
M  V30 1398 H 139.088 5.22332 3.96043 0
M  V30 1399 H 138.608 3.69193 4.72712 0
M  V30 1400 H 140.287 4.27134 4.85968 0
M  V30 1401 N 140.419 -1.14872 1.07899 0
M  V30 1402 C 141.367 -2.21857 0.698727 0
M  V30 1403 C 142.361 -1.66845 -0.293086 0
M  V30 1404 O 143.567 -1.79321 -0.156204 0
M  V30 1405 H 139.942 -0.722691 0.207899 0
M  V30 1406 H 141.913 -2.51205 1.61054 0
M  V30 1407 C 140.662 -3.47498 0.11858 0
M  V30 1408 H 139.985 -3.90154 0.872914 0
M  V30 1409 H 141.425 -4.23858 -0.109759 0
M  V30 1410 C 139.884 -3.16947 -1.1422 0
M  V30 1411 O 140.414 -3.3426 -2.22785 0
M  V30 1412 N 138.62 -2.70946 -1.05055 0
M  V30 1413 H 138.167 -2.57058 -0.167038 0
M  V30 1414 H 138.125 -2.50879 -1.89491 0
M  V30 1415 N 141.898 -0.863906 -1.31812 0
M  V30 1416 C 142.828 -0.330843 -2.31144 0
M  V30 1417 C 143.809 0.575005 -1.60087 0
M  V30 1418 O 144.994 0.493304 -1.8783 0
M  V30 1419 C 142.124 0.47374 -3.44054 0
M  V30 1420 C 141.078 -0.338481 -4.26659 0
M  V30 1421 C 140.404 0.591412 -5.31419 0
M  V30 1422 C 141.704 -1.56926 -4.98168 0
M  V30 1423 H 143.398 -1.16086 -2.75979 0
M  V30 1424 H 140.944 -0.559657 -1.32679 0
M  V30 1425 H 142.897 0.857143 -4.12591 0
M  V30 1426 H 141.621 1.33721 -2.9797 0
M  V30 1427 H 140.28 -0.703754 -3.59782 0
M  V30 1428 H 139.928 1.45199 -4.81587 0
M  V30 1429 H 139.628 0.0519022 -5.87577 0
M  V30 1430 H 141.152 0.97179 -6.02817 0
M  V30 1431 H 142.566 -1.25764 -5.59336 0
M  V30 1432 H 140.963 -2.04739 -5.64094 0
M  V30 1433 H 142.033 -2.32544 -4.25501 0
M  V30 1434 N 143.376 1.44774 -0.622745 0
M  V30 1435 C 144.653 1.95522 -0.0551974 0
M  V30 1436 C 145.033 1.5649 1.41683 0
M  V30 1437 O 144.381 0.834848 2.12703 0
M  V30 1438 C 144.591 3.4796 -0.269242 0
M  V30 1439 C 145.939 4.24306 -0.158014 0
M  V30 1440 O 146.963 3.55637 -0.200162 0
M  V30 1441 O 145.822 5.46471 -0.0558693 0
M  V30 1442 H 142.916 0.826556 0.0271015 0
M  V30 1443 H 145.462 1.54866 -0.693864 0
M  V30 1444 H 144.234 3.6939 -1.29099 0
M  V30 1445 H 143.857 3.95543 0.403966 0
M  V30 1446 N 144.854 0.36279 1.53368 0
M  V30 1447 C 146.265 -0.117022 1.86333 0
M  V30 1448 C 146.616 -1.48397 1.28347 0
M  V30 1449 O 145.741 -2.07787 0.604428 0
M  V30 1450 C 146.336 -0.21912 3.38091 0
M  V30 1451 C 144.895 -0.643184 3.70864 0
M  V30 1452 C 144.042 0.211318 2.76494 0
M  V30 1453 H 146.993 0.581687 1.47655 0
M  V30 1454 H 147.014 -1.04319 3.6592 0
M  V30 1455 H 146.526 0.775902 3.80265 0
M  V30 1456 H 144.627 -1.64654 3.34245 0
M  V30 1457 H 144.74 -0.41973 4.77258 0
M  V30 1458 H 143.104 -0.319367 2.5269 0
M  V30 1459 H 143.887 1.20383 3.21501 0
M  V30 1460 N 146.332 -1.57332 0.0918853 0
M  V30 1461 C 147.295 -2.12708 -0.85369 0
M  V30 1462 C 148.295 -1.05561 -1.213 0
M  V30 1463 O 149.485 -1.31461 -1.14296 0
M  V30 1464 C 146.617 -2.64503 -2.15061 0
M  V30 1465 H 147.81 -2.97573 -0.3729 0
M  V30 1466 H 145.363 -1.55509 -0.157072 0
M  V30 1467 H 146.098 -1.83149 -2.67632 0
M  V30 1468 H 145.883 -3.4284 -1.90272 0
M  V30 1469 H 147.373 -3.07351 -2.82711 0
M  V30 1470 N 147.81 0.181792 -1.56548 0
M  V30 1471 C 148.773 1.20894 -1.94724 0
M  V30 1472 C 149.773 1.37738 -0.829747 0
M  V30 1473 O 150.963 1.35323 -1.09697 0
M  V30 1474 C 148.095 2.57593 -2.23291 0
M  V30 1475 H 149.288 0.882275 -2.86629 0
M  V30 1476 H 146.841 0.423838 -1.50444 0
M  V30 1477 H 147.576 2.95291 -1.34067 0
M  V30 1478 H 147.361 2.46735 -3.04736 0
M  V30 1479 H 148.851 3.31637 -2.53785 0
M  V30 1480 N 149.288 1.51039 0.449983 0
M  V30 1481 C 150.699 1.557 1.03026 0
M  V30 1482 C 151.05 0.372939 1.92623 0
M  V30 1483 O 150.175 -0.511771 2.10261 0
M  V30 1484 C 150.77 2.82171 1.87523 0
M  V30 1485 C 149.329 2.89444 2.40622 0
M  V30 1486 C 148.476 2.50228 1.19504 0
M  V30 1487 H 151.427 1.56999 0.231745 0
M  V30 1488 H 151.448 2.65219 2.72835 0
M  V30 1489 H 150.96 3.68331 1.22286 0
M  V30 1490 H 149.061 2.07685 3.0935 0
M  V30 1491 H 149.174 3.92816 2.74285 0
M  V30 1492 H 147.538 2.03139 1.53644 0
M  V30 1493 H 148.321 3.38719 0.558972 0
M  V30 1494 N 150.766 -0.704594 1.40972 0
M  V30 1495 C 152.015 -1.46018 1.39146 0
M  V30 1496 C 152.328 -1.956 0.000589254 0
M  V30 1497 O 153.534 -2.71137 -0.1403 0
M  V30 1498 C 151.99 -2.63996 2.4461 0
M  V30 1499 C 151.598 -2.21238 3.89561 0
M  V30 1500 C 153.342 -3.41677 2.51907 0
M  V30 1501 C 151.249 -3.3612 4.86598 0
M  V30 1502 H 150.179 -0.548444 0.517422 0
M  V30 1503 H 152.83 -0.765784 1.66757 0
M  V30 1504 H 151.212 -3.3566 2.10115 0
M  V30 1505 H 152.386 -1.56923 4.33257 0
M  V30 1506 H 150.701 -1.56574 3.85841 0
M  V30 1507 H 153.298 -4.27182 3.2159 0
M  V30 1508 H 153.641 -3.86247 1.55303 0
M  V30 1509 H 154.174 -2.77064 2.85448 0
M  V30 1510 H 150.913 -2.96572 5.84573 0
M  V30 1511 H 150.433 -3.99315 4.47557 0
M  V30 1512 H 152.112 -4.02029 5.06934 0
M  V30 1513 N 152.244 -1.26651 -0.937939 0
M  V30 1514 C 153.49 -1.12553 -1.687 0
M  V30 1515 C 153.823 0.329782 -1.91379 0
M  V30 1516 O 153.098 1.24202 -1.4968 0
M  V30 1517 C 153.381 -1.89862 -3.05981 0
M  V30 1518 C 153.234 -3.43318 -2.90607 0
M  V30 1519 C 154.553 -1.69499 -4.0615 0
M  V30 1520 H 151.672 -0.410257 -0.612257 0
M  V30 1521 H 154.314 -1.55685 -1.08913 0
M  V30 1522 H 152.464 -1.53204 -3.57017 0
M  V30 1523 H 154.136 -3.89747 -2.46769 0
M  V30 1524 H 152.379 -3.70179 -2.26164 0
M  V30 1525 H 153.05 -3.92642 -3.8799 0
M  V30 1526 H 155.526 -2.01442 -3.64088 0
M  V30 1527 H 154.402 -2.26002 -5.00214 0
M  V30 1528 H 154.663 -0.640365 -4.37438 0
M  V30 1529 N 153.722 1.14298 -1.08507 0
M  V30 1530 C 154.968 1.85633 -0.816581 0
M  V30 1531 C 155.301 1.82784 0.656021 0
M  V30 1532 O 154.576 1.25926 1.48233 0
M  V30 1533 C 154.859 3.34223 -1.34041 0
M  V30 1534 C 154.712 3.45639 -2.87843 0
M  V30 1535 C 156.031 4.29356 -0.9665 0
M  V30 1536 H 153.15 0.67402 -0.298104 0
M  V30 1537 H 155.792 1.34214 -1.34487 0
M  V30 1538 H 153.942 3.78144 -0.89104 0
M  V30 1539 H 155.614 3.10498 -3.41158 0
M  V30 1540 H 153.857 2.86817 -3.25451 0
M  V30 1541 H 154.528 4.50089 -3.19569 0
M  V30 1542 H 157.004 3.93457 -1.35391 0
M  V30 1543 H 155.88 5.3178 -1.3602 0
M  V30 1544 H 156.141 4.41919 0.126362 0
M  V30 1545 N 155.201 0.870884 1.31352 0
M  V30 1546 C 156.151 0.298889 2.26032 0
M  V30 1547 C 157.135 -0.564595 1.50669 0
M  V30 1548 O 158.327 -0.411323 1.72154 0
M  V30 1549 C 155.456 -0.497842 3.39671 0
M  V30 1550 C 154.542 0.378937 4.22404 0
M  V30 1551 N 154.933 1.47284 4.83881 0
M  V30 1552 C 153.231 0.171535 4.4567 0
M  V30 1553 C 153.932 2.01359 5.45738 0
M  V30 1554 N 152.908 1.31047 5.27568 0
M  V30 1555 H 156.71 1.13494 2.71102 0
M  V30 1556 H 154.224 0.718745 1.45629 0
M  V30 1557 H 156.221 -0.924155 4.06528 0
M  V30 1558 H 154.881 -1.33149 2.96144 0
M  V30 1559 H 155.892 1.85575 4.8351 0
M  V30 1560 H 152.569 -0.626091 4.12779 0
M  V30 1561 H 153.959 2.93143 6.0458 0
M  V30 1562 N 156.679 -1.44442 0.630414 0
M  V30 1563 C 158.095 -1.56832 0.295973 0
M  V30 1564 C 158.295 -1.61806 -1.20088 0
M  V30 1565 O 157.351 -1.5607 -1.9849 0
M  V30 1566 C 158.664 -2.84031 0.987264 0
M  V30 1567 C 160.212 -2.97742 0.96534 0
M  V30 1568 C 160.687 -4.27743 1.63708 0
M  V30 1569 N 162.178 -4.34555 1.60364 0
M  V30 1570 C 162.913 -5.33862 2.09234 0
M  V30 1571 N 162.409 -6.39578 2.66292 0
M  V30 1572 N 164.202 -5.25366 1.99867 0
M  V30 1573 H 156.353 -1.39457 1.60205 0
M  V30 1574 H 158.616 -0.668237 0.672431 0
M  V30 1575 H 158.322 -2.86338 2.04215 0
M  V30 1576 H 158.196 -3.73534 0.524588 0
M  V30 1577 H 160.583 -2.94989 -0.0810639 0
M  V30 1578 H 160.664 -2.09589 1.4665 0
M  V30 1579 H 160.308 -4.31255 2.68293 0
M  V30 1580 H 160.238 -5.14752 1.11076 0
M  V30 1581 H 162.729 -3.58772 1.18705 0
M  V30 1582 H 163.042 -7.11637 3.01317 0
M  V30 1583 H 161.387 -6.40265 2.70343 0
M  V30 1584 H 164.578 -4.41688 1.55013 0
M  V30 1585 H 164.751 -6.02606 2.38265 0
M  V30 1586 N 158.157 -0.370918 -1.53173 0
M  V30 1587 C 159.405 0.216673 -2.00935 0
M  V30 1588 C 159.726 1.48845 -1.25977 0
M  V30 1589 O 158.996 1.92286 -0.374551 0
M  V30 1590 H 157.576 0.0830565 -0.742368 0
M  V30 1591 H 160.238 -0.49838 -1.8842 0
M  V30 1592 H 159.334 0.439893 -3.08984 0
M  V30 1593 N 159.635 1.57281 -0.100228 0
M  V30 1594 C 160.912 1.86014 0.604812 0
M  V30 1595 C 161.292 0.998025 1.86018 0
M  V30 1596 O 160.64 0.0718184 2.28387 0
M  V30 1597 C 160.85 3.36784 0.915278 0
M  V30 1598 C 162.198 4.04957 1.27651 0
M  V30 1599 O 163.222 3.41695 1.00613 0
M  V30 1600 O 162.081 5.16593 1.7831 0
M  V30 1601 H 159.175 0.76942 0.303185 0
M  V30 1602 H 161.721 1.69176 -0.133313 0
M  V30 1603 H 160.493 3.91292 0.0248896 0
M  V30 1604 H 160.116 3.58987 1.70921 0
M  V30 1605 N 161.113 -0.173488 1.56642 0
M  V30 1606 C 162.529 -0.525174 1.50712 0
M  V30 1607 C 162.729 -1.8476 0.804107 0
M  V30 1608 O 161.785 -2.49869 0.363574 0
M  V30 1609 C 163.098 -0.559937 2.95441 0
M  V30 1610 C 164.646 -0.647288 3.06234 0
M  V30 1611 C 165.121 -0.712963 4.52417 0
M  V30 1612 N 166.612 -0.775911 4.56655 0
M  V30 1613 C 167.347 -0.847264 5.67106 0
M  V30 1614 N 166.843 -0.879585 6.87194 0
M  V30 1615 N 168.636 -0.886117 5.55071 0
M  V30 1616 H 160.787 0.693681 2.00753 0
M  V30 1617 H 163.05 0.249841 0.914485 0
M  V30 1618 H 162.756 0.343049 3.50023 0
M  V30 1619 H 162.63 -1.40718 3.49969 0
M  V30 1620 H 165.017 -1.5407 2.51687 0
M  V30 1621 H 165.098 0.226586 2.54794 0
M  V30 1622 H 164.742 0.176183 5.07594 0
M  V30 1623 H 164.672 -1.60295 5.0161 0
M  V30 1624 H 167.163 -0.759304 3.70193 0
M  V30 1625 H 167.476 -0.935144 7.67121 0
M  V30 1626 H 165.821 -0.847898 6.89808 0
M  V30 1627 H 169.012 -0.857853 4.60172 0
M  V30 1628 H 169.185 -0.938263 6.41171 0
M  V30 1629 N 162.591 -1.51276 -0.441967 0
M  V30 1630 C 163.84 -1.6295 -1.18871 0
M  V30 1631 C 164.153 -0.349312 -1.92456 0
M  V30 1632 O 165.359 -0.345355 -2.69295 0
M  V30 1633 C 163.815 -2.87759 -2.16155 0
M  V30 1634 C 163.423 -4.22764 -1.48239 0
M  V30 1635 C 165.167 -3.08788 -2.91291 0
M  V30 1636 C 163.074 -5.38728 -2.4398 0
M  V30 1637 H 162.004 -0.606913 -0.447406 0
M  V30 1638 H 164.655 -1.77739 -0.456205 0
M  V30 1639 H 163.037 -2.66593 -2.92821 0
M  V30 1640 H 164.211 -4.54293 -0.771635 0
M  V30 1641 H 162.526 -4.07575 -0.852741 0
M  V30 1642 H 165.123 -3.92599 -3.63002 0
M  V30 1643 H 165.466 -2.21679 -3.5237 0
M  V30 1644 H 165.999 -3.30272 -2.21733 0
M  V30 1645 H 162.738 -6.28082 -1.87598 0
M  V30 1646 H 162.258 -5.1158 -3.13123 0
M  V30 1647 H 163.937 -5.70489 -3.05207 0
M  V30 1648 N 164.069 0.697108 -1.41344 0
M  V30 1649 C 165.032 1.79281 -1.42797 0
M  V30 1650 C 166.032 1.57607 -0.318837 0
M  V30 1651 O 167.222 1.64309 -0.578642 0
M  V30 1652 C 164.354 3.17632 -1.23785 0
M  V30 1653 H 165.547 1.79385 -2.40335 0
M  V30 1654 H 163.1 0.904582 -1.27464 0
M  V30 1655 H 163.835 3.23167 -0.270814 0
M  V30 1656 H 163.62 3.34765 -2.04144 0
M  V30 1657 H 165.11 3.97617 -1.27633 0
M  V30 1658 N 165.547 1.27147 0.931209 0
M  V30 1659 C 166.479 1.05364 2.03546 0
M  V30 1660 C 167.492 0.0108438 1.62796 0
M  V30 1661 O 168.681 0.25202 1.76712 0
M  V30 1662 C 165.781 0.575566 3.33977 0
M  V30 1663 C 164.954 1.68985 4.03439 0
M  V30 1664 C 164.013 1.20813 5.12143 0
M  V30 1665 O 163.039 1.90712 5.363 0
M  V30 1666 N 164.241 0.0618851 5.80467 0
M  V30 1667 H 167.006 2.00454 2.22796 0
M  V30 1668 H 164.567 1.18666 1.10136 0
M  V30 1669 H 166.559 0.237264 4.04004 0
M  V30 1670 H 165.129 -0.282016 3.11325 0
M  V30 1671 H 164.349 2.19861 3.27192 0
M  V30 1672 H 165.637 2.4378 4.46597 0
M  V30 1673 H 165.035 -0.521621 5.6329 0
M  V30 1674 H 163.592 -0.217264 6.51438 0
M  V30 1675 N 167.025 -1.13721 1.09112 0
M  V30 1676 C 167.955 -2.21148 0.749385 0
M  V30 1677 C 168.936 -1.6792 -0.271475 0
M  V30 1678 O 170.121 -1.93693 -0.140251 0
M  V30 1679 C 167.251 -3.46905 0.165659 0
M  V30 1680 C 166.205 -4.13203 1.11567 0
M  V30 1681 C 165.531 -5.33248 0.393809 0
M  V30 1682 C 166.831 -4.60912 2.45678 0
M  V30 1683 H 168.525 -2.4999 1.64758 0
M  V30 1684 H 166.071 -1.20156 0.793626 0
M  V30 1685 H 168.024 -4.21313 -0.085466 0
M  V30 1686 H 166.748 -3.17449 -0.767714 0
M  V30 1687 H 165.407 -3.40758 1.35202 0
M  V30 1688 H 165.055 -5.00054 -0.543599 0
M  V30 1689 H 164.755 -5.78552 1.02721 0
M  V30 1690 H 166.279 -6.10413 0.150908 0
M  V30 1691 H 167.693 -5.26759 2.26269 0
M  V30 1692 H 166.09 -5.16944 3.04776 0
M  V30 1693 H 167.16 -3.75603 3.06677 0
M  V30 1694 N 168.503 -0.877838 -1.30888 0
M  V30 1695 C 169.433 -0.35534 -2.3078 0
M  V30 1696 C 170.414 0.557994 -1.60687 0
M  V30 1697 O 171.599 0.473355 -1.88343 0
M  V30 1698 C 168.729 0.437221 -3.44537 0
M  V30 1699 C 167.683 -0.383715 -4.26276 0
M  V30 1700 C 167.009 0.535014 -5.32017 0
M  V30 1701 C 168.309 -1.62201 -4.96476 0
M  V30 1702 H 170.003 -1.19007 -2.74732 0
M  V30 1703 H 167.549 -0.573698 -1.32078 0
M  V30 1704 H 169.502 0.813334 -4.13477 0
M  V30 1705 H 168.226 1.30553 -2.99372 0
M  V30 1706 H 166.885 -0.741874 -3.59015 0
M  V30 1707 H 166.533 1.40083 -4.831 0
M  V30 1708 H 166.233 -0.0104211 -5.87599 0
M  V30 1709 H 167.757 0.907799 -6.03814 0
M  V30 1710 H 169.171 -1.31689 -5.5797 0
M  V30 1711 H 167.568 -2.10711 -5.61891 0
M  V30 1712 H 168.638 -2.37044 -4.23011 0
M  V30 1713 N 169.982 1.44106 -0.638065 0
M  V30 1714 C 171.228 2.02277 -0.145546 0
M  V30 1715 C 171.561 1.50125 1.23191 0
M  V30 1716 O 170.836 0.688133 1.8192 0
M  V30 1717 C 171.119 3.59829 -0.139791 0
M  V30 1718 C 170.972 4.22247 -1.55008 0
M  V30 1719 C 172.291 4.36873 0.531966 0
M  V30 1720 H 169.41 0.734992 -0.0543632 0
M  V30 1721 H 172.052 1.71592 -0.815863 0
M  V30 1722 H 170.202 3.86102 0.431007 0
M  V30 1723 H 171.874 4.07057 -2.1703 0
M  V30 1724 H 170.117 3.79476 -2.10191 0
M  V30 1725 H 170.788 5.31284 -1.49804 0
M  V30 1726 H 173.264 4.16074 0.0464781 0
M  V30 1727 H 172.14 5.4657 0.505206 0
M  V30 1728 H 172.401 4.11995 1.60352 0
M  V30 1729 N 171.46 0.379036 1.52974 0
M  V30 1730 C 172.392 -0.495963 2.2377 0
M  V30 1731 C 173.405 -1.03517 1.25651 0
M  V30 1732 O 174.594 -0.939249 1.51791 0
M  V30 1733 C 171.694 -1.69894 2.93239 0
M  V30 1734 C 170.867 -1.2889 4.17979 0
M  V30 1735 C 169.926 -2.35543 4.70538 0
M  V30 1736 O 168.952 -1.97375 5.33883 0
M  V30 1737 N 170.154 -3.67318 4.49508 0
M  V30 1738 H 172.919 0.110523 2.99496 0
M  V30 1739 H 170.48 0.204878 1.60598 0
M  V30 1740 H 172.472 -2.40747 3.25304 0
M  V30 1741 H 171.042 -2.212 2.20883 0
M  V30 1742 H 170.262 -0.409676 3.92065 0
M  V30 1743 H 171.55 -0.991443 4.99047 0
M  V30 1744 H 170.948 -4.01095 3.98923 0
M  V30 1745 H 169.505 -4.34235 4.8609 0
M  V30 1746 N 172.938 -1.57226 0.108567 0
M  V30 1747 C 174.354 -1.5766 -0.248058 0
M  V30 1748 C 174.554 -1.12063 -1.67464 0
M  V30 1749 O 173.61 -0.803236 -2.39383 0
M  V30 1750 C 174.923 -3.0069 -0.0242287 0
M  V30 1751 C 176.471 -3.12868 -0.0909372 0
M  V30 1752 C 176.946 -4.57879 0.105067 0
M  V30 1753 N 178.437 -4.63172 0.0506846 0
M  V30 1754 C 179.172 -5.73126 0.177396 0
M  V30 1755 N 178.668 -6.91866 0.359696 0
M  V30 1756 N 180.461 -5.61977 0.117709 0
M  V30 1757 H 172.612 -1.85169 1.04049 0
M  V30 1758 H 174.875 -0.85529 0.40888 0
M  V30 1759 H 174.581 -3.38299 0.961604 0
M  V30 1760 H 174.455 -3.6945 -0.76068 0
M  V30 1761 H 176.842 -2.75124 -1.06729 0
M  V30 1762 H 176.923 -2.46672 0.677225 0
M  V30 1763 H 176.567 -4.96321 1.07834 0
M  V30 1764 H 176.497 -5.22153 -0.682954 0
M  V30 1765 H 178.988 -3.778 -0.0871266 0
M  V30 1766 H 179.301 -7.71503 0.447529 0
M  V30 1767 H 177.646 -6.93874 0.395536 0
M  V30 1768 H 180.837 -4.68094 -0.0236741 0
M  V30 1769 H 181.01 -6.47627 0.219905 0
M  V30 1770 N 174.416 0.165178 -1.56732 0
M  V30 1771 C 175.662 0.882112 -1.82611 0
M  V30 1772 C 175.995 1.81628 -0.687378 0
M  V30 1773 O 175.27 1.92009 0.310267 0
M  V30 1774 C 175.553 1.67245 -3.18906 0
M  V30 1775 C 175.406 0.760987 -4.43316 0
M  V30 1776 C 176.725 2.63884 -3.52212 0
M  V30 1777 H 173.844 0.319242 -0.664269 0
M  V30 1778 H 176.486 0.148052 -1.89422 0
M  V30 1779 H 174.636 2.29824 -3.1323 0
M  V30 1780 H 176.308 0.147596 -4.61064 0
M  V30 1781 H 174.551 0.0694102 -4.33744 0
M  V30 1782 H 175.222 1.34962 -5.35247 0
M  V30 1783 H 177.698 2.11429 -3.58381 0
M  V30 1784 H 176.574 3.16245 -4.48643 0
M  V30 1785 H 176.835 3.44377 -2.77231 0
M  V30 1786 N 175.894 1.51508 0.433938 0
M  V30 1787 C 176.804 1.75917 1.5521 0
M  V30 1788 C 177.82 0.643545 1.61662 0
M  V30 1789 O 178.996 0.926183 1.7884 0
M  V30 1790 C 176.061 1.88213 2.91164 0
M  V30 1791 C 175.122 3.12074 2.94802 0
M  V30 1792 C 174.355 3.23774 4.24271 0
M  V30 1793 O 174.578 2.4133 5.16833 0
M  V30 1794 O 173.512 4.16774 4.34262 0
M  V30 1795 H 177.338 2.70777 1.37527 0
M  V30 1796 H 174.923 1.36051 0.617293 0
M  V30 1797 H 176.805 1.98267 3.71845 0
M  V30 1798 H 175.48 0.965413 3.08968 0
M  V30 1799 H 174.387 3.07497 2.13065 0
M  V30 1800 H 175.72 4.03446 2.81943 0
M  V30 1801 N 177.372 -0.689602 1.41712 0
M  V30 1802 C 178.302 -1.81577 1.46806 0
M  V30 1803 C 179.283 -1.66945 0.326105 0
M  V30 1804 O 180.468 -1.86588 0.538377 0
M  V30 1805 C 177.598 -3.19762 1.35535 0
M  V30 1806 C 176.552 -3.49107 2.47605 0
M  V30 1807 C 175.878 -4.86711 2.21397 0
M  V30 1808 C 177.178 -3.47483 3.89939 0
M  V30 1809 H 178.872 -1.7757 2.41058 0
M  V30 1810 H 176.418 -0.852887 1.16025 0
M  V30 1811 H 178.371 -3.98263 1.3771 0
M  V30 1812 H 177.095 -3.24409 0.377708 0
M  V30 1813 H 175.754 -2.72959 2.44722 0
M  V30 1814 H 175.402 -4.8799 1.21961 0
M  V30 1815 H 175.102 -5.0731 2.96497 0
M  V30 1816 H 176.626 -5.67515 2.25297 0
M  V30 1817 H 178.04 -4.1598 3.94505 0
M  V30 1818 H 176.437 -3.79615 4.64771 0
M  V30 1819 H 177.507 -2.46341 4.17665 0
M  V30 1820 N 178.85 -1.27639 -0.924453 0
M  V30 1821 C 180.096 -1.14336 -1.67497 0
M  V30 1822 C 180.429 0.309465 -1.91718 0
M  V30 1823 O 179.704 1.22608 -1.50989 0
M  V30 1824 C 179.987 -1.93096 -3.0395 0
M  V30 1825 C 179.84 -3.46381 -2.8695 0
M  V30 1826 C 181.159 -1.73798 -4.0433 0
M  V30 1827 H 178.278 -0.416728 -0.607871 0
M  V30 1828 H 180.92 -1.56832 -1.07256 0
M  V30 1829 H 179.07 -1.56982 -3.55372 0
M  V30 1830 H 180.742 -3.92343 -2.42621 0
M  V30 1831 H 178.985 -3.72557 -2.22225 0
M  V30 1832 H 179.656 -3.96735 -3.83804 0
M  V30 1833 H 182.132 -2.05293 -3.61931 0
M  V30 1834 H 181.008 -2.31294 -4.97789 0
M  V30 1835 H 181.269 -0.686725 -4.36734 0
M  V30 1836 N 180.328 1.1314 -1.09713 0
M  V30 1837 C 181.238 2.22242 -0.751367 0
M  V30 1838 C 182.254 1.72224 0.247938 0
M  V30 1839 O 183.43 2.01205 0.0885463 0
M  V30 1840 C 180.495 3.46231 -0.180274 0
M  V30 1841 C 179.556 4.11125 -1.2359 0
M  V30 1842 C 178.789 5.29195 -0.691966 0
M  V30 1843 O 179.012 5.68342 0.48414 0
M  V30 1844 O 177.946 5.84214 -1.44838 0
M  V30 1845 H 181.772 2.54197 -1.66186 0
M  V30 1846 H 179.357 1.21331 -0.871735 0
M  V30 1847 H 181.239 4.21185 0.134739 0
M  V30 1848 H 179.914 3.1597 0.703185 0
M  V30 1849 H 178.821 3.37985 -1.60366 0
M  V30 1850 H 180.154 4.45524 -2.09211 0
M  V30 1851 N 181.806 0.884767 1.30421 0
M  V30 1852 C 182.736 0.367574 2.30589 0
M  V30 1853 C 183.717 -0.549464 1.60981 0
M  V30 1854 O 184.902 -0.46336 1.88591 0
M  V30 1855 C 182.032 -0.418944 3.44764 0
M  V30 1856 C 180.986 0.406316 4.26067 0
M  V30 1857 C 180.312 -0.506793 5.32293 0
M  V30 1858 C 181.612 1.64832 4.95608 0
M  V30 1859 H 183.306 1.20462 2.74097 0
M  V30 1860 H 180.852 0.580695 1.31772 0
M  V30 1861 H 182.805 -0.791395 4.13902 0
M  V30 1862 H 181.529 -1.28964 3.0006 0
M  V30 1863 H 180.188 0.760903 3.58617 0
M  V30 1864 H 179.836 -1.37519 4.83836 0
M  V30 1865 H 179.536 0.0415828 5.87585 0
M  V30 1866 H 181.06 -0.875764 6.04287 0
M  V30 1867 H 182.474 1.34646 5.57264 0
M  V30 1868 H 180.871 2.13688 5.60765 0
M  V30 1869 H 181.941 2.39284 4.21748 0
M  V30 1870 N 183.284 -1.43765 0.645699 0
M  V30 1871 C 184.53 -2.02197 0.156271 0
M  V30 1872 C 184.863 -1.50776 -1.22393 0
M  V30 1873 O 184.138 -0.697771 -1.81553 0
M  V30 1874 C 184.421 -3.59749 0.158872 0
M  V30 1875 C 184.274 -4.21419 1.57245 0
M  V30 1876 C 185.593 -4.37149 -0.50879 0
M  V30 1877 H 182.712 -0.734694 0.0582602 0
M  V30 1878 H 185.354 -1.71157 0.824951 0
M  V30 1879 H 183.504 -3.86325 -0.410525 0
M  V30 1880 H 185.176 -4.059 2.19186 0
M  V30 1881 H 183.419 -3.78356 2.122 0
M  V30 1882 H 184.09 -5.30482 1.52619 0
M  V30 1883 H 186.566 -4.16093 -0.024412 0
M  V30 1884 H 185.442 -5.4683 -0.476213 0
M  V30 1885 H 185.703 -4.12839 -1.58165 0
M  V30 1886 N 184.763 -0.387143 -1.52771 0
M  V30 1887 C 185.673 0.456442 -2.30117 0
M  V30 1888 C 186.689 1.07342 -1.36944 0
M  V30 1889 O 187.865 1.07971 -1.70013 0
M  V30 1890 C 184.93 1.56957 -3.09136 0
M  V30 1891 C 183.991 0.977916 -4.18014 0
M  V30 1892 C 183.224 2.038 -4.93256 0
M  V30 1893 O 183.447 3.25271 -4.68567 0
M  V30 1894 O 182.381 1.6565 -5.78657 0
M  V30 1895 H 186.207 -0.17359 -3.03203 0
M  V30 1896 H 183.792 -0.150919 -1.48636 0
M  V30 1897 H 185.674 2.21628 -3.58412 0
M  V30 1898 H 184.349 2.18461 -2.38865 0
M  V30 1899 H 183.256 0.294525 -3.72939 0
M  V30 1900 H 184.589 0.407128 -4.90513 0
M  V30 1901 N 186.241 1.57166 -0.116904 0
M  V30 1902 C 187.487 1.95412 0.542405 0
M  V30 1903 C 187.82 1.00019 1.66463 0
M  V30 1904 O 187.095 0.0370346 1.94465 0
M  V30 1905 C 187.378 3.43615 1.07708 0
M  V30 1906 C 187.231 4.49781 -0.0415868 0
M  V30 1907 C 188.55 3.93616 1.96861 0
M  V30 1908 H 185.669 0.710543 0.195696 0
M  V30 1909 H 188.311 1.89027 -0.192038 0
M  V30 1910 H 186.461 3.49187 1.70296 0
M  V30 1911 H 188.133 4.56308 -0.676793 0
M  V30 1912 H 186.376 4.28033 -0.705019 0
M  V30 1913 H 187.047 5.50733 0.373717 0
M  V30 1914 H 189.523 3.90335 1.44146 0
M  V30 1915 H 188.399 4.97838 2.3119 0
M  V30 1916 H 188.66 3.34188 2.89432 0
M  V30 1917 N 187.719 -0.156864 1.56817 0
M  V30 1918 C 188.944 -0.890331 1.87318 0
M  V30 1919 C 189.369 -1.74394 0.704855 0
M  V30 1920 O 188.727 -1.77972 -0.345786 0
M  V30 1921 C 188.775 -1.73102 3.16336 0
M  V30 1922 O 187.879 -2.83422 2.99576 0
M  V30 1923 H 187.22 -0.24857 0.615718 0
M  V30 1924 H 189.75 -0.150649 2.04045 0
M  V30 1925 H 189.76 -2.12803 3.48107 0
M  V30 1926 H 188.435 -1.10412 4.00976 0
M  V30 1927 H 187.012 -2.47199 2.7919 0
M  V30 1928 N 189.197 -1.51736 -0.425897 0
M  V30 1929 C 190.422 -1.69082 -1.20108 0
M  V30 1930 C 190.847 -0.392398 -1.83962 0
M  V30 1931 O 190.205 0.64858 -1.69302 0
M  V30 1932 C 190.253 -2.81604 -2.25237 0
M  V30 1933 O 189.357 -2.46004 -3.30992 0
M  V30 1934 H 188.698 -0.563408 -0.35138 0
M  V30 1935 H 191.228 -1.98358 -0.501512 0
M  V30 1936 H 191.238 -3.06025 -2.69838 0
M  V30 1937 H 189.913 -3.75817 -1.78142 0
M  V30 1938 H 188.49 -2.32195 -2.91787 0
M  V30 1939 N 190.675 0.682077 -1.42076 0
M  V30 1940 C 191.922 1.44215 -1.42156 0
M  V30 1941 C 192.25 1.94468 -0.0354186 0
M  V30 1942 O 191.505 1.70816 0.955002 0
M  V30 1943 C 191.804 2.66036 -2.38662 0
M  V30 1944 C 191.47 2.34366 -3.85206 0
M  V30 1945 C 190.132 2.25439 -4.25124 0
M  V30 1946 C 192.484 2.08513 -4.77673 0
M  V30 1947 C 189.812 1.88775 -5.55501 0
M  V30 1948 C 192.164 1.73354 -6.08384 0
M  V30 1949 C 190.828 1.62933 -6.47309 0
M  V30 1950 H 190.098 0.527718 -0.520187 0
M  V30 1951 H 192.745 0.778387 -1.74967 0
M  V30 1952 H 191.05 3.3741 -1.99152 0
M  V30 1953 H 192.747 3.24205 -2.35991 0
M  V30 1954 H 189.337 2.42213 -3.53597 0
M  V30 1955 H 193.521 2.14346 -4.47626 0
M  V30 1956 H 188.777 1.7927 -5.84527 0
M  V30 1957 H 192.951 1.52373 -6.79526 0
M  V30 1958 H 190.578 1.34292 -7.48244 0
M  V30 1959 N 192.153 1.28127 0.917671 0
M  V30 1960 C 193.43 1.05761 1.64542 0
M  V30 1961 C 193.81 -0.404344 2.07191 0
M  V30 1962 O 193.158 -1.38963 1.81388 0
M  V30 1963 C 193.368 2.02857 2.83989 0
M  V30 1964 C 194.716 2.32786 3.551 0
M  V30 1965 O 195.74 2.0091 2.94132 0
M  V30 1966 O 194.599 2.87169 4.64969 0
M  V30 1967 H 191.693 0.403916 0.721652 0
M  V30 1968 H 194.239 1.39431 0.967322 0
M  V30 1969 H 193.011 3.01407 2.49538 0
M  V30 1970 H 192.634 1.69809 3.59514 0
M  V30 1971 N 193.631 -1.12557 1.10312 0
M  V30 1972 C 194.541 -2.21841 0.763142 0
M  V30 1973 C 195.557 -1.72354 -0.238801 0
M  V30 1974 O 196.733 -2.01249 -0.0778746 0
M  V30 1975 C 193.798 -3.46131 0.198632 0
M  V30 1976 C 192.859 -4.10464 1.25769 0
M  V30 1977 C 192.092 -5.28821 0.72002 0
M  V30 1978 O 192.315 -5.6859 -0.453993 0
M  V30 1979 O 191.249 -5.83437 1.47935 0
M  V30 1980 H 195.075 -2.53312 1.67532 0
M  V30 1981 H 192.66 -1.20867 0.878157 0
M  V30 1982 H 194.542 -4.2125 -0.112401 0
M  V30 1983 H 193.217 -3.16338 -0.686419 0
M  V30 1984 H 192.124 -3.3713 1.62156 0
M  V30 1985 H 193.457 -4.44408 2.11571 0
M  V30 1986 N 195.109 -0.891671 -1.2995 0
M  V30 1987 C 196.072 -0.36828 -2.26222 0
M  V30 1988 C 197.072 0.493014 -1.53056 0
M  V30 1989 O 198.262 0.299213 -1.71611 0
M  V30 1990 C 195.394 0.47442 -3.37583 0
M  V30 1991 H 196.587 -1.21844 -2.74033 0
M  V30 1992 H 194.14 -0.669107 -1.41254 0
M  V30 1993 H 194.875 1.34489 -2.95099 0
M  V30 1994 H 194.66 -0.142615 -3.91841 0
M  V30 1995 H 196.15 0.83218 -4.09224 0
M  V30 1996 N 196.587 1.43421 -0.653314 0
M  V30 1997 C 197.835 2.01414 -0.166415 0
M  V30 1998 C 198.156 1.51803 1.22397 0
M  V30 1999 O 197.426 0.730693 1.81763 0
M  V30 2000 H 196.006 0.744703 -0.0585319 0
M  V30 2001 H 198.668 1.75629 -0.845003 0
M  V30 2002 H 197.764 3.11734 -0.151111 0
M  V30 2003 N 198.065 0.39524 1.52563 0
M  V30 2004 C 198.995 -0.428384 2.29537 0
M  V30 2005 C 199.976 -1.05831 1.33169 0
M  V30 2006 O 201.161 -1.06995 1.62067 0
M  V30 2007 C 198.291 -1.55274 3.10656 0
M  V30 2008 C 197.245 -1.04855 4.14957 0
M  V30 2009 C 196.571 -2.26543 4.84337 0
M  V30 2010 C 197.871 -0.112324 5.22179 0
M  V30 2011 H 199.565 0.213867 2.98635 0
M  V30 2012 H 197.111 0.104298 1.43622 0
M  V30 2013 H 199.064 -2.1358 3.63265 0
M  V30 2014 H 197.788 -2.22266 2.39302 0
M  V30 2015 H 196.447 -0.487985 3.63338 0
M  V30 2016 H 196.095 -2.92059 4.09525 0
M  V30 2017 H 195.795 -1.93466 5.54837 0
M  V30 2018 H 197.319 -2.85481 5.39753 0
M  V30 2019 H 198.733 -0.603752 5.70112 0
M  V30 2020 H 197.13 0.128968 5.99961 0
M  V30 2021 H 198.2 0.837052 4.77621 0
M  V30 2022 N 199.544 -1.57102 0.125237 0
M  V30 2023 C 200.507 -2.14471 -0.80838 0
M  V30 2024 C 201.507 -1.0811 -1.19033 0
M  V30 2025 O 202.697 -1.33856 -1.11482 0
M  V30 2026 C 199.829 -2.69005 -2.09402 0
M  V30 2027 H 201.022 -2.98297 -0.309696 0
M  V30 2028 H 198.575 -1.55807 -0.124051 0
M  V30 2029 H 199.31 -1.88785 -2.63687 0
M  V30 2030 H 199.095 -3.46799 -1.82957 0
M  V30 2031 H 200.585 -3.13278 -2.76128 0
M  V30 2032 N 201.022 0.148545 -1.56898 0
M  V30 2033 C 202.247 0.880385 -1.87787 0
M  V30 2034 C 202.672 1.74018 -0.714093 0
M  V30 2035 O 202.03 1.78153 0.336343 0
M  V30 2036 C 202.078 1.71422 -3.17249 0
M  V30 2037 O 201.182 2.8183 -3.01074 0
M  V30 2038 H 200.523 0.245301 -0.617028 0
M  V30 2039 H 203.053 0.139826 -2.04122 0
M  V30 2040 H 203.063 2.10954 -3.49231 0
M  V30 2041 H 201.738 1.08284 -4.01556 0
M  V30 2042 H 200.315 2.45715 -2.80497 0
M  V30 2043 N 202.5 1.5196 0.417844 0
M  V30 2044 C 203.728 1.69426 1.18753 0
M  V30 2045 C 204.143 0.399955 1.84515 0
M  V30 2046 O 203.5 -0.623288 1.71527 0
M  V30 2047 C 203.551 2.82375 2.25714 0
M  V30 2048 O 203.272 4.06793 1.62638 0
M  V30 2049 C 204.773 3.11277 3.15628 0
M  V30 2050 H 201.993 0.568031 0.357186 0
M  V30 2051 H 204.537 1.98475 0.49273 0
M  V30 2052 H 202.692 2.5587 2.90877 0
M  V30 2053 H 203.106 4.69667 2.3348 0
M  V30 2054 H 204.58 3.93843 3.86771 0
M  V30 2055 H 205.057 2.24473 3.77503 0
M  V30 2056 H 205.663 3.39515 2.56144 0
M  V30 2057 N 203.978 -0.674533 1.42435 0
M  V30 2058 C 205.203 -1.46784 1.46524 0
M  V30 2059 C 205.628 -1.87938 0.078066 0
M  V30 2060 O 204.986 -1.56014 -0.92354 0
M  V30 2061 C 205.034 -2.69307 2.39805 0
M  V30 2062 O 204.138 -3.67587 1.86959 0
M  V30 2063 H 203.479 -0.440959 0.496439 0
M  V30 2064 H 206.009 -0.827326 1.87127 0
M  V30 2065 H 206.019 -3.17374 2.56393 0
M  V30 2066 H 204.694 -2.38692 3.40586 0
M  V30 2067 H 203.271 -3.2662 1.79927 0
M  V30 2068 N 205.456 -1.28612 -0.910864 0
M  V30 2069 C 206.872 -1.06381 -1.18976 0
M  V30 2070 C 207.072 0.191998 -2.00583 0
M  V30 2071 O 206.128 0.892869 -2.36187 0
M  V30 2072 C 207.441 -2.31295 -1.92154 0
M  V30 2073 C 208.989 -2.36503 -2.05025 0
M  V30 2074 C 209.464 -3.61191 -2.81612 0
M  V30 2075 N 210.955 -3.61847 -2.89172 0
M  V30 2076 C 211.69 -4.55004 -3.4894 0
M  V30 2077 N 211.186 -5.58482 -4.09963 0
M  V30 2078 N 212.979 -4.42594 -3.46506 0
M  V30 2079 H 205.13 -2.09221 -0.366094 0
M  V30 2080 H 207.393 -0.921003 -0.224629 0
M  V30 2081 H 207.099 -3.228 -1.39618 0
M  V30 2082 H 206.973 -2.37934 -2.9269 0
M  V30 2083 H 209.36 -1.45494 -2.5674 0
M  V30 2084 H 209.441 -2.33857 -1.03657 0
M  V30 2085 H 209.085 -4.52545 -2.30576 0
M  V30 2086 H 209.015 -3.61092 -3.83302 0
M  V30 2087 H 211.506 -2.87022 -2.45819 0
M  V30 2088 H 211.819 -6.25704 -4.53557 0
M  V30 2089 H 210.164 -5.62305 -4.08459 0
M  V30 2090 H 213.355 -3.60953 -2.98045 0
M  V30 2091 H 213.528 -5.15381 -3.92793 0
M  V30 2092 N 206.934 1.1197 -1.10907 0
M  V30 2093 C 208.182 1.83225 -0.852819 0
M  V30 2094 C 208.503 1.84769 0.623341 0
M  V30 2095 O 207.773 1.3143 1.45269 0
M  V30 2096 H 206.353 0.67849 -0.312507 0
M  V30 2097 H 209.015 1.3556 -1.40033 0
M  V30 2098 H 208.111 2.87265 -1.22005 0
M  V30 2099 N 208.412 0.89855 1.29475 0
M  V30 2100 C 209.689 0.443416 1.90508 0
M  V30 2101 C 210.069 -1.07685 1.81569 0
M  V30 2102 O 209.417 -1.9182 1.24166 0
M  V30 2103 C 209.627 0.956708 3.35631 0
M  V30 2104 C 210.975 0.999728 4.12663 0
M  V30 2105 O 211.999 0.904299 3.4453 0
M  V30 2106 O 210.858 1.14289 5.34416 0
M  V30 2107 H 207.952 0.138025 0.815401 0
M  V30 2108 H 210.498 0.98834 1.37949 0
M  V30 2109 H 209.27 2.00067 3.36287 0
M  V30 2110 H 208.893 0.391728 3.95666 0
M  V30 2111 N 209.89 -1.43072 0.660911 0
M  V30 2112 C 211.138 -2.01323 0.177094 0
M  V30 2113 C 211.459 -1.5245 -1.2159 0
M  V30 2114 O 210.729 -0.740322 -1.81373 0
M  V30 2115 H 209.309 -0.744382 0.0624804 0
M  V30 2116 H 211.971 -1.75179 0.854305 0
M  V30 2117 H 211.067 -3.11649 0.167641 0
M  V30 2118 N 211.368 -0.403325 -1.52352 0
M  V30 2119 C 212.616 0.174003 -2.0135 0
M  V30 2120 C 212.937 1.46139 -1.29106 0
M  V30 2121 O 212.207 1.91448 -0.415253 0
M  V30 2122 H 210.787 0.0672911 -0.743963 0
M  V30 2123 H 213.449 -0.538235 -1.87321 0
M  V30 2124 H 212.545 0.374254 -3.09848 0
M  V30 2125 N 212.846 1.57033 -0.133567 0
M  V30 2126 C 213.796 2.12641 0.822671 0
M  V30 2127 C 214.78 1.05081 1.21847 0
M  V30 2128 O 215.972 1.31287 1.18713 0
M  V30 2129 C 213.101 2.74094 2.06706 0
M  V30 2130 C 212.187 3.88757 1.69497 0
M  V30 2131 N 212.578 4.95194 1.03037 0
M  V30 2132 C 210.876 3.99213 1.98859 0
M  V30 2133 C 211.577 5.75414 0.852873 0
M  V30 2134 N 210.553 5.25726 1.3825 0
M  V30 2135 H 214.355 2.92308 0.305537 0
M  V30 2136 H 211.869 1.62256 0.0684276 0
M  V30 2137 H 213.866 3.12285 2.76195 0
M  V30 2138 H 212.526 1.95896 2.5895 0
M  V30 2139 H 213.537 5.13247 0.692669 0
M  V30 2140 H 210.214 3.32075 2.53047 0
M  V30 2141 H 211.604 6.71089 0.330091 0
M  V30 2142 N 214.325 -0.140222 1.56975 0
M  V30 2143 C 215.573 -0.850005 1.83356 0
M  V30 2144 C 215.894 -1.81399 0.71551 0
M  V30 2145 O 215.164 -1.94136 -0.262294 0
M  V30 2146 H 213.744 -0.316886 0.676456 0
M  V30 2147 H 216.406 -0.132608 1.94448 0
M  V30 2148 H 215.502 -1.40814 2.78528 0
M  V30 2149 N 215.803 -1.52179 -0.40978 0
M  V30 2150 C 217.028 -1.70347 -1.18308 0
M  V30 2151 C 217.453 -0.411887 -1.83535 0
M  V30 2152 O 216.811 0.630587 -1.6998 0
M  V30 2153 C 216.859 -2.83977 -2.22238 0
M  V30 2154 O 215.963 -2.495 -3.28365 0
M  V30 2155 H 215.304 -0.567103 -0.345384 0
M  V30 2156 H 217.834 -1.98879 -0.480445 0
M  V30 2157 H 217.844 -3.0887 -2.66577 0
M  V30 2158 H 216.519 -3.77685 -1.74146 0
M  V30 2159 H 215.096 -2.35277 -2.89308 0
M  V30 2160 N 217.281 0.66697 -1.42791 0
M  V30 2161 C 218.506 1.46004 -1.47301 0
M  V30 2162 C 218.931 1.87894 -0.0880317 0
M  V30 2163 O 218.289 1.56502 0.915253 0
M  V30 2164 C 218.337 2.68031 -2.41229 0
M  V30 2165 O 217.441 3.6659 -1.88906 0
M  V30 2166 H 216.782 0.43832 -0.49877 0
M  V30 2167 H 219.312 0.817391 -1.87563 0
M  V30 2168 H 219.322 3.1601 -2.58073 0
M  V30 2169 H 217.997 2.36883 -3.41847 0
M  V30 2170 H 216.574 3.25661 -1.81656 0
M  V30 2171 N 218.759 1.29093 0.90403 0
M  V30 2172 C 220.007 1.16583 1.65085 0
M  V30 2173 C 220.328 -0.283933 1.92922 0
M  V30 2174 O 219.598 -1.19509 1.55224 0
M  V30 2175 H 218.178 0.428467 0.611903 0
M  V30 2176 H 220.84 1.61959 1.08422 0
M  V30 2177 H 219.936 1.71266 2.6091 0
M  V30 2178 N 220.237 -1.11381 1.11499 0
M  V30 2179 C 221.485 -1.8277 0.862524 0
M  V30 2180 C 221.806 -1.85097 -0.613534 0
M  V30 2181 O 221.076 -1.32198 -1.4457 0
M  V30 2182 H 219.656 -0.676823 0.316101 0
M  V30 2183 H 222.318 -1.34816 1.4075 0
M  V30 2184 H 221.414 -2.86614 1.23527 0
M  V30 2185 N 221.715 -0.905404 -1.28997 0
M  V30 2186 C 222.665 -0.358713 -2.25161 0
M  V30 2187 C 223.649 0.524449 -1.52113 0
M  V30 2188 O 224.841 0.365534 -1.73184 0
M  V30 2189 C 221.97 0.407609 -3.40872 0
M  V30 2190 C 221.056 -0.490797 -4.21251 0
M  V30 2191 N 221.447 -1.60061 -4.79806 0
M  V30 2192 C 219.745 -0.289636 -4.45059 0
M  V30 2193 C 220.446 -2.15757 -5.40207 0
M  V30 2194 N 219.422 -1.44988 -5.23908 0
M  V30 2195 H 223.224 -1.20642 -2.67998 0
M  V30 2196 H 220.738 -0.757103 -1.43672 0
M  V30 2197 H 222.735 0.816046 -4.08835 0
M  V30 2198 H 221.395 1.25251 -2.9957 0
M  V30 2199 H 222.406 -1.98329 -4.7842 0
M  V30 2200 H 219.083 0.51643 -4.14294 0
M  V30 2201 H 220.473 -3.09069 -5.96595 0
M  V30 2202 N 223.193 1.4272 -0.668489 0
M  V30 2203 C 224.156 2.292 0.00448567 0
M  V30 2204 C 225.156 1.43001 0.735339 0
M  V30 2205 O 226.346 1.64461 0.57429 0
M  V30 2206 C 223.478 3.25375 1.01705 0
M  V30 2207 H 224.671 2.90199 -0.756608 0
M  V30 2208 H 222.224 1.50254 -0.430506 0
M  V30 2209 H 222.959 2.69301 1.80686 0
M  V30 2210 H 222.744 3.88944 0.496463 0
M  V30 2211 H 224.234 3.90245 1.48655 0
M  V30 2212 N 224.671 0.411399 1.52136 0
M  V30 2213 C 225.896 -0.165538 2.06738 0
M  V30 2214 C 226.321 -1.379 1.27926 0
M  V30 2215 O 225.679 -1.78628 0.310114 0
M  V30 2216 C 225.727 -0.492124 3.57226 0
M  V30 2217 O 224.831 -1.58276 3.80818 0
M  V30 2218 H 224.172 -0.0132132 0.663869 0
M  V30 2219 H 226.702 0.585253 1.96051 0
M  V30 2220 H 226.712 -0.750104 4.01045 0
M  V30 2221 H 225.387 0.394922 4.14021 0
M  V30 2222 H 223.964 -1.31677 3.48877 0
M  V30 2223 N 226.149 -1.5696 0.141893 0
M  V30 2224 C 227.079 -2.19516 -0.795936 0
M  V30 2225 C 228.06 -1.14187 -1.26077 0
M  V30 2226 O 229.245 -1.42511 -1.31925 0
M  V30 2227 C 226.375 -2.81272 -2.03723 0
M  V30 2228 C 225.329 -3.92384 -1.70936 0
M  V30 2229 C 224.655 -4.41052 -3.02287 0
M  V30 2230 C 225.955 -5.13403 -0.959954 0
M  V30 2231 H 227.649 -2.98138 -0.274596 0
M  V30 2232 H 225.195 -1.43406 -0.130636 0
M  V30 2233 H 227.148 -3.237 -2.69808 0
M  V30 2234 H 225.872 -1.99973 -2.58221 0
M  V30 2235 H 224.531 -3.50566 -1.07232 0
M  V30 2236 H 224.179 -3.56582 -3.54765 0
M  V30 2237 H 223.879 -5.15993 -2.81114 0
M  V30 2238 H 225.403 -4.86146 -3.69451 0
M  V30 2239 H 226.817 -5.52706 -1.52279 0
M  V30 2240 H 225.214 -5.94073 -0.848357 0
M  V30 2241 H 226.284 -4.84875 0.0492434 0
M  V30 2242 O 227.666 -0.00315229 -1.615 0
M  V30 2243 H 228.357 0.61308 -1.83742 0
M  V30 END ATOM
M  V30 BEGIN BOND
M  V30 END BOND
M  V30 END CTAB
M  END
$$$$
