drugbank_target|P9WPP7 Mycocyclosin synthase (DB02721; DB08761)
 OpenBabel12092120013D

  0  0  0     0  0            999 V3000
M  V30 BEGIN CTAB
M  V30 COUNTS 6161 6224 0 0 0
M  V30 BEGIN ATOM
M  V30 1 H -0.908 1.98254 -0.117106 0
M  V30 2 N 0 1.576 0 0
M  V30 3 C 0.933 2.03868 1.02534 0
M  V30 4 C 1.911 0.928543 1.3348 0
M  V30 5 O 3.095 1.19667 1.45644 0
M  V30 6 C 0.222 2.43627 2.35294 0
M  V30 7 C -0.732 3.65373 2.2001 0
M  V30 8 S 0.101 5.13292 1.52614 0
M  V30 9 C 1.257 5.56322 2.86805 0
M  V30 10 H 1.49 2.90518 0.631377 0
M  V30 11 H -0.977 1.52953 0.210867 0
M  V30 12 H 0.981 2.67203 3.11629 0
M  V30 13 H -0.358 1.57376 2.7183 0
M  V30 14 H -1.165 3.90944 3.18086 0
M  V30 15 H -1.563 3.418 1.51819 0
M  V30 16 H 0.729 5.58782 3.83104 0
M  V30 17 H 1.672 6.56266 2.65933 0
M  V30 18 H 2.08 4.83886 2.90714 0
M  V30 19 N 1.4781 -0.272755 1.55222 0
M  V30 20 C 2.7061 -1.02255 1.79865 0
M  V30 21 C 3.1211 -1.79924 0.572088 0
M  V30 22 O 2.4781 -1.76638 -0.458842 0
M  V30 23 C 2.5291 -1.98094 3.02392 0
M  V30 24 O 2.2501 -1.23572 4.20311 0
M  V30 25 C 3.7511 -2.84884 3.39641 0
M  V30 26 H 0.9711 -0.302057 0.599168 0
M  V30 27 H 3.5151 -0.303465 2.02236 0
M  V30 28 H 1.6701 -2.65465 2.82147 0
M  V30 29 H 2.0841 -1.88172 4.89583 0
M  V30 30 H 3.5581 -3.47927 4.28545 0
M  V30 31 H 4.0351 -3.54665 2.59055 0
M  V30 32 H 4.6411 -2.23003 3.62146 0
M  V30 33 N 2.9562 -1.48159 -0.537278 0
M  V30 34 C 3.9192 -1.61665 -1.62472 0
M  V30 35 C 4.9192 -0.490395 -1.5314 0
M  V30 36 O 6.1092 -0.755998 -1.5694 0
M  V30 37 C 3.2412 -1.57997 -3.02076 0
M  V30 38 H 4.4342 -2.58621 -1.51839 0
M  V30 39 H 1.9872 -1.36647 -0.758771 0
M  V30 40 H 2.7222 -0.624913 -3.18222 0
M  V30 41 H 2.5072 -2.39755 -3.10258 0
M  V30 42 H 3.9972 -1.70627 -3.81151 0
M  V30 43 N 4.4343 0.785586 -1.36625 0
M  V30 44 C 5.6623 1.57448 -1.3423 0
M  V30 45 C 6.0773 1.88649 0.0755653 0
M  V30 46 O 5.4343 1.50414 1.03354 0
M  V30 47 C 5.4853 2.89316 -2.16745 0
M  V30 48 O 5.2063 2.59459 -3.53005 0
M  V30 49 C 6.7073 3.83606 -2.22174 0
M  V30 50 H 3.9273 0.488226 -0.4603 0
M  V30 51 H 6.4713 0.974733 -1.79775 0
M  V30 52 H 4.6263 3.4575 -1.74745 0
M  V30 53 H 5.0403 3.43804 -3.96105 0
M  V30 54 H 6.5143 4.73181 -2.8426 0
M  V30 55 H 6.9913 4.21734 -1.22627 0
M  V30 56 H 7.5973 3.33104 -2.64427 0
M  V30 57 N 5.9124 1.20967 1.01018 0
M  V30 58 C 7.1584 1.02526 1.74975 0
M  V30 59 C 7.4914 -0.4408 1.89131 0
M  V30 60 O 6.7664 -1.32718 1.42184 0
M  V30 61 C 7.0494 1.71699 3.1653 0
M  V30 62 C 6.9024 3.25791 3.10129 0
M  V30 63 C 8.2214 1.45531 4.15342 0
M  V30 64 H 5.3404 0.373863 0.635134 0
M  V30 65 H 7.9824 1.49071 1.17805 0
M  V30 66 H 6.1324 1.32128 3.65341 0
M  V30 67 H 7.8044 3.74697 2.69072 0
M  V30 68 H 6.0474 3.56363 2.47362 0
M  V30 69 H 6.7184 3.69353 4.10222 0
M  V30 70 H 9.1944 1.79872 3.75213 0
M  V30 71 H 8.0704 1.96453 5.1254 0
M  V30 72 H 8.3314 0.384237 4.40427 0
M  V30 73 N 7.3905 -1.2043 1.01659 0
M  V30 74 C 8.3205 -2.25466 0.607226 0
M  V30 75 C 9.3015 -1.65853 -0.377716 0
M  V30 76 O 10.4865 -1.92409 -0.263149 0
M  V30 77 C 7.6165 -3.47256 -0.0552949 0
M  V30 78 C 6.5705 -4.19462 0.850632 0
M  V30 79 C 5.8965 -5.34673 0.0538859 0
M  V30 80 C 7.1965 -4.75603 2.15868 0
M  V30 81 H 8.8905 -2.59962 1.48526 0
M  V30 82 H 6.4365 -1.2496 0.715605 0
M  V30 83 H 8.3895 -4.19917 -0.353233 0
M  V30 84 H 7.1135 -3.11924 -0.968045 0
M  V30 85 H 5.7725 -3.48667 1.13257 0
M  V30 86 H 5.4205 -4.95585 -0.860514 0
M  V30 87 H 5.1205 -5.83913 0.657192 0
M  V30 88 H 6.6445 -6.10138 -0.237598 0
M  V30 89 H 8.0585 -5.40083 1.92311 0
M  V30 90 H 6.4555 -5.3528 2.71284 0
M  V30 91 H 7.5255 -3.94346 2.82169 0
M  V30 92 N 8.8686 -0.792821 -1.36206 0
M  V30 93 C 9.7986 -0.207853 -2.32573 0
M  V30 94 C 10.7796 0.659055 -1.56813 0
M  V30 95 O 11.9646 0.592176 -1.84951 0
M  V30 96 C 9.0946 0.655449 -3.41059 0
M  V30 97 C 8.0486 -0.111842 -4.27854 0
M  V30 98 C 7.3746 0.872274 -5.27537 0
M  V30 99 C 8.6746 -1.30299 -5.05786 0
M  V30 100 H 10.3686 -1.01294 -2.81744 0
M  V30 101 H 7.9146 -0.48854 -1.3546 0
M  V30 102 H 9.8676 1.07464 -4.07467 0
M  V30 103 H 8.5916 1.49328 -2.90463 0
M  V30 104 H 7.2506 -0.512053 -3.63006 0
M  V30 105 H 6.8986 1.70523 -4.73214 0
M  V30 106 H 6.5986 0.363291 -5.86476 0
M  V30 107 H 8.1226 1.28996 -5.96818 0
M  V30 108 H 9.5366 -0.959379 -5.65216 0
M  V30 109 H 7.9336 -1.7455 -5.74154 0
M  V30 110 H 9.0036 -2.09663 -4.37229 0
M  V30 111 N 10.3467 1.47872 -0.545128 0
M  V30 112 C 11.2567 2.33633 0.212746 0
M  V30 113 C 12.2727 1.4744 0.923983 0
M  V30 114 O 13.4487 1.80393 0.895572 0
M  V30 115 C 10.5137 3.23884 1.23693 0
M  V30 116 C 9.5747 4.25961 0.534417 0
M  V30 117 C 8.8077 5.11899 1.5098 0
M  V30 118 O 9.0307 5.00077 2.7437 0
M  V30 119 O 7.9647 5.92831 1.0409 0
M  V30 120 H 11.7907 2.99714 -0.490416 0
M  V30 121 H 9.3757 1.46235 -0.305871 0
M  V30 122 H 11.2577 3.79666 1.82843 0
M  V30 123 H 9.9327 2.60446 1.92222 0
M  V30 124 H 8.8397 3.73972 -0.0979679 0
M  V30 125 H 10.1727 4.92079 -0.109213 0
M  V30 126 N 11.8248 0.280983 1.55075 0
M  V30 127 C 13.0708 -0.33461 2.00021 0
M  V30 128 C 13.4038 -1.55063 1.16915 0
M  V30 129 O 12.6788 -1.93006 0.240646 0
M  V30 130 C 12.9618 -0.711007 3.53011 0
M  V30 131 C 12.8148 0.512766 4.46868 0
M  V30 132 C 14.1338 -1.54522 4.12081 0
M  V30 133 H 11.2528 -0.120147 0.727141 0
M  V30 134 H 13.8948 0.389097 1.85973 0
M  V30 135 H 12.0448 -1.32761 3.65112 0
M  V30 136 H 13.7168 1.15131 4.46702 0
M  V30 137 H 11.9598 1.14975 4.18286 0
M  V30 138 H 12.6308 0.205556 5.51617 0
M  V30 139 H 15.1068 -1.02442 4.03293 0
M  V30 140 H 13.9828 -1.77739 5.19327 0
M  V30 141 H 14.2438 -2.52813 3.62682 0
M  V30 142 N 13.3029 -1.57598 0.00835791 0
M  V30 143 C 14.7139 -1.7892 -0.53333 0
M  V30 144 C 15.0649 -0.916609 -1.73473 0
M  V30 145 O 14.1899 -0.121336 -2.1606 0
M  V30 146 C 14.7849 -3.24488 -0.974313 0
M  V30 147 C 13.3439 -3.46878 -1.46125 0
M  V30 148 C 12.4909 -2.74157 -0.416302 0
M  V30 149 H 15.4419 -1.56958 0.234495 0
M  V30 150 H 15.4629 -3.3306 -1.83988 0
M  V30 151 H 14.9749 -3.87972 -0.099718 0
M  V30 152 H 13.0759 -2.8862 -2.35646 0
M  V30 153 H 13.1889 -4.55572 -1.48295 0
M  V30 154 H 11.5529 -2.39022 -0.87981 0
M  V30 155 H 12.3359 -3.40345 0.44947 0
M  V30 156 N 14.781 0.264519 -1.55364 0
M  V30 157 C 16.028 0.994986 -1.7637 0
M  V30 158 C 16.356 1.85976 -0.5695 0
M  V30 159 O 15.611 1.90509 0.44776 0
M  V30 160 C 15.91 1.9004 -3.02687 0
M  V30 161 C 15.576 1.19243 -4.34847 0
M  V30 162 C 14.238 0.996709 -4.70764 0
M  V30 163 C 16.59 0.689296 -5.16622 0
M  V30 164 C 13.918 0.285261 -5.86006 0
M  V30 165 C 16.27 -0.00860079 -6.32599 0
M  V30 166 C 14.934 -0.215963 -6.67151 0
M  V30 167 H 14.204 0.364091 -0.645383 0
M  V30 168 H 16.851 0.266543 -1.89636 0
M  V30 169 H 15.156 2.69533 -2.84357 0
M  V30 170 H 16.853 2.46695 -3.16137 0
M  V30 171 H 13.443 1.3549 -4.06621 0
M  V30 172 H 17.627 0.828108 -4.89342 0
M  V30 173 H 12.883 0.113961 -6.11294 0
M  V30 174 H 17.057 -0.406186 -6.95214 0
M  V30 175 H 14.684 -0.769217 -7.56298 0
M  V30 176 N 16.2591 1.48442 0.529413 0
M  V30 177 C 17.4841 1.60406 1.31471 0
M  V30 178 C 17.9091 0.264738 1.86228 0
M  V30 179 O 17.2671 -0.763668 1.64432 0
M  V30 180 C 17.3151 2.65419 2.44101 0
M  V30 181 O 16.4191 2.22618 3.47153 0
M  V30 182 H 15.7601 0.537863 0.389357 0
M  V30 183 H 18.2901 1.94432 0.636965 0
M  V30 184 H 18.3001 2.86709 2.90279 0
M  V30 185 H 16.9751 3.62652 2.03608 0
M  V30 186 H 15.5521 2.11543 3.0709 0
M  V30 187 N 17.7372 -0.778329 1.37039 0
M  V30 188 C 18.7002 -1.87301 1.32102 0
M  V30 189 C 19.7002 -1.59198 0.226405 0
M  V30 190 O 20.8902 -1.67403 0.481861 0
M  V30 191 C 18.0222 -3.24309 1.05055 0
M  V30 192 H 19.2152 -1.93093 2.29467 0
M  V30 193 H 16.7682 -0.977358 1.21973 0
M  V30 194 H 17.5032 -3.24196 0.0819373 0
M  V30 195 H 17.2882 -3.46098 1.84279 0
M  V30 196 H 18.7782 -4.04382 1.04234 0
M  V30 197 N 19.2153 -1.21501 -1.00376 0
M  V30 198 C 20.6313 -0.972629 -1.26539 0
M  V30 199 C 20.8313 0.340257 -1.98606 0
M  V30 200 O 19.8873 1.06561 -2.28913 0
M  V30 201 C 21.2003 -2.16404 -2.08781 0
M  V30 202 C 22.7483 -2.20643 -2.22004 0
M  V30 203 C 23.2233 -3.39306 -3.07629 0
M  V30 204 N 24.7143 -3.39401 -3.15217 0
M  V30 205 C 25.4493 -4.27867 -3.81729 0
M  V30 206 N 24.9453 -5.26533 -4.5026 0
M  V30 207 N 26.7383 -4.15672 -3.78382 0
M  V30 208 H 18.8893 -2.05929 -0.520281 0
M  V30 209 H 21.1523 -0.901803 -0.292328 0
M  V30 210 H 20.8583 -3.11554 -1.63178 0
M  V30 211 H 20.7323 -2.15567 -3.09533 0
M  V30 212 H 23.1193 -1.26048 -2.66825 0
M  V30 213 H 23.2003 -2.25523 -1.20718 0
M  V30 214 H 22.8443 -4.34195 -2.63509 0
M  V30 215 H 22.7743 -3.31665 -4.09031 0
M  V30 216 H 25.2653 -2.67997 -2.66432 0
M  V30 217 H 25.5783 -5.90337 -4.98721 0
M  V30 218 H 23.9233 -5.30457 -4.49044 0
M  V30 219 H 27.1143 -3.3785 -3.23998 0
M  V30 220 H 27.2873 -4.84825 -4.2994 0
M  V30 221 N 20.6934 1.19889 -1.02296 0
M  V30 222 C 21.9414 1.89046 -0.714558 0
M  V30 223 C 22.2624 1.79636 0.758681 0
M  V30 224 O 21.5324 1.20292 1.54618 0
M  V30 225 H 20.1124 0.699802 -0.261317 0
M  V30 226 H 22.7744 1.45574 -1.29592 0
M  V30 227 H 21.8704 2.95524 -1.0036 0
M  V30 228 N 22.1715 0.800033 1.35784 0
M  V30 229 C 23.4485 0.30088 1.93272 0
M  V30 230 C 23.8285 -1.20857 1.73081 0
M  V30 231 O 23.1765 -2.00502 1.09596 0
M  V30 232 C 23.3865 0.70511 3.41803 0
M  V30 233 C 24.7345 0.690871 4.18942 0
M  V30 234 O 25.7585 0.646244 3.50289 0
M  V30 235 O 24.6175 0.74332 5.41421 0
M  V30 236 H 21.7115 0.0771605 0.823393 0
M  V30 237 H 24.2575 0.88329 1.449 0
M  V30 238 H 23.0295 1.74571 3.50201 0
M  V30 239 H 22.6525 0.0971541 3.97481 0
M  V30 240 N 23.6496 -1.47581 0.552962 0
M  V30 241 C 25.0656 -1.5818 0.212424 0
M  V30 242 C 25.2656 -1.55213 -1.28496 0
M  V30 243 O 24.3216 -1.45329 -2.06484 0
M  V30 244 C 25.6346 -2.88865 0.835318 0
M  V30 245 C 27.1826 -3.0244 0.806156 0
M  V30 246 C 27.6576 -4.35819 1.40804 0
M  V30 247 N 29.1486 -4.42444 1.37103 0
M  V30 248 C 29.8836 -5.44202 1.80641 0
M  V30 249 N 29.3796 -6.52795 2.32015 0
M  V30 250 N 31.1726 -5.35222 1.71738 0
M  V30 251 H 23.3236 -1.47753 1.52587 0
M  V30 252 H 25.5866 -0.702941 0.636064 0
M  V30 253 H 25.2926 -2.9676 1.88749 0
M  V30 254 H 25.1666 -3.7579 0.325848 0
M  V30 255 H 27.5536 -2.94144 -0.237317 0
M  V30 256 H 27.6346 -2.17068 1.35334 0
M  V30 257 H 27.2786 -4.44871 2.45056 0
M  V30 258 H 27.2086 -5.19916 0.836338 0
M  V30 259 H 29.6996 -3.6456 0.995202 0
M  V30 260 H 30.0126 -7.26609 2.63171 0
M  V30 261 H 28.3576 -6.53696 2.36023 0
M  V30 262 H 31.5486 -4.49284 1.31382 0
M  V30 263 H 31.7216 -6.14389 2.05987 0
M  V30 264 N 25.1277 -0.289203 -1.54924 0
M  V30 265 C 26.3767 0.324231 -1.99077 0
M  V30 266 C 26.6897 1.5591 -1.18117 0
M  V30 267 O 27.8957 2.24637 -1.52481 0
M  V30 268 C 26.3517 0.628209 -3.54375 0
M  V30 269 C 25.9597 -0.587647 -4.44129 0
M  V30 270 C 27.7037 1.20349 -4.07083 0
M  V30 271 C 25.6107 -0.257475 -5.90839 0
M  V30 272 H 24.5407 0.124924 -0.743579 0
M  V30 273 H 27.1917 -0.396063 -1.79175 0
M  V30 274 H 25.5737 1.40778 -3.70132 0
M  V30 275 H 26.7477 -1.36418 -4.40144 0
M  V30 276 H 25.0627 -1.08074 -4.0213 0
M  V30 277 H 27.6597 1.46456 -5.14252 0
M  V30 278 H 28.0027 2.14195 -3.56968 0
M  V30 279 H 28.5357 0.485889 -3.94821 0
M  V30 280 H 25.2747 -1.16419 -6.45079 0
M  V30 281 H 24.7947 0.482018 -5.9786 0
M  V30 282 H 26.4737 0.145238 -6.46837 0
M  V30 283 N 26.6058 1.57591 -0.0167156 0
M  V30 284 C 28.0168 1.79201 0.523834 0
M  V30 285 C 28.3678 0.925796 1.72984 0
M  V30 286 O 27.4928 0.132792 2.15992 0
M  V30 287 C 28.0878 3.25 0.957091 0
M  V30 288 C 26.6468 3.47648 1.44283 0
M  V30 289 C 25.7938 2.74374 0.401757 0
M  V30 290 H 28.7448 1.56831 -0.242816 0
M  V30 291 H 28.7658 3.34031 1.82219 0
M  V30 292 H 28.2778 3.88019 0.0791415 0
M  V30 293 H 26.3788 2.89866 2.34113 0
M  V30 294 H 26.4918 4.56352 1.45877 0
M  V30 295 H 24.8558 2.39485 0.867121 0
M  V30 296 H 25.6388 3.40102 -0.467513 0
M  V30 297 N 28.0839 -0.256276 1.55502 0
M  V30 298 C 29.3609 -1.00789 1.67633 0
M  V30 299 C 29.7409 -2.03706 0.553826 0
M  V30 300 O 29.0889 -2.24145 -0.443969 0
M  V30 301 C 29.2989 -1.64968 3.07549 0
M  V30 302 C 30.6469 -2.15505 3.65845 0
M  V30 303 O 31.6709 -1.74925 3.1029 0
M  V30 304 O 30.5299 -2.89986 4.63217 0
M  V30 305 H 27.6239 -0.468553 0.681459 0
M  V30 306 H 30.1699 -0.250806 1.67836 0
M  V30 307 H 28.9419 -0.904785 3.80696 0
M  V30 308 H 28.5649 -2.47321 3.11317 0
M  V30 309 N 29.562 -1.4872 -0.521534 0
M  V30 310 C 30.525 -1.63379 -1.60748 0
M  V30 311 C 31.525 -0.50661 -1.52611 0
M  V30 312 O 32.715 -0.772601 -1.5613 0
M  V30 313 C 29.847 -1.61192 -3.00383 0
M  V30 314 H 31.04 -2.60217 -1.49087 0
M  V30 315 H 28.593 -1.37444 -0.744235 0
M  V30 316 H 29.328 -0.65863 -3.17541 0
M  V30 317 H 29.113 -2.43032 -3.07698 0
M  V30 318 H 30.603 -1.7466 -3.7932 0
M  V30 319 N 31.0401 0.771051 -1.3745 0
M  V30 320 C 32.2861 1.5319 -1.32894 0
M  V30 321 C 32.6191 1.94008 0.0862511 0
M  V30 322 O 31.8941 1.64124 1.04373 0
M  V30 323 C 32.1771 2.79648 -2.26868 0
M  V30 324 C 32.0301 2.45079 -3.77169 0
M  V30 325 C 33.3491 3.81583 -2.19277 0
M  V30 326 H 30.4681 0.555744 -0.484064 0
M  V30 327 H 33.1101 0.884492 -1.68157 0
M  V30 328 H 31.2601 3.34891 -1.96926 0
M  V30 329 H 32.9321 1.95745 -4.1771 0
M  V30 330 H 31.1751 1.77767 -3.95704 0
M  V30 331 H 31.8461 3.35478 -4.38359 0
M  V30 332 H 34.3221 3.35835 -2.45671 0
M  V30 333 H 33.1981 4.67787 -2.87171 0
M  V30 334 H 33.4591 4.25897 -1.18592 0
M  V30 335 N 32.5182 1.22032 0.997298 0
M  V30 336 C 33.4812 0.987909 2.06816 0
M  V30 337 C 34.4812 -0.0440084 1.6074 0
M  V30 338 O 35.6712 0.194053 1.73116 0
M  V30 339 C 32.8032 0.49132 3.37341 0
M  V30 340 H 33.9962 1.93803 2.28868 0
M  V30 341 H 31.5492 1.03838 1.16822 0
M  V30 342 H 32.2842 -0.463364 3.20973 0
M  V30 343 H 32.0692 1.23575 3.72118 0
M  V30 344 H 33.5592 0.348824 4.16141 0
M  V30 345 N 33.9963 -1.19345 1.0293 0
M  V30 346 C 34.9063 -2.26245 0.620515 0
M  V30 347 C 35.9223 -1.70486 -0.347928 0
M  V30 348 O 37.0983 -2.00347 -0.205704 0
M  V30 349 C 34.1633 -3.46693 -0.0218957 0
M  V30 350 C 33.2243 -4.17632 0.994102 0
M  V30 351 C 32.4573 -5.32329 0.382253 0
M  V30 352 O 32.6803 -5.64552 -0.814676 0
M  V30 353 O 31.6143 -5.91664 1.10531 0
M  V30 354 H 35.4403 -2.63453 1.51083 0
M  V30 355 H 33.0253 -1.26207 0.799513 0
M  V30 356 H 34.9073 -4.19683 -0.380072 0
M  V30 357 H 33.5823 -3.11333 -0.886209 0
M  V30 358 H 32.4893 -3.4676 1.40387 0
M  V30 359 H 33.8223 -4.56964 1.8288 0
M  V30 360 N 35.4744 -0.807222 -1.35358 0
M  V30 361 C 36.4044 -0.232509 -2.3234 0
M  V30 362 C 37.3854 0.642386 -1.57504 0
M  V30 363 O 38.5704 0.572526 -1.85569 0
M  V30 364 C 35.7004 0.619238 -3.41735 0
M  V30 365 C 34.6544 -0.157215 -4.27711 0
M  V30 366 C 33.9804 0.816273 -5.28433 0
M  V30 367 C 35.2804 -1.35656 -5.04376 0
M  V30 368 H 36.9744 -1.04276 -2.80654 0
M  V30 369 H 34.5204 -0.50288 -1.34934 0
M  V30 370 H 36.4734 1.03137 -4.08584 0
M  V30 371 H 35.1974 1.46239 -2.92031 0
M  V30 372 H 33.8564 -0.550525 -3.62443 0
M  V30 373 H 33.5044 1.65494 -4.74996 0
M  V30 374 H 33.2044 0.301067 -5.86828 0
M  V30 375 H 34.7284 1.22659 -5.98153 0
M  V30 376 H 36.1424 -1.01927 -5.64166 0
M  V30 377 H 34.5394 -1.8063 -5.7227 0
M  V30 378 H 35.6094 -2.14288 -4.34981 0
M  V30 379 N 36.9525 1.47285 -0.560781 0
M  V30 380 C 38.3685 1.58065 -0.22081 0
M  V30 381 C 38.5685 1.55892 1.27671 0
M  V30 382 O 37.6245 1.46422 2.0571 0
M  V30 383 C 38.9375 2.88418 -0.850625 0
M  V30 384 C 40.4855 3.02009 -0.822184 0
M  V30 385 C 40.9605 4.35066 -1.43113 0
M  V30 386 N 42.4515 4.41711 -1.39448 0
M  V30 387 C 43.1865 5.43237 -1.83525 0
M  V30 388 N 42.6825 6.51555 -2.35474 0
M  V30 389 N 44.4755 5.34304 -1.74574 0
M  V30 390 H 36.6265 1.46941 -1.53369 0
M  V30 391 H 38.8895 0.699558 -0.639783 0
M  V30 392 H 38.5955 2.95755 -1.9032 0
M  V30 393 H 38.4695 3.75612 -0.345773 0
M  V30 394 H 40.8565 2.94266 0.221714 0
M  V30 395 H 40.9375 2.16347 -1.36483 0
M  V30 396 H 40.5815 4.43565 -2.47412 0
M  V30 397 H 40.5115 5.19465 -0.863899 0
M  V30 398 H 43.0025 3.64027 -1.01452 0
M  V30 399 H 43.3155 7.25203 -2.67021 0
M  V30 400 H 41.6605 6.52435 -2.39487 0
M  V30 401 H 44.8515 4.48581 -1.33763 0
M  V30 402 H 45.0245 6.13288 -2.09242 0
M  V30 403 N 38.4306 0.297415 1.54768 0
M  V30 404 C 39.6586 -0.315623 2.04478 0
M  V30 405 C 40.0736 -1.47792 1.17486 0
M  V30 406 O 39.4306 -1.81404 0.19971 0
M  V30 407 C 39.4816 -0.7753 3.53088 0
M  V30 408 O 39.2026 0.340732 4.36773 0
M  V30 409 C 40.7036 -1.45386 4.18781 0
M  V30 410 H 37.9236 -0.0690887 0.667434 0
M  V30 411 H 40.4676 0.436003 1.99798 0
M  V30 412 H 38.6226 -1.47696 3.58141 0
M  V30 413 H 39.0366 -0.0165035 5.24497 0
M  V30 414 H 40.5106 -1.72669 5.24299 0
M  V30 415 H 40.9876 -2.39275 3.68299 0
M  V30 416 H 41.5936 -0.795475 4.17795 0
M  V30 417 N 39.9087 -1.5758 0.0250728 0
M  V30 418 C 41.3247 -1.56124 -0.331282 0
M  V30 419 C 41.5247 -1.03029 -1.73169 0
M  V30 420 O 40.5807 -0.675215 -2.43305 0
M  V30 421 C 41.8937 -3.00139 -0.183584 0
M  V30 422 C 43.4417 -3.11946 -0.256654 0
M  V30 423 C 43.9167 -4.57793 -0.137792 0
M  V30 424 N 45.4077 -4.6279 -0.194904 0
M  V30 425 C 46.1427 -5.7326 -0.126655 0
M  V30 426 N 45.6387 -6.928 -0.00755288 0
M  V30 427 N 47.4317 -5.61811 -0.180348 0
M  V30 428 H 39.5827 -1.90424 0.94087 0
M  V30 429 H 41.8457 -0.875761 0.362968 0
M  V30 430 H 41.5517 -3.4292 0.780927 0
M  V30 431 H 41.4257 -3.64899 -0.955448 0
M  V30 432 H 43.8127 -2.69079 -1.21162 0
M  V30 433 H 43.8937 -2.49915 0.545517 0
M  V30 434 H 43.5377 -5.01339 0.813739 0
M  V30 435 H 43.4677 -5.17798 -0.958775 0
M  V30 436 H 45.9587 -3.76807 -0.287267 0
M  V30 437 H 46.2717 -7.72791 0.0379428 0
M  V30 438 H 44.6167 -6.94995 0.0271731 0
M  V30 439 H 47.8077 -4.6731 -0.271767 0
M  V30 440 H 47.9807 -6.47882 -0.123697 0
M  V30 441 N 41.3868 0.248026 -1.55636 0
M  V30 442 C 42.2968 1.32859 -1.93354 0
M  V30 443 C 43.3128 1.52719 -0.833838 0
M  V30 444 O 44.4888 1.66363 -1.13513 0
M  V30 445 C 41.5538 2.66337 -2.21958 0
M  V30 446 C 40.6148 2.55008 -3.45354 0
M  V30 447 C 39.8478 3.82121 -3.72584 0
M  V30 448 O 40.0708 4.83951 -3.01907 0
M  V30 449 O 39.0048 3.80822 -4.6611 0
M  V30 450 H 42.8308 1.03862 -2.85388 0
M  V30 451 H 40.4158 0.448686 -1.42503 0
M  V30 452 H 42.2978 3.45216 -2.4167 0
M  V30 453 H 40.9728 2.95068 -1.33103 0
M  V30 454 H 39.8798 1.7442 -3.30951 0
M  V30 455 H 41.2128 2.31222 -4.34508 0
M  V30 456 N 42.8649 1.48995 0.513639 0
M  V30 457 C 44.2759 1.5119 1.09537 0
M  V30 458 C 44.6269 0.290906 1.94031 0
M  V30 459 O 43.7519 -0.60049 2.07902 0
M  V30 460 C 44.3469 2.73964 1.99322 0
M  V30 461 C 42.9059 2.78978 2.52682 0
M  V30 462 C 42.0529 2.44934 1.30009 0
M  V30 463 H 45.0039 1.55875 0.298125 0
M  V30 464 H 45.0249 2.53409 2.83838 0
M  V30 465 H 44.5369 3.62813 1.37799 0
M  V30 466 H 42.6379 1.94378 3.1788 0
M  V30 467 H 42.7509 3.8083 2.90698 0
M  V30 468 H 41.1149 1.9644 1.62122 0
M  V30 469 H 41.8979 3.36043 0.702131 0
M  V30 470 N 44.343 -0.763751 1.37857 0
M  V30 471 C 45.592 -1.51789 1.32827 0
M  V30 472 C 45.905 -1.95426 -0.0823719 0
M  V30 473 O 47.111 -2.70298 -0.255172 0
M  V30 474 C 45.567 -2.74133 2.33193 0
M  V30 475 C 45.175 -2.37562 3.79827 0
M  V30 476 C 46.919 -3.52054 2.37188 0
M  V30 477 C 44.826 -3.56456 4.71904 0
M  V30 478 H 43.756 -0.569896 0.493695 0
M  V30 479 H 46.407 -0.835822 1.63359 0
M  V30 480 H 44.789 -3.4427 1.9569 0
M  V30 481 H 45.963 -1.75157 4.26212 0
M  V30 482 H 44.278 -1.72798 3.78853 0
M  V30 483 H 46.875 -4.40437 3.03182 0
M  V30 484 H 47.218 -3.92486 1.38782 0
M  V30 485 H 47.751 -2.88921 2.7344 0
M  V30 486 H 44.49 -3.21099 5.71468 0
M  V30 487 H 44.01 -4.17938 4.30218 0
M  V30 488 H 45.689 -4.23168 4.89426 0
M  V30 489 N 45.8211 -1.22559 -0.990812 0
M  V30 490 C 47.2371 -0.985996 -1.255 0
M  V30 491 C 47.4371 0.319173 -1.98956 0
M  V30 492 O 46.4931 1.04127 -2.3003 0
M  V30 493 C 47.8061 -2.18607 -2.06474 0
M  V30 494 C 49.3541 -2.22985 -2.19651 0
M  V30 495 C 49.8291 -3.4255 -3.04012 0
M  V30 496 N 51.3201 -3.42725 -3.11599 0
M  V30 497 C 52.0551 -4.31892 -3.7717 0
M  V30 498 N 51.5511 -5.31279 -4.44651 0
M  V30 499 N 53.3441 -4.19662 -3.73952 0
M  V30 500 H 45.4951 -2.06469 -0.49841 0
M  V30 501 H 47.7581 -0.904853 -0.282747 0
M  V30 502 H 47.4641 -3.13267 -1.59865 0
M  V30 503 H 47.3381 -2.18838 -3.07229 0
M  V30 504 H 49.7251 -1.28871 -2.65474 0
M  V30 505 H 49.8061 -2.26791 -1.18319 0
M  V30 506 H 49.4501 -4.36965 -2.58889 0
M  V30 507 H 49.3801 -3.35984 -4.0549 0
M  V30 508 H 51.8711 -2.70807 -2.63575 0
M  V30 509 H 52.1841 -5.95593 -4.92431 0
M  V30 510 H 50.5291 -5.3519 -4.43392 0
M  V30 511 H 53.7201 -3.41268 -3.20396 0
M  V30 512 H 53.8931 -4.89358 -4.24774 0
M  V30 513 N 47.2992 1.18797 -1.03562 0
M  V30 514 C 48.2462 2.22253 -0.622259 0
M  V30 515 C 49.2162 1.61987 0.36736 0
M  V30 516 O 50.4012 1.88986 0.262492 0
M  V30 517 C 47.5412 3.45097 0.0138462 0
M  V30 518 C 46.6542 4.19722 -1.02263 0
M  V30 519 C 45.7892 5.30009 -0.355573 0
M  V30 520 C 44.8282 5.96399 -1.37749 0
M  V30 521 N 43.9652 6.98234 -0.735766 0
M  V30 522 H 48.8052 2.56968 -1.50903 0
M  V30 523 H 46.3422 1.26245 -0.755017 0
M  V30 524 H 48.3002 4.15279 0.399948 0
M  V30 525 H 46.9302 3.11018 0.864158 0
M  V30 526 H 45.9822 3.48418 -1.52673 0
M  V30 527 H 47.2942 4.65227 -1.79903 0
M  V30 528 H 46.4482 6.0664 0.0850095 0
M  V30 529 H 45.1872 4.85592 0.452967 0
M  V30 530 H 44.1922 5.18512 -1.82826 0
M  V30 531 H 45.4172 6.42899 -2.18764 0
M  V30 532 H 43.3632 6.55979 0.0525597 0
M  V30 533 H 43.2802 7.41965 -1.44995 0
M  V30 534 H 44.5482 7.78845 -0.31941 0
M  V30 535 N 48.7773 0.814389 1.34928 0
M  V30 536 C 50.0233 0.399013 1.98836 0
M  V30 537 C 50.3563 -1.03314 1.64438 0
M  V30 538 O 49.6313 -1.71811 0.911659 0
M  V30 539 C 49.9143 0.591629 3.55207 0
M  V30 540 C 49.7673 2.06928 3.99376 0
M  V30 541 C 51.0863 0.022199 4.40094 0
M  V30 542 H 48.2053 0.146451 0.722303 0
M  V30 543 H 50.8473 1.02537 1.59957 0
M  V30 544 H 48.9973 0.0584441 3.88456 0
M  V30 545 H 50.6693 2.66544 3.76499 0
M  V30 546 H 48.9123 2.56287 3.49999 0
M  V30 547 H 49.5833 2.1549 5.08201 0
M  V30 548 H 52.0593 0.477643 4.13349 0
M  V30 549 H 50.9353 0.186832 5.48582 0
M  V30 550 H 51.1963 -1.07215 4.28902 0
M  V30 551 N 50.2554 -1.46986 0.568584 0
M  V30 552 C 51.6714 -1.57946 0.229189 0
M  V30 553 C 51.8714 -1.56567 -1.26843 0
M  V30 554 O 50.9274 -1.47511 -2.04931 0
M  V30 555 C 52.2404 -2.87963 0.865909 0
M  V30 556 C 53.7884 -3.01568 0.838188 0
M  V30 557 C 54.2634 -4.34301 1.45419 0
M  V30 558 N 55.7544 -4.40965 1.41788 0
M  V30 559 C 56.4894 -5.42256 1.86403 0
M  V30 560 N 55.9854 -6.50297 2.38926 0
M  V30 561 N 57.7784 -5.3337 1.77405 0
M  V30 562 H 49.9294 -1.46126 1.54146 0
M  V30 563 H 52.1924 -0.696156 0.643484 0
M  V30 564 H 51.8984 -2.94742 1.91886 0
M  V30 565 H 51.7724 -3.75423 0.365687 0
M  V30 566 H 54.1594 -2.94379 -0.206106 0
M  V30 567 H 54.2404 -2.1562 1.37629 0
M  V30 568 H 53.8844 -4.42247 2.49761 0
M  V30 569 H 53.8144 -5.19 0.891435 0
M  V30 570 H 56.3054 -3.63484 1.03381 0
M  V30 571 H 56.6184 -7.23777 2.70863 0
M  V30 572 H 54.9634 -6.51155 2.42944 0
M  V30 573 H 58.1544 -4.47865 1.3614 0
M  V30 574 H 58.3274 -6.12169 2.12492 0
M  V30 575 N 51.7335 -0.305618 -1.54608 0
M  V30 576 C 52.9615 0.304775 -2.04643 0
M  V30 577 C 53.3765 1.47167 -1.18268 0
M  V30 578 O 52.7335 1.81296 -0.209328 0
M  V30 579 C 52.7845 0.756564 -3.53495 0
M  V30 580 O 52.5055 -0.36389 -4.36586 0
M  V30 581 C 54.0065 1.43163 -4.19546 0
M  V30 582 H 51.2265 0.0655481 -0.667791 0
M  V30 583 H 53.7705 -0.446592 -1.99564 0
M  V30 584 H 51.9255 1.45794 -3.58919 0
M  V30 585 H 52.3395 -0.0113121 -5.24499 0
M  V30 586 H 53.8135 1.69886 -5.25207 0
M  V30 587 H 54.2905 2.37318 -3.69563 0
M  V30 588 H 54.8965 0.773307 -4.18211 0
M  V30 589 N 53.2116 1.57565 -0.0334293 0
M  V30 590 C 54.4606 1.91155 0.643639 0
M  V30 591 C 54.7736 0.91192 1.73042 0
M  V30 592 O 55.9796 1.13923 2.46442 0
M  V30 593 C 54.4356 3.39443 1.1961 0
M  V30 594 C 54.0436 4.47774 0.142381 0
M  V30 595 C 55.7876 3.82094 1.84944 0
M  V30 596 C 53.6946 5.87162 0.706727 0
M  V30 597 H 52.6246 0.713368 0.244176 0
M  V30 598 H 55.2756 1.8323 -0.0994323 0
M  V30 599 H 53.6576 3.42313 1.99092 0
M  V30 600 H 54.8316 4.56469 -0.630296 0
M  V30 601 H 53.1466 4.14352 -0.412446 0
M  V30 602 H 55.7436 4.83591 2.2813 0
M  V30 603 H 56.0866 3.17386 2.69392 0
M  V30 604 H 56.6196 3.81665 1.12145 0
M  V30 605 H 53.3586 6.55424 -0.0997178 0
M  V30 606 H 52.8786 5.82064 1.44779 0
M  V30 607 H 54.5576 6.35866 1.19514 0
M  V30 608 N 54.6897 -0.239769 1.55765 0
M  V30 609 C 55.9177 -0.98417 1.81994 0
M  V30 610 C 56.3327 -1.7867 0.610124 0
M  V30 611 O 55.6897 -1.77571 -0.421271 0
M  V30 612 C 55.7407 -1.91635 3.06526 0
M  V30 613 O 55.4617 -1.14629 4.22838 0
M  V30 614 C 56.9627 -2.77616 3.45607 0
M  V30 615 H 54.1827 -0.28928 0.605441 0
M  V30 616 H 56.7267 -0.260499 2.02834 0
M  V30 617 H 54.8817 -2.5942 2.87715 0
M  V30 618 H 55.2957 -1.77745 4.93464 0
M  V30 619 H 56.7697 -3.38759 4.35828 0
M  V30 620 H 57.2467 -3.4909 2.6652 0
M  V30 621 H 57.8527 -2.15271 3.66795 0
M  V30 622 N 56.1678 -1.49265 -0.50573 0
M  V30 623 C 57.4158 -1.582 -1.25766 0
M  V30 624 C 57.7368 -0.268482 -1.93143 0
M  V30 625 O 57.0068 0.711833 -1.8251 0
M  V30 626 H 55.5868 -0.582873 -0.467191 0
M  V30 627 H 58.2488 -1.85865 -0.586525 0
M  V30 628 H 57.3448 -2.37563 -2.02412 0
M  V30 629 N 57.6459 0.756429 -1.3826 0
M  V30 630 C 58.6089 1.85176 -1.35065 0
M  V30 631 C 59.6089 1.58818 -0.251703 0
M  V30 632 O 60.7989 1.66615 -0.508433 0
M  V30 633 C 57.9309 3.22596 -1.10201 0
M  V30 634 H 59.1239 1.89417 -2.3251 0
M  V30 635 H 56.6769 0.95783 -1.23512 0
M  V30 636 H 57.4119 3.24025 -0.133504 0
M  V30 637 H 57.1969 3.43122 -1.89762 0
M  V30 638 H 58.6869 4.02673 -1.10654 0
M  V30 639 N 59.124 1.23083 0.984299 0
M  V30 640 C 60.034 1.02515 2.11016 0
M  V30 641 C 61.05 -0.0291702 1.73976 0
M  V30 642 O 62.226 0.165434 2.00719 0
M  V30 643 C 59.291 0.614673 3.41208 0
M  V30 644 C 58.352 1.74359 3.92297 0
M  V30 645 C 57.585 1.35261 5.16275 0
M  V30 646 O 57.808 0.235136 5.69915 0
M  V30 647 O 56.742 2.17227 5.61334 0
M  V30 648 H 60.568 1.96862 2.31255 0
M  V30 649 H 58.153 1.01753 1.09392 0
M  V30 650 H 60.035 0.396518 4.1953 0
M  V30 651 H 58.71 -0.299851 3.22308 0
M  V30 652 H 57.617 2.01635 3.1511 0
M  V30 653 H 58.95 2.63629 4.15645 0
M  V30 654 N 60.6021 -1.18246 1.0419 0
M  V30 655 C 61.5651 -2.20128 0.638452 0
M  V30 656 C 62.5651 -1.57885 -0.304805 0
M  V30 657 O 63.7551 -1.73967 -0.0900369 0
M  V30 658 C 60.8871 -3.4084 -0.0637751 0
M  V30 659 H 62.0801 -2.57336 1.54007 0
M  V30 660 H 59.6331 -1.32152 0.834598 0
M  V30 661 H 60.3681 -3.09166 -0.979136 0
M  V30 662 H 60.1531 -3.8726 0.614198 0
M  V30 663 H 61.6431 -4.16274 -0.332512 0
M  V30 664 N 62.0802 -0.821533 -1.34494 0
M  V30 665 C 63.3262 -0.418729 -1.99043 0
M  V30 666 C 63.6812 1.00672 -1.6396 0
M  V30 667 O 62.9742 1.69132 -0.900271 0
M  V30 668 C 63.1682 -0.556512 -3.53041 0
M  V30 669 C 62.9972 -1.9938 -4.03085 0
M  V30 670 C 61.7672 -2.62539 -4.31742 0
M  V30 671 C 63.9652 -2.96035 -4.20556 0
M  V30 672 N 61.9472 -3.97523 -4.67813 0
M  V30 673 C 63.3182 -4.15924 -4.59791 0
M  V30 674 C 65.3732 -2.9267 -4.02801 0
M  V30 675 C 64.0762 -5.32899 -4.83126 0
M  V30 676 C 66.1022 -4.08861 -4.27302 0
M  V30 677 C 65.4642 -5.275 -4.66822 0
M  V30 678 H 61.5632 -0.201299 -0.755647 0
M  V30 679 H 64.1472 -1.06594 -1.62929 0
M  V30 680 H 62.3182 0.0607924 -3.88352 0
M  V30 681 H 64.0502 -0.126842 -4.04501 0
M  V30 682 H 60.8052 -2.13789 -4.22601 0
M  V30 683 H 61.2292 -4.67061 -4.90085 0
M  V30 684 H 65.8712 -2.02088 -3.71376 0
M  V30 685 H 63.5892 -6.24041 -5.13418 0
M  V30 686 H 67.1752 -4.07654 -4.15101 0
M  V30 687 H 66.0552 -6.15913 -4.85408 0
M  V30 688 N 63.5583 1.46682 -0.576371 0
M  V30 689 C 64.4883 2.33028 0.148397 0
M  V30 690 C 65.4693 1.44961 0.889956 0
M  V30 691 O 66.6543 1.73789 0.866662 0
M  V30 692 C 63.7843 3.27117 1.1667 0
M  V30 693 C 62.7383 4.24575 0.540386 0
M  V30 694 C 62.0643 5.08126 1.6647 0
M  V30 695 C 63.3643 5.19722 -0.518331 0
M  V30 696 H 65.0583 2.93875 -0.572509 0
M  V30 697 H 62.6043 1.41315 -0.276768 0
M  V30 698 H 64.5573 3.86374 1.68204 0
M  V30 699 H 63.2813 2.64364 1.9178 0
M  V30 700 H 61.9403 3.66571 0.0461769 0
M  V30 701 H 61.5883 4.41762 2.40531 0
M  V30 702 H 61.2883 5.74122 1.25131 0
M  V30 703 H 62.8123 5.70246 2.18293 0
M  V30 704 H 64.2263 5.73232 -0.0883058 0
M  V30 705 H 62.6233 5.94026 -0.851679 0
M  V30 706 H 63.6933 4.64037 -1.40703 0
M  V30 707 N 65.0364 0.313813 1.54444 0
M  V30 708 C 66.2824 -0.292108 2.00685 0
M  V30 709 C 66.6154 -1.52548 1.20177 0
M  V30 710 O 65.8904 -1.92452 0.281531 0
M  V30 711 C 66.1734 -0.635968 3.5444 0
M  V30 712 C 66.0264 0.607437 4.4568 0
M  V30 713 C 67.3454 -1.45747 4.15266 0
M  V30 714 H 64.4644 -0.104697 0.729526 0
M  V30 715 H 67.1064 0.428457 1.85106 0
M  V30 716 H 65.2564 -1.24986 3.67846 0
M  V30 717 H 66.9284 1.24581 4.44159 0
M  V30 718 H 65.1714 1.23822 4.15753 0
M  V30 719 H 65.8424 0.322515 5.51057 0
M  V30 720 H 68.3184 -0.938645 4.05375 0
M  V30 721 H 67.1944 -1.66683 5.2298 0
M  V30 722 H 67.4554 -2.45063 3.67963 0
M  V30 723 N 66.5145 -1.57545 0.0417849 0
M  V30 724 C 67.7395 -1.97035 -0.647455 0
M  V30 725 C 68.1645 -0.918775 -1.64135 0
M  V30 726 O 67.5225 0.119006 -1.80909 0
M  V30 727 C 67.5705 -3.35609 -1.31905 0
M  V30 728 O 66.6745 -3.3287 -2.43457 0
M  V30 729 H 66.0155 -0.64211 -0.169086 0
M  V30 730 H 68.5455 -2.04318 0.107399 0
M  V30 731 H 68.5555 -3.72126 -1.67291 0
M  V30 732 H 67.2305 -4.11685 -0.590586 0
M  V30 733 H 65.8075 -3.08087 -2.10088 0
M  V30 734 N 67.9926 0.231505 -1.5589 0
M  V30 735 C 69.2176 0.978689 -1.82856 0
M  V30 736 C 69.6426 1.77559 -0.620846 0
M  V30 737 O 69.0006 1.76119 0.430305 0
M  V30 738 C 69.0486 1.87997 -3.07716 0
M  V30 739 O 68.1526 2.97393 -2.85712 0
M  V30 740 H 67.4936 0.277663 -0.603158 0
M  V30 741 H 70.0236 0.24783 -2.03093 0
M  V30 742 H 70.0336 2.2917 -3.37558 0
M  V30 743 H 68.7086 1.29417 -3.95252 0
M  V30 744 H 67.2856 2.60238 -2.67078 0
M  V30 745 N 69.4707 1.49531 0.497807 0
M  V30 746 C 70.7007 1.62657 1.27382 0
M  V30 747 C 71.1087 0.298488 1.86831 0
M  V30 748 O 70.4517 -0.72647 1.68725 0
M  V30 749 C 70.5137 2.6393 2.44093 0
M  V30 750 C 70.1777 4.08195 2.05489 0
M  V30 751 C 71.1747 4.949 1.59279 0
M  V30 752 C 68.8597 4.53948 2.15026 0
M  V30 753 C 70.8537 6.25397 1.23113 0
M  V30 754 C 68.5407 5.84458 1.78473 0
M  V30 755 C 69.5387 6.70006 1.32591 0
M  V30 756 O 69.2267 7.98083 0.965327 0
M  V30 757 H 68.9587 0.550429 0.392434 0
M  V30 758 H 71.5127 1.96325 0.603801 0
M  V30 759 H 69.7427 2.25449 3.14181 0
M  V30 760 H 71.4317 2.66552 3.06113 0
M  V30 761 H 72.1977 4.60779 1.51354 0
M  V30 762 H 68.0767 3.87525 2.4969 0
M  V30 763 H 71.6207 6.92125 0.872299 0
M  V30 764 H 67.5177 6.18107 1.86048 0
M  V30 765 H 68.2857 8.11122 1.09652 0
M  V30 766 N 70.9488 -0.749086 1.3866 0
M  V30 767 C 71.9118 -1.84457 1.36045 0
M  V30 768 C 72.9118 -1.58682 0.260122 0
M  V30 769 O 74.1018 -1.66343 0.517261 0
M  V30 770 C 71.2338 -3.22008 1.11911 0
M  V30 771 H 72.4268 -1.88182 2.33512 0
M  V30 772 H 69.9798 -0.951266 1.24019 0
M  V30 773 H 70.7148 -3.2395 0.150686 0
M  V30 774 H 70.4998 -3.42111 1.91579 0
M  V30 775 H 71.9898 -4.0208 1.12788 0
M  V30 776 N 72.4269 -1.23603 -0.977757 0
M  V30 777 C 73.3569 -1.04401 -2.0886 0
M  V30 778 C 74.3379 0.0399052 -1.70053 0
M  V30 779 O 75.5229 -0.125246 -1.93796 0
M  V30 780 C 72.6529 -0.637269 -3.41403 0
M  V30 781 C 71.6069 -1.66883 -3.94124 0
M  V30 782 C 70.9329 -1.11745 -5.22893 0
M  V30 783 C 72.2329 -3.06247 -4.23096 0
M  V30 784 H 73.9269 -1.97316 -2.25182 0
M  V30 785 H 71.4729 -0.950096 -1.08209 0
M  V30 786 H 73.4259 -0.48998 -4.18542 0
M  V30 787 H 72.1499 0.327557 -3.24953 0
M  V30 788 H 70.8089 -1.80416 -3.19133 0
M  V30 789 H 70.4569 -0.143527 -5.02795 0
M  V30 790 H 70.1569 -1.80672 -5.59134 0
M  V30 791 H 71.6809 -0.982067 -6.02651 0
M  V30 792 H 73.0949 -2.96001 -4.90975 0
M  V30 793 H 71.4919 -3.72436 -4.70544 0
M  V30 794 H 72.5619 -3.55041 -3.30263 0
M  V30 795 N 73.905 1.17692 -1.04816 0
M  V30 796 C 75.145 1.89545 -0.764979 0
M  V30 797 C 75.509 1.78979 0.695028 0
M  V30 798 O 76.71 2.45613 1.09215 0
M  V30 799 C 74.981 3.35659 -1.22751 0
M  V30 800 S 76.54 4.25526 -1.07112 0
M  V30 801 H 73.358 0.654432 -0.27792 0
M  V30 802 H 75.96 1.42163 -1.34201 0
M  V30 803 H 74.664 3.40882 -2.28533 0
M  V30 804 H 74.195 3.88083 -0.644594 0
M  V30 805 H 76.21 4.962 0.00697508 0
M  V30 806 N 75.3831 0.828654 1.34056 0
M  V30 807 C 76.6111 0.43262 2.02326 0
M  V30 808 C 77.0261 -0.963147 1.62385 0
M  V30 809 O 76.3831 -1.62425 0.832121 0
M  V30 810 C 76.4341 0.53182 3.57567 0
M  V30 811 O 76.1551 1.87258 3.96063 0
M  V30 812 C 77.6561 0.131422 4.43105 0
M  V30 813 H 74.8761 0.172923 0.648335 0
M  V30 814 H 77.4201 1.1184 1.71208 0
M  V30 815 H 75.5751 -0.105938 3.87255 0
M  V30 816 H 75.9891 1.85087 4.90758 0
M  V30 817 H 77.4631 0.251904 5.51425 0
M  V30 818 H 77.9401 -0.925645 4.29335 0
M  V30 819 H 78.5461 0.743207 4.18756 0
M  V30 820 N 76.8612 -1.46375 0.584142 0
M  V30 821 C 77.7932 -2.28443 -0.186119 0
M  V30 822 C 78.8062 -1.38596 -0.854115 0
M  V30 823 O 79.9952 -1.63183 -0.723438 0
M  V30 824 C 77.0952 -3.13671 -1.28311 0
M  V30 825 C 76.2682 -4.31652 -0.706758 0
M  V30 826 C 75.3272 -4.98267 -1.69163 0
M  V30 827 O 74.3532 -5.55815 -1.22712 0
M  V30 828 N 75.5552 -4.95408 -3.02575 0
M  V30 829 H 78.3202 -2.9519 0.517986 0
M  V30 830 H 75.8812 -1.56303 0.42201 0
M  V30 831 H 77.8732 -3.55101 -1.94128 0
M  V30 832 H 76.4432 -2.48989 -1.89005 0
M  V30 833 H 75.6632 -3.93989 0.128908 0
M  V30 834 H 76.9512 -5.07906 -0.301506 0
M  V30 835 H 76.3492 -4.49902 -3.42936 0
M  V30 836 H 74.9062 -5.40774 -3.63877 0
M  V30 837 N 78.3393 -0.321999 -1.54275 0
M  V30 838 C 79.5853 0.281461 -2.00837 0
M  V30 839 C 79.9183 1.51909 -1.20985 0
M  V30 840 O 79.1933 1.923 -0.291733 0
M  V30 841 C 79.4763 0.617162 -3.54772 0
M  V30 842 C 79.3293 -0.631064 -4.45351 0
M  V30 843 C 80.6483 1.43542 -4.16033 0
M  V30 844 H 77.7673 0.100826 -0.730071 0
M  V30 845 H 80.4093 -0.438268 -1.84876 0
M  V30 846 H 78.5593 1.23034 -3.68504 0
M  V30 847 H 80.2313 -1.26934 -4.43492 0
M  V30 848 H 78.4743 -1.26025 -4.15091 0
M  V30 849 H 79.1453 -0.351735 -5.50878 0
M  V30 850 H 81.6213 0.917134 -4.05867 0
M  V30 851 H 80.4973 1.63907 -5.23856 0
M  V30 852 H 80.7583 2.43108 -3.69257 0
M  V30 853 N 79.8174 1.5752 -0.0501392 0
M  V30 854 C 80.7474 2.14502 0.922566 0
M  V30 855 C 81.7284 1.06642 1.3252 0
M  V30 856 O 82.9134 1.34577 1.4001 0
M  V30 857 C 80.0434 2.68916 2.19776 0
M  V30 858 C 78.9974 3.8175 1.93523 0
M  V30 859 C 78.3234 4.22677 3.27487 0
M  V30 860 C 79.6234 5.06932 1.25765 0
M  V30 861 H 81.3174 2.9603 0.447952 0
M  V30 862 H 78.8634 1.42401 0.214024 0
M  V30 863 H 80.8164 3.07419 2.88222 0
M  V30 864 H 79.5404 1.84578 2.69441 0
M  V30 865 H 78.1994 3.43718 1.27489 0
M  V30 866 H 77.8474 3.35291 3.74952 0
M  V30 867 H 77.5474 4.98725 3.1072 0
M  V30 868 H 79.0714 4.63779 3.97166 0
M  V30 869 H 80.4854 5.42888 1.84244 0
M  V30 870 H 78.8824 5.88116 1.19328 0
M  V30 871 H 79.9524 4.84337 0.233536 0
M  V30 872 N 81.2955 -0.223234 1.56011 0
M  V30 873 C 82.2055 -1.29766 1.95443 0
M  V30 874 C 83.2215 -1.51373 0.858028 0
M  V30 875 O 84.3975 -1.64536 1.16146 0
M  V30 876 C 81.4625 -2.62772 2.26167 0
M  V30 877 C 80.5235 -2.49482 3.49367 0
M  V30 878 C 79.7565 -3.76145 3.78616 0
M  V30 879 O 79.9795 -4.79087 3.09568 0
M  V30 880 O 78.9135 -3.73358 4.72109 0
M  V30 881 H 82.7395 -0.99309 2.87004 0
M  V30 882 H 80.3245 -0.425958 1.43199 0
M  V30 883 H 82.2065 -3.41327 2.47131 0
M  V30 884 H 80.8815 -2.92913 1.37781 0
M  V30 885 H 79.7885 -1.69133 3.33684 0
M  V30 886 H 81.1215 -2.2428 4.38131 0
M  V30 887 N 82.7736 -1.49793 -0.48987 0
M  V30 888 C 84.0506 -1.50348 -1.25119 0
M  V30 889 C 84.4306 -0.237466 -2.0976 0
M  V30 890 O 83.7786 0.77981 -2.14782 0
M  V30 891 C 83.9886 -2.78872 -2.09837 0
M  V30 892 C 85.3366 -3.288 -2.68655 0
M  V30 893 O 86.3606 -2.80065 -2.20096 0
M  V30 894 O 85.2196 -4.13707 -3.57083 0
M  V30 895 H 82.3136 -0.602242 -0.566775 0
M  V30 896 H 84.8596 -1.62067 -0.503229 0
M  V30 897 H 83.6316 -3.62499 -1.47343 0
M  V30 898 H 83.2546 -2.70066 -2.91805 0
M  V30 899 N 84.2517 0.741722 -1.39055 0
M  V30 900 C 85.6677 1.04638 -1.20512 0
M  V30 901 C 85.8677 2.01405 -0.0620218 0
M  V30 902 O 84.9237 2.45547 0.588457 0
M  V30 903 C 86.2367 1.6151 -2.53643 0
M  V30 904 C 87.7847 1.73623 -2.6043 0
M  V30 905 C 88.2597 2.33906 -3.93767 0
M  V30 906 N 89.7507 2.41323 -3.9537 0
M  V30 907 C 90.4857 2.88888 -4.95309 0
M  V30 908 N 89.9817 3.36401 -6.05645 0
M  V30 909 N 91.7747 2.88037 -4.82692 0
M  V30 910 H 83.9257 0.0998155 -2.12165 0
M  V30 911 H 86.1887 0.106907 -0.941953 0
M  V30 912 H 85.8947 0.978739 -3.37807 0
M  V30 913 H 85.7687 2.60411 -2.72885 0
M  V30 914 H 88.1557 2.36384 -1.76655 0
M  V30 915 H 88.2367 0.733945 -2.45045 0
M  V30 916 H 87.8807 1.71776 -4.7797 0
M  V30 917 H 87.8107 3.34799 -4.06469 0
M  V30 918 H 90.3017 2.07734 -3.15682 0
M  V30 919 H 90.6147 3.71186 -6.77821 0
M  V30 920 H 88.9597 3.34427 -6.09248 0
M  V30 921 H 92.1507 2.50237 -3.95599 0
M  V30 922 H 92.3237 3.24792 -5.60726 0
M  V30 923 N 85.7298 1.2412 0.971189 0
M  V30 924 C 87.1458 1.00584 1.23916 0
M  V30 925 C 87.3458 -0.287481 1.99439 0
M  V30 926 O 86.4018 -1.00454 2.31658 0
M  V30 927 C 87.7148 2.21864 2.0297 0
M  V30 928 C 89.2628 2.26452 2.16076 0
M  V30 929 C 89.7378 3.47343 2.98524 0
M  V30 930 N 91.2288 3.47639 3.06107 0
M  V30 931 C 91.9638 4.37837 3.70251 0
M  V30 932 N 91.4598 5.38286 4.36142 0
M  V30 933 N 93.2528 4.25558 3.67228 0
M  V30 934 H 85.4038 2.07236 0.465499 0
M  V30 935 H 87.6668 0.909236 0.268315 0
M  V30 936 H 87.3728 3.15771 1.54861 0
M  V30 937 H 87.2468 2.23698 3.03709 0
M  V30 938 H 89.6338 1.33078 2.6339 0
M  V30 939 H 89.7148 2.28645 1.14696 0
M  V30 940 H 89.3588 4.41029 2.51905 0
M  V30 941 H 89.2888 3.42393 4.00093 0
M  V30 942 H 91.7798 2.74966 2.59233 0
M  V30 943 H 92.0928 6.03352 4.82894 0
M  V30 944 H 90.4378 5.42176 4.34822 0
M  V30 945 H 93.6288 3.46322 3.14927 0
M  V30 946 H 93.8018 4.96054 4.16935 0
M  V30 947 N 87.2079 -1.17134 1.05439 0
M  V30 948 C 88.4549 -1.87456 0.765942 0
M  V30 949 C 88.7829 -1.81189 -0.707153 0
M  V30 950 O 88.0379 -1.21633 -1.5331 0
M  V30 951 C 88.3369 -3.36833 1.19491 0
M  V30 952 C 88.0029 -3.63301 2.67063 0
M  V30 953 C 86.6649 -3.70234 3.07376 0
M  V30 954 C 89.0169 -3.74575 3.62413 0
M  V30 955 C 86.3449 -3.85933 4.41896 0
M  V30 956 C 88.6969 -3.91793 4.9667 0
M  V30 957 C 87.3609 -3.96966 5.36633 0
M  V30 958 H 86.6309 -0.685948 0.280278 0
M  V30 959 H 89.2779 -1.38556 1.32192 0
M  V30 960 H 87.5829 -3.87807 0.557969 0
M  V30 961 H 89.2799 -3.89611 0.948893 0
M  V30 962 H 85.8699 -3.58532 2.34846 0
M  V30 963 H 90.0539 -3.68537 3.32406 0
M  V30 964 H 85.3099 -3.88187 4.72357 0
M  V30 965 H 89.4839 -3.99458 5.70444 0
M  V30 966 H 87.1109 -4.08883 6.40874 0
M  V30 967 N 88.686 -0.835752 -1.33615 0
M  V30 968 C 89.911 -0.442389 -2.02627 0
M  V30 969 C 90.336 0.947735 -1.62479 0
M  V30 970 O 89.694 1.61907 -0.815826 0
M  V30 971 C 89.742 -0.567216 -3.56111 0
M  V30 972 O 88.846 0.407799 -4.10379 0
M  V30 973 H 88.187 -0.180278 -0.639059 0
M  V30 974 H 90.717 -1.12972 -1.70583 0
M  V30 975 H 90.727 -0.447708 -4.05536 0
M  V30 976 H 89.402 -1.58103 -3.84677 0
M  V30 977 H 87.979 0.246107 -3.72087 0
M  V30 978 N 90.1641 1.46063 -0.591896 0
M  V30 979 C 91.0971 2.27452 0.184617 0
M  V30 980 C 92.0751 1.36188 0.888351 0
M  V30 981 O 93.2591 1.65606 0.90039 0
M  V30 982 C 90.3861 3.14162 1.26571 0
M  V30 983 C 89.4321 4.21255 0.666814 0
M  V30 984 S 90.2651 5.33034 -0.513345 0
M  V30 985 C 91.4211 6.23311 0.56872 0
M  V30 986 H 91.6541 2.92963 -0.505939 0
M  V30 987 H 89.1871 1.49676 -0.379014 0
M  V30 988 H 91.1451 3.6468 1.88463 0
M  V30 989 H 89.8061 2.47946 1.92826 0
M  V30 990 H 88.9991 4.81788 1.47974 0
M  V30 991 H 88.6011 3.73797 0.123359 0
M  V30 992 H 90.8931 6.61758 1.45198 0
M  V30 993 H 91.8361 7.081 -7.23824e-05 0
M  V30 994 H 92.2441 5.57646 0.876996 0
M  V30 995 N 91.6422 0.330177 1.54103 0
M  V30 996 C 92.5892 -0.532762 2.24567 0
M  V30 997 C 93.5592 -1.10635 1.23892 0
M  V30 998 O 94.7442 -1.14546 1.5259 0
M  V30 999 C 91.8842 -1.6845 3.01195 0
M  V30 1000 C 90.9972 -1.13951 4.167 0
M  V30 1001 C 90.1322 -2.25746 4.80845 0
M  V30 1002 C 89.1712 -1.6853 5.88442 0
M  V30 1003 N 88.3082 -2.74014 6.46421 0
M  V30 1004 H 93.1482 0.0746905 2.97906 0
M  V30 1005 H 90.6852 0.048632 1.4702 0
M  V30 1006 H 92.6432 -2.36234 3.43874 0
M  V30 1007 H 91.2732 -2.26314 2.30178 0
M  V30 1008 H 90.3252 -0.35301 3.78758 0
M  V30 1009 H 91.6372 -0.680892 4.94131 0
M  V30 1010 H 90.7912 -3.01422 5.26526 0
M  V30 1011 H 89.5302 -2.74947 4.0281 0
M  V30 1012 H 88.5352 -0.913543 5.42157 0
M  V30 1013 H 89.7602 -1.20198 6.68378 0
M  V30 1014 H 87.7062 -3.22494 5.71256 0
M  V30 1015 H 87.6232 -2.32735 7.19285 0
M  V30 1016 H 88.8912 -3.49499 6.96757 0
M  V30 1017 N 93.1203 -1.57491 0.0584922 0
M  V30 1018 C 94.0303 -2.15448 -0.928414 0
M  V30 1019 C 95.0463 -1.11416 -1.3365 0
M  V30 1020 O 96.2223 -1.4362 -1.41193 0
M  V30 1021 C 93.2873 -2.69393 -2.18239 0
M  V30 1022 C 92.3483 -3.88249 -1.83196 0
M  V30 1023 C 91.5813 -4.39613 -3.02616 0
M  V30 1024 O 91.8043 -3.90023 -4.16219 0
M  V30 1025 O 90.7383 -5.31111 -2.83204 0
M  V30 1026 H 94.5643 -3.00112 -0.465483 0
M  V30 1027 H 92.1493 -1.48499 -0.163826 0
M  V30 1028 H 94.0313 -3.04026 -2.91798 0
M  V30 1029 H 92.7063 -1.87796 -2.63656 0
M  V30 1030 H 91.6133 -3.58492 -1.06931 0
M  V30 1031 H 92.9463 -4.71098 -1.42573 0
M  V30 1032 N 94.5984 0.214957 -1.56127 0
M  V30 1033 C 95.8264 0.955092 -1.83536 0
M  V30 1034 C 96.2414 1.77677 -0.638472 0
M  V30 1035 O 95.5984 1.78219 0.392968 0
M  V30 1036 C 95.6494 1.86734 -3.09536 0
M  V30 1037 O 95.3704 1.07887 -4.24608 0
M  V30 1038 C 96.8714 2.72082 -3.4998 0
M  V30 1039 H 94.0914 0.279611 -0.609966 0
M  V30 1040 H 96.6354 0.228197 -2.03223 0
M  V30 1041 H 94.7904 2.5481 -2.91806 0
M  V30 1042 H 95.2044 1.69872 -4.9623 0
M  V30 1043 H 96.6784 3.31782 -4.41163 0
M  V30 1044 H 97.1554 3.44806 -2.7204 0
M  V30 1045 H 97.7614 2.09409 -3.70173 0
M  V30 1046 N 96.0765 1.50051 0.48192 0
M  V30 1047 C 97.0395 1.67584 1.5636 0
M  V30 1048 C 98.0395 0.546894 1.51214 0
M  V30 1049 O 99.2295 0.813725 1.54026 0
M  V30 1050 C 96.3615 1.691 2.96003 0
M  V30 1051 H 97.5545 2.64078 1.42136 0
M  V30 1052 H 95.1075 1.39369 0.707533 0
M  V30 1053 H 95.8425 0.742589 3.15684 0
M  V30 1054 H 95.6275 2.51105 3.01146 0
M  V30 1055 H 97.1175 1.84656 3.74556 0
M  V30 1056 N 97.5546 -0.734337 1.39446 0
M  V30 1057 C 98.5176 -1.83004 1.37994 0
M  V30 1058 C 99.5176 -1.58397 0.276938 0
M  V30 1059 O 100.708 -1.65785 0.534875 0
M  V30 1060 C 97.8396 -3.20802 1.1532 0
M  V30 1061 H 99.0326 -1.85694 2.35494 0
M  V30 1062 H 96.5856 -0.938059 1.25021 0
M  V30 1063 H 97.3206 -3.23772 0.185036 0
M  V30 1064 H 97.1056 -3.4006 1.95197 0
M  V30 1065 H 98.5956 -4.00862 1.17046 0
M  V30 1066 N 99.0327 -1.24633 -0.964593 0
M  V30 1067 C 99.9957 -1.0424 -2.04124 0
M  V30 1068 C 100.996 0.00137563 -1.608 0
M  V30 1069 O 102.186 -0.239883 -1.7254 0
M  V30 1070 C 99.3177 -0.580588 -3.3592 0
M  V30 1071 H 100.511 -1.99803 -2.23649 0
M  V30 1072 H 98.0637 -1.06899 -1.14027 0
M  V30 1073 H 98.7987 0.3781 -3.22088 0
M  V30 1074 H 98.5837 -1.33398 -3.6871 0
M  V30 1075 H 100.074 -0.459034 -4.15069 0
M  V30 1076 N 100.511 1.16574 -1.06058 0
M  V30 1077 C 101.759 1.86677 -0.77434 0
M  V30 1078 C 102.08 1.81959 0.701147 0
M  V30 1079 O 101.35 1.2515 1.50713 0
M  V30 1080 H 99.9298 0.691134 -0.283449 0
M  V30 1081 H 102.592 1.41378 -1.34158 0
M  V30 1082 H 101.688 2.92181 -1.09711 0
M  V30 1083 N 101.989 0.842826 1.3317 0
M  V30 1084 C 102.952 0.284065 2.27433 0
M  V30 1085 C 103.952 -0.54948 1.5112 0
M  V30 1086 O 105.142 -0.362699 1.70382 0
M  V30 1087 C 102.274 -0.599384 3.35589 0
M  V30 1088 H 103.467 1.11589 2.78366 0
M  V30 1089 H 101.02 0.616221 1.4364 0
M  V30 1090 H 101.755 -1.45349 2.89904 0
M  V30 1091 H 101.54 -0.00291266 3.921 0
M  V30 1092 H 103.03 -0.983488 4.05854 0
M  V30 1093 N 103.467 -1.45747 0.599634 0
M  V30 1094 C 104.878 -1.85853 0.177681 0
M  V30 1095 C 105.229 -1.50102 -1.26348 0
M  V30 1096 O 104.354 -0.923905 -1.95686 0
M  V30 1097 C 104.949 -3.37326 0.315688 0
M  V30 1098 C 103.508 -3.76365 -0.0515144 0
M  V30 1099 C 102.655 -2.69722 0.643822 0
M  V30 1100 H 105.606 -1.36661 0.806814 0
M  V30 1101 H 105.627 -3.77778 -0.454321 0
M  V30 1102 H 105.139 -3.63315 1.36468 0
M  V30 1103 H 103.24 -3.55993 -1.09999 0
M  V30 1104 H 103.353 -4.77916 0.336594 0
M  V30 1105 H 101.717 -2.54567 0.0822881 0
M  V30 1106 H 102.5 -2.98549 1.6948 0
M  V30 1107 N 104.945 -0.338344 -1.53925 0
M  V30 1108 C 106.361 0.0137736 -1.59594 0
M  V30 1109 C 106.561 1.49186 -1.35447 0
M  V30 1110 O 105.617 2.24987 -1.14616 0
M  V30 1111 C 106.93 -0.41773 -2.97784 0
M  V30 1112 C 108.478 -0.369633 -3.1081 0
M  V30 1113 C 108.953 -0.776524 -4.51369 0
M  V30 1114 N 110.444 -0.730506 -4.57403 0
M  V30 1115 C 111.179 -1.01736 -5.64303 0
M  V30 1116 N 110.675 -1.3721 -6.79077 0
M  V30 1117 N 112.468 -0.941942 -5.54151 0
M  V30 1118 H 104.619 -1.3012 -1.67876 0
M  V30 1119 H 106.882 -0.530082 -0.78595 0
M  V30 1120 H 106.588 -1.44811 -3.20504 0
M  V30 1121 H 106.462 0.209729 -3.76616 0
M  V30 1122 H 108.849 0.651568 -2.87817 0
M  V30 1123 H 108.93 -1.03223 -2.34049 0
M  V30 1124 H 108.574 -1.79571 -4.75096 0
M  V30 1125 H 108.504 -0.0914649 -5.26521 0
M  V30 1126 H 110.995 -0.468783 -3.74981 0
M  V30 1127 H 111.308 -1.57597 -7.5656 0
M  V30 1128 H 109.653 -1.4105 -6.80536 0
M  V30 1129 H 112.844 -0.664184 -4.63364 0
M  V30 1130 H 113.017 -1.16884 -6.37371 0
M  V30 1131 N 106.423 1.57458 -0.0668435 0
M  V30 1132 C 107.353 2.15468 0.899764 0
M  V30 1133 C 108.334 1.08042 1.31381 0
M  V30 1134 O 109.519 1.36054 1.38574 0
M  V30 1135 C 106.649 2.71232 2.16911 0
M  V30 1136 C 105.603 3.83781 1.89463 0
M  V30 1137 C 104.929 4.26127 3.22986 0
M  V30 1138 C 106.229 5.08238 1.20381 0
M  V30 1139 H 107.923 2.96488 0.416529 0
M  V30 1140 H 105.469 1.4262 0.198908 0
M  V30 1141 H 107.422 3.10458 2.84945 0
M  V30 1142 H 106.146 1.87426 2.67468 0
M  V30 1143 H 104.805 3.45051 1.23836 0
M  V30 1144 H 104.453 3.39249 3.71374 0
M  V30 1145 H 104.153 5.01993 3.05413 0
M  V30 1146 H 105.677 4.67966 3.92225 0
M  V30 1147 H 107.091 5.44811 1.78475 0
M  V30 1148 H 105.488 5.89349 1.13083 0
M  V30 1149 H 106.558 4.84558 0.182153 0
M  V30 1150 N 107.901 -0.206675 1.56239 0
M  V30 1151 C 108.849 -1.27571 1.94495 0
M  V30 1152 C 109.843 -1.47737 0.828862 0
M  V30 1153 O 111.049 -1.48735 1.0138 0
M  V30 1154 H 107.424 -0.428029 0.6183 0
M  V30 1155 H 109.395 -0.925961 2.8367 0
M  V30 1156 C 108.144 -2.61568 2.29079 0
M  V30 1157 H 107.467 -2.46863 3.14482 0
M  V30 1158 H 108.907 -3.35144 2.5972 0
M  V30 1159 C 107.366 -3.17695 1.12123 0
M  V30 1160 O 107.896 -3.99801 0.390153 0
M  V30 1161 N 106.102 -2.76276 0.901097 0
M  V30 1162 H 105.649 -2.09613 1.49733 0
M  V30 1163 H 105.607 -3.1417 0.120319 0
M  V30 1164 N 109.379 -1.50304 -0.473955 0
M  V30 1165 C 110.342 -1.6841 -1.55469 0
M  V30 1166 C 111.342 -0.554905 -1.50922 0
M  V30 1167 O 112.532 -0.821882 -1.53593 0
M  V30 1168 C 109.664 -1.70667 -2.95102 0
M  V30 1169 H 110.857 -2.64828 -1.40733 0
M  V30 1170 H 108.41 -1.39742 -0.700132 0
M  V30 1171 H 109.145 -0.75932 -3.15285 0
M  V30 1172 H 108.93 -2.52698 -2.9981 0
M  V30 1173 H 110.42 -1.8664 -3.73571 0
M  V30 1174 N 110.857 0.726932 -1.39834 0
M  V30 1175 C 111.787 1.85405 -1.41941 0
M  V30 1176 C 112.768 1.67751 -0.281728 0
M  V30 1177 O 113.953 1.8795 -0.488717 0
M  V30 1178 C 111.083 3.23243 -1.2701 0
M  V30 1179 C 110.037 3.55549 -2.38262 0
M  V30 1180 C 109.363 4.9241 -2.08415 0
M  V30 1181 C 110.663 3.577 -3.80589 0
M  V30 1182 H 112.357 1.83899 -2.36266 0
M  V30 1183 H 109.903 0.883349 -1.13723 0
M  V30 1184 H 111.856 4.01775 -1.27103 0
M  V30 1185 H 110.58 3.25296 -0.291564 0
M  V30 1186 H 109.239 2.79351 -2.37399 0
M  V30 1187 H 108.887 4.91052 -1.0898 0
M  V30 1188 H 108.587 5.14992 -2.82943 0
M  V30 1189 H 110.111 5.73289 -2.10171 0
M  V30 1190 H 111.525 4.26293 -3.83337 0
M  V30 1191 H 109.922 3.91804 -4.54543 0
M  V30 1192 H 110.992 2.57328 -4.10987 0
M  V30 1193 N 112.336 1.25143 0.95797 0
M  V30 1194 C 113.564 1.12424 1.73691 0
M  V30 1195 C 113.979 -0.322304 1.86029 0
M  V30 1196 O 113.336 -1.22186 1.35561 0
M  V30 1197 C 113.387 1.76933 3.15241 0
M  V30 1198 O 113.108 3.15932 3.03511 0
M  V30 1199 C 114.609 1.6995 4.09429 0
M  V30 1200 H 111.829 0.3923 0.544373 0
M  V30 1201 H 114.373 1.6544 1.20207 0
M  V30 1202 H 112.528 1.27895 3.6568 0
M  V30 1203 H 112.942 3.47598 3.9278 0
M  V30 1204 H 114.416 2.19753 5.06372 0
M  V30 1205 H 114.893 0.662619 4.34173 0
M  V30 1206 H 115.499 2.18461 3.64904 0
M  V30 1207 N 113.814 -1.1601 1.06675 0
M  V30 1208 C 115.06 -1.86909 0.786945 0
M  V30 1209 C 115.393 -1.81717 -0.685018 0
M  V30 1210 O 114.668 -1.23551 -1.50218 0
M  V30 1211 C 114.951 -3.36313 1.28707 0
M  V30 1212 C 114.804 -3.50175 2.82308 0
M  V30 1213 C 116.123 -4.3084 0.898071 0
M  V30 1214 H 113.242 -0.678677 0.287343 0
M  V30 1215 H 115.884 -1.36336 1.32334 0
M  V30 1216 H 114.034 -3.79513 0.830768 0
M  V30 1217 H 115.706 -3.15886 3.36175 0
M  V30 1218 H 113.949 -2.91959 3.20847 0
M  V30 1219 H 114.62 -4.55116 3.12368 0
M  V30 1220 H 117.096 -3.95561 1.29114 0
M  V30 1221 H 115.972 -5.33876 1.27543 0
M  V30 1222 H 116.233 -4.41662 -0.196651 0
M  V30 1223 N 115.292 -0.849877 -1.32721 0
M  V30 1224 C 116.703 -0.506188 -1.79707 0
M  V30 1225 C 117.054 0.975627 -1.70223 0
M  V30 1226 O 116.179 1.76078 -1.25799 0
M  V30 1227 C 116.774 -0.912044 -3.26293 0
M  V30 1228 C 115.333 -0.620326 -3.71253 0
M  V30 1229 C 114.48 -1.11439 -2.53922 0
M  V30 1230 H 117.431 -1.03754 -1.20087 0
M  V30 1231 H 117.452 -0.226493 -3.79825 0
M  V30 1232 H 116.964 -1.99057 -3.33164 0
M  V30 1233 H 115.065 0.447674 -3.69901 0
M  V30 1234 H 115.178 -1.18327 -4.64258 0
M  V30 1235 H 113.542 -0.534834 -2.49021 0
M  V30 1236 H 114.325 -2.19992 -2.6355 0
M  V30 1237 N 116.77 1.45427 -0.607355 0
M  V30 1238 C 118.181 1.85756 -0.187535 0
M  V30 1239 C 118.532 1.5077 1.25551 0
M  V30 1240 O 117.657 0.93427 1.95193 0
M  V30 1241 C 118.252 3.37154 -0.333572 0
M  V30 1242 C 116.811 3.76387 0.0315542 0
M  V30 1243 C 115.958 2.69377 -0.658117 0
M  V30 1244 H 118.909 1.36231 -0.81405 0
M  V30 1245 H 118.93 3.78014 0.43428 0
M  V30 1246 H 118.442 3.62586 -1.38393 0
M  V30 1247 H 116.543 3.56571 1.0811 0
M  V30 1248 H 116.656 4.77731 -0.361935 0
M  V30 1249 H 115.02 2.5452 -0.0957873 0
M  V30 1250 H 115.803 2.97646 -1.7106 0
M  V30 1251 N 118.248 0.346503 1.53744 0
M  V30 1252 C 119.158 -0.517293 2.28826 0
M  V30 1253 C 120.174 -1.10935 1.3405 0
M  V30 1254 O 121.35 -1.1244 1.6709 0
M  V30 1255 C 118.415 -1.65098 3.04866 0
M  V30 1256 C 117.476 -1.0884 4.15274 0
M  V30 1257 C 116.709 -2.16806 4.87679 0
M  V30 1258 O 116.932 -3.3758 4.59778 0
M  V30 1259 O 115.866 -1.80934 5.74061 0
M  V30 1260 H 119.692 0.0931396 3.03557 0
M  V30 1261 H 117.277 0.111458 1.48984 0
M  V30 1262 H 119.159 -2.31053 3.5241 0
M  V30 1263 H 117.834 -2.24717 2.32989 0
M  V30 1264 H 116.741 -0.3933 3.72027 0
M  V30 1265 H 118.074 -0.537036 4.89261 0
M  V30 1266 N 119.726 -1.57421 0.075193 0
M  V30 1267 C 120.972 -1.93905 -0.594025 0
M  V30 1268 C 121.305 -0.955701 -1.69056 0
M  V30 1269 O 120.58 0.0145373 -1.94495 0
M  V30 1270 C 120.863 -3.40638 -1.1678 0
M  V30 1271 C 120.716 -4.49733 -0.0776792 0
M  V30 1272 C 122.035 -3.88259 -2.07228 0
M  V30 1273 H 119.154 -0.705105 -0.214466 0
M  V30 1274 H 121.796 -1.8947 0.141854 0
M  V30 1275 H 119.946 -3.44549 -1.79494 0
M  V30 1276 H 121.618 -4.57942 0.555573 0
M  V30 1277 H 119.861 -4.29751 0.591286 0
M  V30 1278 H 120.532 -5.49549 -0.519603 0
M  V30 1279 H 123.008 -3.86376 -1.54445 0
M  V30 1280 H 121.884 -4.91533 -2.44308 0
M  V30 1281 H 122.145 -3.26396 -2.98191 0
M  V30 1282 N 121.204 0.198386 -1.56346 0
M  V30 1283 C 122.45 0.920648 -1.80698 0
M  V30 1284 C 122.783 1.83045 -0.648697 0
M  V30 1285 O 122.058 1.91308 0.350925 0
M  V30 1286 C 122.341 1.73971 -3.15287 0
M  V30 1287 C 122.194 0.85485 -4.41602 0
M  V30 1288 C 123.513 2.71296 -3.46535 0
M  V30 1289 H 120.632 0.333261 -0.657348 0
M  V30 1290 H 123.274 0.188198 -1.89066 0
M  V30 1291 H 121.424 2.36416 -3.08285 0
M  V30 1292 H 123.096 0.245362 -4.60647 0
M  V30 1293 H 121.339 0.161398 -4.335 0
M  V30 1294 H 122.01 1.46286 -5.32264 0
M  V30 1295 H 124.486 2.18983 -3.53816 0
M  V30 1296 H 123.362 3.2569 -4.41834 0
M  V30 1297 H 123.623 3.5018 -2.69864 0
M  V30 1298 N 122.682 1.50554 0.465978 0
M  V30 1299 C 123.63 1.70324 1.58406 0
M  V30 1300 C 124.624 0.569139 1.59553 0
M  V30 1301 O 125.83 0.749776 1.63641 0
M  V30 1302 H 122.205 0.537688 0.525734 0
M  V30 1303 H 124.176 2.64104 1.38894 0
M  V30 1304 C 122.925 1.81928 2.96307 0
M  V30 1305 H 122.248 2.68586 2.96144 0
M  V30 1306 H 123.688 1.99784 3.73982 0
M  V30 1307 C 122.147 0.572095 3.32007 0
M  V30 1308 O 122.677 -0.286416 4.00678 0
M  V30 1309 N 120.883 0.424606 2.87481 0
M  V30 1310 H 120.43 1.12427 2.31771 0
M  V30 1311 H 120.388 -0.408697 3.11732 0
M  V30 1312 N 124.16 -0.719506 1.40217 0
M  V30 1313 C 125.108 -1.85493 1.40339 0
M  V30 1314 C 126.102 -1.66995 0.284415 0
M  V30 1315 O 127.308 -1.74148 0.455252 0
M  V30 1316 H 123.683 -0.610857 0.438586 0
M  V30 1317 H 125.654 -1.82506 2.36081 0
M  V30 1318 C 124.403 -3.23321 1.27901 0
M  V30 1319 H 123.726 -3.38159 2.1328 0
M  V30 1320 H 125.166 -4.02914 1.32045 0
M  V30 1321 C 123.625 -3.36898 -0.0111355 0
M  V30 1322 O 124.155 -3.89674 -0.975538 0
M  V30 1323 N 122.361 -2.90492 -0.0793393 0
M  V30 1324 H 121.908 -2.47731 0.706183 0
M  V30 1325 H 121.866 -2.99955 -0.942038 0
M  V30 1326 N 125.638 -1.25649 -0.95132 0
M  V30 1327 C 126.571 -1.00644 -2.04807 0
M  V30 1328 C 127.549 0.0654271 -1.62468 0
M  V30 1329 O 128.733 -0.074911 -1.88351 0
M  V30 1330 C 125.86 -0.522052 -3.34653 0
M  V30 1331 C 124.906 -1.58495 -3.95957 0
M  V30 1332 S 125.739 -3.17108 -4.31512 0
M  V30 1333 C 126.895 -2.70412 -5.64471 0
M  V30 1334 H 127.128 -1.93508 -2.25703 0
M  V30 1335 H 124.661 -1.09216 -1.09139 0
M  V30 1336 H 126.619 -0.24923 -4.09743 0
M  V30 1337 H 125.28 0.386146 -3.11717 0
M  V30 1338 H 124.473 -1.1968 -4.89584 0
M  V30 1339 H 124.075 -1.80862 -3.2736 0
M  V30 1340 H 126.367 -2.14245 -6.42733 0
M  V30 1341 H 127.31 -3.62693 -6.08161 0
M  V30 1342 H 127.718 -2.10302 -5.23864 0
M  V30 1343 N 127.117 1.15442 -1.07289 0
M  V30 1344 C 128.365 1.85845 -0.794096 0
M  V30 1345 C 128.686 1.82692 0.681809 0
M  V30 1346 O 127.956 1.26741 1.49377 0
M  V30 1347 H 126.536 0.688089 -0.290763 0
M  V30 1348 H 129.198 1.39947 -1.3565 0
M  V30 1349 H 128.294 2.91001 -1.12804 0
M  V30 1350 N 128.595 0.856903 1.32268 0
M  V30 1351 C 129.543 0.291987 2.3076 0
M  V30 1352 C 130.537 -0.585857 1.58947 0
M  V30 1353 O 131.743 -0.47341 1.73663 0
M  V30 1354 H 128.118 0.075721 0.748178 0
M  V30 1355 H 130.089 1.13687 2.75895 0
M  V30 1356 C 128.838 -0.502869 3.44044 0
M  V30 1357 H 128.161 0.163328 3.99466 0
M  V30 1358 H 129.601 -0.863691 4.1511 0
M  V30 1359 C 128.06 -1.68898 2.91505 0
M  V30 1360 O 128.59 -2.78811 2.89184 0
M  V30 1361 N 126.796 -1.51679 2.47875 0
M  V30 1362 H 126.343 -0.622666 2.49961 0
M  V30 1363 H 126.301 -2.31184 2.13076 0
M  V30 1364 N 130.073 -1.45103 0.615059 0
M  V30 1365 C 131.322 -2.01396 0.110718 0
M  V30 1366 C 131.635 -1.48834 -1.26916 0
M  V30 1367 O 132.841 -1.97152 -1.86664 0
M  V30 1368 C 131.297 -3.59599 0.14723 0
M  V30 1369 C 130.905 -4.21158 1.52743 0
M  V30 1370 C 132.649 -4.23428 -0.30148 0
M  V30 1371 C 130.556 -5.71535 1.51992 0
M  V30 1372 H 129.486 -0.753061 0.0376241 0
M  V30 1373 H 132.137 -1.66494 0.77149 0
M  V30 1374 H 130.519 -3.91724 -0.580339 0
M  V30 1375 H 131.693 -4.00594 2.2773 0
M  V30 1376 H 130.008 -3.69552 1.91886 0
M  V30 1377 H 132.605 -5.33703 -0.326392 0
M  V30 1378 H 132.948 -3.94629 -1.32565 0
M  V30 1379 H 133.481 -3.96047 0.373065 0
M  V30 1380 H 130.22 -6.05044 2.52193 0
M  V30 1381 H 129.74 -5.94268 0.81274 0
M  V30 1382 H 131.419 -6.34873 1.24681 0
M  V30 1383 N 131.551 -0.354651 -1.53558 0
M  V30 1384 C 132.514 0.484566 -2.24019 0
M  V30 1385 C 133.514 1.01861 -1.24422 0
M  V30 1386 O 134.704 0.906097 -1.4878 0
M  V30 1387 C 131.836 1.67615 -2.96847 0
M  V30 1388 H 133.029 -0.131843 -2.9961 0
M  V30 1389 H 130.582 -0.106165 -1.55939 0
M  V30 1390 H 131.317 2.33095 -2.25471 0
M  V30 1391 H 131.102 1.30029 -3.69912 0
M  V30 1392 H 132.592 2.27114 -3.50441 0
M  V30 1393 N 133.029 1.57378 -0.0835403 0
M  V30 1394 C 134.306 1.85363 0.624507 0
M  V30 1395 C 134.686 0.978239 1.87066 0
M  V30 1396 O 134.034 0.0475908 2.2845 0
M  V30 1397 C 134.244 3.35795 0.950947 0
M  V30 1398 C 135.592 4.03581 1.31939 0
M  V30 1399 O 136.616 3.40609 1.04232 0
M  V30 1400 O 135.475 5.14672 1.83779 0
M  V30 1401 H 132.569 0.766162 0.311329 0
M  V30 1402 H 135.115 1.69307 -0.115362 0
M  V30 1403 H 133.887 3.91244 0.0663899 0
M  V30 1404 H 133.51 3.57154 1.74719 0
M  V30 1405 N 134.507 -0.190092 1.56449 0
M  V30 1406 C 135.47 -1.21925 1.9408 0
M  V30 1407 C 136.47 -1.38176 0.822431 0
M  V30 1408 O 137.66 -1.35903 1.08977 0
M  V30 1409 C 134.792 -2.58773 2.21922 0
M  V30 1410 H 135.985 -0.897464 2.86157 0
M  V30 1411 H 133.538 -0.43181 1.50217 0
M  V30 1412 H 134.273 -2.95998 1.32499 0
M  V30 1413 H 134.058 -2.48348 3.03424 0
M  V30 1414 H 135.548 -3.32978 2.52022 0
M  V30 1415 N 135.985 -1.50799 -0.457987 0
M  V30 1416 C 137.233 -1.62121 -1.2067 0
M  V30 1417 C 137.554 -0.329793 -1.92191 0
M  V30 1418 O 136.824 0.653409 -1.84682 0
M  V30 1419 H 135.404 -0.597441 -0.448411 0
M  V30 1420 H 138.066 -1.87637 -0.527096 0
M  V30 1421 H 137.162 -2.43882 -1.94751 0
M  V30 1422 N 137.463 0.71206 -1.40597 0
M  V30 1423 C 138.393 1.83889 -1.43899 0
M  V30 1424 C 139.374 1.67442 -0.299504 0
M  V30 1425 O 140.559 1.87421 -0.508624 0
M  V30 1426 C 137.689 3.21877 -1.30431 0
M  V30 1427 C 136.643 3.53002 -2.42019 0
M  V30 1428 C 135.969 4.90172 -2.13626 0
M  V30 1429 C 137.269 3.53643 -3.84362 0
M  V30 1430 H 138.963 1.81383 -2.38203 0
M  V30 1431 H 136.509 0.871237 -1.14654 0
M  V30 1432 H 138.462 4.00404 -1.31357 0
M  V30 1433 H 137.186 3.24968 -0.326049 0
M  V30 1434 H 135.845 2.76818 -2.40349 0
M  V30 1435 H 135.493 4.89869 -1.14182 0
M  V30 1436 H 135.193 5.11962 -2.88389 0
M  V30 1437 H 136.717 5.71028 -2.1624 0
M  V30 1438 H 138.131 4.22203 -3.87837 0
M  V30 1439 H 136.528 3.86961 -4.58673 0
M  V30 1440 H 137.598 2.52954 -4.13693 0
M  V30 1441 N 138.941 1.26152 0.944643 0
M  V30 1442 C 140.357 1.03189 1.21754 0
M  V30 1443 C 140.557 -0.245112 2.00004 0
M  V30 1444 O 139.613 -0.955176 2.33736 0
M  V30 1445 C 140.926 2.26119 1.98219 0
M  V30 1446 C 142.474 2.30984 2.11224 0
M  V30 1447 C 142.949 3.53597 2.91089 0
M  V30 1448 N 144.44 3.54053 2.98664 0
M  V30 1449 C 145.175 4.45593 3.60881 0
M  V30 1450 N 144.671 5.47416 4.24626 0
M  V30 1451 N 146.464 4.33252 3.58119 0
M  V30 1452 H 138.615 2.08177 0.421437 0
M  V30 1453 H 140.878 0.914723 0.248969 0
M  V30 1454 H 140.584 3.18984 1.48128 0
M  V30 1455 H 140.458 2.3009 2.98895 0
M  V30 1456 H 142.845 1.38635 2.60508 0
M  V30 1457 H 142.926 2.31026 1.09821 0
M  V30 1458 H 142.57 4.46273 2.42493 0
M  V30 1459 H 142.5 3.50802 3.92741 0
M  V30 1460 H 144.991 2.80403 2.53343 0
M  V30 1461 H 145.304 6.13459 4.69987 0
M  V30 1462 H 143.649 5.51278 4.23223 0
M  V30 1463 H 146.84 3.52924 3.0751 0
M  V30 1464 H 147.013 5.04786 4.06319 0
M  V30 1465 N 140.419 -1.14872 1.07899 0
M  V30 1466 C 141.366 -2.19791 0.704319 0
M  V30 1467 C 142.336 -1.63238 -0.306987 0
M  V30 1468 O 143.521 -1.8983 -0.192171 0
M  V30 1469 C 140.661 -3.44911 0.114244 0
M  V30 1470 C 139.774 -4.15637 1.1777 0
M  V30 1471 C 138.909 -5.28324 0.552037 0
M  V30 1472 C 137.948 -5.90875 1.59789 0
M  V30 1473 N 137.085 -6.95022 0.994404 0
M  V30 1474 H 141.925 -2.5119 1.60336 0
M  V30 1475 H 139.462 -1.23356 0.801352 0
M  V30 1476 H 141.42 -4.16477 -0.245544 0
M  V30 1477 H 140.05 -3.14011 -0.74813 0
M  V30 1478 H 139.102 -3.42512 1.65499 0
M  V30 1479 H 140.414 -4.5823 1.97046 0
M  V30 1480 H 139.568 -6.06538 0.1402 0
M  V30 1481 H 138.307 -4.86939 -0.272431 0
M  V30 1482 H 137.312 -5.11369 2.01945 0
M  V30 1483 H 138.537 -6.34337 2.42474 0
M  V30 1484 H 136.483 -6.55722 0.190939 0
M  V30 1485 H 136.4 -7.36073 1.72432 0
M  V30 1486 H 137.668 -7.77123 0.608253 0
M  V30 1487 N 141.898 -0.863906 -1.31812 0
M  V30 1488 C 142.861 -0.320212 -2.26952 0
M  V30 1489 C 143.861 0.525369 -1.51975 0
M  V30 1490 O 145.051 0.335547 -1.70938 0
M  V30 1491 C 142.183 0.545919 -3.365 0
M  V30 1492 H 143.376 -1.16004 -2.76556 0
M  V30 1493 H 140.929 -0.638995 -1.42641 0
M  V30 1494 H 141.664 1.40718 -2.92179 0
M  V30 1495 H 141.449 -0.0594674 -3.92055 0
M  V30 1496 H 142.939 0.918796 -4.07367 0
M  V30 1497 N 143.376 1.44774 -0.622745 0
M  V30 1498 C 144.622 2.0242 -0.124083 0
M  V30 1499 C 144.955 1.4881 1.24777 0
M  V30 1500 O 144.23 0.668799 1.8264 0
M  V30 1501 C 144.513 3.59957 -0.101619 0
M  V30 1502 C 144.366 4.23867 -1.50521 0
M  V30 1503 C 145.685 4.36284 0.578272 0
M  V30 1504 H 142.804 0.735528 -0.0465645 0
M  V30 1505 H 145.446 1.72447 -0.797617 0
M  V30 1506 H 143.596 3.85623 0.471934 0
M  V30 1507 H 145.268 4.09336 -2.12701 0
M  V30 1508 H 143.511 3.81684 -2.06154 0
M  V30 1509 H 144.182 5.32843 -1.4416 0
M  V30 1510 H 146.658 4.16001 0.0906057 0
M  V30 1511 H 145.534 5.46004 0.563149 0
M  V30 1512 H 145.795 4.10271 1.64713 0
M  V30 1513 N 144.854 0.36279 1.53368 0
M  V30 1514 C 145.787 -0.528507 2.21996 0
M  V30 1515 C 146.765 -1.0852 1.21087 0
M  V30 1516 O 147.949 -1.14186 1.4998 0
M  V30 1517 C 145.076 -1.72893 2.91249 0
M  V30 1518 C 144.122 -1.29994 4.06207 0
M  V30 1519 S 144.955 -0.303575 5.34639 0
M  V30 1520 C 146.111 -1.51039 6.07403 0
M  V30 1521 H 146.344 0.0543423 2.9725 0
M  V30 1522 H 143.877 0.146889 1.537 0
M  V30 1523 H 145.835 -2.41751 3.31763 0
M  V30 1524 H 144.496 -2.28303 2.15724 0
M  V30 1525 H 143.689 -2.19549 4.53667 0
M  V30 1526 H 143.291 -0.690608 3.67569 0
M  V30 1527 H 145.583 -2.44186 6.31965 0
M  V30 1528 H 146.526 -1.07721 6.99858 0
M  V30 1529 H 146.934 -1.71518 5.37812 0
M  V30 1530 N 146.332 -1.57332 0.0918853 0
M  V30 1531 C 147.279 -2.13847 -0.868211 0
M  V30 1532 C 148.249 -1.05618 -1.28196 0
M  V30 1533 O 149.434 -1.33387 -1.36427 0
M  V30 1534 C 146.574 -2.72062 -2.12312 0
M  V30 1535 C 145.687 -3.94514 -1.7602 0
M  V30 1536 C 144.822 -4.40903 -2.96273 0
M  V30 1537 C 143.861 -5.55953 -2.56092 0
M  V30 1538 N 142.998 -5.97209 -3.69169 0
M  V30 1539 H 147.838 -2.95575 -0.379406 0
M  V30 1540 H 145.375 -1.46048 -0.175606 0
M  V30 1541 H 147.333 -3.03931 -2.858 0
M  V30 1542 H 145.963 -1.93068 -2.58698 0
M  V30 1543 H 145.015 -3.68979 -0.925135 0
M  V30 1544 H 146.327 -4.7802 -1.42472 0
M  V30 1545 H 145.481 -4.74539 -3.78018 0
M  V30 1546 H 144.22 -3.56291 -3.33029 0
M  V30 1547 H 143.225 -5.21948 -1.72773 0
M  V30 1548 H 144.45 -6.42311 -2.20484 0
M  V30 1549 H 142.396 -5.15543 -4.05649 0
M  V30 1550 H 142.313 -6.75504 -3.39456 0
M  V30 1551 H 143.581 -6.35475 -4.51434 0
M  V30 1552 N 147.81 0.181792 -1.56548 0
M  V30 1553 C 148.773 1.20894 -1.94724 0
M  V30 1554 C 149.773 1.37738 -0.829747 0
M  V30 1555 O 150.963 1.35323 -1.09697 0
M  V30 1556 C 148.095 2.57593 -2.23291 0
M  V30 1557 H 149.288 0.882275 -2.86629 0
M  V30 1558 H 146.841 0.423838 -1.50444 0
M  V30 1559 H 147.576 2.95291 -1.34067 0
M  V30 1560 H 147.361 2.46735 -3.04736 0
M  V30 1561 H 148.851 3.31637 -2.53785 0
M  V30 1562 N 149.288 1.51039 0.449983 0
M  V30 1563 C 150.537 1.62317 1.19733 0
M  V30 1564 C 150.85 0.339101 1.92638 0
M  V30 1565 O 152.056 0.331069 2.69474 0
M  V30 1566 C 150.512 2.86608 2.17678 0
M  V30 1567 C 150.12 4.21972 1.50479 0
M  V30 1568 C 151.864 3.07239 2.92924 0
M  V30 1569 C 149.771 5.37426 2.46834 0
M  V30 1570 H 148.701 0.604532 0.450619 0
M  V30 1571 H 151.352 1.77494 0.465625 0
M  V30 1572 H 149.734 2.65037 2.94231 0
M  V30 1573 H 150.908 4.53878 0.795716 0
M  V30 1574 H 149.223 4.07117 0.874344 0
M  V30 1575 H 151.82 3.90668 3.65079 0
M  V30 1576 H 152.163 2.19807 3.5354 0
M  V30 1577 H 152.696 3.29091 2.23481 0
M  V30 1578 H 149.435 6.27079 1.90926 0
M  V30 1579 H 148.955 5.09912 3.15832 0
M  V30 1580 H 150.634 5.68862 3.08228 0
M  V30 1581 N 150.766 -0.704594 1.40972 0
M  V30 1582 C 151.994 -1.49354 1.43182 0
M  V30 1583 C 152.409 -1.88768 0.0345508 0
M  V30 1584 O 151.766 -1.56184 -0.944081 0
M  V30 1585 C 151.817 -2.76187 2.33244 0
M  V30 1586 O 151.538 -2.38436 3.67532 0
M  V30 1587 C 153.039 -3.7 2.44162 0
M  V30 1588 H 150.259 -0.460559 0.487982 0
M  V30 1589 H 152.803 -0.868261 1.85153 0
M  V30 1590 H 150.958 -3.34974 1.94606 0
M  V30 1591 H 151.372 -3.20126 4.15475 0
M  V30 1592 H 152.846 -4.55803 3.11364 0
M  V30 1593 H 153.323 -4.13867 1.47006 0
M  V30 1594 H 153.929 -3.17121 2.83398 0
M  V30 1595 N 152.244 -1.26651 -0.937939 0
M  V30 1596 C 153.655 -1.1125 -1.49934 0
M  V30 1597 C 154.006 0.306077 -1.93798 0
M  V30 1598 O 153.131 1.19792 -1.80219 0
M  V30 1599 C 153.726 -2.01339 -2.72485 0
M  V30 1600 C 152.285 -1.90074 -3.24883 0
M  V30 1601 C 151.432 -1.94498 -1.97651 0
M  V30 1602 H 154.383 -1.39693 -0.753091 0
M  V30 1603 H 154.404 -1.56319 -3.46907 0
M  V30 1604 H 153.916 -3.04577 -2.40529 0
M  V30 1605 H 152.017 -0.897827 -3.61621 0
M  V30 1606 H 152.13 -2.75778 -3.9177 0
M  V30 1607 H 150.494 -1.38591 -2.13693 0
M  V30 1608 H 151.277 -2.99372 -1.68022 0
M  V30 1609 N 153.722 1.14298 -1.08507 0
M  V30 1610 C 154.669 2.19414 -0.715965 0
M  V30 1611 C 155.639 1.63399 0.298326 0
M  V30 1612 O 156.824 1.89929 0.182101 0
M  V30 1613 C 153.964 3.44845 -0.132534 0
M  V30 1614 C 153.077 4.15007 -1.19973 0
M  V30 1615 C 152.212 5.28024 -0.580048 0
M  V30 1616 C 151.251 5.9002 -1.62921 0
M  V30 1617 N 150.388 6.94485 -1.03125 0
M  V30 1618 H 155.228 2.50336 -1.61666 0
M  V30 1619 H 152.765 1.2293 -0.807882 0
M  V30 1620 H 154.723 4.16601 0.223454 0
M  V30 1621 H 153.353 3.14403 0.731467 0
M  V30 1622 H 152.405 3.41629 -1.67313 0
M  V30 1623 H 153.717 4.57178 -1.99473 0
M  V30 1624 H 152.871 6.06455 -0.172364 0
M  V30 1625 H 151.61 4.87076 0.246603 0
M  V30 1626 H 150.615 5.10291 -2.04654 0
M  V30 1627 H 151.84 6.33042 -2.45835 0
M  V30 1628 H 149.786 6.55612 -0.225711 0
M  V30 1629 H 149.703 7.35148 -1.76334 0
M  V30 1630 H 150.971 7.7679 -0.649458 0
M  V30 1631 N 155.201 0.870884 1.31352 0
M  V30 1632 C 156.164 0.332243 2.26779 0
M  V30 1633 C 157.164 -0.517302 1.52252 0
M  V30 1634 O 158.354 -0.326477 1.71113 0
M  V30 1635 C 155.486 -0.528066 3.36785 0
M  V30 1636 H 156.679 1.17469 2.75937 0
M  V30 1637 H 154.232 0.64655 1.423 0
M  V30 1638 H 154.967 -1.39167 2.92922 0
M  V30 1639 H 154.752 0.0802582 3.92018 0
M  V30 1640 H 156.242 -0.897179 4.07849 0
M  V30 1641 N 156.679 -1.44442 0.630414 0
M  V30 1642 C 158.09 -1.85434 0.217063 0
M  V30 1643 C 158.441 -1.52748 -1.23136 0
M  V30 1644 O 157.566 -0.965205 -1.93682 0
M  V30 1645 C 158.161 -3.36581 0.387168 0
M  V30 1646 C 156.72 -3.76389 0.0283297 0
M  V30 1647 C 155.867 -2.68296 0.700889 0
M  V30 1648 H 158.818 -1.34919 0.83562 0
M  V30 1649 H 158.839 -3.78657 -0.374086 0
M  V30 1650 H 158.351 -3.60339 1.44144 0
M  V30 1651 H 156.452 -3.58246 -1.02423 0
M  V30 1652 H 156.565 -4.77095 0.437892 0
M  V30 1653 H 154.929 -2.54335 0.136267 0
M  V30 1654 H 155.712 -2.94887 1.75774 0
M  V30 1655 N 158.157 -0.370918 -1.53173 0
M  V30 1656 C 159.405 0.216673 -2.00935 0
M  V30 1657 C 159.726 1.48845 -1.25977 0
M  V30 1658 O 158.996 1.92286 -0.374551 0
M  V30 1659 H 157.576 0.0830565 -0.742368 0
M  V30 1660 H 160.238 -0.49838 -1.8842 0
M  V30 1661 H 159.334 0.439893 -3.08984 0
M  V30 1662 N 159.635 1.57281 -0.100228 0
M  V30 1663 C 160.565 2.17328 0.853857 0
M  V30 1664 C 161.546 1.10804 1.2906 0
M  V30 1665 O 162.731 1.38963 1.35657 0
M  V30 1666 C 159.861 2.75772 2.11109 0
M  V30 1667 C 158.815 3.87713 1.81279 0
M  V30 1668 C 158.141 4.32882 3.13874 0
M  V30 1669 C 159.441 5.10677 1.09574 0
M  V30 1670 H 161.135 2.97305 0.353545 0
M  V30 1671 H 158.681 1.43009 0.168612 0
M  V30 1672 H 160.634 3.16433 2.78296 0
M  V30 1673 H 159.358 1.93057 2.63432 0
M  V30 1674 H 158.017 3.476 1.16489 0
M  V30 1675 H 157.665 3.47051 3.64095 0
M  V30 1676 H 157.365 5.08358 2.94696 0
M  V30 1677 H 158.889 4.7618 3.82211 0
M  V30 1678 H 160.303 5.48474 1.66879 0
M  V30 1679 H 158.7 5.91615 1.00557 0
M  V30 1680 H 159.77 4.84835 0.0793299 0
M  V30 1681 N 161.113 -0.173488 1.56642 0
M  V30 1682 C 162.023 -1.23482 1.99473 0
M  V30 1683 C 163.039 -1.48567 0.905752 0
M  V30 1684 O 164.215 -1.60758 1.21321 0
M  V30 1685 C 161.28 -2.55444 2.34413 0
M  V30 1686 C 160.341 -2.38241 3.57127 0
M  V30 1687 C 159.574 -3.63909 3.90392 0
M  V30 1688 O 159.797 -4.68996 3.24653 0
M  V30 1689 O 158.731 -3.58149 4.83749 0
M  V30 1690 H 162.557 -0.901279 2.90018 0
M  V30 1691 H 160.142 -0.380185 1.44482 0
M  V30 1692 H 162.024 -3.33292 2.57865 0
M  V30 1693 H 160.699 -2.88382 1.4703 0
M  V30 1694 H 159.606 -1.58431 3.38896 0
M  V30 1695 H 160.939 -2.10228 4.45045 0
M  V30 1696 N 162.591 -1.51276 -0.441967 0
M  V30 1697 C 163.523 -1.68444 -1.55433 0
M  V30 1698 C 164.536 -0.565187 -1.52674 0
M  V30 1699 O 165.725 -0.839356 -1.57534 0
M  V30 1700 C 162.825 -1.67966 -2.94348 0
M  V30 1701 C 161.998 -2.964 -3.21661 0
M  V30 1702 C 161.057 -2.88171 -4.40277 0
M  V30 1703 O 160.083 -3.62119 -4.39157 0
M  V30 1704 N 161.285 -2.03706 -5.43584 0
M  V30 1705 H 164.05 -2.644 -1.41112 0
M  V30 1706 H 161.611 -1.49104 -0.630838 0
M  V30 1707 H 163.603 -1.60035 -3.71713 0
M  V30 1708 H 162.173 -0.796225 -3.0229 0
M  V30 1709 H 161.393 -3.18234 -2.32638 0
M  V30 1710 H 162.681 -3.81427 -3.36736 0
M  V30 1711 H 162.079 -1.42995 -5.47329 0
M  V30 1712 H 160.636 -2.01658 -6.1982 0
M  V30 1713 N 164.069 0.697108 -1.41344 0
M  V30 1714 C 165.316 1.45714 -1.40619 0
M  V30 1715 C 165.644 1.94494 -0.0147907 0
M  V30 1716 O 164.899 1.69794 0.973066 0
M  V30 1717 C 165.198 2.68553 -2.35826 0
M  V30 1718 C 164.864 2.38438 -3.82698 0
M  V30 1719 C 163.526 2.29936 -4.22709 0
M  V30 1720 C 165.878 2.13567 -4.75435 0
M  V30 1721 C 163.206 1.94656 -5.53467 0
M  V30 1722 C 165.558 1.79797 -6.06511 0
M  V30 1723 C 164.222 1.69789 -6.45545 0
M  V30 1724 H 163.492 0.533206 -0.51456 0
M  V30 1725 H 166.139 0.796901 -1.74131 0
M  V30 1726 H 164.444 3.39503 -1.95563 0
M  V30 1727 H 166.141 3.2669 -2.32539 0
M  V30 1728 H 162.731 2.4595 -3.51008 0
M  V30 1729 H 166.915 2.19082 -4.45328 0
M  V30 1730 H 162.171 1.8546 -5.82593 0
M  V30 1731 H 166.345 1.59572 -6.77872 0
M  V30 1732 H 163.972 1.4222 -7.46778 0
M  V30 1733 N 165.547 1.27147 0.931209 0
M  V30 1734 C 166.477 1.12081 2.04842 0
M  V30 1735 C 167.458 0.0232364 1.70084 0
M  V30 1736 O 168.643 0.197085 1.93197 0
M  V30 1737 C 165.773 0.76354 3.38803 0
M  V30 1738 C 164.727 1.81396 3.87659 0
M  V30 1739 C 164.053 1.31075 5.18385 0
M  V30 1740 C 165.353 3.21739 4.11438 0
M  V30 1741 H 167.047 2.05537 2.17703 0
M  V30 1742 H 164.593 0.989603 1.04608 0
M  V30 1743 H 166.546 0.644982 4.16435 0
M  V30 1744 H 165.27 -0.206727 3.25945 0
M  V30 1745 H 163.929 1.92136 3.12217 0
M  V30 1746 H 163.577 0.330037 5.01916 0
M  V30 1747 H 163.277 2.013 5.52044 0
M  V30 1748 H 164.801 1.20506 5.98591 0
M  V30 1749 H 166.215 3.14019 4.79651 0
M  V30 1750 H 164.612 3.89644 4.56397 0
M  V30 1751 H 165.682 3.67054 3.16859 0
M  V30 1752 N 167.025 -1.13721 1.09112 0
M  V30 1753 C 168.441 -1.36914 0.820174 0
M  V30 1754 C 168.641 -1.93356 -0.567079 0
M  V30 1755 O 167.697 -2.15093 -1.32255 0
M  V30 1756 C 169.01 -2.3235 1.90877 0
M  V30 1757 C 170.558 -2.45973 1.93562 0
M  V30 1758 C 171.033 -3.44714 3.01556 0
M  V30 1759 N 172.524 -3.52263 3.00775 0
M  V30 1760 C 173.259 -4.28536 3.80978 0
M  V30 1761 N 172.755 -5.07991 4.71081 0
M  V30 1762 N 174.548 -4.23804 3.69251 0
M  V30 1763 H 166.699 -0.754348 1.98553 0
M  V30 1764 H 168.962 -0.3944 0.862063 0
M  V30 1765 H 168.668 -1.98027 2.90651 0
M  V30 1766 H 168.542 -3.32332 1.78424 0
M  V30 1767 H 170.929 -2.79584 0.944286 0
M  V30 1768 H 171.01 -1.45926 2.10093 0
M  V30 1769 H 170.654 -3.11835 4.00901 0
M  V30 1770 H 170.584 -4.44558 2.82269 0
M  V30 1771 H 173.075 -2.95567 2.35475 0
M  V30 1772 H 173.388 -5.63487 5.28869 0
M  V30 1773 H 171.733 -5.07235 4.75119 0
M  V30 1774 H 174.924 -3.60806 2.98222 0
M  V30 1775 H 175.097 -4.82995 4.31995 0
M  V30 1776 N 168.503 -0.877838 -1.30888 0
M  V30 1777 C 169.78 -0.413052 -1.91189 0
M  V30 1778 C 170.16 1.1056 -1.79832 0
M  V30 1779 O 169.508 1.93771 -1.21099 0
M  V30 1780 C 169.718 -0.903191 -3.3711 0
M  V30 1781 C 171.066 -0.93395 -4.14201 0
M  V30 1782 O 172.09 -0.849373 -3.45925 0
M  V30 1783 O 170.949 -1.05772 -5.36167 0
M  V30 1784 H 168.043 -0.125035 -0.817493 0
M  V30 1785 H 170.589 -0.966269 -1.39504 0
M  V30 1786 H 169.361 -1.94692 -3.39427 0
M  V30 1787 H 168.984 -0.328732 -3.96239 0
M  V30 1788 N 169.982 1.44106 -0.638065 0
M  V30 1789 C 171.21 2.06336 -0.152615 0
M  V30 1790 C 171.625 1.47731 1.17563 0
M  V30 1791 O 170.982 0.602806 1.72257 0
M  V30 1792 C 171.033 3.61479 -0.0391491 0
M  V30 1793 O 170.754 4.17903 -1.31487 0
M  V30 1794 C 172.255 4.40757 0.474176 0
M  V30 1795 H 169.475 0.665862 -0.0828776 0
M  V30 1796 H 172.019 1.84862 -0.87443 0
M  V30 1797 H 170.174 3.82191 0.633142 0
M  V30 1798 H 170.588 5.11416 -1.16421 0
M  V30 1799 H 172.062 5.49707 0.502562 0
M  V30 1800 H 172.539 4.12697 1.50258 0
M  V30 1801 H 173.145 4.24979 -0.165102 0
M  V30 1802 N 171.46 0.379036 1.52974 0
M  V30 1803 C 172.423 -0.448865 2.24762 0
M  V30 1804 C 173.423 -0.998689 1.26027 0
M  V30 1805 O 174.613 -0.882313 1.50203 0
M  V30 1806 C 171.745 -1.62872 2.99476 0
M  V30 1807 H 172.938 0.179491 2.99362 0
M  V30 1808 H 170.491 0.13096 1.5575 0
M  V30 1809 H 171.226 -2.29479 2.29151 0
M  V30 1810 H 171.011 -1.24128 3.71934 0
M  V30 1811 H 172.501 -2.2151 3.5401 0
M  V30 1812 N 172.938 -1.57226 0.108567 0
M  V30 1813 C 173.886 -2.16002 -0.862885 0
M  V30 1814 C 174.88 -1.10644 -1.28274 0
M  V30 1815 O 176.086 -1.28966 -1.2557 0
M  V30 1816 H 172.461 -0.691148 -0.296342 0
M  V30 1817 H 174.432 -2.96427 -0.342575 0
M  V30 1818 C 173.181 -2.76576 -2.10716 0
M  V30 1819 H 172.504 -3.5734 -1.793 0
M  V30 1820 H 173.944 -3.21253 -2.76717 0
M  V30 1821 C 172.403 -1.73137 -2.89007 0
M  V30 1822 O 172.933 -1.17842 -3.84026 0
M  V30 1823 N 171.139 -1.43317 -2.52801 0
M  V30 1824 H 170.686 -1.88473 -1.75601 0
M  V30 1825 H 170.644 -0.743485 -3.05483 0
M  V30 1826 N 174.416 0.165178 -1.56732 0
M  V30 1827 C 175.641 0.900253 -1.86843 0
M  V30 1828 C 176.066 1.74766 -0.695596 0
M  V30 1829 O 175.424 1.77786 0.35522 0
M  V30 1830 C 175.472 1.74777 -3.15413 0
M  V30 1831 O 174.576 2.85007 -2.98068 0
M  V30 1832 H 173.917 0.251832 -0.614391 0
M  V30 1833 H 176.447 0.161468 -2.03962 0
M  V30 1834 H 176.457 2.14646 -3.46974 0
M  V30 1835 H 175.132 1.12537 -4.00385 0
M  V30 1836 H 173.709 2.48676 -2.77875 0
M  V30 1837 N 175.894 1.51508 0.433938 0
M  V30 1838 C 176.824 1.76016 1.53429 0
M  V30 1839 C 177.805 0.610112 1.58782 0
M  V30 1840 O 178.99 0.853177 1.74455 0
M  V30 1841 C 176.12 1.88831 2.9148 0
M  V30 1842 C 175.074 3.04288 3.00987 0
M  V30 1843 C 174.4 3.0229 4.4105 0
M  V30 1844 C 175.7 4.44193 2.74754 0
M  V30 1845 H 177.394 2.68152 1.33171 0
M  V30 1846 H 174.94 1.29035 0.639214 0
M  V30 1847 H 176.893 2.04559 3.6842 0
M  V30 1848 H 175.617 0.933455 3.12976 0
M  V30 1849 H 174.276 2.8827 2.26486 0
M  V30 1850 H 173.924 2.04576 4.59519 0
M  V30 1851 H 173.624 3.79822 4.4834 0
M  V30 1852 H 175.148 3.20116 5.1996 0
M  V30 1853 H 176.562 4.60544 3.41426 0
M  V30 1854 H 174.959 5.23457 2.9345 0
M  V30 1855 H 176.029 4.53996 1.70339 0
M  V30 1856 N 177.372 -0.689602 1.41712 0
M  V30 1857 C 178.302 -1.81577 1.46806 0
M  V30 1858 C 179.283 -1.66945 0.326105 0
M  V30 1859 O 180.468 -1.86588 0.538377 0
M  V30 1860 C 177.598 -3.19762 1.35535 0
M  V30 1861 C 176.552 -3.49107 2.47605 0
M  V30 1862 C 175.878 -4.86711 2.21397 0
M  V30 1863 C 177.178 -3.47483 3.89939 0
M  V30 1864 H 178.872 -1.7757 2.41058 0
M  V30 1865 H 176.418 -0.852887 1.16025 0
M  V30 1866 H 178.371 -3.98263 1.3771 0
M  V30 1867 H 177.095 -3.24409 0.377708 0
M  V30 1868 H 175.754 -2.72959 2.44722 0
M  V30 1869 H 175.402 -4.8799 1.21961 0
M  V30 1870 H 175.102 -5.0731 2.96497 0
M  V30 1871 H 176.626 -5.67515 2.25297 0
M  V30 1872 H 178.04 -4.1598 3.94505 0
M  V30 1873 H 176.437 -3.79615 4.64771 0
M  V30 1874 H 177.507 -2.46341 4.17665 0
M  V30 1875 N 178.85 -1.27639 -0.924453 0
M  V30 1876 C 180.127 -1.04887 -1.651 0
M  V30 1877 C 180.507 0.415327 -2.06974 0
M  V30 1878 O 179.855 1.39923 -1.80648 0
M  V30 1879 C 180.065 -2.01348 -2.85061 0
M  V30 1880 C 181.413 -2.30899 -3.56329 0
M  V30 1881 O 182.437 -1.99348 -2.95193 0
M  V30 1882 O 181.296 -2.84699 -4.66485 0
M  V30 1883 H 178.39 -0.400083 -0.723784 0
M  V30 1884 H 180.936 -1.38916 -0.974703 0
M  V30 1885 H 179.708 -3.0008 -2.51133 0
M  V30 1886 H 179.331 -1.679 -3.6041 0
M  V30 1887 N 180.328 1.1314 -1.09713 0
M  V30 1888 C 181.276 2.20717 -0.733934 0
M  V30 1889 C 182.27 1.6729 0.266506 0
M  V30 1890 O 183.476 1.79547 0.127656 0
M  V30 1891 H 179.851 0.719292 -0.21937 0
M  V30 1892 H 181.822 2.48611 -1.6503 0
M  V30 1893 C 180.571 3.47265 -0.173849 0
M  V30 1894 H 179.894 3.88716 -0.934873 0
M  V30 1895 H 181.334 4.23979 0.0423126 0
M  V30 1896 C 179.793 3.18724 1.09164 0
M  V30 1897 O 180.323 3.37762 2.17439 0
M  V30 1898 N 178.529 2.72583 1.00732 0
M  V30 1899 H 178.076 2.57291 0.126121 0
M  V30 1900 H 178.034 2.53862 1.85476 0
M  V30 1901 N 181.806 0.884767 1.30421 0
M  V30 1902 C 182.736 0.367574 2.30589 0
M  V30 1903 C 183.717 -0.549464 1.60981 0
M  V30 1904 O 184.902 -0.46336 1.88591 0
M  V30 1905 C 182.032 -0.418944 3.44764 0
M  V30 1906 C 180.986 0.406316 4.26067 0
M  V30 1907 C 180.312 -0.506793 5.32293 0
M  V30 1908 C 181.612 1.64832 4.95608 0
M  V30 1909 H 183.306 1.20462 2.74097 0
M  V30 1910 H 180.852 0.580695 1.31772 0
M  V30 1911 H 182.805 -0.791395 4.13902 0
M  V30 1912 H 181.529 -1.28964 3.0006 0
M  V30 1913 H 180.188 0.760903 3.58617 0
M  V30 1914 H 179.836 -1.37519 4.83836 0
M  V30 1915 H 179.536 0.0415828 5.87585 0
M  V30 1916 H 181.06 -0.875764 6.04287 0
M  V30 1917 H 182.474 1.34646 5.57264 0
M  V30 1918 H 180.871 2.13688 5.60765 0
M  V30 1919 H 181.941 2.39284 4.21748 0
M  V30 1920 N 183.284 -1.43765 0.645699 0
M  V30 1921 C 184.533 -2.01116 0.153412 0
M  V30 1922 C 184.846 -1.51493 -1.23731 0
M  V30 1923 O 186.052 -2.01067 -1.8244 0
M  V30 1924 C 184.508 -3.59206 0.223473 0
M  V30 1925 C 184.116 -4.17823 1.61642 0
M  V30 1926 C 185.86 -4.23972 -0.211597 0
M  V30 1927 C 183.767 -5.68183 1.64081 0
M  V30 1928 H 182.697 -0.752093 0.0535891 0
M  V30 1929 H 185.348 -1.6482 0.806633 0
M  V30 1930 H 183.73 -3.92867 -0.497118 0
M  V30 1931 H 184.904 -3.95674 2.36176 0
M  V30 1932 H 183.219 -3.65399 1.99681 0
M  V30 1933 H 185.816 -5.34275 -0.213112 0
M  V30 1934 H 186.159 -3.97352 -1.24165 0
M  V30 1935 H 186.692 -3.95166 0.456988 0
M  V30 1936 H 183.431 -5.99559 2.64971 0
M  V30 1937 H 182.951 -5.9241 0.938611 0
M  V30 1938 H 184.63 -6.32085 1.3812 0
M  V30 1939 N 184.763 -0.387143 -1.52771 0
M  V30 1940 C 185.991 0.195869 -2.05971 0
M  V30 1941 C 186.406 1.40691 -1.25903 0
M  V30 1942 O 185.763 1.79931 -0.305134 0
M  V30 1943 C 185.814 0.56812 -3.57008 0
M  V30 1944 O 185.535 -0.594803 -4.34043 0
M  V30 1945 C 187.036 1.20723 -4.26545 0
M  V30 1946 H 184.256 0.0300578 -0.670326 0
M  V30 1947 H 186.8 -0.551749 -1.96916 0
M  V30 1948 H 184.955 1.26564 -3.66143 0
M  V30 1949 H 185.369 -0.289322 -5.23701 0
M  V30 1950 H 186.843 1.41807 -5.33474 0
M  V30 1951 H 187.32 2.17395 -3.81623 0
M  V30 1952 H 187.926 0.550535 -4.21722 0
M  V30 1953 N 186.241 1.57166 -0.116904 0
M  V30 1954 C 187.151 2.18745 0.847812 0
M  V30 1955 C 188.167 1.163 1.29423 0
M  V30 1956 O 189.343 1.48761 1.35765 0
M  V30 1957 C 186.408 2.77307 2.0809 0
M  V30 1958 C 185.469 3.94781 1.68661 0
M  V30 1959 C 184.702 4.50541 2.86091 0
M  V30 1960 O 184.925 4.05202 4.01456 0
M  V30 1961 O 183.859 5.41256 2.63298 0
M  V30 1962 H 187.685 3.01632 0.353778 0
M  V30 1963 H 185.27 1.49005 0.108599 0
M  V30 1964 H 187.152 3.14647 2.80313 0
M  V30 1965 H 185.827 1.97452 2.56504 0
M  V30 1966 H 184.734 3.62214 0.935518 0
M  V30 1967 H 186.067 4.76065 1.24991 0
M  V30 1968 N 187.719 -0.156864 1.56817 0
M  V30 1969 C 188.967 -0.869404 1.82444 0
M  V30 1970 C 189.288 -1.82147 0.69623 0
M  V30 1971 O 188.558 -1.93847 -0.28287 0
M  V30 1972 H 187.138 -0.324043 0.673056 0
M  V30 1973 H 189.8 -0.153224 1.94297 0
M  V30 1974 H 188.896 -1.43761 2.77019 0
M  V30 1975 N 189.197 -1.51736 -0.425897 0
M  V30 1976 C 190.16 -1.73271 -1.50032 0
M  V30 1977 C 191.16 -0.602639 -1.4908 0
M  V30 1978 O 192.35 -0.87033 -1.509 0
M  V30 1979 C 189.482 -1.79969 -2.89523 0
M  V30 1980 H 190.675 -2.69172 -1.32237 0
M  V30 1981 H 188.228 -1.41899 -0.65532 0
M  V30 1982 H 188.963 -0.859241 -3.1271 0
M  V30 1983 H 188.748 -2.62109 -2.91619 0
M  V30 1984 H 190.238 -1.9843 -3.67444 0
M  V30 1985 N 190.675 0.682077 -1.42076 0
M  V30 1986 C 192.086 1.26246 -1.37546 0
M  V30 1987 C 192.437 1.96092 -0.0651481 0
M  V30 1988 O 191.562 1.99587 0.836297 0
M  V30 1989 C 192.157 2.29594 -2.49143 0
M  V30 1990 C 190.716 2.83175 -2.47969 0
M  V30 1991 C 189.863 1.57395 -2.28303 0
M  V30 1992 H 192.814 0.475937 -1.51395 0
M  V30 1993 H 192.835 3.11175 -2.18976 0
M  V30 1994 H 192.347 1.78729 -3.44496 0
M  V30 1995 H 190.448 3.3818 -1.56413 0
M  V30 1996 H 190.561 3.32687 -3.44755 0
M  V30 1997 H 188.925 1.83699 -1.76428 0
M  V30 1998 H 189.708 1.08507 -3.25701 0
M  V30 1999 N 192.153 1.28127 0.917671 0
M  V30 2000 C 193.116 1.11744 2.00115 0
M  V30 2001 C 194.116 0.0583052 1.60694 0
M  V30 2002 O 195.306 0.303755 1.71531 0
M  V30 2003 C 192.438 0.704862 3.33533 0
M  V30 2004 H 193.631 2.07966 2.16079 0
M  V30 2005 H 191.184 1.11058 1.09981 0
M  V30 2006 H 191.919 -0.258299 3.2327 0
M  V30 2007 H 191.704 1.4699 3.63505 0
M  V30 2008 H 193.194 0.612768 4.1308 0
M  V30 2009 N 193.631 -1.12557 1.10312 0
M  V30 2010 C 194.908 -1.80363 0.756878 0
M  V30 2011 C 195.288 -1.97067 -0.756824 0
M  V30 2012 O 194.636 -1.54601 -1.68259 0
M  V30 2013 C 194.846 -3.14812 1.50647 0
M  V30 2014 C 196.194 -3.90029 1.67817 0
M  V30 2015 O 197.218 -3.24464 1.46974 0
M  V30 2016 O 196.077 -5.07652 2.02365 0
M  V30 2017 H 193.171 -0.780667 0.272926 0
M  V30 2018 H 195.717 -1.19404 1.20586 0
M  V30 2019 H 194.489 -2.97936 2.53672 0
M  V30 2020 H 194.112 -3.83478 1.05026 0
M  V30 2021 N 195.109 -0.891671 -1.2995 0
M  V30 2022 C 196.039 -0.379797 -2.30391 0
M  V30 2023 C 197.02 0.540919 -1.6127 0
M  V30 2024 O 198.205 0.453352 -1.88834 0
M  V30 2025 C 195.335 0.400654 -3.44981 0
M  V30 2026 C 194.289 -0.428905 -4.25846 0
M  V30 2027 C 193.615 0.478557 -5.32554 0
M  V30 2028 C 194.915 -1.67458 -4.94727 0
M  V30 2029 H 196.609 -1.21914 -2.73454 0
M  V30 2030 H 194.155 -0.587675 -1.31462 0
M  V30 2031 H 196.108 0.769434 -4.14316 0
M  V30 2032 H 194.832 1.27371 -3.0074 0
M  V30 2033 H 193.491 -0.779911 -3.58208 0
M  V30 2034 H 193.139 1.34951 -4.84559 0
M  V30 2035 H 192.839 -0.0727433 -5.87555 0
M  V30 2036 H 194.363 0.843705 -6.04743 0
M  V30 2037 H 195.777 -1.376 -5.56542 0
M  V30 2038 H 194.174 -2.16659 -5.59624 0
M  V30 2039 H 195.244 -2.41518 -4.20473 0
M  V30 2040 N 196.587 1.43421 -0.653314 0
M  V30 2041 C 198.003 1.56341 -0.320886 0
M  V30 2042 C 198.203 1.63696 1.17499 0
M  V30 2043 O 197.259 1.59208 1.95982 0
M  V30 2044 C 198.572 2.82424 -1.03233 0
M  V30 2045 C 200.12 2.96168 -1.01259 0
M  V30 2046 C 200.595 4.25084 -1.70492 0
M  V30 2047 N 202.086 4.31948 -1.67257 0
M  V30 2048 C 202.821 5.30466 -2.17701 0
M  V30 2049 N 202.317 6.35261 -2.76434 0
M  V30 2050 N 204.11 5.2212 -2.082 0
M  V30 2051 H 196.261 1.3689 -1.62403 0
M  V30 2052 H 198.524 0.657455 -0.682977 0
M  V30 2053 H 198.23 2.83053 -2.08744 0
M  V30 2054 H 198.104 3.72653 -0.583948 0
M  V30 2055 H 200.491 2.9508 0.0341235 0
M  V30 2056 H 200.572 2.07229 -1.49966 0
M  V30 2057 H 200.216 4.26932 -2.7512 0
M  V30 2058 H 200.146 5.1292 -1.19251 0
M  V30 2059 H 202.637 3.56838 -1.24398 0
M  V30 2060 H 202.95 7.06754 -3.12601 0
M  V30 2061 H 201.295 6.35884 -2.80495 0
M  V30 2062 H 204.486 4.39166 -1.62021 0
M  V30 2063 H 204.659 5.98739 -2.47822 0
M  V30 2064 N 198.065 0.39524 1.52563 0
M  V30 2065 C 199.013 -0.451859 2.28169 0
M  V30 2066 C 200.007 -1.05792 1.32304 0
M  V30 2067 O 201.213 -0.997718 1.49818 0
M  V30 2068 H 197.588 -0.164481 0.733792 0
M  V30 2069 H 199.559 0.207199 2.9768 0
M  V30 2070 C 198.308 -1.56385 3.10546 0
M  V30 2071 H 197.631 -1.10682 3.84174 0
M  V30 2072 H 199.071 -2.13067 3.66577 0
M  V30 2073 C 197.53 -2.52328 2.23231 0
M  V30 2074 O 198.06 -3.5588 1.86312 0
M  V30 2075 N 196.266 -2.22209 1.87274 0
M  V30 2076 H 195.813 -1.38033 2.17496 0
M  V30 2077 H 195.771 -2.86652 1.29143 0
M  V30 2078 N 199.544 -1.57102 0.125237 0
M  V30 2079 C 200.821 -1.86953 -0.575142 0
M  V30 2080 C 201.201 -1.02749 -1.84407 0
M  V30 2081 O 200.549 -0.108144 -2.28244 0
M  V30 2082 C 200.759 -3.38198 -0.861583 0
M  V30 2083 C 202.107 -4.06937 -1.21192 0
M  V30 2084 O 203.131 -3.43252 -0.951645 0
M  V30 2085 O 201.99 -5.19364 -1.70068 0
M  V30 2086 H 199.084 -0.774147 -0.290906 0
M  V30 2087 H 201.63 -1.68942 0.160211 0
M  V30 2088 H 200.402 -3.91282 0.0373647 0
M  V30 2089 H 200.025 -3.61661 -1.65188 0
M  V30 2090 N 201.022 0.148545 -1.56898 0
M  V30 2091 C 202.269 0.861418 -1.83264 0
M  V30 2092 C 202.597 1.81239 -0.705883 0
M  V30 2093 O 201.852 1.93305 0.305212 0
M  V30 2094 C 202.151 1.67064 -3.1595 0
M  V30 2095 C 201.817 0.866591 -4.42494 0
M  V30 2096 C 200.479 0.644762 -4.76861 0
M  V30 2097 C 202.831 0.30418 -5.20312 0
M  V30 2098 C 200.159 -0.15021 -5.86508 0
M  V30 2099 C 202.511 -0.477824 -6.30793 0
M  V30 2100 C 201.175 -0.710244 -6.63711 0
M  V30 2101 H 200.445 0.315215 -0.670612 0
M  V30 2102 H 203.092 0.125142 -1.91091 0
M  V30 2103 H 201.397 2.47698 -3.03567 0
M  V30 2104 H 203.094 2.22566 -3.33565 0
M  V30 2105 H 199.684 1.04955 -4.15551 0
M  V30 2106 H 203.868 0.462844 -4.94137 0
M  V30 2107 H 199.124 -0.339796 -6.10455 0
M  V30 2108 H 203.298 -0.92076 -6.90286 0
M  V30 2109 H 200.925 -1.3281 -7.48509 0
M  V30 2110 N 202.5 1.5196 0.417844 0
M  V30 2111 C 203.463 1.74065 1.49111 0
M  V30 2112 C 204.463 0.610537 1.48758 0
M  V30 2113 O 205.653 0.87832 1.50437 0
M  V30 2114 C 202.785 1.81502 2.88565 0
M  V30 2115 H 203.978 2.69869 1.30807 0
M  V30 2116 H 201.531 1.42244 0.647785 0
M  V30 2117 H 202.266 0.875813 3.1225 0
M  V30 2118 H 202.051 2.63651 2.90225 0
M  V30 2119 H 203.541 2.00376 3.66387 0
M  V30 2120 N 203.978 -0.674533 1.42435 0
M  V30 2121 C 205.255 -1.4305 1.33402 0
M  V30 2122 C 205.635 -2.11081 -0.0284674 0
M  V30 2123 O 204.983 -2.03257 -1.04397 0
M  V30 2124 C 205.193 -2.43272 2.50239 0
M  V30 2125 C 206.541 -3.07907 2.92367 0
M  V30 2126 O 207.565 -2.53599 2.50132 0
M  V30 2127 O 206.424 -4.0632 3.65467 0
M  V30 2128 H 203.518 -0.638076 0.526106 0
M  V30 2129 H 206.064 -0.703235 1.54443 0
M  V30 2130 H 204.836 -1.91803 3.41068 0
M  V30 2131 H 204.459 -3.23479 2.31186 0
M  V30 2132 N 205.456 -1.28612 -0.910864 0
M  V30 2133 C 206.867 -1.14406 -1.47541 0
M  V30 2134 C 207.218 0.264901 -1.94403 0
M  V30 2135 O 206.343 1.15942 -1.82719 0
M  V30 2136 C 206.938 -2.07073 -2.68153 0
M  V30 2137 C 205.497 -1.96923 -3.20778 0
M  V30 2138 C 204.644 -1.98646 -1.93481 0
M  V30 2139 H 207.595 -1.41259 -0.723291 0
M  V30 2140 H 207.616 -1.63642 -3.43514 0
M  V30 2141 H 207.128 -3.09611 -2.34015 0
M  V30 2142 H 205.229 -0.97433 -3.59635 0
M  V30 2143 H 205.342 -2.84026 -3.85832 0
M  V30 2144 H 203.706 -1.43093 -2.10705 0
M  V30 2145 H 204.489 -3.02868 -1.61634 0
M  V30 2146 N 206.934 1.1197 -1.10907 0
M  V30 2147 C 207.864 2.19928 -0.784473 0
M  V30 2148 C 208.845 1.6833 0.244726 0
M  V30 2149 O 210.03 1.93892 0.109418 0
M  V30 2150 C 207.16 3.46597 -0.220827 0
M  V30 2151 C 206.114 4.11376 -1.18127 0
M  V30 2152 C 205.44 5.32554 -0.478594 0
M  V30 2153 C 206.74 4.56945 -2.52979 0
M  V30 2154 H 208.434 2.47337 -1.68715 0
M  V30 2155 H 205.98 1.18879 -0.812642 0
M  V30 2156 H 207.933 4.21396 0.0184278 0
M  V30 2157 H 206.657 3.1863 0.717113 0
M  V30 2158 H 205.316 3.38564 -1.40606 0
M  V30 2159 H 204.964 5.00856 0.463976 0
M  V30 2160 H 204.664 5.76844 -1.11912 0
M  V30 2161 H 206.188 6.10096 -0.248 0
M  V30 2162 H 207.602 5.23093 -2.3462 0
M  V30 2163 H 205.999 5.1203 -3.12962 0
M  V30 2164 H 207.069 3.70676 -3.12614 0
M  V30 2165 N 208.412 0.89855 1.29475 0
M  V30 2166 C 209.375 0.380272 2.26023 0
M  V30 2167 C 210.375 -0.484891 1.53315 0
M  V30 2168 O 211.565 -0.290108 1.71767 0
M  V30 2169 C 208.697 -0.45651 3.3783 0
M  V30 2170 H 209.89 1.23295 2.73383 0
M  V30 2171 H 207.443 0.676589 1.40897 0
M  V30 2172 H 208.178 -1.32922 2.95808 0
M  V30 2173 H 207.963 0.163393 3.91759 0
M  V30 2174 H 209.453 -0.810466 4.0966 0
M  V30 2175 N 209.89 -1.43072 0.660911 0
M  V30 2176 C 211.118 -2.06067 0.185422 0
M  V30 2177 C 211.533 -1.49582 -1.15198 0
M  V30 2178 O 210.89 -0.630134 -1.71276 0
M  V30 2179 C 210.941 -3.61371 0.0966523 0
M  V30 2180 O 210.662 -4.15758 1.38119 0
M  V30 2181 C 212.163 -4.41455 -0.403996 0
M  V30 2182 H 209.383 -0.664459 0.0934604 0
M  V30 2183 H 211.927 -1.83447 0.90373 0
M  V30 2184 H 210.082 -3.8315 -0.572259 0
M  V30 2185 H 210.496 -5.09499 1.24542 0
M  V30 2186 H 211.97 -5.50437 -0.415045 0
M  V30 2187 H 212.447 -4.15036 -1.43674 0
M  V30 2188 H 213.053 -4.24663 0.232691 0
M  V30 2189 N 211.368 -0.403325 -1.52352 0
M  V30 2190 C 212.331 0.413051 -2.25447 0
M  V30 2191 C 213.331 0.978513 -1.276 0
M  V30 2192 O 214.521 0.858305 -1.51587 0
M  V30 2193 C 211.653 1.58087 -3.02029 0
M  V30 2194 H 212.846 -0.227094 -2.99039 0
M  V30 2195 H 210.399 -0.155722 -1.55522 0
M  V30 2196 H 211.134 2.25804 -2.32772 0
M  V30 2197 H 210.919 1.18195 -3.73861 0
M  V30 2198 H 212.409 2.1585 -3.57489 0
M  V30 2199 N 212.846 1.57033 -0.133567 0
M  V30 2200 C 213.776 2.1909 0.807567 0
M  V30 2201 C 214.757 1.13517 1.26681 0
M  V30 2202 O 215.942 1.41809 1.32679 0
M  V30 2203 C 213.072 2.80188 2.05212 0
M  V30 2204 C 212.026 3.91471 1.73015 0
M  V30 2205 C 211.352 4.39443 3.04622 0
M  V30 2206 C 212.652 5.12886 0.987168 0
M  V30 2207 H 214.346 2.97988 0.290403 0
M  V30 2208 H 211.892 1.43335 0.138239 0
M  V30 2209 H 213.845 3.22264 2.71521 0
M  V30 2210 H 212.569 1.98601 2.59278 0
M  V30 2211 H 211.228 3.49993 1.0909 0
M  V30 2212 H 210.876 3.54695 3.56651 0
M  V30 2213 H 210.576 5.14495 2.83847 0
M  V30 2214 H 212.1 4.8418 3.72024 0
M  V30 2215 H 213.514 5.51891 1.55208 0
M  V30 2216 H 211.911 5.93615 0.87985 0
M  V30 2217 H 212.981 4.84894 -0.0235286 0
M  V30 2218 N 214.325 -0.140222 1.56975 0
M  V30 2219 C 215.275 -1.17827 1.95194 0
M  V30 2220 C 216.259 -1.38195 0.824075 0
M  V30 2221 O 217.451 -1.39643 1.0876 0
M  V30 2222 C 214.58 -2.51024 2.34184 0
M  V30 2223 C 213.666 -2.3422 3.53556 0
M  V30 2224 N 214.057 -1.87185 4.69889 0
M  V30 2225 C 212.355 -2.64949 3.58773 0
M  V30 2226 C 213.056 -1.83586 5.5197 0
M  V30 2227 N 212.032 -2.2715 4.93866 0
M  V30 2228 H 215.834 -0.806817 2.82609 0
M  V30 2229 H 213.348 -0.348208 1.58623 0
M  V30 2230 H 215.345 -3.26074 2.59772 0
M  V30 2231 H 214.005 -2.88945 1.48124 0
M  V30 2232 H 215.016 -1.57048 4.93514 0
M  V30 2233 H 211.693 -3.067 2.8327 0
M  V30 2234 H 213.083 -1.48655 6.55249 0
M  V30 2235 N 215.803 -1.52179 -0.40978 0
M  V30 2236 C 217.043 -1.67882 -1.16597 0
M  V30 2237 C 217.407 -0.399795 -1.87791 0
M  V30 2238 O 218.608 -0.43292 -2.65291 0
M  V30 2239 C 216.879 -2.86662 -2.13448 0
M  V30 2240 S 218.438 -3.22843 -2.97183 0
M  V30 2241 H 215.256 -0.59118 -0.395002 0
M  V30 2242 H 217.858 -1.9017 -0.453373 0
M  V30 2243 H 216.562 -3.77998 -1.59831 0
M  V30 2244 H 216.093 -2.66645 -2.89247 0
M  V30 2245 H 218.108 -2.71415 -4.15389 0
M  V30 2246 N 217.281 0.66697 -1.42791 0
M  V30 2247 C 218.228 1.7803 -1.4688 0
M  V30 2248 C 219.198 1.6299 -0.319919 0
M  V30 2249 O 220.383 1.83432 -0.525118 0
M  V30 2250 C 217.523 3.1611 -1.38451 0
M  V30 2251 C 216.636 3.42381 -2.63437 0
M  V30 2252 C 215.771 4.70232 -2.47094 0
M  V30 2253 C 214.81 4.89564 -3.67415 0
M  V30 2254 N 213.947 6.08661 -3.49966 0
M  V30 2255 H 218.787 1.7387 -2.42019 0
M  V30 2256 H 216.324 0.84868 -1.20149 0
M  V30 2257 H 218.282 3.95914 -1.31561 0
M  V30 2258 H 216.912 3.19374 -0.469033 0
M  V30 2259 H 215.964 2.56774 -2.80662 0
M  V30 2260 H 217.276 3.52557 -3.52853 0
M  V30 2261 H 216.43 5.5814 -2.37834 0
M  V30 2262 H 215.169 4.62353 -1.5518 0
M  V30 2263 H 214.174 4.00096 -3.77099 0
M  V30 2264 H 215.399 4.99282 -4.6032 0
M  V30 2265 H 213.345 6.0194 -2.60776 0
M  V30 2266 H 213.262 6.19733 -4.32975 0
M  V30 2267 H 214.53 6.99226 -3.44532 0
M  V30 2268 N 218.759 1.29093 0.90403 0
M  V30 2269 C 220.005 1.16986 1.65656 0
M  V30 2270 C 220.338 -0.278925 1.92186 0
M  V30 2271 O 219.613 -1.2019 1.5292 0
M  V30 2272 C 219.896 1.97908 3.0084 0
M  V30 2273 C 219.749 3.50903 2.81403 0
M  V30 2274 C 221.068 1.80208 4.01513 0
M  V30 2275 H 218.187 0.426346 0.601164 0
M  V30 2276 H 220.829 1.58518 1.04747 0
M  V30 2277 H 218.979 1.62616 3.52829 0
M  V30 2278 H 220.651 3.96153 2.36348 0
M  V30 2279 H 218.894 3.76045 2.1627 0
M  V30 2280 H 219.565 4.02791 3.77443 0
M  V30 2281 H 222.041 2.11025 3.58619 0
M  V30 2282 H 220.917 2.39184 4.94047 0
M  V30 2283 H 221.178 0.756119 4.35586 0
M  V30 2284 N 220.237 -1.11381 1.11499 0
M  V30 2285 C 221.167 -2.19509 0.796125 0
M  V30 2286 C 222.148 -1.68458 -0.235796 0
M  V30 2287 O 223.333 -1.93947 -0.0991344 0
M  V30 2288 C 220.463 -3.46475 0.239205 0
M  V30 2289 C 219.417 -4.10744 1.20307 0
M  V30 2290 C 218.743 -5.32293 0.50683 0
M  V30 2291 C 220.043 -4.55597 2.55399 0
M  V30 2292 H 221.737 -2.46439 1.70024 0
M  V30 2293 H 219.283 -1.18446 0.818935 0
M  V30 2294 H 221.236 -4.214 0.00392006 0
M  V30 2295 H 219.96 -3.19006 -0.700206 0
M  V30 2296 H 218.619 -3.37813 1.42399 0
M  V30 2297 H 218.267 -5.01095 -0.437408 0
M  V30 2298 H 217.967 -5.76243 1.1497 0
M  V30 2299 H 219.491 -6.09956 0.280351 0
M  V30 2300 H 220.905 -5.21841 2.37391 0
M  V30 2301 H 219.302 -5.10363 3.15673 0
M  V30 2302 H 220.372 -3.69013 3.14575 0
M  V30 2303 N 221.715 -0.905404 -1.28997 0
M  V30 2304 C 222.963 -0.533192 -1.9494 0
M  V30 2305 C 223.284 0.924618 -1.71685 0
M  V30 2306 O 222.554 1.65268 -1.05183 0
M  V30 2307 H 221.134 -0.194194 -0.721317 0
M  V30 2308 H 223.796 -1.15294 -1.57141 0
M  V30 2309 H 222.892 -0.72059 -3.03667 0
M  V30 2310 N 223.193 1.4272 -0.668489 0
M  V30 2311 C 224.442 2.00846 -0.185389 0
M  V30 2312 C 224.755 1.53442 1.21305 0
M  V30 2313 O 225.961 2.03944 1.79218 0
M  V30 2314 C 224.417 3.58805 -0.280591 0
M  V30 2315 C 224.025 4.15198 -1.68268 0
M  V30 2316 C 225.769 4.24255 0.14412 0
M  V30 2317 C 223.676 5.655 -1.73099 0
M  V30 2318 H 222.606 0.751145 -0.0655475 0
M  V30 2319 H 225.257 1.63516 -0.832752 0
M  V30 2320 H 223.639 3.93608 0.434553 0
M  V30 2321 H 224.813 3.91866 -2.42441 0
M  V30 2322 H 223.128 3.62176 -2.05469 0
M  V30 2323 H 225.725 5.34547 0.128086 0
M  V30 2324 H 226.068 3.99277 1.17827 0
M  V30 2325 H 226.601 3.94389 -0.519798 0
M  V30 2326 H 223.34 5.95268 -2.74475 0
M  V30 2327 H 222.86 5.90842 -1.03274 0
M  V30 2328 H 224.539 6.29808 -1.48158 0
M  V30 2329 N 224.671 0.411399 1.52136 0
M  V30 2330 C 226.082 -0.0576826 1.86611 0
M  V30 2331 C 226.433 -1.44238 1.33003 0
M  V30 2332 O 225.558 -2.05759 0.670228 0
M  V30 2333 C 226.153 -0.111448 3.38617 0
M  V30 2334 C 224.712 -0.52487 3.72723 0
M  V30 2335 C 223.859 0.299176 2.75681 0
M  V30 2336 H 226.81 0.628368 1.4573 0
M  V30 2337 H 226.831 -0.926252 3.69054 0
M  V30 2338 H 226.343 0.896488 3.77604 0
M  V30 2339 H 224.444 -1.53936 3.39315 0
M  V30 2340 H 224.557 -0.267681 4.78352 0
M  V30 2341 H 222.921 -0.238814 2.53578 0
M  V30 2342 H 223.704 1.3055 3.17508 0
M  V30 2343 N 226.149 -1.5696 0.141893 0
M  V30 2344 C 227.081 -2.13619 -0.830627 0
M  V30 2345 C 228.094 -1.08439 -1.21428 0
M  V30 2346 O 229.283 -1.35734 -1.15925 0
M  V30 2347 C 226.383 -2.63978 -2.12529 0
M  V30 2348 C 225.556 -3.93504 -1.9098 0
M  V30 2349 C 224.615 -4.29225 -3.04388 0
M  V30 2350 O 223.641 -4.97641 -2.76302 0
M  V30 2351 N 224.843 -3.88393 -4.31429 0
M  V30 2352 H 227.608 -2.97691 -0.34641 0
M  V30 2353 H 225.169 -1.61846 -0.0418375 0
M  V30 2354 H 227.161 -2.84891 -2.87436 0
M  V30 2355 H 225.731 -1.84659 -2.52229 0
M  V30 2356 H 224.951 -3.81269 -1.00139 0
M  V30 2357 H 226.239 -4.78154 -1.73914 0
M  V30 2358 H 225.637 -3.33257 -4.57117 0
M  V30 2359 H 224.194 -4.14368 -5.03133 0
M  V30 2360 N 227.627 0.131896 -1.57047 0
M  V30 2361 C 228.537 1.1815 -2.02676 0
M  V30 2362 C 229.553 1.46113 -0.944824 0
M  V30 2363 O 230.729 1.57485 -1.25541 0
M  V30 2364 C 227.794 2.49139 -2.41103 0
M  V30 2365 C 226.855 2.28688 -3.63318 0
M  V30 2366 C 226.088 3.53431 -3.99903 0
M  V30 2367 O 226.311 4.60223 -3.36973 0
M  V30 2368 O 225.245 3.45198 -4.93074 0
M  V30 2369 H 229.071 0.824069 -2.92306 0
M  V30 2370 H 226.656 0.341745 -1.45439 0
M  V30 2371 H 228.538 3.26338 -2.66611 0
M  V30 2372 H 227.213 2.84382 -1.54624 0
M  V30 2373 H 226.12 1.4939 -3.42977 0
M  V30 2374 H 227.453 1.98355 -4.50462 0
M  V30 2375 N 229.106 1.52395 0.401703 0
M  V30 2376 C 230.383 1.57387 1.16141 0
M  V30 2377 C 230.763 0.359359 2.08019 0
M  V30 2378 O 230.111 -0.65326 2.18963 0
M  V30 2379 C 230.321 2.90631 1.93221 0
M  V30 2380 C 231.669 3.43904 2.49028 0
M  V30 2381 O 232.693 2.92421 2.03393 0
M  V30 2382 O 231.552 4.33823 3.32356 0
M  V30 2383 H 228.646 0.634262 0.530698 0
M  V30 2384 H 231.192 1.64725 0.407883 0
M  V30 2385 H 229.964 3.70473 1.25958 0
M  V30 2386 H 229.587 2.8662 2.75563 0
M  V30 2387 N 230.584 -0.659388 1.43143 0
M  V30 2388 C 231.832 -1.41654 1.44147 0
M  V30 2389 C 232.153 -1.94893 0.0645739 0
M  V30 2390 O 231.423 -1.74044 -0.899198 0
M  V30 2391 H 230.003 -0.525708 0.530697 0
M  V30 2392 H 232.665 -0.778097 1.78694 0
M  V30 2393 H 231.761 -2.26195 2.1504 0
M  V30 2394 N 232.062 -1.29571 -0.897171 0
M  V30 2395 C 233.473 -1.15964 -1.46319 0
M  V30 2396 C 233.824 0.244267 -1.94674 0
M  V30 2397 O 232.949 1.13998 -1.83939 0
M  V30 2398 C 233.544 -2.09906 -2.65942 0
M  V30 2399 C 232.103 -2.00314 -3.18671 0
M  V30 2400 C 231.25 -2.00687 -1.91363 0
M  V30 2401 H 234.201 -1.42019 -0.708268 0
M  V30 2402 H 234.222 -1.67276 -3.41759 0
M  V30 2403 H 233.734 -3.12075 -2.30718 0
M  V30 2404 H 231.835 -1.01242 -3.58582 0
M  V30 2405 H 231.948 -2.88102 -3.82798 0
M  V30 2406 H 230.312 -1.45319 -2.09175 0
M  V30 2407 H 231.095 -3.04566 -1.58413 0
M  V30 2408 N 233.54 1.10788 -1.12088 0
M  V30 2409 C 234.487 2.17025 -0.785407 0
M  V30 2410 C 235.457 1.64265 0.246191 0
M  V30 2411 O 236.642 1.90412 0.121584 0
M  V30 2412 C 233.782 3.44249 -0.242177 0
M  V30 2413 C 232.895 4.1098 -1.33115 0
M  V30 2414 C 232.03 5.25911 -0.747741 0
M  V30 2415 C 231.069 5.84538 -1.81609 0
M  V30 2416 N 230.206 6.90853 -1.25167 0
M  V30 2417 H 235.046 2.45066 -1.69548 0
M  V30 2418 H 232.583 1.20297 -0.846582 0
M  V30 2419 H 234.541 4.17101 0.0908026 0
M  V30 2420 H 233.171 3.16571 0.631072 0
M  V30 2421 H 232.223 3.36133 -1.78097 0
M  V30 2422 H 233.535 4.50601 -2.13917 0
M  V30 2423 H 232.689 6.056 -0.365216 0
M  V30 2424 H 231.428 4.87614 0.0915188 0
M  V30 2425 H 230.433 5.03522 -2.20785 0
M  V30 2426 H 231.658 6.249 -2.6585 0
M  V30 2427 H 229.604 6.54562 -0.434174 0
M  V30 2428 H 229.521 7.29166 -1.99633 0
M  V30 2429 H 230.789 7.7433 -0.896259 0
M  V30 2430 N 235.018 0.912232 1.28515 0
M  V30 2431 C 235.948 0.416403 2.29757 0
M  V30 2432 C 236.929 -0.515194 1.6211 0
M  V30 2433 O 238.114 -0.423253 1.89532 0
M  V30 2434 C 235.244 -0.34572 3.45575 0
M  V30 2435 C 234.198 0.496599 4.25109 0
M  V30 2436 C 233.524 -0.393771 5.33248 0
M  V30 2437 C 234.824 1.75307 4.92001 0
M  V30 2438 H 236.518 1.26249 2.7148 0
M  V30 2439 H 234.064 0.608515 1.30511 0
M  V30 2440 H 236.017 -0.703422 4.15488 0
M  V30 2441 H 234.741 -1.2257 3.02728 0
M  V30 2442 H 233.4 0.8368 3.56922 0
M  V30 2443 H 233.048 -1.27225 4.86644 0
M  V30 2444 H 232.748 0.166209 5.87365 0
M  V30 2445 H 234.272 -0.747389 6.06009 0
M  V30 2446 H 235.686 1.46437 5.54283 0
M  V30 2447 H 234.083 2.25534 5.56106 0
M  V30 2448 H 235.153 2.48176 4.16577 0
M  V30 2449 N 236.496 -1.42363 0.676048 0
M  V30 2450 C 237.743 -2.01522 0.19883 0
M  V30 2451 C 238.071 -1.53456 -1.19505 0
M  V30 2452 O 237.326 -0.727967 -1.81657 0
M  V30 2453 C 237.625 -3.56929 0.183431 0
M  V30 2454 C 237.291 -4.24431 1.52215 0
M  V30 2455 C 235.953 -4.42585 1.8887 0
M  V30 2456 C 238.305 -4.62459 2.40377 0
M  V30 2457 C 235.633 -4.96039 3.13309 0
M  V30 2458 C 237.985 -5.17294 3.64129 0
M  V30 2459 C 236.649 -5.33661 4.00951 0
M  V30 2460 H 235.919 -0.737419 0.0727571 0
M  V30 2461 H 238.566 -1.70531 0.871281 0
M  V30 2462 H 236.871 -3.87594 -0.572532 0
M  V30 2463 H 238.568 -4.00486 -0.203035 0
M  V30 2464 H 235.158 -4.10661 1.22701 0
M  V30 2465 H 239.342 -4.48105 2.13343 0
M  V30 2466 H 234.598 -5.06896 3.41857 0
M  V30 2467 H 238.772 -5.45704 4.32644 0
M  V30 2468 H 236.399 -5.74845 4.9745 0
M  V30 2469 N 237.974 -0.419461 -1.51915 0
M  V30 2470 C 239.39 -0.0708431 -1.59443 0
M  V30 2471 C 239.59 1.41796 -1.43164 0
M  V30 2472 O 238.646 2.18596 -1.26381 0
M  V30 2473 C 239.959 -0.574991 -2.95151 0
M  V30 2474 C 241.507 -0.533867 -3.08413 0
M  V30 2475 C 241.982 -1.01469 -4.46618 0
M  V30 2476 N 243.473 -0.971939 -4.52888 0
M  V30 2477 C 244.208 -1.31505 -5.58116 0
M  V30 2478 N 243.704 -1.73014 -6.70849 0
M  V30 2479 N 245.497 -1.23436 -5.48379 0
M  V30 2480 H 237.648 -1.38836 -1.60743 0
M  V30 2481 H 239.911 -0.570998 -0.756747 0
M  V30 2482 H 239.617 -1.61597 -3.12377 0
M  V30 2483 H 239.491 0.00979777 -3.77199 0
M  V30 2484 H 241.878 0.498086 -2.90866 0
M  V30 2485 H 241.959 -1.15484 -2.28248 0
M  V30 2486 H 241.603 -2.04502 -4.6491 0
M  V30 2487 H 241.533 -0.370433 -5.25295 0
M  V30 2488 H 244.024 -0.666893 -3.71969 0
M  V30 2489 H 244.337 -1.97479 -7.47143 0
M  V30 2490 H 242.682 -1.76926 -6.72103 0
M  V30 2491 H 245.873 -0.908869 -4.59192 0
M  V30 2492 H 246.046 -1.50506 -6.30279 0
M  V30 2493 N 239.452 1.56882 -0.150215 0
M  V30 2494 C 240.677 2.01027 0.510184 0
M  V30 2495 C 241.102 1.02966 1.57415 0
M  V30 2496 O 240.46 0.00590158 1.81299 0
M  V30 2497 C 240.508 3.43899 1.08472 0
M  V30 2498 O 239.612 3.4885 2.19948 0
M  V30 2499 H 238.953 0.652233 0.124451 0
M  V30 2500 H 241.483 2.03093 -0.247894 0
M  V30 2501 H 241.493 3.82766 1.41259 0
M  V30 2502 H 240.168 4.14776 0.305582 0
M  V30 2503 H 238.745 3.21827 1.88366 0
M  V30 2504 N 240.93 -0.123565 1.57115 0
M  V30 2505 C 241.86 -1.15309 2.03042 0
M  V30 2506 C 242.841 -1.43454 0.914061 0
M  V30 2507 O 244.026 -1.53973 1.18347 0
M  V30 2508 C 241.156 -2.48043 2.43089 0
M  V30 2509 C 240.11 -2.3437 3.58127 0
M  V30 2510 C 239.436 -3.72026 3.84059 0
M  V30 2511 C 240.736 -1.80804 4.90007 0
M  V30 2512 H 242.43 -0.771102 2.893 0
M  V30 2513 H 239.976 -0.369479 1.39179 0
M  V30 2514 H 241.929 -3.20311 2.73823 0
M  V30 2515 H 240.653 -2.88122 1.53796 0
M  V30 2516 H 239.312 -1.64551 3.27595 0
M  V30 2517 H 238.96 -4.09582 2.91979 0
M  V30 2518 H 238.66 -3.63732 4.6149 0
M  V30 2519 H 240.184 -4.45806 4.1724 0
M  V30 2520 H 241.598 -2.42886 5.19307 0
M  V30 2521 H 239.995 -1.83343 5.71407 0
M  V30 2522 H 241.065 -0.76528 4.78823 0
M  V30 2523 N 242.408 -1.52605 -0.393616 0
M  V30 2524 C 243.633 -1.71592 -1.16495 0
M  V30 2525 C 244.058 -0.43133 -1.83088 0
M  V30 2526 O 243.416 0.612523 -1.7064 0
M  V30 2527 C 243.464 -2.86318 -2.19213 0
M  V30 2528 O 242.568 -2.52969 -3.257 0
M  V30 2529 H 241.909 -0.570734 -0.33935 0
M  V30 2530 H 244.439 -1.99377 -0.459324 0
M  V30 2531 H 244.449 -3.1168 -2.63286 0
M  V30 2532 H 243.124 -3.79511 -1.7013 0
M  V30 2533 H 241.701 -2.38332 -2.86797 0
M  V30 2534 N 243.887 0.651787 -1.4349 0
M  V30 2535 C 245.136 1.40754 -1.44469 0
M  V30 2536 C 245.449 1.95463 -0.0731845 0
M  V30 2537 O 246.655 2.71471 0.0395721 0
M  V30 2538 C 245.111 2.54735 -2.5424 0
M  V30 2539 C 244.719 2.06628 -3.97504 0
M  V30 2540 C 246.463 3.32092 -2.64414 0
M  V30 2541 C 244.37 3.17829 -4.98737 0
M  V30 2542 H 243.3 0.528862 -0.53742 0
M  V30 2543 H 245.951 0.703365 -1.69485 0
M  V30 2544 H 244.333 3.2763 -2.22428 0
M  V30 2545 H 245.507 1.40734 -4.38783 0
M  V30 2546 H 243.822 1.42146 -3.91387 0
M  V30 2547 H 246.419 4.14952 -3.37223 0
M  V30 2548 H 246.762 3.80217 -1.69532 0
M  V30 2549 H 247.295 2.66279 -2.95534 0
M  V30 2550 H 244.034 2.74671 -5.95177 0
M  V30 2551 H 243.554 3.82429 -4.62069 0
M  V30 2552 H 245.233 3.82937 -5.21505 0
M  V30 2553 N 245.365 1.30045 0.890287 0
M  V30 2554 C 246.328 1.15963 1.977 0
M  V30 2555 C 247.328 0.0923777 1.60534 0
M  V30 2556 O 248.518 0.340071 1.70848 0
M  V30 2557 C 245.65 0.775451 3.31963 0
M  V30 2558 H 246.843 2.12502 2.11619 0
M  V30 2559 H 244.396 1.13366 1.07601 0
M  V30 2560 H 245.131 -0.189671 3.23745 0
M  V30 2561 H 244.916 1.54668 3.60306 0
M  V30 2562 H 246.406 0.700251 4.11687 0
M  V30 2563 N 246.843 -1.10192 1.12674 0
M  V30 2564 C 248.09 -1.82205 0.883606 0
M  V30 2565 C 248.418 -1.8532 -0.590492 0
M  V30 2566 O 247.673 -1.31137 -1.45264 0
M  V30 2567 C 247.972 -3.28552 1.4067 0
M  V30 2568 C 247.638 -3.45582 2.89627 0
M  V30 2569 C 246.3 -3.49937 3.30299 0
M  V30 2570 C 248.652 -3.50768 3.85501 0
M  V30 2571 C 245.98 -3.57049 4.65546 0
M  V30 2572 C 248.332 -3.59414 5.20581 0
M  V30 2573 C 246.996 -3.62034 5.60792 0
M  V30 2574 H 246.266 -0.666735 0.323334 0
M  V30 2575 H 248.913 -1.29868 1.40736 0
M  V30 2576 H 247.218 -3.83473 0.80347 0
M  V30 2577 H 248.915 -3.82788 1.19475 0
M  V30 2578 H 245.505 -3.42871 2.57172 0
M  V30 2579 H 249.689 -3.46651 3.55171 0
M  V30 2580 H 244.945 -3.57361 4.96088 0
M  V30 2581 H 249.119 -3.62371 5.94693 0
M  V30 2582 H 246.746 -3.67298 6.6558 0
M  V30 2583 N 248.321 -0.919034 -1.28029 0
M  V30 2584 C 249.254 -0.355887 -2.25408 0
M  V30 2585 C 250.232 0.542874 -1.5327 0
M  V30 2586 O 251.416 0.485338 -1.82145 0
M  V30 2587 C 248.543 0.490759 -3.35126 0
M  V30 2588 C 247.589 -0.343358 -4.25116 0
M  V30 2589 S 248.422 -1.75344 -5.05979 0
M  V30 2590 C 249.578 -0.914244 -6.19187 0
M  V30 2591 H 249.811 -1.18123 -2.72826 0
M  V30 2592 H 247.344 -0.720636 -1.36551 0
M  V30 2593 H 249.302 0.973404 -3.98792 0
M  V30 2594 H 247.963 1.29054 -2.86363 0
M  V30 2595 H 247.156 0.304266 -5.03081 0
M  V30 2596 H 246.758 -0.759851 -3.662 0
M  V30 2597 H 249.05 -0.146282 -6.77342 0
M  V30 2598 H 249.993 -1.66661 -6.88208 0
M  V30 2599 H 250.401 -0.460082 -5.62622 0
M  V30 2600 N 249.799 1.42003 -0.683588 0
M  V30 2601 C 251.024 2.06265 -0.216647 0
M  V30 2602 C 251.449 1.51059 1.12083 0
M  V30 2603 O 250.807 0.632638 1.69904 0
M  V30 2604 C 250.855 3.60191 -0.171759 0
M  V30 2605 O 249.959 4.03396 0.857069 0
M  V30 2606 H 249.3 0.65502 -0.108834 0
M  V30 2607 H 251.83 1.81982 -0.935077 0
M  V30 2608 H 251.84 4.08 0.0014303 0
M  V30 2609 H 250.515 3.99743 -1.14796 0
M  V30 2610 H 249.092 3.67117 0.654208 0
M  V30 2611 N 251.277 0.427512 1.51691 0
M  V30 2612 C 252.502 -0.143601 2.06902 0
M  V30 2613 C 252.927 -1.36536 1.29382 0
M  V30 2614 O 252.285 -1.78289 0.329043 0
M  V30 2615 C 252.333 -0.454207 3.57728 0
M  V30 2616 O 251.437 -1.54228 3.82475 0
M  V30 2617 H 250.778 -0.00617128 0.663971 0
M  V30 2618 H 253.308 0.606014 1.95419 0
M  V30 2619 H 253.318 -0.707525 4.01818 0
M  V30 2620 H 251.993 0.438812 4.13579 0
M  V30 2621 H 250.57 -1.2797 3.50254 0
M  V30 2622 N 252.755 -1.56801 0.158532 0
M  V30 2623 C 253.718 -2.16138 -0.762705 0
M  V30 2624 C 254.718 -1.1061 -1.16713 0
M  V30 2625 O 255.908 -1.36191 -1.08617 0
M  V30 2626 C 253.04 -2.73386 -2.03649 0
M  V30 2627 H 254.233 -2.98886 -0.246354 0
M  V30 2628 H 251.786 -1.56035 -0.0909744 0
M  V30 2629 H 252.521 -1.94335 -2.59623 0
M  V30 2630 H 252.306 -3.50601 -1.75559 0
M  V30 2631 H 253.796 -3.19065 -2.6942 0
M  V30 2632 N 254.233 0.115231 -1.57178 0
M  V30 2633 C 255.51 0.852873 -1.76027 0
M  V30 2634 C 255.89 1.97892 -0.73498 0
M  V30 2635 O 255.238 2.27232 0.24036 0
M  V30 2636 C 255.448 1.36608 -3.21153 0
M  V30 2637 C 256.796 1.81692 -3.83762 0
M  V30 2638 O 257.82 1.46278 -3.24779 0
M  V30 2639 O 256.679 2.47104 -4.87444 0
M  V30 2640 H 253.773 0.405296 -0.720877 0
M  V30 2641 H 256.319 0.0986785 -1.69413 0
M  V30 2642 H 255.091 0.558357 -3.87296 0
M  V30 2643 H 254.714 2.18287 -3.3232 0
M  V30 2644 N 255.711 1.52812 0.385517 0
M  V30 2645 C 257.122 1.5993 0.963293 0
M  V30 2646 C 257.473 0.454302 1.90868 0
M  V30 2647 O 256.598 -0.422132 2.12243 0
M  V30 2648 C 257.193 2.89871 1.75387 0
M  V30 2649 C 255.752 2.99389 2.28129 0
M  V30 2650 C 254.899 2.55071 1.08783 0
M  V30 2651 H 257.85 1.5784 0.164948 0
M  V30 2652 H 257.871 2.76553 2.61341 0
M  V30 2653 H 257.383 3.73186 1.06554 0
M  V30 2654 H 255.484 2.20619 3.00263 0
M  V30 2655 H 255.597 4.04096 2.57377 0
M  V30 2656 H 253.961 2.09473 1.4489 0
M  V30 2657 H 254.744 3.40785 0.414807 0
M  V30 2658 N 257.189 -0.644168 1.43834 0
M  V30 2659 C 258.438 -1.39985 1.45214 0
M  V30 2660 C 258.751 -1.95421 0.0835494 0
M  V30 2661 O 259.957 -2.71488 -0.0251748 0
M  V30 2662 C 258.413 -2.53384 2.55587 0
M  V30 2663 C 258.021 -2.04517 3.98594 0
M  V30 2664 C 259.765 -3.30685 2.66172 0
M  V30 2665 C 257.672 -3.1518 5.00416 0
M  V30 2666 H 256.602 -0.526005 0.540218 0
M  V30 2667 H 259.253 -0.694367 1.69855 0
M  V30 2668 H 257.635 -3.26446 2.24163 0
M  V30 2669 H 258.809 -1.38405 4.39523 0
M  V30 2670 H 257.124 -1.40068 3.92135 0
M  V30 2671 H 259.721 -4.13158 3.39418 0
M  V30 2672 H 260.064 -3.79312 1.71546 0
M  V30 2673 H 260.597 -2.64708 2.96942 0
M  V30 2674 H 257.336 -2.71511 5.96625 0
M  V30 2675 H 256.856 -3.79974 4.64091 0
M  V30 2676 H 258.535 -3.80166 5.23529 0
M  V30 2677 N 258.668 -1.30515 -0.883378 0
M  V30 2678 C 260.079 -1.17509 -1.45081 0
M  V30 2679 C 260.43 0.223605 -1.94922 0
M  V30 2680 O 259.555 1.12041 -1.85137 0
M  V30 2681 C 260.15 -2.12715 -2.63701 0
M  V30 2682 C 258.709 -2.03682 -3.16529 0
M  V30 2683 C 257.856 -2.02706 -1.89224 0
M  V30 2684 H 260.807 -1.42762 -0.693165 0
M  V30 2685 H 260.828 -1.70891 -3.39965 0
M  V30 2686 H 260.34 -3.14505 -2.27395 0
M  V30 2687 H 258.441 -1.05039 -3.57488 0
M  V30 2688 H 258.554 -2.92146 -3.7972 0
M  V30 2689 H 256.918 -1.4753 -2.07622 0
M  V30 2690 H 257.701 -3.06229 -1.55174 0
M  V30 2691 N 260.146 1.09593 -1.13257 0
M  V30 2692 C 261.109 2.14359 -0.811358 0
M  V30 2693 C 262.109 1.59808 0.178377 0
M  V30 2694 O 263.299 1.74132 -0.0484911 0
M  V30 2695 C 260.431 3.40269 -0.207276 0
M  V30 2696 H 261.624 2.44284 -1.73969 0
M  V30 2697 H 259.177 1.25102 -0.936973 0
M  V30 2698 H 259.912 3.15969 0.73036 0
M  V30 2699 H 259.697 3.81154 -0.919992 0
M  V30 2700 H 261.187 4.176 0.000667944 0
M  V30 2701 N 261.624 0.925811 1.2754 0
M  V30 2702 C 262.587 0.428129 2.25166 0
M  V30 2703 C 263.587 -0.452261 1.54309 0
M  V30 2704 O 264.777 -0.253608 1.72344 0
M  V30 2705 C 261.909 -0.384749 3.38722 0
M  V30 2706 H 263.102 1.29066 2.70706 0
M  V30 2707 H 260.655 0.706323 1.3943 0
M  V30 2708 H 261.39 -1.26618 2.98561 0
M  V30 2709 H 261.175 0.246454 3.91325 0
M  V30 2710 H 262.665 -0.723389 4.11287 0
M  V30 2711 N 263.102 -1.41638 0.69111 0
M  V30 2712 C 264.049 -2.30789 0.0229705 0
M  V30 2713 C 265.019 -1.46863 -0.775911 0
M  V30 2714 O 266.204 -1.75661 -0.74485 0
M  V30 2715 C 263.344 -3.32868 -0.910666 0
M  V30 2716 C 262.457 -4.31875 -0.103874 0
M  V30 2717 C 261.592 -5.21024 -1.03475 0
M  V30 2718 C 260.631 -6.11702 -0.220598 0
M  V30 2719 N 259.768 -6.93349 -1.10504 0
M  V30 2720 H 264.608 -2.87366 0.788978 0
M  V30 2721 H 262.145 -1.41535 0.400794 0
M  V30 2722 H 264.103 -3.90596 -1.46597 0
M  V30 2723 H 262.733 -2.77851 -1.64312 0
M  V30 2724 H 261.785 -3.76131 0.568285 0
M  V30 2725 H 263.097 -4.96003 0.527504 0
M  V30 2726 H 262.251 -5.83565 -1.65943 0
M  V30 2727 H 260.99 -4.57112 -1.69999 0
M  V30 2728 H 259.995 -5.48215 0.417187 0
M  V30 2729 H 261.22 -6.77668 0.440784 0
M  V30 2730 H 259.166 -6.3205 -1.75638 0
M  V30 2731 H 259.083 -7.54146 -0.529125 0
M  V30 2732 H 260.351 -7.60362 -1.71667 0
M  V30 2733 N 264.58 -0.43555 -1.51462 0
M  V30 2734 C 265.829 0.133007 -2.01261 0
M  V30 2735 C 266.142 1.43942 -1.32439 0
M  V30 2736 O 267.348 2.09081 -1.73198 0
M  V30 2737 C 265.804 0.287581 -3.58749 0
M  V30 2738 C 265.412 -1.00829 -4.36506 0
M  V30 2739 C 267.156 0.810004 -4.167 0
M  V30 2740 C 265.063 -0.819454 -5.85695 0
M  V30 2741 H 263.993 0.0534822 -0.752101 0
M  V30 2742 H 266.644 -0.565038 -1.74584 0
M  V30 2743 H 265.026 1.04859 -3.81865 0
M  V30 2744 H 266.2 -1.77749 -4.25138 0
M  V30 2745 H 264.515 -1.45911 -3.89999 0
M  V30 2746 H 267.112 0.967743 -5.2587 0
M  V30 2747 H 267.455 1.79196 -3.75758 0
M  V30 2748 H 267.988 0.107357 -3.97655 0
M  V30 2749 H 264.727 -1.77374 -6.31046 0
M  V30 2750 H 264.247 -0.0900208 -5.99732 0
M  V30 2751 H 265.926 -0.471949 -6.45276 0
M  V30 2752 N 266.058 1.56714 -0.166846 0
M  V30 2753 C 267.006 2.19056 0.782123 0
M  V30 2754 C 268 1.15328 1.24079 0
M  V30 2755 O 269.206 1.33537 1.20697 0
M  V30 2756 H 265.581 0.70167 0.270486 0
M  V30 2757 H 267.552 2.97494 0.232322 0
M  V30 2758 C 266.301 2.84206 2.00306 0
M  V30 2759 H 265.624 3.63748 1.65914 0
M  V30 2760 H 267.064 3.31302 2.64604 0
M  V30 2761 C 265.523 1.83744 2.82382 0
M  V30 2762 O 266.053 1.32014 3.79388 0
M  V30 2763 N 264.259 1.52601 2.47308 0
M  V30 2764 H 263.806 1.9486 1.68485 0
M  V30 2765 H 263.764 0.856351 3.02513 0
M  V30 2766 N 267.536 -0.106894 1.57237 0
M  V30 2767 C 268.782 -0.808678 1.86633 0
M  V30 2768 C 269.137 -1.76917 0.756178 0
M  V30 2769 O 268.43 -1.90055 -0.242834 0
M  V30 2770 C 268.624 -1.58628 3.20268 0
M  V30 2771 C 268.453 -0.702592 4.44178 0
M  V30 2772 C 267.223 -0.352808 5.04067 0
M  V30 2773 C 269.421 -0.0148031 5.14298 0
M  V30 2774 N 267.403 0.540279 6.11518 0
M  V30 2775 C 268.774 0.736809 6.15606 0
M  V30 2776 C 270.829 0.0603524 4.97863 0
M  V30 2777 C 269.532 1.55654 7.02257 0
M  V30 2778 C 271.558 0.866942 5.85011 0
M  V30 2779 C 270.92 1.60671 6.85831 0
M  V30 2780 H 267.019 -0.27246 0.733001 0
M  V30 2781 H 269.603 -0.0717858 1.94568 0
M  V30 2782 H 267.774 -2.29413 3.13408 0
M  V30 2783 H 269.506 -2.23434 3.3743 0
M  V30 2784 H 266.261 -0.697802 4.68431 0
M  V30 2785 H 266.685 0.979029 6.69884 0
M  V30 2786 H 271.327 -0.497236 4.19866 0
M  V30 2787 H 269.045 2.12524 7.79653 0
M  V30 2788 H 272.631 0.927612 5.74358 0
M  V30 2789 H 271.511 2.2208 7.52097 0
M  V30 2790 N 269.014 -1.53014 -0.377408 0
M  V30 2791 C 270.291 -1.59215 -1.13622 0
M  V30 2792 C 270.671 -0.392407 -2.07421 0
M  V30 2793 O 270.019 0.618342 -2.19975 0
M  V30 2794 C 270.229 -2.93669 -1.88573 0
M  V30 2795 C 271.577 -3.47822 -2.43526 0
M  V30 2796 O 272.601 -2.9562 -1.98715 0
M  V30 2797 O 271.46 -4.39055 -3.25412 0
M  V30 2798 H 268.554 -0.642625 -0.52054 0
M  V30 2799 H 271.1 -1.65353 -0.381625 0
M  V30 2800 H 269.872 -3.7243 -1.20048 0
M  V30 2801 H 269.495 -2.90968 -2.70968 0
M  V30 2802 N 270.492 0.636531 -1.44174 0
M  V30 2803 C 271.908 0.954104 -1.27941 0
M  V30 2804 C 272.108 2.0039 -0.211248 0
M  V30 2805 O 271.164 2.49236 0.404695 0
M  V30 2806 C 272.477 1.4225 -2.64925 0
M  V30 2807 C 274.025 1.53827 -2.72592 0
M  V30 2808 C 274.5 2.04053 -4.10032 0
M  V30 2809 N 275.991 2.11331 -4.12182 0
M  V30 2810 C 276.726 2.51352 -5.15374 0
M  V30 2811 N 276.222 2.90549 -6.2893 0
M  V30 2812 N 278.015 2.51438 -5.02728 0
M  V30 2813 H 270.166 -0.0578386 -2.12321 0
M  V30 2814 H 272.429 0.0367406 -0.947288 0
M  V30 2815 H 272.135 0.725466 -3.44136 0
M  V30 2816 H 272.009 2.39451 -2.9145 0
M  V30 2817 H 274.396 2.22628 -1.93702 0
M  V30 2818 H 274.477 0.550154 -2.49814 0
M  V30 2819 H 274.121 1.35848 -4.89395 0
M  V30 2820 H 274.051 3.03726 -4.30184 0
M  V30 2821 H 276.542 1.83745 -3.30222 0
M  V30 2822 H 276.855 3.19884 -7.03487 0
M  V30 2823 H 275.2 2.88313 -6.32377 0
M  V30 2824 H 278.391 2.20203 -4.13072 0
M  V30 2825 H 278.564 2.82304 -5.83274 0
M  V30 2826 N 271.97 1.30982 0.876444 0
M  V30 2827 C 273.247 1.10942 1.61094 0
M  V30 2828 C 273.627 -0.338223 2.08373 0
M  V30 2829 O 272.975 -1.33122 1.85717 0
M  V30 2830 C 273.185 2.11789 2.77392 0
M  V30 2831 C 274.533 2.43965 3.47514 0
M  V30 2832 O 275.557 2.10166 2.87591 0
M  V30 2833 O 274.416 3.01817 4.55597 0
M  V30 2834 H 271.51 0.42667 0.708436 0
M  V30 2835 H 274.056 1.42438 0.922474 0
M  V30 2836 H 272.828 3.09194 2.39823 0
M  V30 2837 H 272.451 1.81161 3.5393 0
M  V30 2838 N 273.449 -1.08991 1.13837 0
M  V30 2839 C 274.698 -1.80631 0.897509 0
M  V30 2840 C 275.011 -1.86872 -0.57777 0
M  V30 2841 O 276.217 -2.54866 -0.935701 0
M  V30 2842 C 274.673 -3.24517 1.55618 0
M  V30 2843 C 274.281 -3.26529 3.0673 0
M  V30 2844 C 276.025 -4.00882 1.3962 0
M  V30 2845 C 273.932 -4.64965 3.65461 0
M  V30 2846 H 272.862 -0.67691 0.332129 0
M  V30 2847 H 275.513 -1.2246 1.3666 0
M  V30 2848 H 273.895 -3.82778 1.01476 0
M  V30 2849 H 275.069 -2.78008 3.67489 0
M  V30 2850 H 273.384 -2.63656 3.22296 0
M  V30 2851 H 275.981 -5.03167 1.80906 0
M  V30 2852 H 276.324 -4.14896 0.341578 0
M  V30 2853 H 276.857 -3.49075 1.90766 0
M  V30 2854 H 273.596 -4.56153 4.70749 0
M  V30 2855 H 273.116 -5.13792 3.09481 0
M  V30 2856 H 274.795 -5.3394 3.654 0
M  V30 2857 N 274.927 -0.932562 -1.27047 0
M  V30 2858 C 275.837 -0.441219 -2.30414 0
M  V30 2859 C 276.853 0.480525 -1.67233 0
M  V30 2860 O 278.029 0.362151 -1.98117 0
M  V30 2861 C 275.094 0.293651 -3.45454 0
M  V30 2862 C 274.155 -0.663601 -4.2414 0
M  V30 2863 C 273.388 0.0362932 -5.33688 0
M  V30 2864 O 273.611 1.2548 -5.56427 0
M  V30 2865 O 272.545 -0.638015 -5.98509 0
M  V30 2866 H 276.371 -1.29962 -2.74488 0
M  V30 2867 H 273.956 -0.6981 -1.32087 0
M  V30 2868 H 275.838 0.707951 -4.15411 0
M  V30 2869 H 274.513 1.12758 -3.03426 0
M  V30 2870 H 273.42 -1.12768 -3.56699 0
M  V30 2871 H 274.753 -1.46489 -4.69896 0
M  V30 2872 N 276.405 1.4127 -0.698611 0
M  V30 2873 C 277.635 2.05205 -0.239644 0
M  V30 2874 C 278.043 1.52684 1.11733 0
M  V30 2875 O 277.386 0.671222 1.70998 0
M  V30 2876 C 277.448 3.59289 -0.123126 0
M  V30 2877 C 277.112 4.34619 -1.41263 0
M  V30 2878 C 278.109 4.63701 -2.35111 0
M  V30 2879 C 275.794 4.73837 -1.66684 0
M  V30 2880 C 277.788 5.30966 -3.52639 0
M  V30 2881 C 275.475 5.40837 -2.84498 0
M  V30 2882 C 276.473 5.69329 -3.77298 0
M  V30 2883 O 276.161 6.34949 -4.93047 0
M  V30 2884 H 275.893 0.66723 -0.108537 0
M  V30 2885 H 278.447 1.81974 -0.952602 0
M  V30 2886 H 276.677 3.81272 0.645628 0
M  V30 2887 H 278.366 4.04797 0.299056 0
M  V30 2888 H 279.132 4.33882 -2.16729 0
M  V30 2889 H 275.011 4.51039 -0.953135 0
M  V30 2890 H 278.555 5.53121 -4.25091 0
M  V30 2891 H 274.452 5.70075 -3.02795 0
M  V30 2892 H 275.22 6.53445 -4.92902 0
M  V30 2893 N 277.883 0.443576 1.51229 0
M  V30 2894 C 278.816 -0.410089 2.24485 0
M  V30 2895 C 279.794 -1.01949 1.26669 0
M  V30 2896 O 280.978 -1.06075 1.55821 0
M  V30 2897 C 278.105 -1.57211 3.00004 0
M  V30 2898 C 277.151 -1.08279 4.12526 0
M  V30 2899 S 277.984 -0.0197476 5.35496 0
M  V30 2900 C 279.14 -1.18629 6.14555 0
M  V30 2901 H 279.373 0.211832 2.96544 0
M  V30 2902 H 276.906 0.228156 1.52705 0
M  V30 2903 H 278.864 -2.23825 3.44111 0
M  V30 2904 H 277.525 -2.16547 2.27522 0
M  V30 2905 H 276.718 -1.95193 4.64667 0
M  V30 2906 H 276.32 -0.494797 3.70713 0
M  V30 2907 H 278.612 -2.10344 6.4402 0
M  V30 2908 H 279.555 -0.70472 7.04584 0
M  V30 2909 H 279.963 -1.42768 5.46148 0
M  V30 2910 N 279.361 -1.56624 0.175154 0
M  V30 2911 C 280.324 -2.16934 -0.739738 0
M  V30 2912 C 281.324 -1.11842 -1.15533 0
M  V30 2913 O 282.514 -1.37335 -1.07167 0
M  V30 2914 C 279.646 -2.75531 -2.00738 0
M  V30 2915 H 280.839 -2.99131 -0.214639 0
M  V30 2916 H 278.392 -1.56123 -0.0744197 0
M  V30 2917 H 279.127 -1.97078 -2.57548 0
M  V30 2918 H 278.912 -3.52444 -1.71831 0
M  V30 2919 H 280.402 -3.21904 -2.66021 0
M  V30 2920 N 280.839 0.0985539 -1.57292 0
M  V30 2921 C 282.087 0.801092 -1.85545 0
M  V30 2922 C 282.408 1.79438 -0.763353 0
M  V30 2923 O 281.678 1.94763 0.21073 0
M  V30 2924 H 280.258 0.29884 -0.684619 0
M  V30 2925 H 282.92 0.0810064 -1.94732 0
M  V30 2926 H 282.016 1.3338 -2.82163 0
M  V30 2927 N 282.317 1.53212 0.369288 0
M  V30 2928 C 283.566 1.68436 1.10961 0
M  V30 2929 C 283.879 0.440738 1.9057 0
M  V30 2930 O 285.085 0.473446 2.6734 0
M  V30 2931 C 283.541 2.97744 2.0218 0
M  V30 2932 C 283.149 4.29355 1.279 0
M  V30 2933 C 284.893 3.22334 2.76226 0
M  V30 2934 C 282.8 5.49755 2.17999 0
M  V30 2935 H 281.73 0.627568 0.41794 0
M  V30 2936 H 284.381 1.79713 0.370884 0
M  V30 2937 H 282.763 2.8026 2.79768 0
M  V30 2938 H 283.937 4.57458 0.554007 0
M  V30 2939 H 282.252 4.11179 0.657311 0
M  V30 2940 H 284.849 4.09471 3.43857 0
M  V30 2941 H 285.192 2.38238 3.41392 0
M  V30 2942 H 285.725 3.40475 2.05723 0
M  V30 2943 H 282.464 6.36318 1.57417 0
M  V30 2944 H 281.984 5.25937 2.88359 0
M  V30 2945 H 283.663 5.84401 2.77641 0
M  V30 2946 N 283.795 -0.628877 1.44509 0
M  V30 2947 C 284.725 -1.75187 1.54376 0
M  V30 2948 C 285.706 -1.65411 0.396618 0
M  V30 2949 O 286.891 -1.84137 0.617031 0
M  V30 2950 C 284.021 -3.13725 1.48976 0
M  V30 2951 C 282.975 -3.38291 2.62189 0
M  V30 2952 C 282.301 -4.76883 2.41841 0
M  V30 2953 C 283.601 -3.30632 4.04326 0
M  V30 2954 H 285.295 -1.67187 2.48373 0
M  V30 2955 H 282.841 -0.802909 1.19538 0
M  V30 2956 H 284.794 -3.92064 1.54478 0
M  V30 2957 H 283.518 -3.22515 0.514961 0
M  V30 2958 H 282.177 -2.62334 2.56079 0
M  V30 2959 H 281.825 -4.82378 1.42548 0
M  V30 2960 H 281.525 -4.94278 3.17747 0
M  V30 2961 H 283.049 -5.57449 2.49165 0
M  V30 2962 H 284.463 -3.98873 4.11793 0
M  V30 2963 H 282.86 -3.59561 4.80454 0
M  V30 2964 H 283.93 -2.28404 4.27738 0
M  V30 2965 N 285.273 -1.31445 -0.869486 0
M  V30 2966 C 286.183 -1.21097 -2.0093 0
M  V30 2967 C 287.199 -0.127584 -1.73532 0
M  V30 2968 O 288.375 -0.345477 -1.98415 0
M  V30 2969 C 285.44 -0.919378 -3.34288 0
M  V30 2970 C 284.501 -2.08971 -3.75006 0
M  V30 2971 C 283.734 -1.81194 -5.02001 0
M  V30 2972 O 283.957 -0.747296 -5.65484 0
M  V30 2973 O 282.891 -2.66883 -5.39497 0
M  V30 2974 H 286.717 -2.16883 -2.12592 0
M  V30 2975 H 284.302 -1.11189 -0.997868 0
M  V30 2976 H 286.184 -0.772625 -4.14257 0
M  V30 2977 H 284.859 0.00844772 -3.23699 0
M  V30 2978 H 283.766 -2.29187 -2.95676 0
M  V30 2979 H 285.099 -2.9998 -3.90221 0
M  V30 2980 N 286.751 1.08385 -1.14413 0
M  V30 2981 C 287.699 2.17406 -0.826888 0
M  V30 2982 C 288.693 1.6827 0.195312 0
M  V30 2983 O 289.899 1.79927 0.0513892 0
M  V30 2984 H 286.274 0.70934 -0.249681 0
M  V30 2985 H 288.245 2.41388 -1.75426 0
M  V30 2986 C 286.994 3.46215 -0.320979 0
M  V30 2987 H 286.317 3.84401 -1.0989 0
M  V30 2988 H 287.757 4.23777 -0.137549 0
M  V30 2989 C 286.216 3.23067 0.955472 0
M  V30 2990 O 286.746 3.4668 2.02918 0
M  V30 2991 N 284.952 2.7661 0.890798 0
M  V30 2992 H 284.499 2.57594 0.0168815 0
M  V30 2993 H 284.457 2.61501 1.74542 0
M  V30 2994 N 288.23 0.939286 1.26551 0
M  V30 2995 C 289.641 0.628782 1.75793 0
M  V30 2996 C 289.992 -0.856046 1.7654 0
M  V30 2997 O 289.117 -1.66994 1.3763 0
M  V30 2998 C 289.712 1.13465 3.19235 0
M  V30 2999 C 288.271 0.874601 3.66098 0
M  V30 3000 C 287.418 1.28667 2.45642 0
M  V30 3001 H 290.369 1.1178 1.12654 0
M  V30 3002 H 290.39 0.487609 3.77363 0
M  V30 3003 H 289.902 2.21535 3.1866 0
M  V30 3004 H 288.003 -0.191793 3.72106 0
M  V30 3005 H 288.116 1.50028 4.55004 0
M  V30 3006 H 286.48 0.705109 2.44745 0
M  V30 3007 H 287.263 2.37625 2.47769 0
M  V30 3008 N 289.708 -1.40897 0.706093 0
M  V30 3009 C 290.656 -2.32572 0.0361893 0
M  V30 3010 C 291.65 -1.51532 -0.757266 0
M  V30 3011 O 292.856 -1.67396 -0.661703 0
M  V30 3012 H 289.231 -0.751966 -0.00709935 0
M  V30 3013 H 291.202 -2.86733 0.826249 0
M  V30 3014 C 289.951 -3.36418 -0.87854 0
M  V30 3015 H 289.274 -3.98836 -0.277401 0
M  V30 3016 H 290.714 -4.0308 -1.3154 0
M  V30 3017 C 289.173 -2.71141 -1.99961 0
M  V30 3018 O 289.703 -2.56735 -3.0895 0
M  V30 3019 N 287.909 -2.29671 -1.78043 0
M  V30 3020 H 287.456 -2.41588 -0.894042 0
M  V30 3021 H 287.414 -1.86332 -2.53235 0
M  V30 3022 N 291.186 -0.45159 -1.50991 0
M  V30 3023 C 292.435 0.111653 -2.01391 0
M  V30 3024 C 292.748 1.42529 -1.33959 0
M  V30 3025 O 293.954 2.07232 -1.75405 0
M  V30 3026 C 292.41 0.249514 -3.59034 0
M  V30 3027 C 292.018 -1.05453 -4.35412 0
M  V30 3028 C 293.762 0.765762 -4.17536 0
M  V30 3029 C 291.669 -0.881529 -5.84793 0
M  V30 3030 H 290.599 0.0455022 -0.752626 0
M  V30 3031 H 293.25 -0.583524 -1.73975 0
M  V30 3032 H 291.632 1.00803 -3.82955 0
M  V30 3033 H 292.806 -1.82248 -4.23229 0
M  V30 3034 H 291.121 -1.50039 -3.88429 0
M  V30 3035 H 293.718 0.911913 -5.26866 0
M  V30 3036 H 294.061 1.75201 -3.77638 0
M  V30 3037 H 294.594 0.0651744 -3.97747 0
M  V30 3038 H 291.333 -1.84057 -6.29129 0
M  V30 3039 H 290.853 -0.153625 -5.99603 0
M  V30 3040 H 292.532 -0.540363 -6.4474 0
M  V30 3041 N 292.664 1.56529 -0.183458 0
M  V30 3042 C 293.892 2.01623 0.464285 0
M  V30 3043 C 294.307 1.06366 1.55986 0
M  V30 3044 O 293.664 0.0665398 1.82379 0
M  V30 3045 C 293.715 3.46475 1.03139 0
M  V30 3046 O 293.436 4.38095 -0.0204675 0
M  V30 3047 C 294.937 4.0703 1.75617 0
M  V30 3048 H 292.157 0.660596 0.117704 0
M  V30 3049 H 294.701 2.02451 -0.288751 0
M  V30 3050 H 292.856 3.46383 1.73486 0
M  V30 3051 H 293.27 5.22973 0.399952 0
M  V30 3052 H 294.744 5.10271 2.10542 0
M  V30 3053 H 295.221 3.49819 2.65563 0
M  V30 3054 H 295.827 4.1086 1.09882 0
M  V30 3055 N 294.142 -0.090211 1.57342 0
M  V30 3056 C 295.37 -0.806224 1.90546 0
M  V30 3057 C 295.785 -1.72041 0.777644 0
M  V30 3058 O 295.142 -1.80778 -0.250103 0
M  V30 3059 C 295.193 -1.61546 3.23396 0
M  V30 3060 O 294.914 -0.738043 4.31839 0
M  V30 3061 C 296.415 -2.4341 3.70495 0
M  V30 3062 H 293.635 -0.230256 0.630257 0
M  V30 3063 H 296.179 -0.0659843 2.04394 0
M  V30 3064 H 294.334 -2.30816 3.11131 0
M  V30 3065 H 294.748 -1.29901 5.08159 0
M  V30 3066 H 296.222 -2.95676 4.66133 0
M  V30 3067 H 296.699 -3.22098 2.98579 0
M  V30 3068 H 297.305 -1.79331 3.85643 0
M  V30 3069 N 295.62 -1.53406 -0.361157 0
M  V30 3070 C 296.868 -1.69467 -1.10115 0
M  V30 3071 C 297.189 -0.451352 -1.89705 0
M  V30 3072 O 296.459 0.534636 -1.88463 0
M  V30 3073 H 295.039 -0.624749 -0.409508 0
M  V30 3074 H 297.701 -1.90609 -0.406699 0
M  V30 3075 H 296.797 -2.55774 -1.78847 0
M  V30 3076 N 297.098 0.621204 -1.44841 0
M  V30 3077 C 298.028 1.74366 -1.55303 0
M  V30 3078 C 299.009 1.65199 -0.405385 0
M  V30 3079 O 300.194 1.83807 -0.626787 0
M  V30 3080 C 297.324 3.12931 -1.50637 0
M  V30 3081 C 296.278 3.36896 -2.63979 0
M  V30 3082 C 295.604 4.75594 -2.44366 0
M  V30 3083 C 296.904 3.28483 -4.06074 0
M  V30 3084 H 298.598 1.65867 -2.49256 0
M  V30 3085 H 296.144 0.796558 -1.19962 0
M  V30 3086 H 298.097 3.9124 -1.56555 0
M  V30 3087 H 296.821 3.22237 -0.532057 0
M  V30 3088 H 295.48 2.60972 -2.57467 0
M  V30 3089 H 295.128 4.81616 -1.45105 0
M  V30 3090 H 294.828 4.92586 -3.20364 0
M  V30 3091 H 296.352 5.5612 -2.52117 0
M  V30 3092 H 297.766 3.96684 -4.13902 0
M  V30 3093 H 296.163 3.57008 -4.82354 0
M  V30 3094 H 297.233 2.26133 -4.28943 0
M  V30 3095 N 298.576 1.31904 0.862503 0
M  V30 3096 C 299.509 1.14514 1.97388 0
M  V30 3097 C 300.487 0.0466493 1.62533 0
M  V30 3098 O 301.671 0.204484 1.87388 0
M  V30 3099 C 298.798 0.751347 3.30261 0
M  V30 3100 C 297.844 1.85395 3.84098 0
M  V30 3101 S 298.677 3.46081 4.08642 0
M  V30 3102 C 299.833 3.08655 5.44502 0
M  V30 3103 H 300.066 2.08597 2.11836 0
M  V30 3104 H 297.599 1.16475 1.01356 0
M  V30 3105 H 299.557 0.530901 4.07052 0
M  V30 3106 H 298.218 -0.170493 3.13637 0
M  V30 3107 H 297.411 1.53122 4.80177 0
M  V30 3108 H 297.013 2.02984 3.14123 0
M  V30 3109 H 299.305 2.58012 6.26447 0
M  V30 3110 H 300.248 4.03726 5.81731 0
M  V30 3111 H 300.656 2.45891 5.08132 0
M  V30 3112 N 300.054 -1.07777 1.14986 0
M  V30 3113 C 301.302 -1.79934 0.920235 0
M  V30 3114 C 301.623 -1.86955 -0.554336 0
M  V30 3115 O 300.893 -1.36731 -1.40291 0
M  V30 3116 H 299.473 -0.666424 0.337473 0
M  V30 3117 H 302.135 -1.3027 1.44968 0
M  V30 3118 H 301.231 -2.82539 1.32583 0
M  V30 3119 N 301.532 -0.945985 -1.26051 0
M  V30 3120 C 302.442 -0.465633 -2.29933 0
M  V30 3121 C 303.458 0.462761 -1.67733 0
M  V30 3122 O 304.634 0.341118 -1.9849 0
M  V30 3123 C 301.699 0.256994 -3.45746 0
M  V30 3124 C 300.76 -0.708549 -4.23412 0
M  V30 3125 C 299.993 -0.0203135 -5.33696 0
M  V30 3126 O 300.216 1.19571 -5.57726 0
M  V30 3127 O 299.15 -0.701459 -5.97799 0
M  V30 3128 H 302.976 -1.32866 -2.73094 0
M  V30 3129 H 300.561 -0.712071 -1.31339 0
M  V30 3130 H 302.443 0.663852 -4.16138 0
M  V30 3131 H 301.118 1.09533 -3.04605 0
M  V30 3132 H 300.025 -1.16545 -3.55483 0
M  V30 3133 H 301.358 -1.51465 -4.68315 0
M  V30 3134 N 303.011 1.40521 -0.713556 0
M  V30 3135 C 303.941 2.33381 -0.0743864 0
M  V30 3136 C 304.922 1.52784 0.747735 0
M  V30 3137 O 306.107 1.81258 0.697071 0
M  V30 3138 C 303.237 3.36748 0.849598 0
M  V30 3139 C 302.191 4.27793 0.133247 0
M  V30 3140 C 301.517 5.21679 1.17281 0
M  V30 3141 C 302.817 5.12415 -1.01134 0
M  V30 3142 H 304.511 2.87081 -0.850007 0
M  V30 3143 H 302.057 1.38034 -0.410201 0
M  V30 3144 H 304.01 4.00648 1.30612 0
M  V30 3145 H 302.734 2.81439 1.65709 0
M  V30 3146 H 301.393 3.65342 -0.303426 0
M  V30 3147 H 301.041 4.62677 1.9733 0
M  V30 3148 H 300.741 5.83435 0.698397 0
M  V30 3149 H 302.265 5.88456 1.62947 0
M  V30 3150 H 303.679 5.69781 -0.634274 0
M  V30 3151 H 302.076 5.83203 -1.41399 0
M  V30 3152 H 303.146 4.48514 -1.84292 0
M  V30 3153 N 304.489 0.459591 1.5075 0
M  V30 3154 C 305.714 -0.0996819 2.0716 0
M  V30 3155 C 306.139 -1.33761 1.32249 0
M  V30 3156 O 305.497 -1.77551 0.366786 0
M  V30 3157 C 305.545 -0.378226 3.58611 0
M  V30 3158 O 304.649 -1.46081 3.85661 0
M  V30 3159 H 303.99 0.00791392 0.663953 0
M  V30 3160 H 306.52 0.647329 1.9409 0
M  V30 3161 H 306.53 -0.622135 4.03229 0
M  V30 3162 H 305.205 0.526439 4.12555 0
M  V30 3163 H 303.782 -1.20511 3.5289 0
M  V30 3164 N 305.967 -1.56429 0.191757 0
M  V30 3165 C 307.383 -1.58754 -0.164137 0
M  V30 3166 C 307.583 -1.20782 -1.61288 0
M  V30 3167 O 306.639 -0.928999 -2.34789 0
M  V30 3168 C 307.952 -3.00396 0.135195 0
M  V30 3169 C 309.5 -3.1291 0.0750351 0
M  V30 3170 C 309.975 -4.56679 0.347632 0
M  V30 3171 N 311.466 -4.62252 0.296131 0
M  V30 3172 C 312.201 -5.71379 0.480948 0
M  V30 3173 N 311.697 -6.88986 0.725933 0
M  V30 3174 N 313.49 -5.60563 0.415435 0
M  V30 3175 H 305.641 -1.79393 1.13718 0
M  V30 3176 H 307.904 -0.832414 0.453643 0
M  V30 3177 H 307.61 -3.32726 1.13958 0
M  V30 3178 H 307.484 -3.72963 -0.563773 0
M  V30 3179 H 309.871 -2.80394 -0.919948 0
M  V30 3180 H 309.952 -2.42736 0.807029 0
M  V30 3181 H 309.596 -4.89907 1.33992 0
M  V30 3182 H 309.526 -5.25039 -0.405212 0
M  V30 3183 H 312.017 -3.7773 0.113259 0
M  V30 3184 H 312.33 -7.68046 0.855857 0
M  V30 3185 H 310.675 -6.90801 0.762788 0
M  V30 3186 H 313.866 -4.67561 0.224486 0
M  V30 3187 H 314.039 -6.45551 0.562889 0
M  V30 3188 N 307.445 0.0818655 -1.57387 0
M  V30 3189 C 308.375 1.09885 -2.06028 0
M  V30 3190 C 309.356 1.4098 -0.951774 0
M  V30 3191 O 310.541 1.50781 -1.22387 0
M  V30 3192 C 307.671 2.4151 -2.4958 0
M  V30 3193 C 306.625 2.24792 -3.64215 0
M  V30 3194 C 305.951 3.61712 -3.93787 0
M  V30 3195 C 307.251 1.67749 -4.94629 0
M  V30 3196 H 308.945 0.694128 -2.91243 0
M  V30 3197 H 306.491 0.332448 -1.4011 0
M  V30 3198 H 308.444 3.12939 -2.82219 0
M  V30 3199 H 307.168 2.83943 -1.61381 0
M  V30 3200 H 305.827 1.55807 -3.31843 0
M  V30 3201 H 305.475 4.01697 -3.02735 0
M  V30 3202 H 305.175 3.51368 -4.70971 0
M  V30 3203 H 306.699 4.34587 -4.28913 0
M  V30 3204 H 308.113 2.29032 -5.25564 0
M  V30 3205 H 306.51 1.68128 -5.76067 0
M  V30 3206 H 307.58 0.638059 -4.80684 0
M  V30 3207 N 308.923 1.53595 0.353017 0
M  V30 3208 C 310.339 1.43648 0.695516 0
M  V30 3209 C 310.539 0.585617 1.92802 0
M  V30 3210 O 309.595 0.0729223 2.52395 0
M  V30 3211 C 310.908 2.8701 0.896991 0
M  V30 3212 C 312.456 2.96723 0.996209 0
M  V30 3213 C 312.931 4.41173 1.23007 0
M  V30 3214 N 314.422 4.44657 1.29749 0
M  V30 3215 C 315.157 5.53547 1.49577 0
M  V30 3216 N 314.653 6.72461 1.66639 0
M  V30 3217 N 316.446 5.41145 1.52048 0
M  V30 3218 H 308.597 2.07415 -0.457481 0
M  V30 3219 H 310.86 0.9372 -0.142687 0
M  V30 3220 H 310.566 3.51644 0.0629938 0
M  V30 3221 H 310.44 3.31401 1.80148 0
M  V30 3222 H 312.827 2.32235 1.82074 0
M  V30 3223 H 312.908 2.55707 0.0688331 0
M  V30 3224 H 312.552 5.06238 0.410505 0
M  V30 3225 H 312.482 4.79772 2.17086 0
M  V30 3226 H 314.973 3.58963 1.18126 0
M  V30 3227 H 315.286 7.51214 1.81378 0
M  V30 3228 H 313.631 6.75423 1.63794 0
M  V30 3229 H 316.822 4.47205 1.38294 0
M  V30 3230 H 316.995 6.26068 1.67159 0
M  V30 3231 N 310.401 -0.613514 1.45168 0
M  V30 3232 C 311.348 -1.72456 1.53387 0
M  V30 3233 C 312.318 -1.6169 0.380191 0
M  V30 3234 O 313.503 -1.81356 0.592836 0
M  V30 3235 C 310.643 -3.10753 1.50088 0
M  V30 3236 C 309.756 -3.32368 2.75963 0
M  V30 3237 C 308.891 -4.60737 2.64376 0
M  V30 3238 C 307.93 -4.7559 3.85332 0
M  V30 3239 N 307.067 -5.95253 3.72315 0
M  V30 3240 H 311.907 -1.64768 2.48305 0
M  V30 3241 H 309.444 -0.803503 1.23216 0
M  V30 3242 H 311.402 -3.90758 1.46164 0
M  V30 3243 H 310.032 -3.17413 0.587243 0
M  V30 3244 H 309.084 -2.4618 2.89999 0
M  V30 3245 H 310.396 -3.39218 3.65695 0
M  V30 3246 H 309.55 -5.48928 2.58385 0
M  V30 3247 H 308.289 -4.56275 1.72233 0
M  V30 3248 H 307.294 -3.85824 3.91688 0
M  V30 3249 H 308.519 -4.81854 4.78533 0
M  V30 3250 H 306.465 -5.91847 2.82937 0
M  V30 3251 H 306.382 -6.03236 4.55677 0
M  V30 3252 H 307.65 -6.85958 3.70246 0
M  V30 3253 N 311.879 -1.3236 -0.855495 0
M  V30 3254 C 313.156 -1.13491 -1.59309 0
M  V30 3255 C 313.536 0.30503 -2.08885 0
M  V30 3256 O 312.884 1.30151 -1.87811 0
M  V30 3257 C 313.094 -2.16176 -2.73987 0
M  V30 3258 C 314.442 -2.49463 -3.43589 0
M  V30 3259 O 315.466 -2.14715 -2.84211 0
M  V30 3260 O 314.325 -3.09027 -4.50738 0
M  V30 3261 H 311.419 -0.437887 -0.701559 0
M  V30 3262 H 313.965 -1.43887 -0.899696 0
M  V30 3263 H 312.737 -3.1297 -2.34873 0
M  V30 3264 H 312.36 -1.86769 -3.51003 0
M  V30 3265 N 313.357 1.07166 -1.15556 0
M  V30 3266 C 314.768 1.6127 -0.940693 0
M  V30 3267 C 315.119 1.89251 0.517551 0
M  V30 3268 O 314.244 1.65937 1.38903 0
M  V30 3269 C 314.839 2.92993 -1.7012 0
M  V30 3270 C 313.398 3.43832 -1.53156 0
M  V30 3271 C 312.545 2.1786 -1.71558 0
M  V30 3272 H 315.496 0.90229 -1.30554 0
M  V30 3273 H 315.517 3.62007 -1.17181 0
M  V30 3274 H 315.029 2.72596 -2.76248 0
M  V30 3275 H 313.13 3.69307 -0.494294 0
M  V30 3276 H 313.243 4.19747 -2.30975 0
M  V30 3277 H 311.607 2.2765 -1.14225 0
M  V30 3278 H 312.39 1.99956 -2.79056 0
M  V30 3279 N 314.835 0.952656 1.25548 0
M  V30 3280 C 315.798 0.475794 2.24207 0
M  V30 3281 C 316.798 -0.419428 1.55234 0
M  V30 3282 O 317.988 -0.216994 1.72843 0
M  V30 3283 C 315.12 -0.312814 3.39462 0
M  V30 3284 H 316.313 1.34779 2.67908 0
M  V30 3285 H 313.866 0.735739 1.37901 0
M  V30 3286 H 314.601 -1.20257 3.01179 0
M  V30 3287 H 314.386 0.329404 3.90714 0
M  V30 3288 H 315.876 -0.635986 4.12729 0
M  V30 3289 N 316.313 -1.40141 0.720998 0
M  V30 3290 C 317.543 -2.04798 0.27226 0
M  V30 3291 C 317.951 -1.54442 -1.09289 0
M  V30 3292 O 317.294 -0.698342 -1.69908 0
M  V30 3293 C 317.356 -3.59048 0.18027 0
M  V30 3294 C 317.02 -4.32317 1.48159 0
M  V30 3295 C 318.017 -4.59902 2.42458 0
M  V30 3296 C 315.702 -4.71125 1.74202 0
M  V30 3297 C 317.696 -5.25288 3.61042 0
M  V30 3298 C 315.383 -5.36242 2.93066 0
M  V30 3299 C 316.381 -5.63254 3.86308 0
M  V30 3300 O 316.069 -6.27024 5.03086 0
M  V30 3301 H 315.801 -0.665419 0.119139 0
M  V30 3302 H 318.355 -1.80436 0.981432 0
M  V30 3303 H 316.585 -3.82251 -0.58489 0
M  V30 3304 H 318.274 -4.05221 -0.234618 0
M  V30 3305 H 319.04 -4.30379 2.23604 0
M  V30 3306 H 314.919 -4.49466 1.02477 0
M  V30 3307 H 318.463 -5.46289 4.33837 0
M  V30 3308 H 314.36 -5.65185 3.11826 0
M  V30 3309 H 315.128 -6.4552 5.03235 0
M  V30 3310 N 317.792 -0.46758 -1.50504 0
M  V30 3311 C 319.017 0.0886943 -2.0721 0
M  V30 3312 C 319.442 1.33057 -1.32956 0
M  V30 3313 O 318.8 1.77354 -0.376197 0
M  V30 3314 C 318.848 0.359202 -3.58806 0
M  V30 3315 O 317.952 1.44034 -3.8643 0
M  V30 3316 H 317.293 -0.0114349 -0.663902 0
M  V30 3317 H 319.823 -0.657613 -1.93744 0
M  V30 3318 H 319.833 0.600742 -4.03553 0
M  V30 3319 H 318.508 -0.548311 -4.1227 0
M  V30 3320 H 317.085 1.18638 -3.53524 0
M  V30 3321 N 319.27 1.56325 -0.20005 0
M  V30 3322 C 320.22 2.15939 0.731743 0
M  V30 3323 C 321.204 1.10154 1.17281 0
M  V30 3324 O 322.396 1.36203 1.13038 0
M  V30 3325 C 319.525 2.82614 1.94895 0
M  V30 3326 C 318.611 3.95596 1.52855 0
M  V30 3327 N 319.002 4.99118 0.819418 0
M  V30 3328 C 317.3 4.07288 1.81748 0
M  V30 3329 C 318.001 5.78513 0.608053 0
M  V30 3330 N 316.977 5.31117 1.15828 0
M  V30 3331 H 320.779 2.9334 0.181285 0
M  V30 3332 H 318.293 1.624 -0.000452172 0
M  V30 3333 H 320.29 3.23718 2.62702 0
M  V30 3334 H 318.95 2.06702 2.50408 0
M  V30 3335 H 319.961 5.15723 0.47436 0
M  V30 3336 H 316.638 3.42509 2.38734 0
M  V30 3337 H 318.028 6.71885 0.0451619 0
M  V30 3338 N 320.748 -0.0735177 1.57428 0
M  V30 3339 C 321.994 -0.774145 1.87443 0
M  V30 3340 C 322.327 -1.77311 0.792103 0
M  V30 3341 O 321.602 -1.93492 -0.197793 0
M  V30 3342 C 321.885 -1.48367 3.28115 0
M  V30 3343 C 321.738 -0.501227 4.46999 0
M  V30 3344 C 323.057 -2.429 3.66998 0
M  V30 3345 H 320.176 -0.279971 0.681752 0
M  V30 3346 H 322.818 -0.0373616 1.89963 0
M  V30 3347 H 320.968 -2.11171 3.26097 0
M  V30 3348 H 322.64 0.121468 4.6114 0
M  V30 3349 H 320.883 0.183593 4.33411 0
M  V30 3350 H 321.554 -1.03526 5.42205 0
M  V30 3351 H 324.03 -1.90175 3.70098 0
M  V30 3352 H 322.906 -2.89549 4.66318 0
M  V30 3353 H 323.167 -3.27628 2.96837 0
M  V30 3354 N 322.226 -1.5378 -0.344866 0
M  V30 3355 C 323.451 -1.75211 -1.10977 0
M  V30 3356 C 323.876 -0.48936 -1.81623 0
M  V30 3357 O 323.234 0.557925 -1.72502 0
M  V30 3358 C 323.282 -2.93147 -2.09993 0
M  V30 3359 O 322.386 -2.63203 -3.17487 0
M  V30 3360 H 321.727 -0.581241 -0.321021 0
M  V30 3361 H 324.257 -2.00738 -0.395661 0
M  V30 3362 H 324.267 -3.19898 -2.53237 0
M  V30 3363 H 322.942 -3.84731 -1.5797 0
M  V30 3364 H 321.519 -2.47336 -2.79069 0
M  V30 3365 N 323.704 0.605807 -1.45491 0
M  V30 3366 C 324.981 1.36522 -1.40075 0
M  V30 3367 C 325.361 2.10976 -0.0722744 0
M  V30 3368 O 324.709 2.08007 0.945808 0
M  V30 3369 C 324.919 2.31056 -2.61561 0
M  V30 3370 C 326.267 2.93608 -3.06724 0
M  V30 3371 O 327.291 2.41376 -2.61946 0
M  V30 3372 O 326.15 3.88421 -3.84437 0
M  V30 3373 H 323.244 0.612248 -0.555951 0
M  V30 3374 H 325.79 0.628747 -1.57623 0
M  V30 3375 H 324.562 1.75311 -3.49831 0
M  V30 3376 H 324.185 3.12081 -2.46356 0
M  V30 3377 N 325.182 1.32811 0.848464 0
M  V30 3378 C 326.092 1.24278 1.98978 0
M  V30 3379 C 327.108 0.155176 1.73307 0
M  V30 3380 O 328.284 0.376999 1.9784 0
M  V30 3381 C 325.349 0.972444 3.32783 0
M  V30 3382 C 324.41 2.14911 3.71634 0
M  V30 3383 C 323.643 1.89157 4.99054 0
M  V30 3384 O 323.866 0.837165 5.64223 0
M  V30 3385 O 322.8 2.75433 5.35183 0
M  V30 3386 H 326.626 2.20238 2.09115 0
M  V30 3387 H 324.211 1.12762 0.980052 0
M  V30 3388 H 326.093 0.838432 4.12975 0
M  V30 3389 H 324.768 0.043051 3.23671 0
M  V30 3390 H 323.675 2.33862 2.91992 0
M  V30 3391 H 325.008 3.06151 3.85399 0
M  V30 3392 N 326.66 -1.06551 1.16123 0
M  V30 3393 C 327.59 -2.15935 0.88851 0
M  V30 3394 C 328.571 -1.69306 -0.164135 0
M  V30 3395 O 329.756 -1.94193 -0.0167857 0
M  V30 3396 C 326.886 -3.45149 0.385942 0
M  V30 3397 C 325.84 -4.05271 1.3762 0
M  V30 3398 C 325.166 -5.29664 0.732137 0
M  V30 3399 C 326.466 -4.44355 2.74493 0
M  V30 3400 H 328.16 -2.39006 1.80323 0
M  V30 3401 H 325.706 -1.14866 0.868435 0
M  V30 3402 H 327.659 -4.21004 0.182647 0
M  V30 3403 H 326.383 -3.21689 -0.564274 0
M  V30 3404 H 325.042 -3.3147 1.56599 0
M  V30 3405 H 324.69 -5.02499 -0.224483 0
M  V30 3406 H 324.39 -5.70848 1.39307 0
M  V30 3407 H 325.914 -6.08218 0.538802 0
M  V30 3408 H 327.328 -5.11303 2.59311 0
M  V30 3409 H 325.725 -4.96515 3.37035 0
M  V30 3410 H 326.795 -3.55339 3.29943 0
M  V30 3411 N 328.138 -0.959301 -1.25041 0
M  V30 3412 C 329.385 -0.616611 -1.92884 0
M  V30 3413 C 329.713 0.847036 -1.75087 0
M  V30 3414 O 328.968 1.62374 -1.09239 0
M  V30 3415 C 329.267 -0.927136 -3.45165 0
M  V30 3416 C 328.933 -2.37757 -3.83122 0
M  V30 3417 C 327.595 -2.77402 -3.93194 0
M  V30 3418 C 329.947 -3.31929 -4.01836 0
M  V30 3419 C 327.275 -4.10277 -4.19392 0
M  V30 3420 C 329.627 -4.64423 -4.29528 0
M  V30 3421 C 328.291 -5.03857 -4.37818 0
M  V30 3422 H 327.561 -0.225634 -0.705812 0
M  V30 3423 H 330.208 -1.20921 -1.48493 0
M  V30 3424 H 328.513 -0.252195 -3.90987 0
M  V30 3425 H 330.21 -0.6405 -3.95852 0
M  V30 3426 H 326.8 -2.06013 -3.75841 0
M  V30 3427 H 330.984 -3.02488 -3.93465 0
M  V30 3428 H 326.24 -4.40467 -4.24027 0
M  V30 3429 H 330.414 -5.37369 -4.42953 0
M  V30 3430 H 328.041 -6.06843 -4.57871 0
M  V30 3431 N 329.616 1.39756 -0.72842 0
M  V30 3432 C 330.579 2.29012 -0.0927297 0
M  V30 3433 C 331.579 1.45992 0.674025 0
M  V30 3434 O 332.769 1.66749 0.50402 0
M  V30 3435 C 329.901 3.29396 0.878137 0
M  V30 3436 H 331.094 2.86729 -0.879011 0
M  V30 3437 H 328.647 1.48293 -0.493847 0
M  V30 3438 H 329.382 2.76722 1.69101 0
M  V30 3439 H 329.167 3.907 0.331051 0
M  V30 3440 H 330.657 3.96199 1.3197 0
M  V30 3441 N 331.094 0.475555 1.50254 0
M  V30 3442 C 332.322 -0.0754493 2.06762 0
M  V30 3443 C 332.737 -1.33111 1.33891 0
M  V30 3444 O 332.094 -1.77846 0.40952 0
M  V30 3445 C 332.145 -0.359008 3.59713 0
M  V30 3446 O 331.866 0.846851 4.29837 0
M  V30 3447 C 333.367 -0.956484 4.32858 0
M  V30 3448 H 330.587 0.00907525 0.670939 0
M  V30 3449 H 333.131 0.665618 1.93364 0
M  V30 3450 H 331.286 -1.05001 3.72899 0
M  V30 3451 H 331.7 0.594162 5.21124 0
M  V30 3452 H 333.174 -1.10463 5.40834 0
M  V30 3453 H 333.651 -1.94775 3.93649 0
M  V30 3454 H 334.257 -0.303723 4.24214 0
M  V30 3455 N 332.573 -1.56217 0.208337 0
M  V30 3456 C 333.822 -1.97124 -0.427204 0
M  V30 3457 C 334.135 -1.09859 -1.61835 0
M  V30 3458 O 335.341 -1.40606 -2.32255 0
M  V30 3459 C 333.797 -3.50633 -0.811442 0
M  V30 3460 C 333.405 -4.46582 0.35615 0
M  V30 3461 C 335.149 -4.00282 -1.41332 0
M  V30 3462 C 333.056 -5.91379 -0.0497852 0
M  V30 3463 H 331.986 -0.736086 -0.163381 0
M  V30 3464 H 334.637 -1.8099 0.302456 0
M  V30 3465 H 333.019 -3.62319 -1.59815 0
M  V30 3466 H 334.193 -4.46636 1.1337 0
M  V30 3467 H 332.508 -4.07202 0.870396 0
M  V30 3468 H 335.105 -5.0595 -1.72972 0
M  V30 3469 H 335.448 -3.45359 -2.32449 0
M  V30 3470 H 335.981 -3.91764 -0.690323 0
M  V30 3471 H 332.72 -6.50255 0.827529 0
M  V30 3472 H 332.24 -5.94549 -0.791926 0
M  V30 3473 H 333.919 -6.45209 -0.481042 0
M  V30 3474 N 334.051 0.0651679 -1.57465 0
M  V30 3475 C 335.299 0.761555 -1.87202 0
M  V30 3476 C 335.62 1.77778 -0.801243 0
M  V30 3477 O 334.89 1.95166 0.16937 0
M  V30 3478 H 333.47 0.284251 -0.690804 0
M  V30 3479 H 336.132 0.0396827 -1.9486 0
M  V30 3480 H 335.228 1.27365 -2.84929 0
M  V30 3481 N 335.529 1.53961 0.336706 0
M  V30 3482 C 336.775 1.7179 1.07777 0
M  V30 3483 C 337.108 0.483263 1.88091 0
M  V30 3484 O 336.383 -0.519747 1.87427 0
M  V30 3485 C 336.666 2.98558 2.01334 0
M  V30 3486 C 336.519 4.32245 1.24437 0
M  V30 3487 C 337.838 3.21023 3.01052 0
M  V30 3488 H 334.957 0.625089 0.390426 0
M  V30 3489 H 337.599 1.86641 0.35567 0
M  V30 3490 H 335.749 2.86028 2.62908 0
M  V30 3491 H 337.421 4.56637 0.654243 0
M  V30 3492 H 335.664 4.30344 0.546458 0
M  V30 3493 H 336.335 5.17137 1.93063 0
M  V30 3494 H 338.811 3.32929 2.49595 0
M  V30 3495 H 337.687 4.11104 3.6371 0
M  V30 3496 H 337.948 2.37637 3.72802 0
M  V30 3497 N 337.007 -0.598083 1.45811 0
M  V30 3498 C 338.235 -1.38322 1.53866 0
M  V30 3499 C 338.65 -1.87992 0.174479 0
M  V30 3500 O 338.007 -1.62756 -0.825627 0
M  V30 3501 C 338.058 -2.58125 2.53089 0
M  V30 3502 O 337.779 -2.10516 3.84206 0
M  V30 3503 C 339.28 -3.50869 2.70935 0
M  V30 3504 H 336.5 -0.423093 0.520801 0
M  V30 3505 H 339.044 -0.728527 1.91083 0
M  V30 3506 H 337.199 -3.19615 2.18917 0
M  V30 3507 H 337.613 -2.88425 4.38077 0
M  V30 3508 H 339.087 -4.31451 3.44317 0
M  V30 3509 H 339.564 -4.01822 1.77301 0
M  V30 3510 H 340.17 -2.95225 3.06141 0
M  V30 3511 N 338.485 -1.33259 -0.841409 0
M  V30 3512 C 339.732 -1.24572 -1.5965 0
M  V30 3513 C 340.06 0.189137 -1.93578 0
M  V30 3514 O 339.315 1.14566 -1.5866 0
M  V30 3515 C 339.614 -2.06381 -2.9179 0
M  V30 3516 C 339.28 -3.556 -2.77235 0
M  V30 3517 C 337.942 -3.96282 -2.72973 0
M  V30 3518 C 340.294 -4.50433 -2.62221 0
M  V30 3519 C 337.622 -5.30017 -2.51592 0
M  V30 3520 C 339.974 -5.84327 -2.42374 0
M  V30 3521 C 338.638 -6.24194 -2.36512 0
M  V30 3522 H 337.908 -0.455842 -0.5842 0
M  V30 3523 H 340.555 -1.6482 -0.975016 0
M  V30 3524 H 338.86 -1.58903 -3.5813 0
M  V30 3525 H 340.557 -1.97019 -3.49263 0
M  V30 3526 H 337.147 -3.23298 -2.81384 0
M  V30 3527 H 341.331 -4.19914 -2.64549 0
M  V30 3528 H 336.587 -5.59947 -2.45499 0
M  V30 3529 H 340.761 -6.57414 -2.29739 0
M  V30 3530 H 338.388 -7.27759 -2.19706 0
M  V30 3531 N 339.963 1.05934 -1.16686 0
M  V30 3532 C 341.21 1.788 -0.950622 0
M  V30 3533 C 341.538 1.87384 0.521305 0
M  V30 3534 O 340.793 1.36438 1.40297 0
M  V30 3535 C 341.092 3.23105 -1.52767 0
M  V30 3536 C 340.758 3.34594 -3.02254 0
M  V30 3537 C 339.42 3.37437 -3.43059 0
M  V30 3538 C 341.772 3.36219 -3.98254 0
M  V30 3539 C 339.1 3.39525 -4.78477 0
M  V30 3540 C 341.452 3.39845 -5.33562 0
M  V30 3541 C 340.116 3.40971 -5.73842 0
M  V30 3542 H 339.386 0.654275 -0.347857 0
M  V30 3543 H 342.033 1.24555 -1.45459 0
M  V30 3544 H 340.338 3.80227 -0.94524 0
M  V30 3545 H 342.035 3.7809 -1.336 0
M  V30 3546 H 338.625 3.3309 -2.6972 0
M  V30 3547 H 342.809 3.33231 -3.67792 0
M  V30 3548 H 338.065 3.38703 -5.09009 0
M  V30 3549 H 342.239 3.4005 -6.07733 0
M  V30 3550 H 339.866 3.42342 -6.78753 0
M  V30 3551 N 341.441 0.965919 1.2453 0
M  V30 3552 C 342.689 0.625593 1.92174 0
M  V30 3553 C 343.01 -0.841652 1.75901 0
M  V30 3554 O 342.28 -1.60061 1.12948 0
M  V30 3555 H 340.86 0.228388 0.71123 0
M  V30 3556 H 343.522 1.2266 1.51461 0
M  V30 3557 H 342.618 0.864653 2.99884 0
M  V30 3558 N 342.919 -1.39368 0.735821 0
M  V30 3559 C 343.882 -2.2896 0.104874 0
M  V30 3560 C 344.882 -1.46347 -0.666274 0
M  V30 3561 O 346.072 -1.67014 -0.49517 0
M  V30 3562 C 343.204 -3.29857 -0.860656 0
M  V30 3563 H 344.397 -2.86259 0.894205 0
M  V30 3564 H 341.95 -1.48029 0.501704 0
M  V30 3565 H 342.685 -2.77615 -1.67631 0
M  V30 3566 H 342.47 -3.9087 -0.310327 0
M  V30 3567 H 343.96 -3.96893 -1.29867 0
M  V30 3568 N 344.397 -0.483516 -1.5 0
M  V30 3569 C 345.645 0.067027 -2.01989 0
M  V30 3570 C 345.966 1.3909 -1.36671 0
M  V30 3571 O 345.236 1.88978 -0.516152 0
M  V30 3572 H 343.816 0.0277606 -0.746484 0
M  V30 3573 H 346.478 -0.636773 -1.84204 0
M  V30 3574 H 345.574 0.209484 -3.11396 0
M  V30 3575 N 345.875 1.56104 -0.216619 0
M  V30 3576 C 347.121 1.98466 0.417033 0
M  V30 3577 C 347.454 1.10403 1.59765 0
M  V30 3578 O 346.729 0.160632 1.93836 0
M  V30 3579 C 347.012 3.49769 0.85637 0
M  V30 3580 C 346.865 4.48606 -0.327546 0
M  V30 3581 C 348.184 4.05339 1.7143 0
M  V30 3582 H 345.303 0.721551 0.150112 0
M  V30 3583 H 347.945 1.87423 -0.311864 0
M  V30 3584 H 346.095 3.5931 1.47745 0
M  V30 3585 H 347.767 4.5108 -0.965618 0
M  V30 3586 H 346.01 4.22682 -0.975805 0
M  V30 3587 H 346.681 5.51995 0.0227149 0
M  V30 3588 H 349.157 3.98712 1.19031 0
M  V30 3589 H 348.033 5.11533 1.99061 0
M  V30 3590 H 348.294 3.51918 2.67593 0
M  V30 3591 N 347.353 -0.0568162 1.57498 0
M  V30 3592 C 348.602 -0.752001 1.87157 0
M  V30 3593 C 348.915 -1.77978 0.811375 0
M  V30 3594 O 350.121 -2.52559 0.996293 0
M  V30 3595 C 348.577 -1.38844 3.3204 0
M  V30 3596 C 348.185 -0.398456 4.46225 0
M  V30 3597 C 349.929 -2.06512 3.70882 0
M  V30 3598 C 347.836 -1.04166 5.82154 0
M  V30 3599 H 346.766 -0.28461 0.698222 0
M  V30 3600 H 349.417 -0.00561272 1.83499 0
M  V30 3601 H 347.799 -2.1836 3.30356 0
M  V30 3602 H 348.973 0.367977 4.59328 0
M  V30 3603 H 347.288 0.174592 4.16034 0
M  V30 3604 H 349.885 -2.55437 4.6974 0
M  V30 3605 H 350.228 -2.87117 3.01445 0
M  V30 3606 H 350.761 -1.33808 3.7462 0
M  V30 3607 H 347.5 -0.275614 6.5492 0
M  V30 3608 H 347.02 -1.7786 5.72823 0
M  V30 3609 H 348.699 -1.55715 6.27982 0
M  V30 3610 N 348.832 -1.54138 -0.328536 0
M  V30 3611 C 350.057 -1.76378 -1.09112 0
M  V30 3612 C 350.482 -0.508596 -1.81094 0
M  V30 3613 O 349.84 0.539598 -1.73084 0
M  V30 3614 C 349.888 -2.95358 -2.06872 0
M  V30 3615 O 348.992 -2.66556 -3.14677 0
M  V30 3616 H 348.333 -0.584614 -0.314838 0
M  V30 3617 H 350.863 -2.01146 -0.374348 0
M  V30 3618 H 350.873 -3.22566 -2.4983 0
M  V30 3619 H 349.548 -3.86385 -1.5388 0
M  V30 3620 H 348.125 -2.50282 -2.7643 0
M  V30 3621 N 350.31 0.590341 -1.46126 0
M  V30 3622 C 351.538 1.37504 -1.54597 0
M  V30 3623 C 351.953 1.87897 -0.184447 0
M  V30 3624 O 351.31 1.63192 0.816984 0
M  V30 3625 C 351.361 2.56779 -2.54454 0
M  V30 3626 O 351.082 2.08476 -3.85317 0
M  V30 3627 C 352.583 3.49427 -2.72792 0
M  V30 3628 H 349.803 0.420325 -0.523037 0
M  V30 3629 H 352.347 0.718383 -1.91467 0
M  V30 3630 H 350.502 3.1845 -2.20609 0
M  V30 3631 H 350.916 2.86097 -4.396 0
M  V30 3632 H 352.39 4.29619 -3.466 0
M  V30 3633 H 352.867 4.00876 -1.79429 0
M  V30 3634 H 353.473 2.93598 -3.07702 0
M  V30 3635 N 351.788 1.33704 0.83433 0
M  V30 3636 C 353.036 1.25169 1.58673 0
M  V30 3637 C 353.357 -0.18127 1.94156 0
M  V30 3638 O 352.627 -1.11113 1.6134 0
M  V30 3639 H 351.207 0.4603 0.58833 0
M  V30 3640 H 353.869 1.67478 0.996847 0
M  V30 3641 H 352.965 1.84856 2.51465 0
M  V30 3642 N 353.266 -1.05314 1.17247 0
M  V30 3643 C 354.491 -1.82509 0.985148 0
M  V30 3644 C 354.916 -1.82343 -0.461788 0
M  V30 3645 O 354.274 -1.23151 -1.33055 0
M  V30 3646 C 354.322 -3.26566 1.52929 0
M  V30 3647 O 353.426 -4.05666 0.742225 0
M  V30 3648 H 352.767 -0.564347 0.349869 0
M  V30 3649 H 355.297 -1.32718 1.55715 0
M  V30 3650 H 355.307 -3.77369 1.55103 0
M  V30 3651 H 353.982 -3.26001 2.58256 0
M  V30 3652 H 352.559 -3.64397 0.791794 0
M  V30 3653 N 354.744 -0.972509 -1.24016 0
M  V30 3654 C 355.991 -0.637034 -1.92219 0
M  V30 3655 C 356.319 0.828418 -1.75976 0
M  V30 3656 O 355.574 1.61206 -1.10955 0
M  V30 3657 C 355.873 -0.963694 -3.44162 0
M  V30 3658 C 355.539 -2.41807 -3.80579 0
M  V30 3659 C 354.201 -2.81556 -3.9023 0
M  V30 3660 C 356.553 -3.36172 -3.98293 0
M  V30 3661 C 353.881 -4.14702 -4.15017 0
M  V30 3662 C 356.233 -4.68952 -4.24578 0
M  V30 3663 C 354.897 -5.08472 -4.32449 0
M  V30 3664 H 354.167 -0.233107 -0.703379 0
M  V30 3665 H 356.814 -1.2249 -1.47202 0
M  V30 3666 H 355.119 -0.29365 -3.90698 0
M  V30 3667 H 356.816 -0.682449 -3.9515 0
M  V30 3668 H 353.406 -2.09988 -3.73635 0
M  V30 3669 H 357.59 -3.06644 -3.90234 0
M  V30 3670 H 352.846 -4.4494 -4.19331 0
M  V30 3671 H 357.02 -5.42037 -4.37229 0
M  V30 3672 H 354.647 -6.11665 -4.51409 0
M  V30 3673 N 356.222 1.38976 -0.743202 0
M  V30 3674 C 357.152 2.33171 -0.123873 0
M  V30 3675 C 358.133 1.54336 0.71516 0
M  V30 3676 O 359.318 1.82696 0.658467 0
M  V30 3677 C 356.448 3.38474 0.777978 0
M  V30 3678 C 355.402 4.27979 0.0424758 0
M  V30 3679 C 354.728 5.2405 1.06189 0
M  V30 3680 C 356.028 5.10155 -1.1198 0
M  V30 3681 H 357.722 2.85213 -0.910709 0
M  V30 3682 H 355.268 1.37133 -0.439388 0
M  V30 3683 H 357.221 4.03328 1.22084 0
M  V30 3684 H 355.945 2.84891 1.59702 0
M  V30 3685 H 354.604 3.64616 -0.380853 0
M  V30 3686 H 354.252 4.66758 1.87472 0
M  V30 3687 H 353.952 5.84785 0.574485 0
M  V30 3688 H 355.476 5.9178 1.50428 0
M  V30 3689 H 356.89 5.68307 -0.75499 0
M  V30 3690 H 355.287 5.80073 -1.53738 0
M  V30 3691 H 356.357 4.44504 -1.93764 0
M  V30 3692 N 357.7 0.491464 1.49741 0
M  V30 3693 C 358.928 -0.0535151 2.06831 0
M  V30 3694 C 359.343 -1.31683 1.35296 0
M  V30 3695 O 358.7 -1.77402 0.42836 0
M  V30 3696 C 358.751 -0.320835 3.60073 0
M  V30 3697 O 358.472 0.892394 4.28915 0
M  V30 3698 C 359.973 -0.910519 4.33848 0
M  V30 3699 H 357.193 0.0161909 0.670805 0
M  V30 3700 H 359.737 0.68609 1.92647 0
M  V30 3701 H 357.892 -1.0104 3.73991 0
M  V30 3702 H 358.306 0.649401 5.20464 0
M  V30 3703 H 359.78 -1.04721 5.41976 0
M  V30 3704 H 360.257 -1.90589 3.95692 0
M  V30 3705 H 360.863 -0.258712 4.24512 0
M  V30 3706 N 359.178 -1.55987 0.224894 0
M  V30 3707 C 360.406 -2.02784 -0.410665 0
M  V30 3708 C 360.821 -1.10464 -1.53112 0
M  V30 3709 O 360.178 -0.114871 -1.82138 0
M  V30 3710 C 360.229 -3.49087 -0.939165 0
M  V30 3711 O 359.95 -4.37887 0.136614 0
M  V30 3712 C 361.451 -4.11543 -1.64763 0
M  V30 3713 H 358.671 -0.663484 -0.100148 0
M  V30 3714 H 361.215 -2.01614 0.342326 0
M  V30 3715 H 359.37 -3.50861 -1.64242 0
M  V30 3716 H 359.784 -5.23849 -0.261155 0
M  V30 3717 H 361.258 -5.15673 -1.96939 0
M  V30 3718 H 361.735 -3.56736 -2.56195 0
M  V30 3719 H 362.341 -4.13629 -0.989503 0
M  V30 3720 N 360.656 0.0484629 -1.57525 0
M  V30 3721 C 361.619 1.03956 -2.04269 0
M  V30 3722 C 362.619 1.30211 -0.943496 0
M  V30 3723 O 363.809 1.25539 -1.20771 0
M  V30 3724 C 360.941 2.37742 -2.44319 0
M  V30 3725 H 362.134 0.636182 -2.93075 0
M  V30 3726 H 359.687 0.294811 -1.53494 0
M  V30 3727 H 360.422 2.82866 -1.5861 0
M  V30 3728 H 360.207 2.20021 -3.24551 0
M  V30 3729 H 361.697 3.08936 -2.80978 0
M  V30 3730 N 362.134 1.5431 0.320358 0
M  V30 3731 C 363.064 1.86912 1.3995 0
M  V30 3732 C 364.045 0.726211 1.53819 0
M  V30 3733 O 365.23 0.980233 1.67646 0
M  V30 3734 C 362.36 2.09932 2.7667 0
M  V30 3735 C 361.314 3.25776 2.77586 0
M  V30 3736 C 360.64 3.34173 4.17412 0
M  V30 3737 C 361.94 4.6335 2.41048 0
M  V30 3738 H 363.634 2.77292 1.12914 0
M  V30 3739 H 361.18 1.33421 0.541738 0
M  V30 3740 H 363.133 2.31324 3.52232 0
M  V30 3741 H 361.857 1.16304 3.0519 0
M  V30 3742 H 360.516 3.04276 2.04479 0
M  V30 3743 H 360.164 2.38098 4.43078 0
M  V30 3744 H 359.864 4.12033 4.18931 0
M  V30 3745 H 361.388 3.57803 4.94782 0
M  V30 3746 H 362.802 4.84602 3.06324 0
M  V30 3747 H 361.199 5.43782 2.53813 0
M  V30 3748 H 362.269 4.65381 1.36193 0
M  V30 3749 N 363.613 -0.582584 1.46437 0
M  V30 3750 C 364.862 -1.337 1.5102 0
M  V30 3751 C 365.175 -1.94891 0.166359 0
M  V30 3752 O 366.381 -2.71351 0.0899954 0
M  V30 3753 C 364.837 -2.42315 2.66104 0
M  V30 3754 C 364.445 -1.87427 4.06909 0
M  V30 3755 C 366.189 -3.19099 2.79958 0
M  V30 3756 C 364.096 -2.93672 5.13333 0
M  V30 3757 H 363.026 -0.502619 0.562041 0
M  V30 3758 H 365.677 -0.621701 1.72647 0
M  V30 3759 H 364.059 -3.16645 2.37807 0
M  V30 3760 H 365.233 -1.19639 4.44998 0
M  V30 3761 H 363.548 -1.2331 3.97723 0
M  V30 3762 H 366.145 -3.9839 3.56636 0
M  V30 3763 H 366.488 -3.71695 1.87479 0
M  V30 3764 H 367.021 -2.51875 3.07902 0
M  V30 3765 H 363.76 -2.45962 6.07604 0
M  V30 3766 H 363.28 -3.59948 4.79789 0
M  V30 3767 H 364.959 -3.5762 5.39182 0
M  V30 3768 N 365.091 -1.34144 -0.827227 0
M  V30 3769 C 366.316 -1.29476 -1.62021 0
M  V30 3770 C 366.741 0.129292 -1.87655 0
M  V30 3771 O 366.099 1.08967 -1.449 0
M  V30 3772 C 366.147 -2.08702 -2.94068 0
M  V30 3773 O 365.251 -1.45359 -3.85933 0
M  V30 3774 H 364.592 -0.444881 -0.492927 0
M  V30 3775 H 367.122 -1.76882 -1.02829 0
M  V30 3776 H 367.132 -2.19898 -3.43669 0
M  V30 3777 H 365.807 -3.12241 -2.74734 0
M  V30 3778 H 364.384 -1.42879 -3.44442 0
M  V30 3779 N 366.569 1.04691 -1.17803 0
M  V30 3780 C 367.499 2.14494 -0.92275 0
M  V30 3781 C 368.48 1.69546 0.137179 0
M  V30 3782 O 369.665 1.94195 -0.0141108 0
M  V30 3783 C 366.795 3.44491 -0.440803 0
M  V30 3784 C 365.749 4.03031 -1.4405 0
M  V30 3785 C 365.075 5.28432 -0.81631 0
M  V30 3786 C 366.375 4.39932 -2.81527 0
M  V30 3787 H 368.069 2.36107 -1.84103 0
M  V30 3788 H 365.615 1.1347 -0.886599 0
M  V30 3789 H 367.568 4.2066 -0.249602 0
M  V30 3790 H 366.292 3.22546 0.513025 0
M  V30 3791 H 364.951 3.28937 -1.61853 0
M  V30 3792 H 364.599 5.02792 0.144511 0
M  V30 3793 H 364.299 5.68559 -1.48371 0
M  V30 3794 H 365.823 6.07284 -0.635496 0
M  V30 3795 H 367.237 5.07113 -2.67412 0
M  V30 3796 H 365.634 4.9109 -3.44892 0
M  V30 3797 H 366.704 3.50045 -3.35554 0
M  V30 3798 N 368.047 0.979072 1.23499 0
M  V30 3799 C 369.296 0.642751 1.91185 0
M  V30 3800 C 369.609 -0.827253 1.77245 0
M  V30 3801 O 370.815 -1.27458 2.39722 0
M  V30 3802 C 369.271 1.09901 3.42709 0
M  V30 3803 C 368.879 2.59327 3.65313 0
M  V30 3804 C 370.623 0.836371 4.16179 0
M  V30 3805 C 368.53 2.98627 5.10467 0
M  V30 3806 H 367.46 0.236698 0.715884 0
M  V30 3807 H 370.111 1.1868 1.39955 0
M  V30 3808 H 368.493 0.48319 3.93041 0
M  V30 3809 H 369.667 3.26136 3.25533 0
M  V30 3810 H 367.982 2.83323 3.05151 0
M  V30 3811 H 370.579 1.10586 5.23139 0
M  V30 3812 H 370.922 -0.227509 4.15678 0
M  V30 3813 H 371.455 1.41371 3.71832 0
M  V30 3814 H 368.194 4.04133 5.16098 0
M  V30 3815 H 367.714 2.3651 5.51201 0
M  V30 3816 H 369.393 2.89159 5.78788 0
M  V30 3817 N 369.525 -1.3858 0.750561 0
M  V30 3818 C 370.457 -2.29057 0.0810714 0
M  V30 3819 C 371.47 -1.47596 -0.686973 0
M  V30 3820 O 372.659 -1.70495 -0.528563 0
M  V30 3821 C 369.759 -3.26475 -0.909247 0
M  V30 3822 C 368.932 -4.36945 -0.199478 0
M  V30 3823 C 367.991 -5.14572 -1.10011 0
M  V30 3824 O 367.017 -5.66321 -0.57177 0
M  V30 3825 N 368.219 -5.27262 -2.42849 0
M  V30 3826 H 370.984 -2.87153 0.858087 0
M  V30 3827 H 368.545 -1.50328 0.60109 0
M  V30 3828 H 370.537 -3.75285 -1.51471 0
M  V30 3829 H 369.107 -2.69298 -1.58736 0
M  V30 3830 H 368.327 -3.8981 0.586664 0
M  V30 3831 H 369.615 -5.07963 0.291783 0
M  V30 3832 H 369.013 -4.86763 -2.88233 0
M  V30 3833 H 367.57 -5.79456 -2.98453 0
M  V30 3834 N 371.003 -0.499398 -1.49478 0
M  V30 3835 C 372.419 -0.155261 -1.58843 0
M  V30 3836 C 372.619 1.34008 -1.50479 0
M  V30 3837 O 371.675 2.11589 -1.37791 0
M  V30 3838 C 372.988 -0.730636 -2.91689 0
M  V30 3839 C 374.536 -0.696599 -3.0515 0
M  V30 3840 C 375.011 -1.25001 -4.40612 0
M  V30 3841 N 376.502 -1.21064 -4.47099 0
M  V30 3842 C 377.237 -1.60905 -5.50361 0
M  V30 3843 N 376.733 -2.08331 -6.60735 0
M  V30 3844 N 378.526 -1.52331 -5.41065 0
M  V30 3845 H 370.677 -1.47162 -1.53158 0
M  V30 3846 H 372.94 -0.610309 -0.725415 0
M  V30 3847 H 372.646 -1.77928 -3.03372 0
M  V30 3848 H 372.52 -0.190161 -3.7672 0
M  V30 3849 H 374.907 0.343204 -2.93097 0
M  V30 3850 H 374.988 -1.2742 -2.21806 0
M  V30 3851 H 374.632 -2.28859 -4.53416 0
M  V30 3852 H 374.562 -0.64836 -5.22593 0
M  V30 3853 H 377.053 -0.863128 -3.67911 0
M  V30 3854 H 377.366 -2.36805 -7.35624 0
M  V30 3855 H 375.711 -2.12304 -6.6178 0
M  V30 3856 H 378.902 -1.151 -4.53729 0
M  V30 3857 H 379.075 -1.83704 -6.21415 0
M  V30 3858 N 372.481 1.55866 -0.233164 0
M  V30 3859 C 373.892 1.847 0.272554 0
M  V30 3860 C 374.243 1.15477 1.58617 0
M  V30 3861 O 373.368 0.42841 2.12117 0
M  V30 3862 C 373.963 3.35071 0.501299 0
M  V30 3863 C 372.522 3.6418 0.951304 0
M  V30 3864 C 371.669 2.77292 0.0208209 0
M  V30 3865 H 374.62 1.52005 -0.456074 0
M  V30 3866 H 374.641 3.55906 1.34577 0
M  V30 3867 H 374.153 3.85424 -0.454936 0
M  V30 3868 H 372.254 3.19293 1.92049 0
M  V30 3869 H 372.367 4.72071 0.817675 0
M  V30 3870 H 370.731 2.49131 0.529723 0
M  V30 3871 H 371.514 3.30448 -0.93054 0
M  V30 3872 N 373.959 -0.0401083 1.57549 0
M  V30 3873 C 374.891 -1.07149 2.02612 0
M  V30 3874 C 375.904 -1.33126 0.937085 0
M  V30 3875 O 377.093 -1.30808 1.21456 0
M  V30 3876 C 374.193 -2.41561 2.37701 0
M  V30 3877 C 373.366 -2.35096 3.68848 0
M  V30 3878 C 372.425 -3.51867 3.91249 0
M  V30 3879 O 371.451 -3.3186 4.62447 0
M  V30 3880 N 372.653 -4.73351 3.36035 0
M  V30 3881 H 375.418 -0.687485 2.91708 0
M  V30 3882 H 372.979 -0.228248 1.60283 0
M  V30 3883 H 374.971 -3.18379 2.49833 0
M  V30 3884 H 373.541 -2.71846 1.54332 0
M  V30 3885 H 372.761 -1.4345 3.67173 0
M  V30 3886 H 374.049 -2.27908 4.54901 0
M  V30 3887 H 373.447 -4.92507 2.78304 0
M  V30 3888 H 372.004 -5.47572 3.53565 0
M  V30 3889 N 375.437 -1.54477 -0.31217 0
M  V30 3890 C 376.367 -1.87652 -1.38957 0
M  V30 3891 C 377.348 -0.734358 -1.53431 0
M  V30 3892 O 378.533 -0.98911 -1.67123 0
M  V30 3893 C 375.663 -2.11396 -2.75552 0
M  V30 3894 C 374.617 -3.27243 -2.75855 0
M  V30 3895 C 373.943 -3.36382 -4.15633 0
M  V30 3896 C 375.243 -4.64622 -2.38587 0
M  V30 3897 H 376.937 -2.77887 -1.11442 0
M  V30 3898 H 374.483 -1.33707 -0.534655 0
M  V30 3899 H 376.436 -2.33189 -3.51 0
M  V30 3900 H 375.16 -1.17921 -3.04569 0
M  V30 3901 H 373.819 -3.05356 -2.02863 0
M  V30 3902 H 373.467 -2.40445 -4.41809 0
M  V30 3903 H 373.167 -4.14249 -4.1674 0
M  V30 3904 H 374.691 -3.60422 -4.92877 0
M  V30 3905 H 376.105 -4.86219 -3.03749 0
M  V30 3906 H 374.502 -5.45121 -2.50925 0
M  V30 3907 H 375.572 -4.66097 -1.33723 0
M  V30 3908 N 376.915 0.57481 -1.46744 0
M  V30 3909 C 378.331 0.898981 -1.31873 0
M  V30 3910 C 378.531 1.99313 -0.29605 0
M  V30 3911 O 377.587 2.50728 0.298621 0
M  V30 3912 C 378.9 1.30886 -2.7072 0
M  V30 3913 C 380.448 1.42127 -2.78871 0
M  V30 3914 C 380.923 1.86478 -4.18318 0
M  V30 3915 N 382.414 1.93658 -4.20774 0
M  V30 3916 C 383.149 2.29267 -5.2557 0
M  V30 3917 N 382.645 2.63612 -6.40688 0
M  V30 3918 N 384.438 2.29889 -5.1294 0
M  V30 3919 H 376.589 -0.147839 -2.11885 0
M  V30 3920 H 378.852 -0.00347013 -0.947994 0
M  V30 3921 H 378.558 0.578853 -3.46904 0
M  V30 3922 H 378.432 2.26874 -3.01343 0
M  V30 3923 H 380.819 2.14213 -2.0297 0
M  V30 3924 H 380.9 0.443705 -2.51922 0
M  V30 3925 H 380.544 1.14968 -4.94717 0
M  V30 3926 H 380.474 2.85207 -4.42679 0
M  V30 3927 H 382.965 1.69574 -3.37718 0
M  V30 3928 H 383.278 2.89759 -7.16421 0
M  V30 3929 H 381.623 2.61232 -6.44036 0
M  V30 3930 H 384.814 2.02485 -4.22039 0
M  V30 3931 H 384.987 2.57312 -5.94722 0
M  V30 3932 N 378.394 1.34581 0.820102 0
M  V30 3933 C 379.342 1.26401 1.95258 0
M  V30 3934 C 380.336 0.161553 1.68628 0
M  V30 3935 O 381.542 0.326703 1.7701 0
M  V30 3936 H 377.917 0.392749 0.64129 0
M  V30 3937 H 379.888 2.22105 1.99279 0
M  V30 3938 C 378.637 1.03919 3.31807 0
M  V30 3939 H 377.96 1.87984 3.52848 0
M  V30 3940 H 379.4 1.02232 4.11491 0
M  V30 3941 C 377.859 -0.257433 3.35915 0
M  V30 3942 O 378.389 -1.25784 3.81499 0
M  V30 3943 N 376.595 -0.291524 2.89134 0
M  V30 3944 H 376.142 0.523161 2.52232 0
M  V30 3945 H 376.1 -1.15883 2.92264 0
M  V30 3946 N 379.872 -1.04064 1.18357 0
M  V30 3947 C 380.802 -2.14001 0.934113 0
M  V30 3948 C 381.783 -1.69616 -0.128186 0
M  V30 3949 O 382.968 -1.94185 0.0244093 0
M  V30 3950 C 380.098 -3.44253 0.459066 0
M  V30 3951 C 379.052 -4.02261 1.46185 0
M  V30 3952 C 378.378 -5.27992 0.844322 0
M  V30 3953 C 379.678 -4.38432 2.83856 0
M  V30 3954 H 381.372 -2.35127 1.85352 0
M  V30 3955 H 378.918 -1.12998 0.892604 0
M  V30 3956 H 380.871 -4.20522 0.271907 0
M  V30 3957 H 379.595 -3.22813 -0.495912 0
M  V30 3958 H 378.254 -3.28074 1.63595 0
M  V30 3959 H 377.902 -5.02862 -0.117845 0
M  V30 3960 H 377.602 -5.67765 1.51384 0
M  V30 3961 H 379.126 -6.06938 0.667693 0
M  V30 3962 H 380.54 -5.05688 2.70098 0
M  V30 3963 H 378.937 -4.89254 3.47491 0
M  V30 3964 H 380.007 -3.4826 3.37406 0
M  V30 3965 N 381.35 -0.985608 -1.22978 0
M  V30 3966 C 382.28 -0.549649 -2.26939 0
M  V30 3967 C 383.261 0.419803 -1.64838 0
M  V30 3968 O 384.446 0.31203 -1.91677 0
M  V30 3969 C 381.576 0.143652 -3.47003 0
M  V30 3970 C 380.53 -0.743606 -4.21491 0
M  V30 3971 C 379.856 0.0822027 -5.34637 0
M  V30 3972 C 381.156 -2.03694 -4.80943 0
M  V30 3973 H 382.85 -1.41862 -2.63658 0
M  V30 3974 H 380.396 -0.683571 -1.26741 0
M  V30 3975 H 382.349 0.459985 -4.18882 0
M  V30 3976 H 381.073 1.04711 -3.09359 0
M  V30 3977 H 379.732 -1.04347 -3.51436 0
M  V30 3978 H 379.38 0.986359 -4.93234 0
M  V30 3979 H 379.08 -0.508377 -5.85397 0
M  V30 3980 H 380.604 0.392797 -6.09335 0
M  V30 3981 H 382.018 -1.78504 -5.44802 0
M  V30 3982 H 380.415 -2.57573 -5.42011 0
M  V30 3983 H 381.485 -2.72042 -4.01399 0
M  V30 3984 N 382.828 1.3818 -0.7579 0
M  V30 3985 C 383.778 2.27741 -0.108674 0
M  V30 3986 C 384.762 1.45415 0.688709 0
M  V30 3987 O 385.954 1.68108 0.553956 0
M  V30 3988 C 383.083 3.34313 0.780367 0
M  V30 3989 C 382.169 4.24093 -0.0240977 0
M  V30 3990 N 382.56 4.9451 -1.06271 0
M  V30 3991 C 380.858 4.45542 0.202049 0
M  V30 3992 C 381.559 5.60675 -1.54979 0
M  V30 3993 N 380.535 5.36684 -0.864348 0
M  V30 3994 H 384.337 2.79649 -0.904071 0
M  V30 3995 H 381.851 1.51133 -0.594346 0
M  V30 3996 H 383.848 3.97368 1.26114 0
M  V30 3997 H 382.508 2.83962 1.57467 0
M  V30 3998 H 383.519 4.97345 -1.44459 0
M  V30 3999 H 380.196 4.06091 0.96935 0
M  V30 4000 H 381.586 6.26992 -2.41517 0
M  V30 4001 N 384.306 0.507319 1.49211 0
M  V30 4002 C 385.216 -0.272136 2.33016 0
M  V30 4003 C 386.232 -0.961206 1.45041 0
M  V30 4004 O 387.408 -0.941191 1.78055 0
M  V30 4005 C 384.473 -1.31895 3.20631 0
M  V30 4006 C 383.534 -0.642648 4.24463 0
M  V30 4007 C 382.767 -1.63959 5.07891 0
M  V30 4008 O 382.99 -2.87007 4.92933 0
M  V30 4009 O 381.924 -1.19143 5.8999 0
M  V30 4010 H 385.75 0.413982 3.00865 0
M  V30 4011 H 383.335 0.268556 1.46966 0
M  V30 4012 H 385.217 -1.92446 3.7489 0
M  V30 4013 H 383.892 -1.98788 2.5547 0
M  V30 4014 H 382.799 0.00276252 3.741 0
M  V30 4015 H 384.132 -0.0160534 4.92197 0
M  V30 4016 N 385.784 -1.5574 0.241426 0
M  V30 4017 C 386.731 -2.21149 -0.660432 0
M  V30 4018 C 387.701 -1.17356 -1.17545 0
M  V30 4019 O 388.886 -1.45784 -1.23093 0
M  V30 4020 C 386.026 -2.91059 -1.85414 0
M  V30 4021 C 385.139 -4.09495 -1.37616 0
M  V30 4022 C 384.274 -4.67135 -2.529 0
M  V30 4023 C 383.313 -5.77831 -2.01936 0
M  V30 4024 N 382.45 -6.29677 -3.10566 0
M  V30 4025 H 387.29 -2.97845 -0.095955 0
M  V30 4026 H 384.827 -1.47057 -0.0356024 0
M  V30 4027 H 386.785 -3.29788 -2.5553 0
M  V30 4028 H 385.415 -2.16846 -2.39118 0
M  V30 4029 H 384.467 -3.76117 -0.569235 0
M  V30 4030 H 385.779 -4.89423 -0.962618 0
M  V30 4031 H 384.933 -5.08409 -3.31067 0
M  V30 4032 H 383.672 -3.86411 -2.97553 0
M  V30 4033 H 382.677 -5.36039 -1.22238 0
M  V30 4034 H 383.902 -6.60402 -1.58259 0
M  V30 4035 H 381.848 -5.5186 -3.54664 0
M  V30 4036 H 381.765 -7.04783 -2.73526 0
M  V30 4037 H 383.033 -6.75609 -3.88809 0
M  V30 4038 N 387.262 0.0317525 -1.57568 0
M  V30 4039 C 388.673 0.578692 -1.77505 0
M  V30 4040 C 389.024 1.75749 -0.872164 0
M  V30 4041 O 388.149 2.16298 -0.0663106 0
M  V30 4042 C 388.744 1.05658 -3.21904 0
M  V30 4043 C 387.303 1.54906 -3.43047 0
M  V30 4044 C 386.45 0.485939 -2.73009 0
M  V30 4045 H 389.401 -0.194475 -1.57504 0
M  V30 4046 H 389.422 1.92404 -3.28269 0
M  V30 4047 H 388.934 0.198422 -3.87592 0
M  V30 4048 H 387.035 2.42915 -2.82529 0
M  V30 4049 H 387.148 1.59841 -4.5165 0
M  V30 4050 H 385.512 0.940354 -2.36705 0
M  V30 4051 H 386.295 -0.362709 -3.41379 0
M  V30 4052 N 388.74 1.54641 0.303973 0
M  V30 4053 C 389.65 1.88439 1.39743 0
M  V30 4054 C 390.666 0.778239 1.55626 0
M  V30 4055 O 391.842 1.07442 1.70347 0
M  V30 4056 C 388.907 2.12212 2.74166 0
M  V30 4057 C 387.968 3.35936 2.67293 0
M  V30 4058 C 387.201 3.58566 3.95305 0
M  V30 4059 O 387.424 2.84263 4.9452 0
M  V30 4060 O 386.358 4.52078 3.97378 0
M  V30 4061 H 390.184 2.81458 1.14083 0
M  V30 4062 H 387.769 1.40793 0.499768 0
M  V30 4063 H 389.651 2.29067 3.53704 0
M  V30 4064 H 388.326 1.22379 2.99675 0
M  V30 4065 H 387.233 3.24448 1.86237 0
M  V30 4066 H 388.566 4.2589 2.46736 0
M  V30 4067 N 390.218 -0.567019 1.47046 0
M  V30 4068 C 391.148 -1.68482 1.61667 0
M  V30 4069 C 392.129 -1.6358 0.466418 0
M  V30 4070 O 393.314 -1.81354 0.694574 0
M  V30 4071 C 390.444 -3.07124 1.62148 0
M  V30 4072 C 389.398 -3.26867 2.76301 0
M  V30 4073 C 388.724 -4.66196 2.61849 0
M  V30 4074 C 390.024 -3.13186 4.17986 0
M  V30 4075 H 391.718 -1.56502 2.5524 0
M  V30 4076 H 389.264 -0.751486 1.22836 0
M  V30 4077 H 391.217 -3.8516 1.70968 0
M  V30 4078 H 389.941 -3.2004 0.651287 0
M  V30 4079 H 388.6 -2.51237 2.66975 0
M  V30 4080 H 388.248 -4.75898 1.62879 0
M  V30 4081 H 387.948 -4.80356 3.38425 0
M  V30 4082 H 389.472 -5.46379 2.72584 0
M  V30 4083 H 390.886 -3.81049 4.2834 0
M  V30 4084 H 389.283 -3.3886 4.95272 0
M  V30 4085 H 390.353 -2.10057 4.3704 0
M  V30 4086 N 391.696 -1.35014 -0.812953 0
M  V30 4087 C 392.945 -1.27269 -1.56479 0
M  V30 4088 C 393.258 0.152771 -1.95002 0
M  V30 4089 O 394.464 0.352451 -2.69203 0
M  V30 4090 C 392.92 -2.23159 -2.82362 0
M  V30 4091 C 392.528 -3.71016 -2.511 0
M  V30 4092 C 394.272 -2.24342 -3.60376 0
M  V30 4093 C 392.179 -4.58746 -3.73237 0
M  V30 4094 H 391.109 -0.472829 -0.587324 0
M  V30 4095 H 393.76 -1.6024 -0.894171 0
M  V30 4096 H 392.142 -1.83151 -3.51101 0
M  V30 4097 H 393.316 -4.1962 -1.90409 0
M  V30 4098 H 391.631 -3.72378 -1.86343 0
M  V30 4099 H 394.228 -2.87107 -4.51081 0
M  V30 4100 H 394.571 -1.24542 -3.97234 0
M  V30 4101 H 395.104 -2.62846 -2.98591 0
M  V30 4102 H 391.843 -5.59521 -3.41492 0
M  V30 4103 H 391.363 -4.14871 -4.33176 0
M  V30 4104 H 393.042 -4.73852 -4.40537 0
M  V30 4105 N 393.175 1.03435 -1.18907 0
M  V30 4106 C 394.586 1.58195 -0.991523 0
M  V30 4107 C 394.937 1.90801 0.457081 0
M  V30 4108 O 394.062 1.70272 1.33553 0
M  V30 4109 C 394.657 2.87432 -1.79355 0
M  V30 4110 C 393.216 3.38785 -1.64017 0
M  V30 4111 C 392.363 2.12292 -1.78402 0
M  V30 4112 H 395.314 0.860299 -1.33359 0
M  V30 4113 H 395.335 3.58096 -1.28638 0
M  V30 4114 H 394.847 2.63669 -2.84781 0
M  V30 4115 H 392.948 3.67547 -0.611536 0
M  V30 4116 H 393.061 4.12186 -2.44212 0
M  V30 4117 H 391.425 2.23901 -1.2141 0
M  V30 4118 H 392.208 1.90977 -2.85277 0
M  V30 4119 N 394.653 0.992116 1.22453 0
M  V30 4120 C 395.616 0.546883 2.2258 0
M  V30 4121 C 396.616 -0.369829 1.56489 0
M  V30 4122 O 397.806 -0.161896 1.73446 0
M  V30 4123 C 394.938 -0.204659 3.40285 0
M  V30 4124 H 396.131 1.43234 2.63484 0
M  V30 4125 H 393.684 0.779239 1.3549 0
M  V30 4126 H 394.419 -1.10614 3.04853 0
M  V30 4127 H 394.204 0.45354 3.89468 0
M  V30 4128 H 395.694 -0.504358 4.14543 0
M  V30 4129 N 396.131 -1.37776 0.765217 0
M  V30 4130 C 397.379 -1.99454 0.325943 0
M  V30 4131 C 397.7 -1.61049 -1.09947 0
M  V30 4132 O 396.97 -0.872821 -1.75381 0
M  V30 4133 H 395.55 -0.737697 0.117525 0
M  V30 4134 H 398.212 -1.68359 0.981895 0
M  V30 4135 H 397.308 -3.09547 0.398353 0
M  V30 4136 N 397.609 -0.515225 -1.4894 0
M  V30 4137 C 398.855 0.0242508 -2.02785 0
M  V30 4138 C 399.188 1.35323 -1.39289 0
M  V30 4139 O 398.463 1.87041 -0.533469 0
M  V30 4140 C 398.746 0.16184 -3.59736 0
M  V30 4141 C 398.599 -1.19127 -4.33738 0
M  V30 4142 C 399.918 0.895719 -4.30888 0
M  V30 4143 H 397.037 0.00733914 -0.736963 0
M  V30 4144 H 399.679 -0.669395 -1.77818 0
M  V30 4145 H 397.829 0.752624 -3.8114 0
M  V30 4146 H 399.501 -1.82202 -4.23792 0
M  V30 4147 H 397.744 -1.77695 -3.95736 0
M  V30 4148 H 398.415 -1.04815 -5.41957 0
M  V30 4149 H 400.891 0.394528 -4.14225 0
M  V30 4150 H 399.767 0.960859 -5.40425 0
M  V30 4151 H 400.028 1.9427 -3.97129 0
M  V30 4152 N 399.087 1.5561 -0.249682 0
M  V30 4153 C 399.997 2.25143 0.659375 0
M  V30 4154 C 401.013 1.2685 1.19101 0
M  V30 4155 O 402.189 1.59732 1.22669 0
M  V30 4156 C 399.254 2.93945 1.8384 0
M  V30 4157 C 398.315 4.07655 1.34596 0
M  V30 4158 C 397.548 4.73167 2.46878 0
M  V30 4159 O 397.771 4.37768 3.65671 0
M  V30 4160 O 396.705 5.61623 2.16478 0
M  V30 4161 H 400.531 3.03545 0.0968698 0
M  V30 4162 H 398.116 1.49389 -0.018074 0
M  V30 4163 H 399.998 3.37271 2.52638 0
M  V30 4164 H 398.673 2.18481 2.38847 0
M  V30 4165 H 397.58 3.68839 0.625174 0
M  V30 4166 H 398.913 4.84946 0.841941 0
M  V30 4167 N 400.565 -0.0233959 1.57583 0
M  V30 4168 C 401.475 -1.03907 2.10334 0
M  V30 4169 C 402.491 -1.39257 1.04323 0
M  V30 4170 O 403.667 -1.48462 1.36091 0
M  V30 4171 C 400.732 -2.31938 2.57693 0
M  V30 4172 C 399.793 -2.03117 3.78209 0
M  V30 4173 C 399.026 -3.25043 4.233 0
M  V30 4174 O 399.249 -4.35916 3.67876 0
M  V30 4175 O 398.183 -3.10411 5.15683 0
M  V30 4176 H 402.009 -0.620748 2.97288 0
M  V30 4177 H 399.594 -0.240743 1.47448 0
M  V30 4178 H 401.476 -3.07196 2.88458 0
M  V30 4179 H 400.151 -2.73055 1.73847 0
M  V30 4180 H 399.058 -1.25408 3.52454 0
M  V30 4181 H 400.391 -1.66852 4.63056 0
M  V30 4182 N 402.043 -1.548 -0.295768 0
M  V30 4183 C 402.973 -1.89115 -1.36959 0
M  V30 4184 C 403.954 -0.75059 -1.52644 0
M  V30 4185 O 405.139 -1.00678 -1.66065 0
M  V30 4186 C 402.269 -2.14307 -2.73295 0
M  V30 4187 C 401.223 -3.30151 -2.72368 0
M  V30 4188 C 400.549 -3.40772 -4.12042 0
M  V30 4189 C 401.849 -4.67126 -2.33646 0
M  V30 4190 H 403.543 -2.79053 -1.08488 0
M  V30 4191 H 401.089 -1.34266 -0.520443 0
M  V30 4192 H 403.042 -2.36898 -3.48507 0
M  V30 4193 H 401.766 -1.21145 -3.03301 0
M  V30 4194 H 400.425 -3.0749 -1.99613 0
M  V30 4195 H 400.073 -2.45117 -4.39234 0
M  V30 4196 H 399.773 -4.18645 -4.12322 0
M  V30 4197 H 401.297 -3.6563 -4.89027 0
M  V30 4198 H 402.711 -4.89414 -2.98575 0
M  V30 4199 H 401.108 -5.47751 -2.45129 0
M  V30 4200 H 402.178 -4.67489 -1.28772 0
M  V30 4201 N 403.521 0.559213 -1.47345 0
M  V30 4202 C 404.451 1.67622 -1.62558 0
M  V30 4203 C 405.432 1.63331 -0.475087 0
M  V30 4204 O 406.617 1.80983 -0.704182 0
M  V30 4205 C 403.747 3.0626 -1.63774 0
M  V30 4206 C 402.701 3.25397 -2.7803 0
M  V30 4207 C 402.027 4.64801 -2.64318 0
M  V30 4208 C 403.327 3.10965 -4.19641 0
M  V30 4209 H 405.021 1.55146 -2.56067 0
M  V30 4210 H 402.567 0.744961 -1.23233 0
M  V30 4211 H 404.52 3.84247 -1.73008 0
M  V30 4212 H 403.244 3.1969 -0.66825 0
M  V30 4213 H 401.903 2.49817 -2.68304 0
M  V30 4214 H 401.551 4.75028 -1.65401 0
M  V30 4215 H 401.251 4.78555 -3.40968 0
M  V30 4216 H 402.775 5.44926 -2.75478 0
M  V30 4217 H 404.189 3.78772 -4.30354 0
M  V30 4218 H 402.586 3.36229 -4.97062 0
M  V30 4219 H 403.656 2.07736 -4.38148 0
M  V30 4220 N 404.999 1.35443 0.805782 0
M  V30 4221 C 406.415 1.15499 1.10146 0
M  V30 4222 C 406.615 -0.0319975 2.01475 0
M  V30 4223 O 405.671 -0.70236 2.42535 0
M  V30 4224 C 406.984 2.45833 1.73166 0
M  V30 4225 C 408.532 2.52047 1.85583 0
M  V30 4226 C 409.007 3.82427 2.52019 0
M  V30 4227 N 410.498 3.83682 2.59504 0
M  V30 4228 C 411.233 4.81294 3.11679 0
M  V30 4229 N 410.729 5.89294 3.64287 0
M  V30 4230 N 412.522 4.6873 3.1024 0
M  V30 4231 H 404.673 2.11469 0.198678 0
M  V30 4232 H 406.936 0.93594 0.150731 0
M  V30 4233 H 406.642 3.32874 1.13526 0
M  V30 4234 H 406.516 2.6044 2.72857 0
M  V30 4235 H 408.903 1.65435 2.44367 0
M  V30 4236 H 408.984 2.41354 0.847455 0
M  V30 4237 H 408.628 4.69437 1.93885 0
M  V30 4238 H 408.558 3.90409 3.53395 0
M  V30 4239 H 411.049 3.05648 2.22234 0
M  V30 4240 H 411.362 6.59768 4.02401 0
M  V30 4241 H 409.707 5.92985 3.62483 0
M  V30 4242 H 412.898 3.83496 2.68419 0
M  V30 4243 H 413.071 5.44965 3.50596 0
M  V30 4244 N 406.477 -1.02803 1.19454 0
M  V30 4245 C 407.726 -1.7562 0.991996 0
M  V30 4246 C 408.039 -1.89672 -0.477901 0
M  V30 4247 O 409.245 -2.59468 -0.799287 0
M  V30 4248 C 407.701 -3.15812 1.72601 0
M  V30 4249 C 407.309 -3.0981 3.23607 0
M  V30 4250 C 409.053 -3.92918 1.60674 0
M  V30 4251 C 406.96 -4.44939 3.89594 0
M  V30 4252 H 405.89 -0.658352 0.367543 0
M  V30 4253 H 408.541 -1.15044 1.42959 0
M  V30 4254 H 406.923 -3.7686 1.21624 0
M  V30 4255 H 408.097 -2.58138 3.81709 0
M  V30 4256 H 406.412 -2.46201 3.35819 0
M  V30 4257 H 409.009 -4.9287 2.07323 0
M  V30 4258 H 409.352 -4.12502 0.561025 0
M  V30 4259 H 409.885 -3.38472 2.09001 0
M  V30 4260 H 406.624 -4.30559 4.94267 0
M  V30 4261 H 406.144 -4.96664 3.36281 0
M  V30 4262 H 407.823 -5.1382 3.93189 0
M  V30 4263 N 407.956 -0.998596 -1.21925 0
M  V30 4264 C 408.904 -0.546641 -2.26085 0
M  V30 4265 C 409.898 0.405576 -1.64473 0
M  V30 4266 O 411.104 0.277471 -1.77849 0
M  V30 4267 H 407.479 -0.158403 -0.735127 0
M  V30 4268 H 409.45 -1.43645 -2.61551 0
M  V30 4269 C 408.199 0.117388 -3.47502 0
M  V30 4270 H 407.522 -0.606277 -3.95176 0
M  V30 4271 H 408.962 0.396993 -4.22137 0
M  V30 4272 C 407.421 1.35455 -3.0847 0
M  V30 4273 O 407.951 2.44944 -3.18379 0
M  V30 4274 N 406.157 1.23191 -2.63196 0
M  V30 4275 H 405.704 0.341006 -2.55333 0
M  V30 4276 H 405.662 2.06071 -2.37449 0
M  V30 4277 N 409.434 1.37368 -0.772513 0
M  V30 4278 C 410.364 2.32856 -0.173304 0
M  V30 4279 C 411.345 1.55818 0.682262 0
M  V30 4280 O 412.53 1.84052 0.619566 0
M  V30 4281 C 409.66 3.40048 0.706007 0
M  V30 4282 C 408.614 4.27973 -0.0483144 0
M  V30 4283 C 407.94 5.26184 0.950491 0
M  V30 4284 C 409.24 5.07665 -1.22776 0
M  V30 4285 H 410.934 2.83217 -0.971002 0
M  V30 4286 H 408.48 1.3617 -0.468377 0
M  V30 4287 H 410.433 4.05827 1.13501 0
M  V30 4288 H 409.157 2.88214 1.53623 0
M  V30 4289 H 407.816 3.63726 -0.458107 0
M  V30 4290 H 407.464 4.7063 1.77529 0
M  V30 4291 H 407.164 5.85872 0.450314 0
M  V30 4292 H 408.688 5.94838 1.37842 0
M  V30 4293 H 410.102 5.66578 -0.875366 0
M  V30 4294 H 408.499 5.76681 -1.66007 0
M  V30 4295 H 409.569 4.40294 -2.03149 0
M  V30 4296 N 410.912 0.523116 1.48665 0
M  V30 4297 C 412.137 -0.0117284 2.07397 0
M  V30 4298 C 412.562 -1.28031 1.37803 0
M  V30 4299 O 411.92 -1.75836 0.441762 0
M  V30 4300 C 411.968 -0.225786 3.59892 0
M  V30 4301 O 411.072 -1.29592 3.91509 0
M  V30 4302 H 410.413 0.0360673 0.66302 0
M  V30 4303 H 412.943 0.729066 1.9117 0
M  V30 4304 H 412.953 -0.450552 4.05505 0
M  V30 4305 H 411.628 0.700944 4.09951 0
M  V30 4306 H 410.205 -1.05436 3.57684 0
M  V30 4307 N 412.39 -1.55475 0.257931 0
M  V30 4308 C 413.637 -1.99207 -0.363728 0
M  V30 4309 C 413.965 -1.1462 -1.57139 0
M  V30 4310 O 413.22 -0.199653 -1.94679 0
M  V30 4311 C 413.519 -3.48183 -0.806433 0
M  V30 4312 C 413.185 -4.49936 0.294684 0
M  V30 4313 C 411.847 -4.77481 0.597076 0
M  V30 4314 C 414.199 -5.10769 1.03751 0
M  V30 4315 C 411.527 -5.63132 1.64618 0
M  V30 4316 C 413.879 -5.97558 2.07622 0
M  V30 4317 C 412.543 -6.23432 2.38514 0
M  V30 4318 H 411.813 -0.728949 -0.133097 0
M  V30 4319 H 414.46 -1.8793 0.368059 0
M  V30 4320 H 412.765 -3.56848 -1.61761 0
M  V30 4321 H 414.462 -3.79415 -1.29789 0
M  V30 4322 H 411.052 -4.28572 0.0488649 0
M  V30 4323 H 415.236 -4.89527 0.817149 0
M  V30 4324 H 410.492 -5.8143 1.89074 0
M  V30 4325 H 414.666 -6.43735 2.65666 0
M  V30 4326 H 412.293 -6.89594 3.19943 0
M  V30 4327 N 413.868 0.0150385 -1.57593 0
M  V30 4328 C 414.831 0.995996 -2.06428 0
M  V30 4329 C 415.831 1.2818 -0.970903 0
M  V30 4330 O 417.021 1.22949 -1.23406 0
M  V30 4331 C 414.153 2.32506 -2.49307 0
M  V30 4332 H 415.346 0.573873 -2.94358 0
M  V30 4333 H 412.899 0.262186 -1.54085 0
M  V30 4334 H 413.634 2.79438 -1.64575 0
M  V30 4335 H 413.419 2.13087 -3.29145 0
M  V30 4336 H 414.909 3.02906 -2.87468 0
M  V30 4337 N 415.346 1.54954 0.287554 0
M  V30 4338 C 416.623 1.65569 1.04146 0
M  V30 4339 C 417.003 0.512672 2.0478 0
M  V30 4340 O 416.351 -0.489038 2.23205 0
M  V30 4341 C 416.561 3.04163 1.71131 0
M  V30 4342 C 417.909 3.61429 2.22832 0
M  V30 4343 O 418.933 3.06702 1.81141 0
M  V30 4344 O 417.792 4.57281 2.9926 0
M  V30 4345 H 414.886 0.671881 0.482188 0
M  V30 4346 H 417.432 1.67297 0.28457 0
M  V30 4347 H 416.204 3.78796 0.981303 0
M  V30 4348 H 415.827 3.06271 2.53543 0
M  V30 4349 N 416.824 -0.551391 1.4764 0
M  V30 4350 C 418.072 -1.30572 1.54258 0
M  V30 4351 C 418.393 -1.93877 0.208963 0
M  V30 4352 O 417.663 -1.80234 -0.767619 0
M  V30 4353 H 416.243 -0.484894 0.568231 0
M  V30 4354 H 418.905 -0.643402 1.83974 0
M  V30 4355 H 418.001 -2.09621 2.31226 0
M  V30 4356 N 418.302 -1.35869 -0.798587 0
M  V30 4357 C 419.232 -1.32118 -1.92528 0
M  V30 4358 C 420.213 -0.194209 -1.68988 0
M  V30 4359 O 421.398 -0.390426 -1.90235 0
M  V30 4360 C 418.528 -1.10047 -3.29404 0
M  V30 4361 C 417.482 -2.19471 -3.67446 0
M  V30 4362 C 416.808 -1.82555 -5.02571 0
M  V30 4363 C 418.108 -3.61495 -3.76987 0
M  V30 4364 H 419.802 -2.26394 -1.95924 0
M  V30 4365 H 417.348 -1.08981 -0.94123 0
M  V30 4366 H 419.301 -1.06061 -4.07835 0
M  V30 4367 H 418.025 -0.122195 -3.26371 0
M  V30 4368 H 416.684 -2.22568 -2.91306 0
M  V30 4369 H 416.332 -0.833249 -4.9605 0
M  V30 4370 H 416.032 -2.5581 -5.28995 0
M  V30 4371 H 417.556 -1.80108 -5.83432 0
M  V30 4372 H 418.97 -3.60676 -4.4563 0
M  V30 4373 H 417.367 -4.33577 -4.14887 0
M  V30 4374 H 418.437 -3.97065 -2.78329 0
M  V30 4375 N 419.78 1.02168 -1.19998 0
M  V30 4376 C 421.191 1.57135 -1.00825 0
M  V30 4377 C 421.542 1.91276 0.436818 0
M  V30 4378 O 420.667 1.71679 1.3174 0
M  V30 4379 C 421.262 2.85514 -1.82393 0
M  V30 4380 C 419.821 3.37027 -1.67601 0
M  V30 4381 C 418.968 2.10388 -1.80644 0
M  V30 4382 H 421.919 0.846106 -1.34264 0
M  V30 4383 H 421.94 3.56711 -1.32429 0
M  V30 4384 H 421.452 2.60634 -2.87561 0
M  V30 4385 H 419.553 3.66878 -0.650485 0
M  V30 4386 H 419.666 4.09572 -2.4857 0
M  V30 4387 H 418.03 2.22601 -1.23778 0
M  V30 4388 H 418.813 1.8794 -2.87286 0
M  V30 4389 N 421.258 1.00505 1.21394 0
M  V30 4390 C 422.674 0.717873 1.42544 0
M  V30 4391 C 422.874 -0.706936 1.88692 0
M  V30 4392 O 421.93 -1.47627 2.04847 0
M  V30 4393 C 423.243 1.73377 2.45684 0
M  V30 4394 C 424.791 1.75059 2.59467 0
M  V30 4395 C 425.266 2.75545 3.6584 0
M  V30 4396 N 426.757 2.74213 3.73311 0
M  V30 4397 C 427.492 3.48626 4.55245 0
M  V30 4398 N 426.988 4.32678 5.41075 0
M  V30 4399 N 428.781 3.37276 4.49668 0
M  V30 4400 H 420.932 1.92506 0.897503 0
M  V30 4401 H 423.195 0.830919 0.456375 0
M  V30 4402 H 422.901 2.75395 2.18748 0
M  V30 4403 H 422.775 1.53647 3.44489 0
M  V30 4404 H 425.162 0.737337 2.8574 0
M  V30 4405 H 425.243 1.98861 1.60897 0
M  V30 4406 H 424.887 3.77028 3.40313 0
M  V30 4407 H 424.817 2.49009 4.64007 0
M  V30 4408 H 427.308 2.13234 3.11993 0
M  V30 4409 H 427.621 4.86253 6.00648 0
M  V30 4410 H 425.966 4.3676 5.40616 0
M  V30 4411 H 429.157 2.71043 3.81646 0
M  V30 4412 H 429.33 3.95524 5.13288 0
M  V30 4413 N 422.737 -1.36956 0.779787 0
M  V30 4414 C 423.667 -2.32761 0.185651 0
M  V30 4415 C 424.648 -1.56177 -0.673989 0
M  V30 4416 O 425.833 -1.84378 -0.609797 0
M  V30 4417 C 422.963 -3.40418 -0.687964 0
M  V30 4418 C 421.917 -4.27941 0.0710102 0
M  V30 4419 C 421.243 -5.26681 -0.922573 0
M  V30 4420 C 422.543 -5.07006 1.25467 0
M  V30 4421 H 424.237 -2.82698 0.986008 0
M  V30 4422 H 421.783 -1.3592 0.475592 0
M  V30 4423 H 423.736 -4.06423 -1.11348 0
M  V30 4424 H 422.46 -2.89025 -1.52093 0
M  V30 4425 H 421.119 -3.63478 0.47739 0
M  V30 4426 H 420.767 -4.71565 -1.7503 0
M  V30 4427 H 420.467 -5.86103 -0.419237 0
M  V30 4428 H 421.991 -5.9556 -1.34686 0
M  V30 4429 H 423.405 -5.66105 0.905401 0
M  V30 4430 H 421.802 -5.75793 1.69063 0
M  V30 4431 H 422.872 -4.3921 2.05481 0
M  V30 4432 N 424.215 -0.530993 -1.48385 0
M  V30 4433 C 425.178 0.220497 -2.28137 0
M  V30 4434 C 426.178 0.866851 -1.35434 0
M  V30 4435 O 427.368 0.726746 -1.58316 0
M  V30 4436 C 424.5 1.31921 -3.1434 0
M  V30 4437 H 425.693 -0.479714 -2.96038 0
M  V30 4438 H 423.246 -0.286968 -1.53643 0
M  V30 4439 H 423.981 2.05264 -2.51072 0
M  V30 4440 H 423.766 0.86085 -3.82533 0
M  V30 4441 H 425.256 1.84776 -3.74497 0
M  V30 4442 N 425.693 1.55336 -0.266172 0
M  V30 4443 C 426.921 2.03801 0.356756 0
M  V30 4444 C 427.336 1.14485 1.50129 0
M  V30 4445 O 426.693 0.163121 1.8177 0
M  V30 4446 C 426.744 3.51455 0.846281 0
M  V30 4447 O 426.465 4.37371 -0.252663 0
M  V30 4448 C 427.966 4.15767 1.53794 0
M  V30 4449 H 425.186 0.665906 0.0825218 0
M  V30 4450 H 427.73 2.00636 -0.39566 0
M  V30 4451 H 425.885 3.55092 1.54881 0
M  V30 4452 H 426.299 5.24358 0.122173 0
M  V30 4453 H 427.773 5.20714 1.83198 0
M  V30 4454 H 428.25 3.63404 2.46646 0
M  V30 4455 H 428.856 4.16107 0.879488 0
M  V30 4456 N 427.171 -0.0066808 1.57599 0
M  V30 4457 C 428.134 -0.985035 2.06953 0
M  V30 4458 C 429.134 -1.27663 0.977687 0
M  V30 4459 O 430.324 -1.22293 1.24057 0
M  V30 4460 C 427.456 -2.3118 2.50536 0
M  V30 4461 H 428.649 -0.558255 2.94658 0
M  V30 4462 H 426.202 -0.254011 1.54222 0
M  V30 4463 H 426.937 -2.78561 1.66054 0
M  V30 4464 H 426.722 -2.11338 3.3027 0
M  V30 4465 H 428.212 -3.01377 2.8907 0
M  V30 4466 N 428.649 -1.55105 -0.279332 0
M  V30 4467 C 429.926 -1.66119 -1.03267 0
M  V30 4468 C 430.306 -0.523525 -2.04505 0
M  V30 4469 O 429.654 0.477194 -2.23462 0
M  V30 4470 C 429.864 -3.05067 -1.69515 0
M  V30 4471 C 431.212 -3.62606 -2.20912 0
M  V30 4472 O 432.236 -3.07659 -1.79512 0
M  V30 4473 O 431.095 -4.58861 -2.96831 0
M  V30 4474 H 428.189 -0.674429 -0.478618 0
M  V30 4475 H 430.735 -1.67446 -0.275694 0
M  V30 4476 H 429.507 -3.79311 -0.9612 0
M  V30 4477 H 429.13 -3.07611 -2.51915 0
M  V30 4478 N 430.127 0.543554 -1.4793 0
M  V30 4479 C 431.376 1.29649 -1.54512 0
M  V30 4480 C 431.689 1.94382 -0.217973 0
M  V30 4481 O 432.895 2.71017 -0.161908 0
M  V30 4482 C 431.351 2.35175 -2.72435 0
M  V30 4483 C 430.959 1.76572 -4.11736 0
M  V30 4484 C 432.703 3.11564 -2.8832 0
M  V30 4485 C 430.61 2.79958 -5.20939 0
M  V30 4486 H 429.54 0.487541 -0.57517 0
M  V30 4487 H 432.191 0.575708 -1.74235 0
M  V30 4488 H 430.573 3.10229 -2.46118 0
M  V30 4489 H 431.747 1.07799 -4.48013 0
M  V30 4490 H 430.062 1.12722 -4.00852 0
M  V30 4491 H 432.659 3.88794 -3.67074 0
M  V30 4492 H 433.002 3.66594 -1.97268 0
M  V30 4493 H 433.535 2.43623 -3.14472 0
M  V30 4494 H 430.274 2.29766 -6.13912 0
M  V30 4495 H 429.794 3.47101 -4.89164 0
M  V30 4496 H 431.473 3.43198 -5.48474 0
M  V30 4497 N 431.605 1.3629 0.791371 0
M  V30 4498 C 432.537 1.26321 1.91248 0
M  V30 4499 C 433.55 0.18313 1.61767 0
M  V30 4500 O 434.739 0.437682 1.73051 0
M  V30 4501 C 431.839 0.925901 3.26007 0
M  V30 4502 C 431.012 2.10746 3.83281 0
M  V30 4503 C 430.071 1.74352 4.96475 0
M  V30 4504 O 429.097 2.46416 5.13096 0
M  V30 4505 N 430.299 0.676058 5.7655 0
M  V30 4506 H 433.064 2.22915 2.00323 0
M  V30 4507 H 430.625 1.29659 0.969546 0
M  V30 4508 H 432.617 0.663636 3.99222 0
M  V30 4509 H 431.187 0.0491581 3.12561 0
M  V30 4510 H 430.407 2.53264 3.02077 0
M  V30 4511 H 431.695 2.8969 4.18279 0
M  V30 4512 H 431.093 0.0776467 5.65647 0
M  V30 4513 H 429.65 0.473612 6.50077 0
M  V30 4514 N 433.083 -1.0153 1.20538 0
M  V30 4515 C 434.329 -1.75408 1.01783 0
M  V30 4516 C 434.662 -1.88943 -0.448814 0
M  V30 4517 O 433.937 -1.4162 -1.33319 0
M  V30 4518 C 434.22 -3.17255 1.70356 0
M  V30 4519 C 434.073 -3.11508 3.24473 0
M  V30 4520 C 435.392 -4.15955 1.43769 0
M  V30 4521 H 432.511 -0.636713 0.371167 0
M  V30 4522 H 435.153 -1.18436 1.4857 0
M  V30 4523 H 433.303 -3.65898 1.30578 0
M  V30 4524 H 434.975 -2.70658 3.73553 0
M  V30 4525 H 433.218 -2.4887 3.55311 0
M  V30 4526 H 433.889 -4.11784 3.67611 0
M  V30 4527 H 436.365 -3.75973 1.7828 0
M  V30 4528 H 435.241 -5.13368 1.94279 0
M  V30 4529 H 435.502 -4.40586 0.365564 0
M  V30 4530 N 434.561 -1.01147 -1.20859 0
M  V30 4531 C 435.809 -0.696486 -1.89719 0
M  V30 4532 C 436.13 0.775788 -1.78904 0
M  V30 4533 O 435.4 1.55759 -1.18811 0
M  V30 4534 H 433.98 -0.254628 -0.702263 0
M  V30 4535 H 436.642 -1.28197 -1.46804 0
M  V30 4536 H 435.738 -0.975357 -2.96468 0
M  V30 4537 N 436.039 1.36541 -0.78704 0
M  V30 4538 C 437.316 1.9355 -0.282424 0
M  V30 4539 C 437.696 1.71919 1.22503 0
M  V30 4540 O 437.044 1.07677 2.01539 0
M  V30 4541 C 437.254 3.4246 -0.672462 0
M  V30 4542 C 438.602 4.19582 -0.650863 0
M  V30 4543 O 439.626 3.50889 -0.612789 0
M  V30 4544 O 438.485 5.42106 -0.691623 0
M  V30 4545 H 435.579 0.824091 -0.0693 0
M  V30 4546 H 438.125 1.45736 -0.869423 0
M  V30 4547 H 436.897 3.51851 -1.71221 0
M  V30 4548 H 436.52 3.97556 -0.0592211 0
M  V30 4549 N 437.518 0.538854 1.48102 0
M  V30 4550 C 438.764 0.00801365 2.02798 0
M  V30 4551 C 439.097 -1.3309 1.41424 0
M  V30 4552 O 438.372 -1.86169 0.563158 0
M  V30 4553 C 438.655 -0.104589 3.59948 0
M  V30 4554 C 438.508 1.26012 4.31788 0
M  V30 4555 C 439.827 -0.827055 4.32259 0
M  V30 4556 H 436.946 0.00438624 0.736987 0
M  V30 4557 H 439.588 0.6976 1.7673 0
M  V30 4558 H 437.738 -0.691893 3.82289 0
M  V30 4559 H 439.41 1.88922 4.2084 0
M  V30 4560 H 437.653 1.83968 3.92859 0
M  V30 4561 H 438.324 1.13424 5.40221 0
M  V30 4562 H 440.8 -0.328578 4.14801 0
M  V30 4563 H 439.676 -0.87476 5.41885 0
M  V30 4564 H 439.937 -1.87927 4.0017 0
M  V30 4565 N 438.996 -1.55193 0.274407 0
M  V30 4566 C 439.926 -2.25471 -0.607032 0
M  V30 4567 C 440.907 -1.24461 -1.15946 0
M  V30 4568 O 442.092 -1.53179 -1.19373 0
M  V30 4569 C 439.222 -2.97526 -1.79153 0
M  V30 4570 C 438.176 -4.05459 -1.37067 0
M  V30 4571 C 437.502 -4.65084 -2.6382 0
M  V30 4572 C 438.802 -5.19691 -0.521389 0
M  V30 4573 H 440.496 -2.99393 -0.0209343 0
M  V30 4574 H 438.042 -1.43997 -0.00862866 0
M  V30 4575 H 439.995 -3.45402 -2.41404 0
M  V30 4576 H 438.719 -2.21138 -2.40344 0
M  V30 4577 H 437.378 -3.58393 -0.771355 0
M  V30 4578 H 437.026 -3.85365 -3.23268 0
M  V30 4579 H 436.726 -5.37961 -2.36372 0
M  V30 4580 H 438.25 -5.15708 -3.26921 0
M  V30 4581 H 439.664 -5.63623 -1.04889 0
M  V30 4582 H 438.061 -5.99126 -0.341825 0
M  V30 4583 H 439.131 -4.82713 0.46 0
M  V30 4584 N 440.474 -0.00167713 -1.576 0
M  V30 4585 C 441.72 0.683832 -1.90923 0
M  V30 4586 C 442.053 1.7333 -0.875799 0
M  V30 4587 O 441.328 1.94215 0.10525 0
M  V30 4588 C 441.611 1.32543 -3.3482 0
M  V30 4589 C 441.464 0.287387 -4.48881 0
M  V30 4590 C 442.783 2.25114 -3.78169 0
M  V30 4591 H 439.902 0.247125 -0.694333 0
M  V30 4592 H 442.544 -0.0533149 -1.89925 0
M  V30 4593 H 440.694 1.95372 -3.35801 0
M  V30 4594 H 442.366 -0.341346 -4.60035 0
M  V30 4595 H 440.609 -0.39017 -4.32042 0
M  V30 4596 H 441.28 0.775393 -5.46527 0
M  V30 4597 H 443.756 1.723 -3.7875 0
M  V30 4598 H 442.632 2.66971 -4.79602 0
M  V30 4599 H 442.893 3.13092 -3.12131 0
M  V30 4600 N 441.952 1.55251 0.271103 0
M  V30 4601 C 443.368 1.47133 0.618393 0
M  V30 4602 C 443.568 0.686994 1.89427 0
M  V30 4603 O 442.624 0.206609 2.51653 0
M  V30 4604 C 443.937 2.91361 0.743593 0
M  V30 4605 C 445.485 3.01587 0.837522 0
M  V30 4606 C 445.96 4.47073 0.994483 0
M  V30 4607 N 447.451 4.50909 1.05996 0
M  V30 4608 C 448.186 5.60698 1.20024 0
M  V30 4609 N 447.682 6.80348 1.30759 0
M  V30 4610 N 449.475 5.48444 1.23149 0
M  V30 4611 H 441.626 2.04698 -0.566784 0
M  V30 4612 H 443.889 0.928319 -0.192165 0
M  V30 4613 H 443.595 3.51483 -0.123493 0
M  V30 4614 H 443.469 3.40484 1.62328 0
M  V30 4615 H 445.856 2.4156 1.69507 0
M  V30 4616 H 445.937 2.55713 -0.0668086 0
M  V30 4617 H 445.581 5.07703 0.141582 0
M  V30 4618 H 445.511 4.90605 1.91349 0
M  V30 4619 H 448.002 3.6472 0.989316 0
M  V30 4620 H 448.315 7.59772 1.41303 0
M  V30 4621 H 446.66 6.83156 1.27761 0
M  V30 4622 H 449.851 4.53907 1.14394 0
M  V30 4623 H 450.024 6.34049 1.33738 0
M  V30 4624 N 443.43 -0.535701 1.48216 0
M  V30 4625 C 444.377 -1.64083 1.62312 0
M  V30 4626 C 445.347 -1.59448 0.465365 0
M  V30 4627 O 446.532 -1.77959 0.688135 0
M  V30 4628 C 443.672 -3.0236 1.66349 0
M  V30 4629 C 442.785 -3.17273 2.93193 0
M  V30 4630 C 441.92 -4.46075 2.88427 0
M  V30 4631 C 440.959 -4.54496 4.1 0
M  V30 4632 N 440.096 -5.7468 4.03345 0
M  V30 4633 H 444.936 -1.51374 2.5669 0
M  V30 4634 H 442.473 -0.737059 1.27302 0
M  V30 4635 H 444.431 -3.82461 1.66672 0
M  V30 4636 H 443.061 -3.13854 0.754672 0
M  V30 4637 H 442.113 -2.30462 3.02641 0
M  V30 4638 H 443.425 -3.19357 3.83162 0
M  V30 4639 H 442.579 -5.3446 2.87119 0
M  V30 4640 H 441.318 -4.46504 1.96177 0
M  V30 4641 H 440.323 -3.64519 4.11589 0
M  V30 4642 H 441.548 -4.5581 5.03402 0
M  V30 4643 H 439.494 -5.76017 3.13912 0
M  V30 4644 H 439.411 -5.78234 4.87013 0
M  V30 4645 H 440.679 -6.65367 4.06087 0
M  V30 4646 N 444.908 -1.36708 -0.784132 0
M  V30 4647 C 446.156 -1.30972 -1.53918 0
M  V30 4648 C 446.477 0.109086 -1.94695 0
M  V30 4649 O 445.747 1.05048 -1.65353 0
M  V30 4650 H 444.327 -0.481819 -0.570841 0
M  V30 4651 H 446.989 -1.71063 -0.934002 0
M  V30 4652 H 446.085 -1.94061 -2.44431 0
M  V30 4653 N 446.386 1.0089 -1.21074 0
M  V30 4654 C 447.296 2.13039 -0.982425 0
M  V30 4655 C 448.312 1.73881 0.0642161 0
M  V30 4656 O 449.488 2.01012 -0.12496 0
M  V30 4657 C 446.553 3.42377 -0.545803 0
M  V30 4658 C 445.614 3.95731 -1.6642 0
M  V30 4659 C 444.847 5.18896 -1.24832 0
M  V30 4660 O 445.07 5.70273 -0.120265 0
M  V30 4661 O 444.004 5.65597 -2.05873 0
M  V30 4662 H 447.83 2.35175 -1.92163 0
M  V30 4663 H 445.415 1.1142 -0.995285 0
M  V30 4664 H 447.297 4.20244 -0.311912 0
M  V30 4665 H 445.972 3.21639 0.364727 0
M  V30 4666 H 444.879 3.19108 -1.95246 0
M  V30 4667 H 446.212 4.20872 -2.55201 0
M  V30 4668 N 447.864 1.01787 1.20321 0
M  V30 4669 C 448.794 0.609625 2.25401 0
M  V30 4670 C 449.775 -0.375951 1.65893 0
M  V30 4671 O 450.96 -0.261101 1.92437 0
M  V30 4672 C 448.09 -0.0515995 3.47262 0
M  V30 4673 C 447.044 0.855095 4.19371 0
M  V30 4674 C 446.37 0.0595757 5.34667 0
M  V30 4675 C 447.67 2.16374 4.75373 0
M  V30 4676 H 449.364 1.48803 2.59804 0
M  V30 4677 H 446.91 0.716934 1.24884 0
M  V30 4678 H 448.863 -0.348764 4.19954 0
M  V30 4679 H 447.587 -0.964726 3.12027 0
M  V30 4680 H 446.246 1.13628 3.48546 0
M  V30 4681 H 445.894 -0.85524 4.95676 0
M  V30 4682 H 445.594 0.663406 5.83843 0
M  V30 4683 H 447.118 -0.231105 6.10162 0
M  V30 4684 H 448.532 1.92885 5.39878 0
M  V30 4685 H 446.929 2.71853 5.34991 0
M  V30 4686 H 447.999 2.82589 3.94045 0
M  V30 4687 N 449.342 -1.36122 0.79427 0
M  V30 4688 C 450.588 -1.99406 0.369452 0
M  V30 4689 C 450.921 -1.62886 -1.05743 0
M  V30 4690 O 450.196 -0.886053 -1.73145 0
M  V30 4691 C 450.479 -3.56046 0.538833 0
M  V30 4692 C 450.332 -4.02404 2.00976 0
M  V30 4693 C 451.651 -4.40079 -0.0431359 0
M  V30 4694 H 448.77 -0.724397 0.135712 0
M  V30 4695 H 451.412 -1.61461 1.00151 0
M  V30 4696 H 449.562 -3.885 0.000771004 0
M  V30 4697 H 451.234 -3.80415 2.60926 0
M  V30 4698 H 449.477 -3.53765 2.51063 0
M  V30 4699 H 450.148 -5.11344 2.07922 0
M  V30 4700 H 452.624 -4.14013 0.416228 0
M  V30 4701 H 451.5 -5.48799 0.105374 0
M  V30 4702 H 451.761 -4.27264 -1.13571 0
M  V30 4703 N 450.82 -0.546701 -1.47814 0
M  V30 4704 C 451.75 0.195317 -2.32682 0
M  V30 4705 C 452.731 0.918981 -1.43139 0
M  V30 4706 O 453.916 0.901501 -1.72008 0
M  V30 4707 C 451.046 1.23237 -3.247 0
M  V30 4708 C 450 0.625818 -4.234 0
M  V30 4709 C 449.326 1.76674 -5.04669 0
M  V30 4710 C 450.626 -0.413515 -5.2066 0
M  V30 4711 H 452.32 -0.513184 -2.94969 0
M  V30 4712 H 449.866 -0.248241 -1.41844 0
M  V30 4713 H 451.819 1.75955 -3.82907 0
M  V30 4714 H 450.543 1.97067 -2.60446 0
M  V30 4715 H 449.202 0.120023 -3.66403 0
M  V30 4716 H 448.85 2.49383 -4.36826 0
M  V30 4717 H 448.55 1.36673 -5.71484 0
M  V30 4718 H 450.074 2.29738 -5.65732 0
M  V30 4719 H 451.488 0.0272042 -5.73294 0
M  V30 4720 H 449.885 -0.731825 -5.95621 0
M  V30 4721 H 450.955 -1.31325 -4.66778 0
M  V30 4722 N 452.299 1.55045 -0.282633 0
M  V30 4723 C 453.545 2.00056 0.332481 0
M  V30 4724 C 453.878 1.1708 1.54939 0
M  V30 4725 O 453.153 0.2427 1.9298 0
M  V30 4726 C 453.436 3.53086 0.70725 0
M  V30 4727 C 453.289 4.46813 -0.517521 0
M  V30 4728 C 454.608 4.12245 1.54084 0
M  V30 4729 H 451.727 0.727268 0.119373 0
M  V30 4730 H 454.369 1.85932 -0.391076 0
M  V30 4731 H 452.519 3.65253 1.32372 0
M  V30 4732 H 454.191 4.46579 -1.15607 0
M  V30 4733 H 452.434 4.18163 -1.1542 0
M  V30 4734 H 453.105 5.51595 -0.211426 0
M  V30 4735 H 455.581 4.03401 1.02013 0
M  V30 4736 H 454.457 5.19515 1.77186 0
M  V30 4737 H 454.718 3.62951 2.52427 0
M  V30 4738 N 453.777 0.010035 1.57597 0
M  V30 4739 C 454.707 -0.976857 2.12084 0
M  V30 4740 C 455.688 -1.35191 1.03235 0
M  V30 4741 O 456.873 -1.43389 1.3097 0
M  V30 4742 C 454.003 -2.26548 2.63236 0
M  V30 4743 C 452.957 -2.03175 3.76701 0
M  V30 4744 C 452.283 -3.38138 4.14206 0
M  V30 4745 C 453.583 -1.38625 5.03568 0
M  V30 4746 H 455.277 -0.523145 2.94794 0
M  V30 4747 H 452.823 -0.250195 1.4181 0
M  V30 4748 H 454.776 -2.95952 2.99984 0
M  V30 4749 H 453.5 -2.74051 1.77661 0
M  V30 4750 H 452.159 -1.36195 3.40362 0
M  V30 4751 H 451.807 -3.83363 3.25641 0
M  V30 4752 H 451.507 -3.23312 4.90656 0
M  V30 4753 H 453.031 -4.08841 4.53521 0
M  V30 4754 H 454.445 -1.98 5.38023 0
M  V30 4755 H 452.842 -1.34256 5.84889 0
M  V30 4756 H 453.912 -0.356722 4.83586 0
M  V30 4757 N 455.255 -1.55392 -0.262866 0
M  V30 4758 C 456.185 -1.91978 -1.32917 0
M  V30 4759 C 457.166 -0.7828 -1.51017 0
M  V30 4760 O 458.351 -1.04178 -1.63892 0
M  V30 4761 C 455.481 -2.20055 -2.68687 0
M  V30 4762 C 454.435 -3.35854 -2.65304 0
M  V30 4763 C 453.761 -3.49435 -4.04721 0
M  V30 4764 C 455.061 -4.71977 -2.23685 0
M  V30 4765 H 456.755 -2.81292 -1.02544 0
M  V30 4766 H 454.301 -1.3534 -0.491846 0
M  V30 4767 H 456.254 -2.44237 -3.43404 0
M  V30 4768 H 454.978 -1.27551 -3.00663 0
M  V30 4769 H 453.637 -3.11655 -1.93045 0
M  V30 4770 H 453.285 -2.54379 -4.33936 0
M  V30 4771 H 452.985 -4.27297 -4.0335 0
M  V30 4772 H 454.509 -3.7592 -4.81161 0
M  V30 4773 H 455.923 -4.95637 -2.88127 0
M  V30 4774 H 454.32 -5.52828 -2.33456 0
M  V30 4775 H 455.39 -4.70115 -1.18827 0
M  V30 4776 N 456.733 0.527833 -1.48498 0
M  V30 4777 C 457.643 1.65907 -1.65867 0
M  V30 4778 C 458.659 1.6537 -0.541192 0
M  V30 4779 O 459.835 1.84282 -0.812534 0
M  V30 4780 C 456.9 3.02364 -1.69637 0
M  V30 4781 C 455.961 3.1374 -2.93028 0
M  V30 4782 C 455.194 4.43688 -2.96609 0
M  V30 4783 O 455.417 5.30913 -2.08538 0
M  V30 4784 O 454.351 4.59475 -3.88802 0
M  V30 4785 H 458.177 1.5419 -2.61647 0
M  V30 4786 H 455.762 0.701163 -1.31924 0
M  V30 4787 H 457.644 3.83515 -1.74625 0
M  V30 4788 H 456.319 3.14401 -0.770312 0
M  V30 4789 H 455.226 2.31877 -2.93571 0
M  V30 4790 H 456.559 3.06621 -3.85026 0
M  V30 4791 N 458.211 1.37122 0.776871 0
M  V30 4792 C 459.459 1.31787 1.53221 0
M  V30 4793 C 459.78 -0.0987589 1.9475 0
M  V30 4794 O 459.05 -1.0417 1.65908 0
M  V30 4795 H 457.63 0.484839 0.568278 0
M  V30 4796 H 460.292 1.71556 0.924917 0
M  V30 4797 H 459.388 1.95355 2.43398 0
M  V30 4798 N 459.689 -1.00246 1.21608 0
M  V30 4799 C 460.652 -2.07233 0.979133 0
M  V30 4800 C 461.652 -1.6072 -0.0508219 0
M  V30 4801 O 462.842 -1.73196 0.186712 0
M  V30 4802 C 459.974 -3.37546 0.477016 0
M  V30 4803 H 461.167 -2.29687 1.92831 0
M  V30 4804 H 458.72 -1.17261 1.03342 0
M  V30 4805 H 459.455 -3.20773 -0.476966 0
M  V30 4806 H 459.24 -3.72638 1.21997 0
M  V30 4807 H 460.73 -4.16285 0.331181 0
M  V30 4808 N 461.167 -1.02423 -1.1978 0
M  V30 4809 C 462.115 -0.594474 -2.24875 0
M  V30 4810 C 463.109 0.370598 -1.65296 0
M  V30 4811 O 464.315 0.239684 -1.78397 0
M  V30 4812 H 460.69 -0.173961 -0.731602 0
M  V30 4813 H 462.661 -1.4916 -2.58445 0
M  V30 4814 C 461.41 0.0436512 -3.47673 0
M  V30 4815 H 460.733 -0.689963 -3.93801 0
M  V30 4816 H 462.173 0.307362 -4.22884 0
M  V30 4817 C 460.632 1.28881 -3.11274 0
M  V30 4818 O 461.162 2.38135 -3.23503 0
M  V30 4819 N 459.368 1.1758 -2.6575 0
M  V30 4820 H 458.915 0.286769 -2.55999 0
M  V30 4821 H 458.873 2.00988 -2.41767 0
M  V30 4822 N 462.645 1.35699 -0.801477 0
M  V30 4823 C 463.892 1.98913 -0.379459 0
M  V30 4824 C 464.22 1.63592 1.05204 0
M  V30 4825 O 463.475 0.888563 1.74365 0
M  V30 4826 C 463.774 3.53828 -0.504041 0
M  V30 4827 C 463.44 4.09002 -1.8981 0
M  V30 4828 C 462.102 4.23783 -2.27951 0
M  V30 4829 C 464.454 4.38939 -2.81038 0
M  V30 4830 C 461.782 4.65816 -3.56696 0
M  V30 4831 C 464.134 4.82409 -4.09224 0
M  V30 4832 C 462.798 4.95395 -4.4737 0
M  V30 4833 H 462.068 0.727874 -0.138854 0
M  V30 4834 H 464.715 1.61994 -1.02128 0
M  V30 4835 H 463.02 3.91175 0.221242 0
M  V30 4836 H 464.717 4.00687 -0.158361 0
M  V30 4837 H 461.307 3.97946 -1.59176 0
M  V30 4838 H 465.491 4.27077 -2.52821 0
M  V30 4839 H 460.747 4.74059 -3.86106 0
M  V30 4840 H 464.921 5.04535 -4.80018 0
M  V30 4841 H 462.548 5.27724 -5.47185 0
M  V30 4842 N 464.123 0.554532 1.47522 0
M  V30 4843 C 465.4 -0.0360704 1.95567 0
M  V30 4844 C 465.78 -1.48828 1.49711 0
M  V30 4845 O 465.128 -2.16366 0.734717 0
M  V30 4846 C 465.338 0.106631 3.48837 0
M  V30 4847 C 466.686 -0.0400899 4.24581 0
M  V30 4848 O 467.71 0.0340453 3.56184 0
M  V30 4849 O 466.569 -0.199111 5.46137 0
M  V30 4850 H 463.663 -0.0656294 0.824392 0
M  V30 4851 H 466.209 0.620867 1.57935 0
M  V30 4852 H 464.981 1.11727 3.7501 0
M  V30 4853 H 464.604 -0.58804 3.93227 0
M  V30 4854 N 465.601 -1.54893 0.290851 0
M  V30 4855 C 467.012 -1.85584 -0.203816 0
M  V30 4856 C 467.363 -1.21285 -1.54222 0
M  V30 4857 O 466.488 -0.506841 -2.10381 0
M  V30 4858 C 467.083 -3.367 -0.376595 0
M  V30 4859 C 465.642 -3.6746 -0.815485 0
M  V30 4860 C 464.789 -2.77178 0.0821087 0
M  V30 4861 H 467.74 -1.50208 0.512175 0
M  V30 4862 H 467.761 -3.60656 -1.21275 0
M  V30 4863 H 467.273 -3.8347 0.59767 0
M  V30 4864 H 465.374 -3.26201 -1.80066 0
M  V30 4865 H 465.487 -4.7478 -0.641905 0
M  V30 4866 H 463.851 -2.50925 -0.436895 0
M  V30 4867 H 464.634 -3.26767 1.05254 0
M  V30 4868 N 467.08 -0.0183926 -1.57589 0
M  V30 4869 C 467.99 0.982943 -2.13015 0
M  V30 4870 C 469.006 1.36443 -1.07979 0
M  V30 4871 O 470.182 1.44802 -1.3998 0
M  V30 4872 C 467.247 2.25024 -2.63752 0
M  V30 4873 C 466.308 1.93018 -3.83461 0
M  V30 4874 C 465.541 3.13706 -4.31769 0
M  V30 4875 O 465.764 4.2601 -3.79305 0
M  V30 4876 O 464.698 2.96629 -5.23732 0
M  V30 4877 H 468.524 0.541709 -2.9883 0
M  V30 4878 H 466.109 0.201565 -1.48034 0
M  V30 4879 H 467.991 2.99441 -2.96502 0
M  V30 4880 H 466.666 2.68349 -1.81026 0
M  V30 4881 H 465.573 1.16019 -3.55655 0
M  V30 4882 H 466.906 1.54516 -4.67317 0
M  V30 4883 N 468.558 1.5553 0.254621 0
M  V30 4884 C 469.508 1.86057 1.31783 0
M  V30 4885 C 470.492 0.720827 1.4385 0
M  V30 4886 O 471.684 0.982586 1.47222 0
M  V30 4887 C 468.813 2.15203 2.67475 0
M  V30 4888 C 467.899 3.35484 2.59444 0
M  V30 4889 N 468.29 4.54945 2.2104 0
M  V30 4890 C 466.588 3.38441 2.90472 0
M  V30 4891 C 467.289 5.3707 2.23453 0
M  V30 4892 N 466.265 4.75936 2.62652 0
M  V30 4893 H 470.067 2.75953 1.01129 0
M  V30 4894 H 467.581 1.55653 0.463255 0
M  V30 4895 H 469.578 2.35235 3.44195 0
M  V30 4896 H 468.238 1.26601 2.99002 0
M  V30 4897 H 469.249 4.8071 1.92712 0
M  V30 4898 H 465.926 2.60087 3.2659 0
M  V30 4899 H 467.316 6.42626 1.96166 0
M  V30 4900 N 470.036 -0.519951 1.48776 0
M  V30 4901 C 471.283 -1.27522 1.57303 0
M  V30 4902 C 471.611 -1.92869 0.251328 0
M  V30 4903 O 470.866 -1.80372 -0.759243 0
M  V30 4904 C 471.165 -2.37864 2.6675 0
M  V30 4905 C 470.831 -1.90103 4.08867 0
M  V30 4906 C 469.493 -1.76795 4.47546 0
M  V30 4907 C 471.845 -1.54133 4.97888 0
M  V30 4908 C 469.173 -1.25868 5.73039 0
M  V30 4909 C 471.525 -1.04665 6.23881 0
M  V30 4910 C 470.189 -0.899823 6.61407 0
M  V30 4911 H 469.459 -0.466636 0.575614 0
M  V30 4912 H 472.106 -0.579109 1.82534 0
M  V30 4913 H 470.411 -3.13186 2.35418 0
M  V30 4914 H 472.108 -2.95969 2.70561 0
M  V30 4915 H 468.698 -2.01414 3.78326 0
M  V30 4916 H 472.882 -1.6327 4.68675 0
M  V30 4917 H 468.138 -1.13196 6.0083 0
M  V30 4918 H 472.312 -0.759074 6.92251 0
M  V30 4919 H 469.939 -0.503011 7.58534 0
M  V30 4920 N 471.514 -1.37532 -0.769588 0
M  V30 4921 C 472.925 -1.29382 -1.346 0
M  V30 4922 C 473.276 0.0576039 -1.96115 0
M  V30 4923 O 472.401 0.95947 -1.93967 0
M  V30 4924 C 472.996 -2.34298 -2.44724 0
M  V30 4925 C 471.555 -2.29776 -2.98128 0
M  V30 4926 C 470.702 -2.18013 -1.71364 0
M  V30 4927 H 473.653 -1.48123 -0.56968 0
M  V30 4928 H 473.674 -1.99089 -3.24259 0
M  V30 4929 H 473.186 -3.32645 -1.99922 0
M  V30 4930 H 471.287 -1.34959 -3.47299 0
M  V30 4931 H 471.4 -3.23276 -3.53595 0
M  V30 4932 H 469.764 -1.64595 -1.94372 0
M  V30 4933 H 470.547 -3.18278 -1.28662 0
M  V30 4934 N 472.992 0.995999 -1.22138 0
M  V30 4935 C 473.94 2.10673 -0.985876 0
M  V30 4936 C 474.934 1.69255 0.0699553 0
M  V30 4937 O 476.14 1.79812 -0.0822176 0
M  V30 4938 H 472.515 0.688865 -0.30161 0
M  V30 4939 H 474.486 2.27711 -1.92848 0
M  V30 4940 C 473.235 3.42881 -0.576909 0
M  V30 4941 H 472.558 3.75191 -1.38101 0
M  V30 4942 H 473.998 4.21589 -0.451518 0
M  V30 4943 C 472.457 3.29265 0.713196 0
M  V30 4944 O 472.987 3.60777 1.76643 0
M  V30 4945 N 471.193 2.82456 0.683162 0
M  V30 4946 H 470.74 2.5701 -0.174242 0
M  V30 4947 H 470.698 2.73727 1.54663 0
M  V30 4948 N 474.47 1.03057 1.19235 0
M  V30 4949 C 475.881 0.757449 1.70645 0
M  V30 4950 C 476.232 -0.722735 1.82403 0
M  V30 4951 O 475.357 -1.56325 1.49638 0
M  V30 4952 C 475.952 1.36833 3.09939 0
M  V30 4953 C 474.511 1.14375 3.58602 0
M  V30 4954 C 473.658 1.46533 2.35422 0
M  V30 4955 H 476.609 1.19828 1.04052 0
M  V30 4956 H 476.63 0.766184 3.72706 0
M  V30 4957 H 476.142 2.44562 3.01349 0
M  V30 4958 H 474.243 0.0847542 3.72504 0
M  V30 4959 H 474.356 1.83366 4.42622 0
M  V30 4960 H 472.72 0.884712 2.38841 0
M  V30 4961 H 473.503 2.55349 2.2946 0
M  V30 4962 N 475.948 -1.35272 0.808662 0
M  V30 4963 C 477.196 -1.98316 0.389233 0
M  V30 4964 C 477.517 -1.64465 -1.04767 0
M  V30 4965 O 476.787 -0.928175 -1.72516 0
M  V30 4966 H 475.367 -0.733585 0.140935 0
M  V30 4967 H 478.029 -1.6515 1.03496 0
M  V30 4968 H 477.125 -3.08123 0.496631 0
M  V30 4969 N 477.426 -0.562348 -1.47226 0
M  V30 4970 C 478.651 -0.0432632 -2.07355 0
M  V30 4971 C 479.076 1.24332 -1.41149 0
M  V30 4972 O 478.434 1.74603 -0.488226 0
M  V30 4973 C 478.482 0.130288 -3.60365 0
M  V30 4974 O 477.586 1.19166 -3.94808 0
M  V30 4975 H 476.927 -0.0536334 -0.66183 0
M  V30 4976 H 479.457 -0.779495 -1.89169 0
M  V30 4977 H 479.467 0.342881 -4.06557 0
M  V30 4978 H 478.142 -0.809389 -4.07948 0
M  V30 4979 H 476.719 0.959153 -3.60354 0
M  V30 4980 N 478.904 1.54736 -0.299062 0
M  V30 4981 C 480.153 1.99279 0.311549 0
M  V30 4982 C 480.466 1.19107 1.55154 0
M  V30 4983 O 481.672 1.53908 2.23662 0
M  V30 4984 C 480.128 3.54768 0.605632 0
M  V30 4985 C 479.736 4.43746 -0.615914 0
M  V30 4986 C 481.48 4.07841 1.17754 0
M  V30 4987 C 479.387 5.90663 -0.29509 0
M  V30 4988 H 478.317 0.744359 0.120187 0
M  V30 4989 H 480.968 1.78919 -0.407464 0
M  V30 4990 H 479.35 3.71021 1.38419 0
M  V30 4991 H 480.524 4.39267 -1.39218 0
M  V30 4992 H 478.839 4.01434 -1.10633 0
M  V30 4993 H 481.436 5.15174 1.43179 0
M  V30 4994 H 481.779 3.58324 2.11918 0
M  V30 4995 H 482.312 3.95123 0.460739 0
M  V30 4996 H 479.051 6.44325 -1.20524 0
M  V30 4997 H 478.571 5.98155 0.44394 0
M  V30 4998 H 480.25 6.46916 0.104048 0
M  V30 4999 N 480.382 0.0267497 1.57577 0
M  V30 5000 C 481.292 -0.971633 2.13533 0
M  V30 5001 C 482.308 -1.35868 1.08701 0
M  V30 5002 O 483.484 -1.44058 1.40746 0
M  V30 5003 C 480.549 -2.23622 2.64941 0
M  V30 5004 C 479.61 -1.90982 3.8448 0
M  V30 5005 C 478.843 -3.11411 4.33427 0
M  V30 5006 O 479.066 -4.23992 3.81558 0
M  V30 5007 O 478 -2.93848 5.25297 0
M  V30 5008 H 481.826 -0.525853 2.99113 0
M  V30 5009 H 479.411 -0.193712 1.48139 0
M  V30 5010 H 481.293 -2.97864 2.98086 0
M  V30 5011 H 479.968 -2.67386 1.82446 0
M  V30 5012 H 478.875 -1.14132 3.56265 0
M  V30 5013 H 480.208 -1.52036 4.6813 0
M  V30 5014 N 481.861 -1.55662 -0.24637 0
M  V30 5015 C 482.791 -1.93377 -1.30873 0
M  V30 5016 C 483.772 -0.798773 -1.50179 0
M  V30 5017 O 484.957 -1.0591 -1.62778 0
M  V30 5018 C 482.087 -2.22893 -2.66338 0
M  V30 5019 C 481.041 -3.38649 -2.61727 0
M  V30 5020 C 480.367 -3.53708 -4.00992 0
M  V30 5021 C 481.667 -4.74323 -2.18666 0
M  V30 5022 H 483.361 -2.82363 -0.995552 0
M  V30 5023 H 480.907 -1.35854 -0.477464 0
M  V30 5024 H 482.86 -2.47866 -3.40794 0
M  V30 5025 H 481.584 -1.30733 -2.99293 0
M  V30 5026 H 480.243 -3.13685 -1.89729 0
M  V30 5027 H 479.891 -2.58967 -4.31214 0
M  V30 5028 H 479.591 -4.31551 -3.98795 0
M  V30 5029 H 481.115 -3.81003 -4.77147 0
M  V30 5030 H 482.529 -4.98665 -2.82854 0
M  V30 5031 H 480.926 -5.55273 -2.27579 0
M  V30 5032 H 481.996 -4.71349 -1.13834 0
M  V30 5033 N 483.339 0.512053 -1.4905 0
M  V30 5034 C 484.616 1.27337 -1.48474 0
M  V30 5035 C 484.996 2.1009 -0.206301 0
M  V30 5036 O 484.344 2.136 0.811609 0
M  V30 5037 C 484.554 2.13954 -2.75726 0
M  V30 5038 C 485.902 2.73507 -3.24776 0
M  V30 5039 O 486.926 2.24229 -2.76767 0
M  V30 5040 O 485.785 3.63186 -4.08361 0
M  V30 5041 H 482.879 0.575652 -0.593762 0
M  V30 5042 H 485.425 0.527232 -1.61302 0
M  V30 5043 H 484.197 1.52709 -3.60272 0
M  V30 5044 H 483.82 2.95782 -2.65705 0
M  V30 5045 N 484.817 1.37938 0.762283 0
M  V30 5046 C 486.233 1.18945 1.06415 0
M  V30 5047 C 486.433 0.0321163 2.01474 0
M  V30 5048 O 485.489 -0.624844 2.44647 0
M  V30 5049 C 486.802 2.51218 1.65258 0
M  V30 5050 C 488.35 2.57824 1.7747 0
M  V30 5051 C 488.825 3.90251 2.39725 0
M  V30 5052 N 490.316 3.91744 2.47166 0
M  V30 5053 C 491.051 4.90966 2.96209 0
M  V30 5054 N 490.547 6.00585 3.45354 0
M  V30 5055 N 492.34 4.78363 2.9517 0
M  V30 5056 H 484.491 2.11994 0.131301 0
M  V30 5057 H 486.754 0.940262 0.120879 0
M  V30 5058 H 486.46 3.36317 1.02878 0
M  V30 5059 H 486.334 2.68989 2.64433 0
M  V30 5060 H 488.721 1.73126 2.3898 0
M  V30 5061 H 488.802 2.43928 0.770241 0
M  V30 5062 H 488.446 4.75368 1.78852 0
M  V30 5063 H 488.376 4.01454 3.40796 0
M  V30 5064 H 490.867 3.12563 2.12397 0
M  V30 5065 H 491.18 6.72236 3.81207 0
M  V30 5066 H 489.525 6.04217 3.43434 0
M  V30 5067 H 492.716 3.91841 2.56082 0
M  V30 5068 H 492.889 5.55843 3.33081 0
M  V30 5069 N 486.295 -0.989507 1.22664 0
M  V30 5070 C 487.706 -1.54406 1.04955 0
M  V30 5071 C 488.057 -1.92366 -0.385951 0
M  V30 5072 O 487.182 -1.75111 -1.27142 0
M  V30 5073 C 487.777 -2.80578 1.89899 0
M  V30 5074 C 486.336 -3.32464 1.76478 0
M  V30 5075 C 485.483 -2.05524 1.86159 0
M  V30 5076 H 488.434 -0.810211 1.3646 0
M  V30 5077 H 488.455 -3.53075 1.4184 0
M  V30 5078 H 487.967 -2.52918 2.94371 0
M  V30 5079 H 486.068 -3.65024 0.747528 0
M  V30 5080 H 486.181 -4.02838 2.59342 0
M  V30 5081 H 484.545 -2.19241 1.29636 0
M  V30 5082 H 485.328 -1.80258 2.92168 0
M  V30 5083 N 487.773 -1.03688 -1.18687 0
M  V30 5084 C 488.721 -0.618292 -2.24232 0
M  V30 5085 C 489.715 0.353045 -1.6568 0
M  V30 5086 O 490.921 0.220749 -1.78641 0
M  V30 5087 H 487.296 -0.181711 -0.729716 0
M  V30 5088 H 489.267 -1.51893 -2.56848 0
M  V30 5089 C 488.016 0.00677342 -3.47699 0
M  V30 5090 H 487.339 -0.731692 -3.93047 0
M  V30 5091 H 488.779 0.262492 -4.23187 0
M  V30 5092 C 487.238 1.25572 -3.12623 0
M  V30 5093 O 487.768 2.34691 -3.26011 0
M  V30 5094 N 485.974 1.14755 -2.66982 0
M  V30 5095 H 485.521 0.259601 -2.56289 0
M  V30 5096 H 485.479 1.98412 -2.43885 0
M  V30 5097 N 489.251 1.34841 -0.815825 0
M  V30 5098 C 490.662 1.80937 -0.46029 0
M  V30 5099 C 491.013 1.67685 1.01863 0
M  V30 5100 O 490.138 1.21277 1.79223 0
M  V30 5101 C 490.733 3.28509 -0.828708 0
M  V30 5102 C 489.292 3.72712 -0.525644 0
M  V30 5103 C 488.439 2.56676 -1.04941 0
M  V30 5104 H 491.39 1.22688 -1.00664 0
M  V30 5105 H 491.411 3.80279 -0.129757 0
M  V30 5106 H 490.923 3.38122 -1.90513 0
M  V30 5107 H 489.024 3.68642 0.541666 0
M  V30 5108 H 489.137 4.67119 -1.06474 0
M  V30 5109 H 487.501 2.50302 -0.471286 0
M  V30 5110 H 488.284 2.69063 -2.13214 0
M  V30 5111 N 490.729 0.570148 1.46925 0
M  V30 5112 C 491.957 0.0561966 2.06824 0
M  V30 5113 C 492.372 -1.24326 1.42086 0
M  V30 5114 O 491.729 -1.74882 0.521794 0
M  V30 5115 C 491.78 -0.129517 3.61268 0
M  V30 5116 O 491.501 1.1185 4.23581 0
M  V30 5117 C 493.002 -0.679266 4.38065 0
M  V30 5118 H 490.222 0.0517261 0.669003 0
M  V30 5119 H 492.766 0.787243 1.8874 0
M  V30 5120 H 490.921 -0.810739 3.78822 0
M  V30 5121 H 491.335 0.924375 5.1629 0
M  V30 5122 H 492.809 -0.758445 5.46765 0
M  V30 5123 H 493.286 -1.69346 4.05239 0
M  V30 5124 H 493.892 -0.0333237 4.25287 0
M  V30 5125 N 492.207 -1.54576 0.307264 0
M  V30 5126 C 493.432 -2.05139 -0.305379 0
M  V30 5127 C 493.857 -1.18278 -1.46259 0
M  V30 5128 O 493.215 -0.188243 -1.8032 0
M  V30 5129 C 493.263 -3.53066 -0.733283 0
M  V30 5130 O 492.367 -3.69206 -1.83741 0
M  V30 5131 H 491.708 -0.661444 -0.0582105 0
M  V30 5132 H 494.238 -1.99569 0.450931 0
M  V30 5133 H 494.248 -3.95034 -1.02039 0
M  V30 5134 H 492.923 -4.15746 0.113198 0
M  V30 5135 H 491.5 -3.39143 -1.55037 0
M  V30 5136 N 493.685 -0.035106 -1.57561 0
M  V30 5137 C 494.635 0.954034 -2.0708 0
M  V30 5138 C 495.619 1.2818 -0.972558 0
M  V30 5139 O 496.811 1.26691 -1.23606 0
M  V30 5140 C 493.94 2.23442 -2.60631 0
M  V30 5141 C 493.026 1.93475 -3.77396 0
M  V30 5142 N 493.417 1.33802 -4.87781 0
M  V30 5143 C 491.715 2.23434 -3.85996 0
M  V30 5144 C 492.416 1.21103 -5.68954 0
M  V30 5145 N 491.392 1.70855 -5.16052 0
M  V30 5146 H 495.194 0.487731 -2.89825 0
M  V30 5147 H 492.708 0.169759 -1.6151 0
M  V30 5148 H 494.705 2.95183 -2.94402 0
M  V30 5149 H 493.365 2.70693 -1.79319 0
M  V30 5150 H 494.376 1.01227 -5.07911 0
M  V30 5151 H 491.053 2.73317 -3.15601 0
M  V30 5152 H 492.443 0.749105 -6.67711 0
M  V30 5153 N 495.163 1.55791 0.238111 0
M  V30 5154 C 496.093 1.94068 1.29846 0
M  V30 5155 C 497.074 0.806726 1.49753 0
M  V30 5156 O 498.259 1.06772 1.62214 0
M  V30 5157 C 495.389 2.24302 2.65153 0
M  V30 5158 C 494.343 3.40032 2.59927 0
M  V30 5159 C 493.669 3.55829 3.99111 0
M  V30 5160 C 494.969 4.75476 2.16148 0
M  V30 5161 H 496.663 2.82887 0.980563 0
M  V30 5162 H 494.209 1.36105 0.470253 0
M  V30 5163 H 496.162 2.4967 3.39475 0
M  V30 5164 H 494.886 1.32318 2.98596 0
M  V30 5165 H 493.545 3.14687 1.88063 0
M  V30 5166 H 493.193 2.6125 4.29834 0
M  V30 5167 H 492.893 4.3366 3.96501 0
M  V30 5168 H 494.417 3.83528 4.7512 0
M  V30 5169 H 495.831 5.00158 2.80205 0
M  V30 5170 H 494.228 5.56472 2.24631 0
M  V30 5171 H 495.298 4.71946 1.11333 0
M  V30 5172 N 496.642 -0.504142 1.49319 0
M  V30 5173 C 497.605 -1.5883 1.65244 0
M  V30 5174 C 498.605 -1.52009 0.524386 0
M  V30 5175 O 499.795 -1.55218 0.79077 0
M  V30 5176 C 496.927 -2.98481 1.64687 0
M  V30 5177 H 498.12 -1.4604 2.61939 0
M  V30 5178 H 495.673 -0.728144 1.38303 0
M  V30 5179 H 496.408 -3.16751 0.695644 0
M  V30 5180 H 496.193 -3.0484 2.46607 0
M  V30 5181 H 497.683 -3.77256 1.79075 0
M  V30 5182 N 498.12 -1.38341 -0.754957 0
M  V30 5183 C 499.367 -1.34473 -1.51404 0
M  V30 5184 C 499.695 0.0656458 -1.94389 0
M  V30 5185 O 498.95 1.04244 -1.65625 0
M  V30 5186 C 499.249 -2.2452 -2.78075 0
M  V30 5187 C 498.915 -3.72512 -2.54059 0
M  V30 5188 C 497.577 -4.1284 -2.47218 0
M  V30 5189 C 499.929 -4.66197 -2.33044 0
M  V30 5190 C 497.257 -5.44945 -2.17376 0
M  V30 5191 C 499.609 -5.98558 -2.04723 0
M  V30 5192 C 498.273 -6.37972 -1.96337 0
M  V30 5193 H 497.543 -0.492072 -0.554027 0
M  V30 5194 H 500.19 -1.70687 -0.868223 0
M  V30 5195 H 498.495 -1.81357 -3.473 0
M  V30 5196 H 500.192 -2.18832 -3.36026 0
M  V30 5197 H 496.782 -3.40538 -2.60253 0
M  V30 5198 H 500.966 -4.35888 -2.37309 0
M  V30 5199 H 496.222 -5.74426 -2.09391 0
M  V30 5200 H 500.396 -6.70693 -1.87465 0
M  V30 5201 H 498.023 -7.40258 -1.72978 0
M  V30 5202 N 499.598 0.982988 -1.23187 0
M  V30 5203 C 500.846 1.72052 -1.06031 0
M  V30 5204 C 501.167 1.90769 0.404019 0
M  V30 5205 O 500.437 1.47446 1.28982 0
M  V30 5206 H 499.017 0.637499 -0.389363 0
M  V30 5207 H 501.679 1.18338 -1.54862 0
M  V30 5208 H 500.775 2.7111 -1.54615 0
M  V30 5209 N 501.076 1.04316 1.18135 0
M  V30 5210 C 502.492 0.762858 1.40188 0
M  V30 5211 C 502.692 -0.646547 1.90846 0
M  V30 5212 O 501.748 -1.41036 2.0944 0
M  V30 5213 C 503.061 1.81106 2.40044 0
M  V30 5214 C 504.609 1.83226 2.53766 0
M  V30 5215 C 505.084 2.87044 3.56889 0
M  V30 5216 N 506.575 2.85951 3.64398 0
M  V30 5217 C 507.31 3.62932 4.43923 0
M  V30 5218 N 506.806 4.49672 5.27036 0
M  V30 5219 N 508.599 3.51411 4.38711 0
M  V30 5220 H 500.75 1.95264 0.835805 0
M  V30 5221 H 503.013 0.845017 0.429709 0
M  V30 5222 H 502.719 2.82214 2.09876 0
M  V30 5223 H 502.593 1.64529 3.39426 0
M  V30 5224 H 504.98 0.827869 2.8325 0
M  V30 5225 H 505.061 2.03879 1.54489 0
M  V30 5226 H 504.705 3.87663 3.28145 0
M  V30 5227 H 504.635 2.63645 4.5585 0
M  V30 5228 H 507.126 2.23051 3.05052 0
M  V30 5229 H 507.439 5.05116 5.84874 0
M  V30 5230 H 505.784 4.53738 5.26447 0
M  V30 5231 H 508.975 2.83047 3.72829 0
M  V30 5232 H 509.148 4.11654 5.00445 0
M  V30 5233 N 502.554 -1.34406 0.822964 0
M  V30 5234 C 503.802 -1.97892 0.410245 0
M  V30 5235 C 504.123 -1.65567 -1.03017 0
M  V30 5236 O 503.393 -0.94642 -1.71522 0
M  V30 5237 H 501.973 -0.732049 0.148707 0
M  V30 5238 H 504.635 -1.64043 1.05242 0
M  V30 5239 H 503.731 -3.07579 0.529284 0
M  V30 5240 N 504.032 -0.577932 -1.46621 0
M  V30 5241 C 504.964 0.195801 -2.28362 0
M  V30 5242 C 505.977 0.859983 -1.38232 0
M  V30 5243 O 507.166 0.730349 -1.62875 0
M  V30 5244 C 504.266 1.29639 -3.13124 0
M  V30 5245 C 503.439 0.725049 -4.31349 0
M  V30 5246 C 502.498 1.71274 -4.97546 0
M  V30 5247 O 501.524 1.25067 -5.5529 0
M  V30 5248 N 502.726 3.04672 -4.94121 0
M  V30 5249 H 505.491 -0.505468 -2.95407 0
M  V30 5250 H 503.052 -0.415381 -1.56481 0
M  V30 5251 H 505.044 1.95631 -3.54275 0
M  V30 5252 H 503.614 1.90059 -2.48186 0
M  V30 5253 H 502.834 -0.112205 -3.9404 0
M  V30 5254 H 504.122 0.323034 -5.07774 0
M  V30 5255 H 503.52 3.4484 -4.48444 0
M  V30 5256 H 502.077 3.66166 -5.39227 0
M  V30 5257 N 505.51 1.54411 -0.315457 0
M  V30 5258 C 506.46 2.20772 0.569549 0
M  V30 5259 C 507.444 1.18551 1.08787 0
M  V30 5260 O 508.636 1.44213 1.02624 0
M  V30 5261 C 505.765 2.96293 1.73394 0
M  V30 5262 C 504.851 4.05844 1.2309 0
M  V30 5263 N 505.242 5.03822 0.446927 0
M  V30 5264 C 503.54 4.19648 1.51035 0
M  V30 5265 C 504.241 5.8143 0.17725 0
M  V30 5266 N 503.217 5.38245 0.761118 0
M  V30 5267 H 507.019 2.93877 -0.0368076 0
M  V30 5268 H 504.533 1.61949 -0.120915 0
M  V30 5269 H 506.53 3.42313 2.37965 0
M  V30 5270 H 505.19 2.24708 2.34386 0
M  V30 5271 H 506.201 5.17821 0.0905027 0
M  V30 5272 H 502.878 3.59274 2.1267 0
M  V30 5273 H 504.268 6.70369 -0.45335 0
M  V30 5274 N 506.988 0.0434614 1.5754 0
M  V30 5275 C 508.235 -0.632035 1.92384 0
M  V30 5276 C 508.563 -1.71304 0.921157 0
M  V30 5277 O 507.818 -1.95583 -0.067744 0
M  V30 5278 C 508.117 -1.2738 3.3393 0
M  V30 5279 C 507.783 -0.321757 4.49751 0
M  V30 5280 C 506.445 -0.0597611 4.81163 0
M  V30 5281 C 508.797 0.331158 5.20147 0
M  V30 5282 C 506.125 0.862715 5.80322 0
M  V30 5283 C 508.477 1.24178 6.20292 0
M  V30 5284 C 507.141 1.51252 6.50138 0
M  V30 5285 H 506.411 -0.231278 0.703983 0
M  V30 5286 H 509.058 0.108294 1.91194 0
M  V30 5287 H 507.363 -2.08921 3.3145 0
M  V30 5288 H 509.06 -1.80326 3.58167 0
M  V30 5289 H 505.65 -0.53614 4.25233 0
M  V30 5290 H 509.834 0.141826 4.96097 0
M  V30 5291 H 505.09 1.08003 6.01785 0
M  V30 5292 H 509.264 1.75381 6.73954 0
M  V30 5293 H 506.891 2.22897 7.26788 0
M  V30 5294 N 508.466 -1.55915 -0.229846 0
M  V30 5295 C 509.706 -1.80314 -0.962614 0
M  V30 5296 C 510.07 -0.61568 -1.81861 0
M  V30 5297 O 511.271 -0.738795 -2.58448 0
M  V30 5298 C 509.542 -3.0956 -1.78627 0
M  V30 5299 S 511.101 -3.55243 -2.57581 0
M  V30 5300 H 507.919 -0.633142 -0.323499 0
M  V30 5301 H 510.521 -1.94155 -0.228919 0
M  V30 5302 H 509.225 -3.94033 -1.14742 0
M  V30 5303 H 508.756 -2.98503 -2.56241 0
M  V30 5304 H 510.771 -3.17924 -3.80971 0
M  V30 5305 N 509.944 0.496216 -1.49584 0
M  V30 5306 C 511.355 1.07765 -1.52459 0
M  V30 5307 C 511.706 1.93679 -0.31353 0
M  V30 5308 O 510.831 2.08588 0.576186 0
M  V30 5309 C 511.426 1.96111 -2.76271 0
M  V30 5310 C 509.985 2.49409 -2.81908 0
M  V30 5311 C 509.132 1.27142 -2.46435 0
M  V30 5312 H 512.083 0.279914 -1.56212 0
M  V30 5313 H 512.104 2.80862 -2.56704 0
M  V30 5314 H 511.616 1.33555 -3.64396 0
M  V30 5315 H 509.717 3.1559 -1.98074 0
M  V30 5316 H 509.83 2.86234 -3.84196 0
M  V30 5317 H 508.194 1.59818 -1.98319 0
M  V30 5318 H 508.977 0.662866 -3.3684 0
M  V30 5319 N 511.423 1.38739 0.74761 0
M  V30 5320 C 512.671 1.35007 1.50391 0
M  V30 5321 C 512.992 -0.0574274 1.94915 0
M  V30 5322 O 512.262 -1.00628 1.6808 0
M  V30 5323 H 510.842 0.496784 0.557866 0
M  V30 5324 H 513.504 1.73479 0.888319 0
M  V30 5325 H 512.6 2.00474 2.392 0
M  V30 5326 N 512.901 -0.976442 1.23707 0
M  V30 5327 C 514.126 -1.75875 1.09922 0
M  V30 5328 C 514.551 -1.84911 -0.34489 0
M  V30 5329 O 513.909 -1.31363 -1.24954 0
M  V30 5330 C 513.957 -3.16179 1.73388 0
M  V30 5331 O 513.061 -4.00124 0.99871 0
M  V30 5332 H 512.402 -0.540954 0.385052 0
M  V30 5333 H 514.932 -1.22546 1.6384 0
M  V30 5334 H 514.942 -3.66741 1.78788 0
M  V30 5335 H 513.617 -3.08917 2.78466 0
M  V30 5336 H 512.194 -3.58624 1.02193 0
M  V30 5337 N 514.379 -1.04941 -1.1758 0
M  V30 5338 C 515.342 -0.652456 -2.19717 0
M  V30 5339 C 516.342 0.294745 -1.58076 0
M  V30 5340 O 517.532 0.0789579 -1.74021 0
M  V30 5341 C 514.664 0.0420712 -3.40874 0
M  V30 5342 H 515.857 -1.55642 -2.5635 0
M  V30 5343 H 513.41 -0.842995 -1.31618 0
M  V30 5344 H 514.145 0.95943 -3.09783 0
M  V30 5345 H 513.93 -0.638844 -3.86861 0
M  V30 5346 H 515.42 0.306 -4.16477 0
M  V30 5347 N 515.857 1.33968 -0.830081 0
M  V30 5348 C 516.787 2.31911 -0.271911 0
M  V30 5349 C 517.768 1.58571 0.61556 0
M  V30 5350 O 518.953 1.86514 0.540946 0
M  V30 5351 C 516.083 3.42737 0.561146 0
M  V30 5352 C 515.037 4.27383 -0.229789 0
M  V30 5353 C 514.363 5.29742 0.726463 0
M  V30 5354 C 515.663 5.02 -1.44197 0
M  V30 5355 H 517.357 2.78844 -1.09025 0
M  V30 5356 H 514.903 1.34061 -0.52571 0
M  V30 5357 H 516.856 4.10276 0.961867 0
M  V30 5358 H 515.58 2.94471 1.41261 0
M  V30 5359 H 514.239 3.61456 -0.611964 0
M  V30 5360 H 513.887 4.77736 1.57408 0
M  V30 5361 H 513.587 5.87255 0.20142 0
M  V30 5362 H 515.111 6.00149 1.12489 0
M  V30 5363 H 516.525 5.62355 -1.11488 0
M  V30 5364 H 514.922 5.69122 -1.90317 0
M  V30 5365 H 515.992 4.31281 -2.2164 0
M  V30 5366 N 517.335 0.585699 1.46312 0
M  V30 5367 C 518.583 0.072278 2.01971 0
M  V30 5368 C 518.904 -1.29345 1.45928 0
M  V30 5369 O 518.174 -1.84973 0.645109 0
M  V30 5370 H 516.754 0.023729 0.746623 0
M  V30 5371 H 519.416 0.762155 1.7938 0
M  V30 5372 H 518.512 0.00552767 3.121 0
M  V30 5373 N 518.813 -1.54241 0.323641 0
M  V30 5374 C 520.229 -1.59574 -0.0290018 0
M  V30 5375 C 520.429 -1.34017 -1.50472 0
M  V30 5376 O 519.485 -1.12464 -2.26071 0
M  V30 5377 C 520.798 -2.98169 0.389295 0
M  V30 5378 C 522.346 -3.11148 0.339958 0
M  V30 5379 C 522.821 -4.5209 0.733418 0
M  V30 5380 N 524.312 -4.5808 0.686827 0
M  V30 5381 C 525.047 -5.65248 0.963464 0
M  V30 5382 N 524.543 -6.80355 1.30724 0
M  V30 5383 N 526.336 -5.55025 0.88902 0
M  V30 5384 H 518.487 -1.6911 1.28512 0
M  V30 5385 H 520.75 -0.790972 0.522558 0
M  V30 5386 H 520.456 -3.21871 1.41746 0
M  V30 5387 H 520.33 -3.76399 -0.245657 0
M  V30 5388 H 522.717 -2.87182 -0.679002 0
M  V30 5389 H 522.798 -2.35023 1.00985 0
M  V30 5390 H 522.442 -4.76788 1.75029 0
M  V30 5391 H 522.372 -5.26584 0.0412189 0
M  V30 5392 H 524.863 -3.75411 0.43298 0
M  V30 5393 H 525.176 -7.58029 1.5037 0
M  V30 5394 H 523.521 -6.81851 1.3455 0
M  V30 5395 H 526.712 -4.63977 0.619939 0
M  V30 5396 H 526.885 -6.38458 1.10797 0
M  V30 5397 N 520.291 -0.0518155 -1.57515 0
M  V30 5398 C 521.707 0.304735 -1.56664 0
M  V30 5399 C 521.907 1.71395 -1.05953 0
M  V30 5400 O 520.963 2.42123 -0.716414 0
M  V30 5401 C 522.276 0.132614 -3.00407 0
M  V30 5402 C 523.824 0.20367 -3.12337 0
M  V30 5403 C 524.299 0.0600706 -4.57961 0
M  V30 5404 N 525.79 0.116326 -4.63054 0
M  V30 5405 C 526.525 0.0293363 -5.73392 0
M  V30 5406 N 526.021 -0.110038 -6.92713 0
M  V30 5407 N 527.814 0.0849651 -5.62036 0
M  V30 5408 H 519.965 -0.973056 -1.888 0
M  V30 5409 H 522.228 -0.377781 -0.869474 0
M  V30 5410 H 521.934 -0.839019 -3.41546 0
M  V30 5411 H 521.808 0.893376 -3.66468 0
M  V30 5412 H 524.195 1.16578 -2.71097 0
M  V30 5413 H 524.276 -0.587857 -2.48954 0
M  V30 5414 H 523.92 -0.898715 -4.99886 0
M  V30 5415 H 523.85 0.87075 -5.19351 0
M  V30 5416 H 526.341 0.22327 -3.7724 0
M  V30 5417 H 526.654 -0.169104 -7.72615 0
M  V30 5418 H 524.999 -0.145132 -6.94848 0
M  V30 5419 H 528.19 0.192411 -4.67704 0
M  V30 5420 H 528.363 0.0137131 -6.47999 0
M  V30 5421 N 521.769 1.56035 0.221574 0
M  V30 5422 C 522.719 1.8881 1.27807 0
M  V30 5423 C 523.703 0.751177 1.42289 0
M  V30 5424 O 524.895 1.01359 1.45104 0
M  V30 5425 C 522.024 2.20828 2.6285 0
M  V30 5426 C 521.11 3.40912 2.52269 0
M  V30 5427 N 521.501 4.59531 2.1134 0
M  V30 5428 C 519.799 3.44526 2.83228 0
M  V30 5429 C 520.5 5.41689 2.1201 0
M  V30 5430 N 519.476 4.814 2.52497 0
M  V30 5431 H 523.278 2.78036 0.952529 0
M  V30 5432 H 520.792 1.566 0.430134 0
M  V30 5433 H 522.789 2.42483 3.39127 0
M  V30 5434 H 521.449 1.32914 2.9625 0
M  V30 5435 H 522.46 4.8469 1.82472 0
M  V30 5436 H 519.137 2.66956 3.21 0
M  V30 5437 H 520.527 6.46643 1.82491 0
M  V30 5438 N 523.247 -0.488276 1.49845 0
M  V30 5439 C 524.21 -1.57069 1.66919 0
M  V30 5440 C 525.21 -1.51445 0.540479 0
M  V30 5441 O 526.4 -1.5437 0.807188 0
M  V30 5442 C 523.532 -2.96718 1.67844 0
M  V30 5443 H 524.725 -1.43254 2.63474 0
M  V30 5444 H 522.278 -0.713435 1.39068 0
M  V30 5445 H 523.013 -3.15996 0.7292 0
M  V30 5446 H 522.798 -3.02208 2.49826 0
M  V30 5447 H 524.288 -3.75335 1.83066 0
M  V30 5448 N 524.725 -1.39134 -0.740242 0
M  V30 5449 C 525.657 -1.33332 -1.86428 0
M  V30 5450 C 526.67 -0.243042 -1.60976 0
M  V30 5451 O 527.859 -0.501608 -1.71307 0
M  V30 5452 C 524.959 -1.04626 -3.22346 0
M  V30 5453 C 524.132 -2.24826 -3.75196 0
M  V30 5454 C 523.191 -1.92659 -4.89662 0
M  V30 5455 O 522.217 -2.6529 -5.03597 0
M  V30 5456 N 523.419 -0.889575 -5.73643 0
M  V30 5457 H 526.184 -2.30196 -1.91911 0
M  V30 5458 H 523.745 -1.33168 -0.920756 0
M  V30 5459 H 525.737 -0.811347 -3.96484 0
M  V30 5460 H 524.307 -0.165129 -3.12164 0
M  V30 5461 H 523.527 -2.64301 -2.9247 0
M  V30 5462 H 524.815 -3.05015 -4.07239 0
M  V30 5463 H 524.213 -0.287529 -5.64969 0
M  V30 5464 H 522.77 -0.714557 -6.47871 0
M  V30 5465 N 526.204 0.969867 -1.24223 0
M  V30 5466 C 527.453 1.70687 -1.07466 0
M  V30 5467 C 527.766 1.91736 0.386861 0
M  V30 5468 O 528.972 2.62986 0.674581 0
M  V30 5469 C 527.428 3.07217 -1.87472 0
M  V30 5470 C 527.036 2.94018 -3.3802 0
M  V30 5471 C 528.78 3.84804 -1.79237 0
M  V30 5472 C 526.687 4.25844 -4.10379 0
M  V30 5473 H 525.617 0.640067 -0.398536 0
M  V30 5474 H 528.268 1.08092 -1.48285 0
M  V30 5475 H 526.65 3.70628 -1.39466 0
M  V30 5476 H 527.824 2.39632 -3.9359 0
M  V30 5477 H 526.139 2.29898 -3.47183 0
M  V30 5478 H 528.736 4.82417 -2.30603 0
M  V30 5479 H 529.079 4.09356 -0.757197 0
M  V30 5480 H 529.612 3.28115 -2.24912 0
M  V30 5481 H 526.351 4.06486 -5.14246 0
M  V30 5482 H 525.871 4.80054 -3.59594 0
M  V30 5483 H 527.55 4.94475 -4.17257 0
M  V30 5484 N 527.682 1.05563 1.17022 0
M  V30 5485 C 528.93 0.76642 1.87004 0
M  V30 5486 C 529.251 -0.708854 1.8166 0
M  V30 5487 O 528.521 -1.51242 1.2451 0
M  V30 5488 H 527.101 0.280516 0.692329 0
M  V30 5489 H 529.763 1.33557 1.41945 0
M  V30 5490 H 528.859 1.08472 2.92644 0
M  V30 5491 N 529.16 -1.33526 0.837174 0
M  V30 5492 C 530.409 -1.97098 0.428387 0
M  V30 5493 C 530.722 -1.67062 -1.01734 0
M  V30 5494 O 531.928 -2.24235 -1.53072 0
M  V30 5495 C 530.384 -3.52725 0.715075 0
M  V30 5496 C 529.992 -3.9164 2.17537 0
M  V30 5497 C 531.736 -4.22857 0.373154 0
M  V30 5498 C 529.643 -5.40237 2.40619 0
M  V30 5499 H 528.573 -0.737589 0.156455 0
M  V30 5500 H 531.224 -1.52169 1.02552 0
M  V30 5501 H 529.606 -3.95971 0.0475904 0
M  V30 5502 H 530.78 -3.59456 2.88319 0
M  V30 5503 H 529.095 -3.34485 2.4801 0
M  V30 5504 H 531.692 -5.32133 0.523264 0
M  V30 5505 H 532.035 -4.10647 -0.683708 0
M  V30 5506 H 532.568 -3.85135 0.995801 0
M  V30 5507 H 529.307 -5.57449 3.44864 0
M  V30 5508 H 528.827 -5.73887 1.74396 0
M  V30 5509 H 530.506 -6.07102 2.23688 0
M  V30 5510 N 530.638 -0.59345 -1.46 0
M  V30 5511 C 531.548 0.135817 -2.34207 0
M  V30 5512 C 532.564 0.875008 -1.50398 0
M  V30 5513 O 533.74 0.835778 -1.83239 0
M  V30 5514 C 530.805 1.12977 -3.27776 0
M  V30 5515 C 529.866 0.394081 -4.27487 0
M  V30 5516 C 529.099 1.34068 -5.16586 0
M  V30 5517 O 529.322 2.5778 -5.08828 0
M  V30 5518 O 528.256 0.845426 -5.95933 0
M  V30 5519 H 532.082 -0.588691 -2.9794 0
M  V30 5520 H 529.667 -0.353784 -1.45151 0
M  V30 5521 H 531.549 1.70261 -3.85473 0
M  V30 5522 H 530.224 1.83556 -2.66625 0
M  V30 5523 H 529.131 -0.220869 -3.73447 0
M  V30 5524 H 530.464 -0.270939 -4.91454 0
M  V30 5525 N 532.116 1.54067 -0.331816 0
M  V30 5526 C 533.079 2.23275 0.517768 0
M  V30 5527 C 534.079 1.22897 1.03697 0
M  V30 5528 O 535.269 1.47419 0.928084 0
M  V30 5529 C 532.401 2.94326 1.72004 0
M  V30 5530 H 533.594 2.99773 -0.0873507 0
M  V30 5531 H 531.147 1.56079 -0.0830042 0
M  V30 5532 H 531.882 2.21986 2.36417 0
M  V30 5533 H 531.667 3.67941 1.35507 0
M  V30 5534 H 533.157 3.47031 2.32291 0
M  V30 5535 N 533.594 0.0601682 1.57485 0
M  V30 5536 C 534.524 -0.90889 2.15085 0
M  V30 5537 C 535.505 -1.31838 1.07484 0
M  V30 5538 O 536.69 -1.3915 1.35466 0
M  V30 5539 C 533.82 -2.18059 2.7031 0
M  V30 5540 C 532.774 -1.91088 3.82974 0
M  V30 5541 C 532.1 -3.24789 4.24754 0
M  V30 5542 C 533.4 -1.22535 5.07723 0
M  V30 5543 H 535.094 -0.429093 2.96309 0
M  V30 5544 H 532.64 -0.204952 1.42534 0
M  V30 5545 H 534.593 -2.86258 3.09248 0
M  V30 5546 H 533.317 -2.6826 1.8629 0
M  V30 5547 H 531.976 -1.25297 3.44523 0
M  V30 5548 H 531.624 -3.72809 3.37672 0
M  V30 5549 H 531.324 -3.07538 5.00694 0
M  V30 5550 H 532.848 -3.94205 4.66299 0
M  V30 5551 H 534.262 -1.80783 5.4405 0
M  V30 5552 H 532.659 -1.1558 5.88864 0
M  V30 5553 H 533.729 -0.202692 4.84476 0
M  V30 5554 N 535.072 -1.5615 -0.213296 0
M  V30 5555 C 536.002 -1.96109 -1.26742 0
M  V30 5556 C 536.983 -0.830448 -1.48451 0
M  V30 5557 O 538.168 -1.09339 -1.60495 0
M  V30 5558 C 535.298 -2.28492 -2.61551 0
M  V30 5559 C 534.252 -3.44124 -2.54485 0
M  V30 5560 C 533.578 -3.62134 -3.93399 0
M  V30 5561 C 534.878 -4.78855 -2.08556 0
M  V30 5562 H 536.572 -2.84412 -0.935434 0
M  V30 5563 H 534.118 -1.36836 -0.44854 0
M  V30 5564 H 536.071 -2.55039 -3.3546 0
M  V30 5565 H 534.795 -1.37052 -2.96453 0
M  V30 5566 H 533.454 -3.17639 -1.83033 0
M  V30 5567 H 533.102 -2.68055 -4.25623 0
M  V30 5568 H 532.802 -4.39913 -3.89551 0
M  V30 5569 H 534.326 -3.91038 -4.68958 0
M  V30 5570 H 535.74 -5.04552 -2.72213 0
M  V30 5571 H 534.137 -5.59975 -2.1575 0
M  V30 5572 H 535.207 -4.73657 -1.03811 0
M  V30 5573 N 536.55 0.480323 -1.50102 0
M  V30 5574 C 537.497 1.57946 -1.6829 0
M  V30 5575 C 538.467 1.57611 -0.524223 0
M  V30 5576 O 539.652 1.75282 -0.753709 0
M  V30 5577 C 536.792 2.95978 -1.77457 0
M  V30 5578 C 535.905 3.06173 -3.04766 0
M  V30 5579 C 535.04 4.35063 -3.04784 0
M  V30 5580 C 534.079 4.38966 -4.26586 0
M  V30 5581 N 533.216 5.59314 -4.24396 0
M  V30 5582 H 538.056 1.41743 -2.62131 0
M  V30 5583 H 535.593 0.689304 -1.2995 0
M  V30 5584 H 537.551 3.76011 -1.80752 0
M  V30 5585 H 536.181 3.10837 -0.870637 0
M  V30 5586 H 535.233 2.19071 -3.10986 0
M  V30 5587 H 536.545 3.04916 -3.9475 0
M  V30 5588 H 535.699 5.23436 -3.06757 0
M  V30 5589 H 534.438 4.38915 -2.12614 0
M  V30 5590 H 533.443 3.48992 -4.24835 0
M  V30 5591 H 534.668 4.36813 -5.19972 0
M  V30 5592 H 532.614 5.63969 -3.35074 0
M  V30 5593 H 532.531 5.5976 -5.08138 0
M  V30 5594 H 533.799 6.49837 -4.30502 0
M  V30 5595 N 538.028 1.39524 0.732853 0
M  V30 5596 C 538.975 1.38416 1.84688 0
M  V30 5597 C 539.945 0.243539 1.64305 0
M  V30 5598 O 541.13 0.438979 1.85681 0
M  V30 5599 C 538.27 1.23555 3.22224 0
M  V30 5600 C 537.383 2.47179 3.54298 0
M  V30 5601 C 536.518 2.2489 4.81246 0
M  V30 5602 C 535.557 3.44178 5.0617 0
M  V30 5603 N 534.694 3.21192 6.24323 0
M  V30 5604 H 539.534 2.33645 1.84971 0
M  V30 5605 H 537.071 1.16059 0.903804 0
M  V30 5606 H 539.029 1.12949 4.0162 0
M  V30 5607 H 537.659 0.31954 3.21215 0
M  V30 5608 H 536.711 2.68379 2.69587 0
M  V30 5609 H 538.023 3.36022 3.68633 0
M  V30 5610 H 537.177 2.11538 5.68627 0
M  V30 5611 H 535.916 1.33443 4.69089 0
M  V30 5612 H 534.921 3.58025 4.17251 0
M  V30 5613 H 536.146 4.36528 5.20212 0
M  V30 5614 H 534.092 2.32413 6.1345 0
M  V30 5615 H 534.009 4.03594 6.39256 0
M  V30 5616 H 535.277 3.1154 7.14537 0
M  V30 5617 N 539.506 -0.963266 1.24736 0
M  V30 5618 C 540.439 -2.05758 0.986852 0
M  V30 5619 C 541.417 -1.62398 -0.0809272 0
M  V30 5620 O 542.601 -1.88414 0.0569347 0
M  V30 5621 C 539.728 -3.35135 0.490095 0
M  V30 5622 C 538.774 -3.97451 1.54709 0
M  V30 5623 S 539.607 -4.34519 3.12976 0
M  V30 5624 C 540.763 -5.67026 2.65014 0
M  V30 5625 H 540.996 -2.27539 1.91346 0
M  V30 5626 H 538.529 -1.10176 1.08169 0
M  V30 5627 H 540.487 -4.09962 0.21012 0
M  V30 5628 H 539.148 -3.11335 -0.415873 0
M  V30 5629 H 538.341 -4.90704 1.15003 0
M  V30 5630 H 537.943 -3.29071 1.77731 0
M  V30 5631 H 540.235 -6.44748 2.08102 0
M  V30 5632 H 541.178 -6.11594 3.56873 0
M  V30 5633 H 541.586 -5.25847 2.05294 0
M  V30 5634 N 540.985 -1.06182 -1.16461 0
M  V30 5635 C 542.396 -0.802426 -1.68576 0
M  V30 5636 C 542.747 0.67412 -1.84255 0
M  V30 5637 O 541.872 1.52303 -1.5373 0
M  V30 5638 C 542.467 -1.45002 -3.06202 0
M  V30 5639 C 541.026 -1.23843 -3.55443 0
M  V30 5640 C 540.173 -1.52724 -2.31454 0
M  V30 5641 H 543.124 -1.22545 -1.00839 0
M  V30 5642 H 543.145 -0.864731 -3.70544 0
M  V30 5643 H 542.657 -2.52466 -2.94759 0
M  V30 5644 H 540.758 -0.183487 -3.72148 0
M  V30 5645 H 540.871 -1.95036 -4.37604 0
M  V30 5646 H 539.235 -0.947726 -2.36411 0
M  V30 5647 H 540.018 -2.61343 -2.22609 0
M  V30 5648 N 542.463 1.3308 -0.844243 0
M  V30 5649 C 543.711 1.97215 -0.441676 0
M  V30 5650 C 544.032 1.67185 1.0037 0
M  V30 5651 O 543.302 0.973588 1.69994 0
M  V30 5652 H 541.882 0.72959 -0.160335 0
M  V30 5653 H 544.544 1.62348 -1.07838 0
M  V30 5654 H 543.64 3.06698 -0.57815 0
M  V30 5655 N 543.941 0.601185 1.45683 0
M  V30 5656 C 545.187 0.0940202 2.02582 0
M  V30 5657 C 545.52 -1.26972 1.46941 0
M  V30 5658 O 544.795 -1.83613 0.641612 0
M  V30 5659 C 545.078 0.0481715 3.60068 0
M  V30 5660 C 544.931 1.44212 4.26055 0
M  V30 5661 C 546.25 -0.642975 4.35378 0
M  V30 5662 H 543.369 0.0356404 0.736138 0
M  V30 5663 H 546.011 0.771929 1.73612 0
M  V30 5664 H 544.161 -0.529128 3.8488 0
M  V30 5665 H 545.833 2.06601 4.12449 0
M  V30 5666 H 544.076 2.00465 3.84703 0
M  V30 5667 H 544.747 1.36234 5.34925 0
M  V30 5668 H 547.223 -0.152351 4.15821 0
M  V30 5669 H 546.099 -0.644141 5.45107 0
M  V30 5670 H 546.36 -1.70785 4.0778 0
M  V30 5671 N 545.419 -1.53889 0.339982 0
M  V30 5672 C 546.696 -1.93084 -0.312719 0
M  V30 5673 C 547.076 -1.2712 -1.68534 0
M  V30 5674 O 546.424 -0.420835 -2.24591 0
M  V30 5675 C 546.634 -3.4683 -0.388558 0
M  V30 5676 C 547.982 -4.19732 -0.641088 0
M  V30 5677 O 549.006 -3.53075 -0.470818 0
M  V30 5678 O 547.865 -5.3781 -0.970685 0
M  V30 5679 H 544.959 -0.806784 -0.18174 0
M  V30 5680 H 547.505 -1.65137 0.390898 0
M  V30 5681 H 546.277 -3.87055 0.574821 0
M  V30 5682 H 545.9 -3.80933 -1.1391 0
M  V30 5683 N 546.897 -0.0685191 -1.57451 0
M  V30 5684 C 547.827 0.89747 -2.15564 0
M  V30 5685 C 548.808 1.31266 -1.08181 0
M  V30 5686 O 549.993 1.38429 -1.36202 0
M  V30 5687 C 547.123 2.16623 -2.71463 0
M  V30 5688 C 546.077 1.89054 -3.83982 0
M  V30 5689 C 545.403 3.22532 -4.26471 0
M  V30 5690 C 546.703 1.1984 -5.08366 0
M  V30 5691 H 548.397 0.413373 -2.96533 0
M  V30 5692 H 545.943 0.197391 -1.42641 0
M  V30 5693 H 547.896 2.84614 -3.10761 0
M  V30 5694 H 546.62 2.67269 -1.8771 0
M  V30 5695 H 545.279 1.23469 -3.45183 0
M  V30 5696 H 544.927 3.71013 -3.39644 0
M  V30 5697 H 544.627 3.04879 -5.02317 0
M  V30 5698 H 546.151 3.91727 -4.68383 0
M  V30 5699 H 547.565 1.77896 -5.45001 0
M  V30 5700 H 545.962 1.12456 -5.89469 0
M  V30 5701 H 547.032 0.176996 -4.84577 0
M  V30 5702 N 548.375 1.56261 0.205012 0
M  V30 5703 C 549.338 1.92908 1.23771 0
M  V30 5704 C 550.338 0.809208 1.38955 0
M  V30 5705 O 551.528 1.07676 1.36936 0
M  V30 5706 C 548.66 2.19442 2.60879 0
M  V30 5707 H 549.853 2.85287 0.924728 0
M  V30 5708 H 547.406 1.49798 0.446125 0
M  V30 5709 H 548.141 1.29668 2.97248 0
M  V30 5710 H 547.926 3.0104 2.51232 0
M  V30 5711 H 549.416 2.48833 3.35368 0
M  V30 5712 N 549.853 -0.472356 1.50355 0
M  V30 5713 C 551.099 -1.22634 1.6152 0
M  V30 5714 C 551.432 -1.91645 0.313995 0
M  V30 5715 O 550.707 -1.82059 -0.684446 0
M  V30 5716 C 550.99 -2.27099 2.7946 0
M  V30 5717 C 550.843 -1.62402 4.19459 0
M  V30 5718 C 552.162 -3.28421 2.92964 0
M  V30 5719 H 549.281 -0.444494 0.587873 0
M  V30 5720 H 551.923 -0.520321 1.82737 0
M  V30 5721 H 550.073 -2.87314 2.61501 0
M  V30 5722 H 551.745 -1.05793 4.49005 0
M  V30 5723 H 549.988 -0.927184 4.23776 0
M  V30 5724 H 550.659 -2.38309 4.97909 0
M  V30 5725 H 553.135 -2.78227 3.09401 0
M  V30 5726 H 552.011 -3.98845 3.77113 0
M  V30 5727 H 552.272 -3.92467 2.03525 0
M  V30 5728 N 551.331 -1.39911 -0.725443 0
M  V30 5729 C 552.742 -1.33599 -1.30415 0
M  V30 5730 C 553.093 -0.00481792 -1.96199 0
M  V30 5731 O 552.218 0.897275 -1.96921 0
M  V30 5732 C 552.813 -2.41965 -2.37146 0
M  V30 5733 C 551.372 -2.39144 -2.90667 0
M  V30 5734 C 550.519 -2.23355 -1.64341 0
M  V30 5735 H 553.47 -1.4986 -0.522267 0
M  V30 5736 H 553.491 -2.09304 -3.17761 0
M  V30 5737 H 553.003 -3.38837 -1.89238 0
M  V30 5738 H 551.104 -1.4594 -3.4283 0
M  V30 5739 H 551.217 -3.34362 -3.43131 0
M  V30 5740 H 549.581 -1.70696 -1.89037 0
M  V30 5741 H 550.364 -3.2221 -1.18471 0
M  V30 5742 N 552.809 0.956637 -1.25245 0
M  V30 5743 C 554.058 1.69537 -1.0927 0
M  V30 5744 C 554.371 1.92136 0.366503 0
M  V30 5745 O 555.577 2.63687 0.64665 0
M  V30 5746 C 554.033 3.05211 -1.9072 0
M  V30 5747 C 553.641 2.90416 -3.41119 0
M  V30 5748 C 555.385 3.82882 -1.83308 0
M  V30 5749 C 553.292 4.21468 -4.14872 0
M  V30 5750 H 552.222 0.635804 -0.405302 0
M  V30 5751 H 554.873 1.06513 -1.49423 0
M  V30 5752 H 553.255 3.69128 -1.43389 0
M  V30 5753 H 554.429 2.35444 -3.9611 0
M  V30 5754 H 552.744 2.26203 -3.49602 0
M  V30 5755 H 555.341 4.79944 -2.35706 0
M  V30 5756 H 555.684 4.0853 -0.800572 0
M  V30 5757 H 556.217 3.25711 -2.28379 0
M  V30 5758 H 552.956 4.01009 -5.18529 0
M  V30 5759 H 552.476 4.76213 -3.64665 0
M  V30 5760 H 554.155 4.90022 -4.22478 0
M  V30 5761 N 554.287 1.06798 1.15896 0
M  V30 5762 C 555.564 0.701057 1.82605 0
M  V30 5763 C 555.944 -0.817066 1.94646 0
M  V30 5764 O 555.292 -1.72933 1.49353 0
M  V30 5765 C 555.502 1.40895 3.19296 0
M  V30 5766 C 556.85 1.55744 3.95005 0
M  V30 5767 O 557.874 1.36927 3.28831 0
M  V30 5768 O 556.733 1.86658 5.13635 0
M  V30 5769 H 553.827 0.248791 0.78869 0
M  V30 5770 H 556.373 1.16857 1.23055 0
M  V30 5771 H 555.145 2.4439 3.05596 0
M  V30 5772 H 554.768 0.931847 3.86526 0
M  V30 5773 N 555.766 -1.3263 0.851289 0
M  V30 5774 C 556.698 -2.27824 0.250757 0
M  V30 5775 C 557.711 -1.52285 -0.575598 0
M  V30 5776 O 558.9 -1.73946 -0.400638 0
M  V30 5777 C 556 -3.3232 -0.664571 0
M  V30 5778 C 555.173 -4.37221 0.125187 0
M  V30 5779 C 554.232 -5.21314 -0.715385 0
M  V30 5780 O 553.258 -5.69002 -0.150111 0
M  V30 5781 N 554.46 -5.43823 -2.03069 0
M  V30 5782 H 557.225 -2.79997 1.06873 0
M  V30 5783 H 554.786 -1.45455 0.710943 0
M  V30 5784 H 556.778 -3.85486 -1.23216 0
M  V30 5785 H 555.348 -2.80331 -1.38323 0
M  V30 5786 H 554.568 -3.84384 0.874199 0
M  V30 5787 H 555.856 -5.04399 0.667774 0
M  V30 5788 H 555.254 -5.06803 -2.51332 0
M  V30 5789 H 553.811 -5.99998 -2.54648 0
M  V30 5790 N 557.244 -0.608902 -1.45362 0
M  V30 5791 C 558.174 0.0964526 -2.33301 0
M  V30 5792 C 559.155 0.857444 -1.46908 0
M  V30 5793 O 560.34 0.827735 -1.75676 0
M  V30 5794 C 557.47 1.09354 -3.29635 0
M  V30 5795 C 556.424 0.445676 -4.25673 0
M  V30 5796 C 555.75 1.5511 -5.11708 0
M  V30 5797 C 557.05 -0.633972 -5.18438 0
M  V30 5798 H 558.744 -0.637829 -2.92527 0
M  V30 5799 H 556.29 -0.308178 -1.40664 0
M  V30 5800 H 558.243 1.59556 -3.90025 0
M  V30 5801 H 556.967 1.85843 -2.6857 0
M  V30 5802 H 555.626 -0.0354897 -3.66583 0
M  V30 5803 H 555.274 2.30631 -4.4701 0
M  V30 5804 H 554.974 1.12311 -5.76767 0
M  V30 5805 H 556.498 2.05537 -5.74967 0
M  V30 5806 H 557.912 -0.215974 -5.72893 0
M  V30 5807 H 556.309 -0.983789 -5.91981 0
M  V30 5808 H 557.379 -1.51005 -4.60788 0
M  V30 5809 N 558.722 1.53707 -0.348139 0
M  V30 5810 C 559.968 2.01286 0.247332 0
M  V30 5811 C 560.301 1.23546 1.49834 0
M  V30 5812 O 559.576 0.324331 1.91777 0
M  V30 5813 C 559.859 3.55768 0.556858 0
M  V30 5814 C 559.712 4.44216 -0.706564 0
M  V30 5815 C 561.031 4.1841 1.3646 0
M  V30 5816 H 558.15 0.731677 0.0884201 0
M  V30 5817 H 560.792 1.84106 -0.469584 0
M  V30 5818 H 558.942 3.70539 1.16761 0
M  V30 5819 H 560.614 4.41274 -1.34444 0
M  V30 5820 H 558.857 4.12892 -1.33052 0
M  V30 5821 H 559.528 5.50202 -0.445186 0
M  V30 5822 H 562.004 4.07365 0.848113 0
M  V30 5823 H 560.88 5.26563 1.54992 0
M  V30 5824 H 561.141 3.7333 2.36805 0
M  V30 5825 N 560.2 0.0768682 1.57412 0
M  V30 5826 C 561.446 -0.585926 1.94778 0
M  V30 5827 C 561.801 -1.66912 0.956982 0
M  V30 5828 O 561.094 -1.9159 -0.0199454 0
M  V30 5829 C 561.288 -1.20268 3.36557 0
M  V30 5830 C 561.117 -0.18076 4.49337 0
M  V30 5831 C 559.887 0.236362 5.04747 0
M  V30 5832 C 562.085 0.583978 5.10974 0
M  V30 5833 N 560.067 1.24846 6.01071 0
M  V30 5834 C 561.438 1.44841 6.02844 0
M  V30 5835 C 563.493 0.639492 4.93776 0
M  V30 5836 C 562.196 2.36343 6.79363 0
M  V30 5837 C 564.222 1.54204 5.70942 0
M  V30 5838 C 563.584 2.39414 6.62465 0
M  V30 5839 H 559.683 -0.185281 0.759734 0
M  V30 5840 H 562.267 0.155193 1.9408 0
M  V30 5841 H 560.438 -1.9137 3.37982 0
M  V30 5842 H 562.17 -1.82636 3.61146 0
M  V30 5843 H 558.925 -0.14777 4.73369 0
M  V30 5844 H 559.349 1.75217 6.53933 0
M  V30 5845 H 563.991 -0.00510074 4.228 0
M  V30 5846 H 561.709 3.01836 7.49614 0
M  V30 5847 H 565.295 1.5899 5.59655 0
M  V30 5848 H 564.175 3.0812 7.21132 0
M  V30 5849 N 561.678 -1.56367 -0.196722 0
M  V30 5850 C 563.094 -1.49916 -0.54749 0
M  V30 5851 C 563.294 -0.77659 -1.85934 0
M  V30 5852 O 562.35 -0.32644 -2.50381 0
M  V30 5853 C 563.663 -2.94577 -0.603734 0
M  V30 5854 C 565.211 -3.05239 -0.692677 0
M  V30 5855 C 565.686 -4.51308 -0.780046 0
M  V30 5856 N 567.177 -4.55453 -0.843616 0
M  V30 5857 C 567.912 -5.65786 -0.931358 0
M  V30 5858 N 567.408 -6.85812 -0.981503 0
M  V30 5859 N 569.201 -5.53695 -0.968421 0
M  V30 5860 H 561.352 -2.01761 0.663803 0
M  V30 5861 H 563.615 -0.918094 0.236238 0
M  V30 5862 H 563.321 -3.50494 0.29105 0
M  V30 5863 H 563.195 -3.47841 -1.45898 0
M  V30 5864 H 565.582 -2.49372 -1.57789 0
M  V30 5865 H 565.663 -2.55103 0.188736 0
M  V30 5866 H 565.307 -5.078 0.100811 0
M  V30 5867 H 565.237 -4.99176 -1.67724 0
M  V30 5868 H 567.728 -3.69025 -0.814176 0
M  V30 5869 H 568.041 -7.65648 -1.04892 0
M  V30 5870 H 566.386 -6.88474 -0.950208 0
M  V30 5871 H 569.577 -4.58848 -0.926072 0
M  V30 5872 H 569.75 -6.39708 -1.03334 0
M  V30 5873 N 563.156 0.464375 -1.50603 0
M  V30 5874 C 564.384 1.23907 -1.65695 0
M  V30 5875 C 564.799 1.85658 -0.343027 0
M  V30 5876 O 564.156 1.69529 0.675739 0
M  V30 5877 C 564.207 2.3429 -2.75301 0
M  V30 5878 O 563.928 1.7507 -4.01599 0
M  V30 5879 C 565.429 3.25051 -3.01424 0
M  V30 5880 H 562.649 0.374485 -0.556778 0
M  V30 5881 H 565.193 0.55353 -1.96866 0
M  V30 5882 H 563.348 2.98607 -2.46804 0
M  V30 5883 H 563.762 2.47812 -4.62266 0
M  V30 5884 H 565.236 3.98699 -3.81763 0
M  V30 5885 H 565.713 3.84227 -2.12758 0
M  V30 5886 H 566.319 2.66463 -3.31477 0
M  V30 5887 N 564.634 1.40294 0.718013 0
M  V30 5888 C 566.05 1.2227 1.02577 0
M  V30 5889 C 566.25 0.0961976 2.0127 0
M  V30 5890 O 565.306 -0.546695 2.46511 0
M  V30 5891 C 566.619 2.56348 1.57182 0
M  V30 5892 C 568.167 2.6334 1.69178 0
M  V30 5893 C 568.642 3.9768 2.27188 0
M  V30 5894 N 570.133 3.99409 2.34578 0
M  V30 5895 C 570.868 5.00141 2.8044 0
M  V30 5896 N 570.364 6.11268 3.26073 0
M  V30 5897 N 572.157 4.87511 2.79802 0
M  V30 5898 H 564.308 2.12304 0.0637899 0
M  V30 5899 H 566.571 0.943632 0.0909036 0
M  V30 5900 H 566.277 3.3942 0.921262 0
M  V30 5901 H 566.151 2.77266 2.55741 0
M  V30 5902 H 568.538 1.80641 2.33351 0
M  V30 5903 H 568.619 2.46255 0.692247 0
M  V30 5904 H 568.263 4.80817 1.63638 0
M  V30 5905 H 568.193 4.12093 3.27852 0
M  V30 5906 H 570.684 3.19162 2.02346 0
M  V30 5907 H 570.997 6.84023 3.59628 0
M  V30 5908 H 569.342 6.14837 3.24038 0
M  V30 5909 H 572.533 3.9979 2.43487 0
M  V30 5910 H 572.706 5.66158 3.15228 0
M  V30 5911 N 566.112 -0.949982 1.2575 0
M  V30 5912 C 567.359 -1.69515 1.10774 0
M  V30 5913 C 567.687 -1.91316 -0.350479 0
M  V30 5914 O 566.942 -1.48515 -1.27443 0
M  V30 5915 C 567.241 -3.08039 1.81237 0
M  V30 5916 C 566.907 -3.06023 3.31151 0
M  V30 5917 C 565.569 -3.0518 3.72047 0
M  V30 5918 C 567.921 -2.98998 4.26907 0
M  V30 5919 C 565.249 -2.95067 5.07102 0
M  V30 5920 C 567.601 -2.90426 5.61992 0
M  V30 5921 C 566.265 -2.87922 6.0221 0
M  V30 5922 H 565.535 -0.6203 0.405351 0
M  V30 5923 H 568.182 -1.10953 1.56082 0
M  V30 5924 H 566.487 -3.70172 1.28373 0
M  V30 5925 H 568.184 -3.64526 1.67098 0
M  V30 5926 H 564.774 -3.07453 2.98614 0
M  V30 5927 H 568.958 -2.98764 3.963 0
M  V30 5928 H 564.214 -2.915 5.37436 0
M  V30 5929 H 568.388 -2.83952 6.35881 0
M  V30 5930 H 566.015 -2.79841 7.06819 0
M  V30 5931 N 567.59 -1.07411 -1.15328 0
M  V30 5932 C 568.522 -0.652924 -2.19703 0
M  V30 5933 C 569.535 0.294869 -1.60107 0
M  V30 5934 O 570.724 0.0840932 -1.78302 0
M  V30 5935 C 567.824 0.061434 -3.38844 0
M  V30 5936 C 566.997 -0.902696 -4.27984 0
M  V30 5937 C 566.056 -0.225521 -5.25717 0
M  V30 5938 O 565.082 -0.86676 -5.62562 0
M  V30 5939 N 566.284 1.02858 -5.71315 0
M  V30 5940 H 569.049 -1.55081 -2.56457 0
M  V30 5941 H 566.61 -0.958883 -1.30449 0
M  V30 5942 H 568.602 0.525145 -4.01278 0
M  V30 5943 H 567.172 0.861269 -3.00501 0
M  V30 5944 H 566.392 -1.54551 -3.6264 0
M  V30 5945 H 567.68 -1.55636 -4.84412 0
M  V30 5946 H 567.078 1.56948 -5.43492 0
M  V30 5947 H 565.635 1.43596 -6.35786 0
M  V30 5948 N 569.068 1.32177 -0.85831 0
M  V30 5949 C 570.484 1.49873 -0.548656 0
M  V30 5950 C 570.684 1.79278 0.919874 0
M  V30 5951 O 569.74 1.86451 1.70271 0
M  V30 5952 C 571.053 2.64043 -1.4388 0
M  V30 5953 C 572.601 2.77928 -1.43961 0
M  V30 5954 C 573.076 3.95182 -2.31506 0
M  V30 5955 N 574.567 4.0245 -2.29321 0
M  V30 5956 C 575.302 4.9242 -2.93786 0
M  V30 5957 N 574.798 5.87373 -3.67376 0
M  V30 5958 N 576.591 4.85572 -2.83155 0
M  V30 5959 H 568.742 1.11357 -1.80868 0
M  V30 5960 H 571.005 0.549175 -0.772729 0
M  V30 5961 H 570.711 2.49055 -2.48324 0
M  V30 5962 H 570.585 3.59912 -1.12885 0
M  V30 5963 H 572.972 2.92338 -0.402813 0
M  V30 5964 H 573.053 1.82762 -1.78974 0
M  V30 5965 H 572.697 3.81531 -3.35256 0
M  V30 5966 H 572.627 4.89633 -1.93823 0
M  V30 5967 H 575.118 3.34507 -1.75822 0
M  V30 5968 H 575.431 6.52728 -4.13722 0
M  V30 5969 H 573.776 5.87388 -3.71484 0
M  V30 5970 H 576.967 4.10363 -2.25211 0
M  V30 5971 H 577.14 5.55486 -3.33676 0
M  V30 5972 N 570.547 0.616602 1.45037 0
M  V30 5973 C 571.963 0.280994 1.57107 0
M  V30 5974 C 572.163 -1.21627 1.60653 0
M  V30 5975 O 571.219 -1.9997 1.54169 0
M  V30 5976 C 572.532 0.960116 2.8496 0
M  V30 5977 C 574.08 0.936884 2.98649 0
M  V30 5978 C 574.555 1.59619 4.29285 0
M  V30 5979 N 576.046 1.5621 4.36065 0
M  V30 5980 C 576.781 2.04131 5.35834 0
M  V30 5981 N 576.277 2.60177 6.4209 0
M  V30 5982 N 578.07 1.94845 5.27249 0
M  V30 5983 H 570.221 1.58867 1.40979 0
M  V30 5984 H 572.484 0.666024 0.674623 0
M  V30 5985 H 572.19 2.01473 2.88273 0
M  V30 5986 H 572.064 0.488921 3.74018 0
M  V30 5987 H 574.451 -0.109209 2.94898 0
M  V30 5988 H 574.532 1.44643 2.10979 0
M  V30 5989 H 574.176 2.64166 4.33796 0
M  V30 5990 H 574.106 1.06159 5.15789 0
M  V30 5991 H 576.597 1.15276 3.59889 0
M  V30 5992 H 576.91 2.94513 7.1448 0
M  V30 5993 H 575.255 2.64221 6.42816 0
M  V30 5994 H 578.446 1.50792 4.43147 0
M  V30 5995 H 578.619 2.32504 6.04852 0
M  V30 5996 N 572.025 -1.5352 0.356285 0
M  V30 5997 C 573.274 -2.00298 -0.237373 0
M  V30 5998 C 573.587 -1.24784 -1.50627 0
M  V30 5999 O 574.793 -1.62103 -2.17795 0
M  V30 6000 C 573.249 -3.56771 -0.473545 0
M  V30 6001 C 572.857 -4.41154 0.780183 0
M  V30 6002 C 574.601 -4.1193 -1.02537 0
M  V30 6003 C 572.508 -5.89161 0.514108 0
M  V30 6004 H 571.438 -0.748307 -0.092478 0
M  V30 6005 H 574.089 -1.77283 0.473588 0
M  V30 6006 H 572.471 -3.75902 -1.24553 0
M  V30 6007 H 573.645 -4.33797 1.55425 0
M  V30 6008 H 571.96 -3.97052 1.25455 0
M  V30 6009 H 574.557 -5.20133 -1.2396 0
M  V30 6010 H 574.9 -3.65943 -1.98473 0
M  V30 6011 H 575.433 -3.96561 -0.313775 0
M  V30 6012 H 572.172 -6.39408 1.44355 0
M  V30 6013 H 571.692 -5.9939 -0.221632 0
M  V30 6014 H 573.371 -6.46857 0.136122 0
M  V30 6015 N 573.503 -0.0852151 -1.57369 0
M  V30 6016 C 574.914 0.445428 -1.81309 0
M  V30 6017 C 575.265 1.68795 -1.00013 0
M  V30 6018 O 574.39 2.15211 -0.226573 0
M  V30 6019 C 574.985 0.814887 -3.28854 0
M  V30 6020 C 573.544 1.29032 -3.53592 0
M  V30 6021 C 572.691 0.282089 -2.75861 0
M  V30 6022 H 575.642 -0.310771 -1.55627 0
M  V30 6023 H 575.663 1.67524 -3.41637 0
M  V30 6024 H 575.175 -0.0896309 -3.87996 0
M  V30 6025 H 573.276 2.21289 -2.9977 0
M  V30 6026 H 573.389 1.25898 -4.62262 0
M  V30 6027 H 571.753 0.762182 -2.43029 0
M  V30 6028 H 572.536 -0.614936 -3.37748 0
M  V30 6029 N 574.981 1.5647 0.188427 0
M  V30 6030 C 575.891 1.98285 1.2538 0
M  V30 6031 C 576.907 0.891535 1.49424 0
M  V30 6032 O 578.083 1.19782 1.61908 0
M  V30 6033 C 575.148 2.31965 2.57669 0
M  V30 6034 C 574.209 3.54838 2.41638 0
M  V30 6035 C 573.442 3.86901 3.67618 0
M  V30 6036 O 573.665 3.20163 4.72072 0
M  V30 6037 O 572.599 4.80309 3.62749 0
M  V30 6038 H 576.425 2.89145 0.928912 0
M  V30 6039 H 574.01 1.44112 0.393955 0
M  V30 6040 H 575.892 2.54673 3.35737 0
M  V30 6041 H 574.567 1.44271 2.89771 0
M  V30 6042 H 573.474 3.37369 1.61658 0
M  V30 6043 H 574.807 4.43019 2.14465 0
M  V30 6044 N 576.459 -0.456382 1.50847 0
M  V30 6045 C 577.875 -0.791345 1.386 0
M  V30 6046 C 578.075 -1.9633 0.453498 0
M  V30 6047 O 577.131 -2.52308 -0.0984353 0
M  V30 6048 C 578.444 -1.08959 2.80265 0
M  V30 6049 C 579.992 -1.19517 2.89283 0
M  V30 6050 C 580.467 -1.52647 4.31814 0
M  V30 6051 N 581.958 -1.59609 4.34832 0
M  V30 6052 C 582.693 -1.86777 5.42127 0
M  V30 6053 N 582.189 -2.11866 6.59609 0
M  V30 6054 N 583.982 -1.88402 5.29586 0
M  V30 6055 H 576.133 0.315746 2.1004 0
M  V30 6056 H 578.396 0.0787916 0.94472 0
M  V30 6057 H 578.102 -0.301355 3.50407 0
M  V30 6058 H 577.976 -2.02211 3.18419 0
M  V30 6059 H 580.363 -1.97406 2.19351 0
M  V30 6060 H 580.444 -0.242111 2.54652 0
M  V30 6061 H 580.088 -0.752922 5.02288 0
M  V30 6062 H 580.018 -2.49127 4.63943 0
M  V30 6063 H 582.509 -1.42201 3.50125 0
M  V30 6064 H 582.822 -2.31912 7.37182 0
M  V30 6065 H 581.167 -2.09228 6.62758 0
M  V30 6066 H 584.358 -1.68307 4.36795 0
M  V30 6067 H 584.531 -2.09238 6.13289 0
M  V30 6068 N 577.937 -1.40673 -0.710563 0
M  V30 6069 C 578.867 -1.44095 -1.83736 0
M  V30 6070 C 579.848 -0.301286 -1.67411 0
M  V30 6071 O 581.033 -0.510618 -1.87367 0
M  V30 6072 C 578.163 -1.30773 -3.21738 0
M  V30 6073 C 577.117 -2.42395 -3.52745 0
M  V30 6074 C 576.443 -2.14147 -4.89944 0
M  V30 6075 C 577.743 -3.84738 -3.53234 0
M  V30 6076 H 579.437 -2.38396 -1.81129 0
M  V30 6077 H 576.983 -1.14746 -0.870017 0
M  V30 6078 H 578.936 -1.31783 -4.00264 0
M  V30 6079 H 577.66 -0.329507 -3.24934 0
M  V30 6080 H 576.319 -2.40643 -2.76562 0
M  V30 6081 H 575.967 -1.14703 -4.89747 0
M  V30 6082 H 575.667 -2.88934 -5.11655 0
M  V30 6083 H 577.191 -2.16848 -5.70797 0
M  V30 6084 H 578.605 -3.88286 -4.2179 0
M  V30 6085 H 577.002 -4.59085 -3.86473 0
M  V30 6086 H 578.072 -4.13962 -2.52514 0
M  V30 6087 N 579.415 0.9433 -1.26252 0
M  V30 6088 C 580.826 1.50404 -1.10614 0
M  V30 6089 C 581.177 1.93666 0.31429 0
M  V30 6090 O 580.302 1.79709 1.20555 0
M  V30 6091 C 580.897 2.73336 -2.00182 0
M  V30 6092 C 579.456 3.25686 -1.88695 0
M  V30 6093 C 578.603 1.98474 -1.93658 0
M  V30 6094 H 581.554 0.759006 -1.39373 0
M  V30 6095 H 581.575 3.47567 -1.54847 0
M  V30 6096 H 581.087 2.41818 -3.03555 0
M  V30 6097 H 579.188 3.61998 -0.882489 0
M  V30 6098 H 579.301 3.92935 -2.74115 0
M  V30 6099 H 577.665 2.14278 -1.37684 0
M  V30 6100 H 578.448 1.6929 -2.98657 0
M  V30 6101 N 580.893 1.08022 1.14757 0
M  V30 6102 C 582.139 0.808705 1.85978 0
M  V30 6103 C 582.472 -0.663764 1.82504 0
M  V30 6104 O 581.747 -1.48765 1.25296 0
M  V30 6105 C 582.03 1.32623 3.34788 0
M  V30 6106 C 581.883 2.86375 3.46856 0
M  V30 6107 C 583.202 0.948291 4.29762 0
M  V30 6108 H 580.321 0.295244 0.675278 0
M  V30 6109 H 582.963 1.33917 1.34783 0
M  V30 6110 H 581.113 0.875002 3.78518 0
M  V30 6111 H 582.785 3.39839 3.11941 0
M  V30 6112 H 581.028 3.24232 2.88194 0
M  V30 6113 H 581.699 3.17658 4.51439 0
M  V30 6114 H 584.175 1.33722 3.94028 0
M  V30 6115 H 583.051 1.33765 5.32352 0
M  V30 6116 H 583.312 -0.145094 4.41862 0
M  V30 6117 N 582.371 -1.3172 0.865308 0
M  V30 6118 C 583.301 -2.31109 0.333302 0
M  V30 6119 C 584.282 -1.60148 -0.573301 0
M  V30 6120 O 585.467 -1.87882 -0.491305 0
M  V30 6121 C 582.597 -3.44104 -0.470078 0
M  V30 6122 C 581.551 -4.26623 0.343021 0
M  V30 6123 C 580.877 -5.31482 -0.585756 0
M  V30 6124 C 582.177 -4.98001 1.57456 0
M  V30 6125 H 583.871 -2.75855 1.1638 0
M  V30 6126 H 581.417 -1.3262 0.561069 0
M  V30 6127 H 583.37 -4.12682 -0.852752 0
M  V30 6128 H 582.094 -2.98112 -1.33404 0
M  V30 6129 H 580.753 -3.59707 0.707583 0
M  V30 6130 H 580.401 -4.81741 -1.44686 0
M  V30 6131 H 580.101 -5.87582 -0.0456494 0
M  V30 6132 H 581.625 -6.0292 -0.965375 0
M  V30 6133 H 583.039 -5.59201 1.26359 0
M  V30 6134 H 581.436 -5.63876 2.05339 0
M  V30 6135 H 582.506 -4.25253 2.32997 0
M  V30 6136 N 583.85 -0.624285 -1.44708 0
M  V30 6137 C 585.096 -0.13473 -2.02953 0
M  V30 6138 C 585.451 1.22724 -1.48178 0
M  V30 6139 O 584.744 1.80109 -0.653542 0
M  V30 6140 C 584.938 -0.0546353 -3.57358 0
M  V30 6141 C 584.767 -1.40729 -4.27113 0
M  V30 6142 C 583.537 -1.99231 -4.64365 0
M  V30 6143 C 585.735 -2.33968 -4.58 0
M  V30 6144 N 583.716 -3.27803 -5.19055 0
M  V30 6145 C 585.088 -3.47149 -5.137 0
M  V30 6146 C 587.143 -2.33132 -4.39948 0
M  V30 6147 C 585.846 -4.59682 -5.53249 0
M  V30 6148 C 587.872 -3.44724 -4.8054 0
M  V30 6149 C 587.234 -4.56629 -5.36348 0
M  V30 6150 H 583.332 -0.0930617 -0.776443 0
M  V30 6151 H 585.917 -0.826286 -1.76297 0
M  V30 6152 H 584.088 0.606183 -3.8364 0
M  V30 6153 H 585.82 0.443116 -4.02267 0
M  V30 6154 H 582.575 -1.52251 -4.4846 0
M  V30 6155 H 582.999 -3.93519 -5.50883 0
M  V30 6156 H 587.641 -1.47868 -3.961 0
M  V30 6157 H 585.359 -5.4566 -5.96054 0
M  V30 6158 H 588.945 -3.45245 -4.68291 0
M  V30 6159 H 587.825 -5.41551 -5.67179 0
M  V30 6160 O 585.367 1.53348 -0.50662 0
M  V30 6161 H 586.058 1.93698 0.00952266 0
M  V30 END ATOM
M  V30 BEGIN BOND
M  V30 END BOND
M  V30 END CTAB
M  END
$$$$
