drugbank_target|P9WPF1 Alpha-pyrone synthesis polyketide synthase-like Pks18 (DB08231)
 OpenBabel12092120493D

  0  0  0     0  0            999 V3000
M  V30 BEGIN CTAB
M  V30 COUNTS 5954 6007 0 0 0
M  V30 BEGIN ATOM
M  V30 1 H -0.908 1.98254 -0.117106 0
M  V30 2 N 0 1.576 0 0
M  V30 3 C 0.933 2.03868 1.02534 0
M  V30 4 C 1.911 0.928543 1.3348 0
M  V30 5 O 3.095 1.19667 1.45644 0
M  V30 6 C 0.222 2.43627 2.35294 0
M  V30 7 C -0.732 3.65373 2.2001 0
M  V30 8 S 0.101 5.13292 1.52614 0
M  V30 9 C 1.257 5.56322 2.86805 0
M  V30 10 H 1.49 2.90518 0.631377 0
M  V30 11 H -0.977 1.52953 0.210867 0
M  V30 12 H 0.981 2.67203 3.11629 0
M  V30 13 H -0.358 1.57376 2.7183 0
M  V30 14 H -1.165 3.90944 3.18086 0
M  V30 15 H -1.563 3.418 1.51819 0
M  V30 16 H 0.729 5.58782 3.83104 0
M  V30 17 H 1.672 6.56266 2.65933 0
M  V30 18 H 2.08 4.83886 2.90714 0
M  V30 19 N 1.4781 -0.272755 1.55222 0
M  V30 20 C 2.4261 -1.35705 1.88909 0
M  V30 21 C 3.4201 -1.5112 0.765456 0
M  V30 22 O 4.6261 -1.52901 0.949802 0
M  V30 23 H 1.0011 -0.453868 0.59959 0
M  V30 24 H 2.9721 -1.04544 2.79487 0
M  V30 25 C 1.7211 -2.71049 2.17779 0
M  V30 26 H 1.0441 -2.59979 3.03728 0
M  V30 27 H 2.4841 -3.45858 2.45272 0
M  V30 28 C 0.9431 -3.22165 0.985473 0
M  V30 29 O 1.4731 -4.01096 0.220233 0
M  V30 30 N -0.3209 -2.7985 0.783108 0
M  V30 31 H -0.7739 -2.15775 1.40708 0
M  V30 32 H -0.8159 -3.14397 -0.0130392 0
M  V30 33 N 2.9562 -1.48159 -0.537278 0
M  V30 34 C 4.2022 -1.56035 -1.29541 0
M  V30 35 C 4.5352 -0.230377 -1.92829 0
M  V30 36 O 3.8102 0.762952 -1.78911 0
M  V30 37 C 4.0932 -2.69323 -2.39034 0
M  V30 38 C 3.9462 -4.12002 -1.80485 0
M  V30 39 C 5.2652 -2.78408 -3.40847 0
M  V30 40 H 2.3842 -0.567992 -0.469632 0
M  V30 41 H 5.0262 -1.80302 -0.599277 0
M  V30 42 H 3.1762 -2.48763 -2.98412 0
M  V30 43 H 4.8482 -4.43981 -1.25215 0
M  V30 44 H 3.0912 -4.19344 -1.11055 0
M  V30 45 H 3.7622 -4.87077 -2.59731 0
M  V30 46 H 6.2382 -2.97012 -2.91416 0
M  V30 47 H 5.1142 -3.59416 -4.14863 0
M  V30 48 H 5.3752 -1.86269 -4.00944 0
M  V30 49 N 4.4343 0.785586 -1.36625 0
M  V30 50 C 5.6593 1.57963 -1.34397 0
M  V30 51 C 6.0843 1.87964 0.071526 0
M  V30 52 O 5.4423 1.48182 1.0446 0
M  V30 53 C 5.4903 2.87511 -2.17646 0
M  V30 54 O 4.5943 3.81281 -1.57158 0
M  V30 55 H 3.9353 0.479014 -0.459828 0
M  V30 56 H 6.4653 0.973411 -1.79961 0
M  V30 57 H 6.4753 3.36745 -2.30362 0
M  V30 58 H 5.1503 2.65002 -3.20541 0
M  V30 59 H 3.7273 3.39885 -1.53403 0
M  V30 60 N 5.9124 1.20967 1.01018 0
M  V30 61 C 6.8754 0.965918 2.07853 0
M  V30 62 C 7.8754 -0.0610545 1.60684 0
M  V30 63 O 9.0654 0.175681 1.73312 0
M  V30 64 C 6.1974 0.455513 3.37843 0
M  V30 65 H 7.3904 1.91365 2.3091 0
M  V30 66 H 4.9434 1.02594 1.17916 0
M  V30 67 H 5.6784 -0.497381 3.20463 0
M  V30 68 H 5.4634 1.19622 3.73407 0
M  V30 69 H 6.9534 0.304667 4.16487 0
M  V30 70 N 7.3905 -1.2043 1.01659 0
M  V30 71 C 8.3005 -2.2689 0.596484 0
M  V30 72 C 9.3165 -1.70107 -0.36599 0
M  V30 73 O 10.4925 -2.00117 -0.226942 0
M  V30 74 C 7.5575 -3.4665 -0.0586659 0
M  V30 75 C 6.6185 -4.18662 0.949751 0
M  V30 76 C 5.8515 -5.32705 0.32577 0
M  V30 77 O 6.0745 -5.63656 -0.874509 0
M  V30 78 O 5.0085 -5.92803 1.04249 0
M  V30 79 H 8.8345 -2.65041 1.4828 0
M  V30 80 H 6.4195 -1.27048 0.786082 0
M  V30 81 H 8.3015 -4.19256 -0.424564 0
M  V30 82 H 6.9765 -3.10375 -0.91918 0
M  V30 83 H 5.8835 -3.48229 1.36702 0
M  V30 84 H 7.2165 -4.58878 1.78023 0
M  V30 85 N 8.8686 -0.792821 -1.36206 0
M  V30 86 C 10.0936 -0.377701 -2.03932 0
M  V30 87 C 10.5186 0.998947 -1.59382 0
M  V30 88 O 9.8766 1.64421 -0.763903 0
M  V30 89 C 9.9246 -0.453635 -3.57735 0
M  V30 90 O 9.0286 0.538151 -4.08874 0
M  V30 91 H 8.3696 -0.159855 -0.644471 0
M  V30 92 H 10.8996 -1.07488 -1.7409 0
M  V30 93 H 10.9096 -0.318464 -4.06755 0
M  V30 94 H 9.5846 -1.45784 -3.89512 0
M  V30 95 H 8.1616 0.364359 -3.71116 0
M  V30 96 N 10.3467 1.47872 -0.545128 0
M  V30 97 C 11.5947 2.02093 -0.016553 0
M  V30 98 C 11.9157 1.42305 1.3332 0
M  V30 99 O 11.1857 0.593853 1.86682 0
M  V30 100 H 9.7657 0.746993 -0.00313038 0
M  V30 101 H 12.4277 1.81414 -0.712397 0
M  V30 102 H 11.5237 3.11996 0.0805422 0
M  V30 103 N 11.8248 0.280983 1.55075 0
M  V30 104 C 12.7878 -0.590896 2.21452 0
M  V30 105 C 13.7878 -1.07682 1.19421 0
M  V30 106 O 14.9778 -0.97605 1.44288 0
M  V30 107 C 12.1098 -1.81587 2.88511 0
M  V30 108 H 13.3028 -0.0112554 2.99898 0
M  V30 109 H 10.8558 0.0316438 1.56268 0
M  V30 110 H 11.5908 -2.43587 2.14093 0
M  V30 111 H 11.3758 -1.4753 3.63287 0
M  V30 112 H 12.8658 -2.43575 3.39206 0
M  V30 113 N 13.3029 -1.57598 0.00835791 0
M  V30 114 C 14.7139 -1.7892 -0.53333 0
M  V30 115 C 15.0649 -0.916609 -1.73473 0
M  V30 116 O 14.1899 -0.121336 -2.1606 0
M  V30 117 C 14.7849 -3.24488 -0.974313 0
M  V30 118 C 13.3439 -3.46878 -1.46125 0
M  V30 119 C 12.4909 -2.74157 -0.416302 0
M  V30 120 H 15.4419 -1.56958 0.234495 0
M  V30 121 H 15.4629 -3.3306 -1.83988 0
M  V30 122 H 14.9749 -3.87972 -0.099718 0
M  V30 123 H 13.0759 -2.8862 -2.35646 0
M  V30 124 H 13.1889 -4.55572 -1.48295 0
M  V30 125 H 11.5529 -2.39022 -0.87981 0
M  V30 126 H 12.3359 -3.40345 0.44947 0
M  V30 127 N 14.781 0.264519 -1.55364 0
M  V30 128 C 16.197 0.61215 -1.47394 0
M  V30 129 C 16.397 1.89134 -0.695018 0
M  V30 130 O 15.453 2.51563 -0.217275 0
M  V30 131 C 16.766 0.731235 -2.91674 0
M  V30 132 C 18.314 0.82473 -3.01939 0
M  V30 133 C 18.789 0.975522 -4.4749 0
M  V30 134 N 20.28 1.04083 -4.51354 0
M  V30 135 C 21.015 1.17646 -5.61201 0
M  V30 136 N 20.511 1.27874 -6.80896 0
M  V30 137 N 22.304 1.20823 -5.48961 0
M  V30 138 H 14.455 -0.575456 -2.04456 0
M  V30 139 H 16.718 -0.196099 -0.927496 0
M  V30 140 H 16.424 -0.138392 -3.51428 0
M  V30 141 H 16.298 1.60883 -3.41169 0
M  V30 142 H 18.685 1.68482 -2.42276 0
M  V30 143 H 18.766 -0.0776479 -2.55682 0
M  V30 144 H 18.41 0.120058 -5.07758 0
M  V30 145 H 18.34 1.89268 -4.91412 0
M  V30 146 H 20.831 0.973846 -3.65136 0
M  V30 147 H 21.144 1.38081 -7.60364 0
M  V30 148 H 19.489 1.24863 -6.83692 0
M  V30 149 H 22.68 1.12469 -4.54388 0
M  V30 150 H 22.853 1.31049 -6.3461 0
M  V30 151 N 16.2591 1.48442 0.529413 0
M  V30 152 C 17.6751 1.34575 0.858004 0
M  V30 153 C 17.8751 0.3572 1.98309 0
M  V30 154 O 16.9311 -0.221379 2.51528 0
M  V30 155 C 18.2441 2.74617 1.22499 0
M  V30 156 C 19.7921 2.83109 1.33484 0
M  V30 157 C 20.2671 4.23854 1.73526 0
M  V30 158 N 21.7581 4.2653 1.80628 0
M  V30 159 C 22.4931 5.32372 2.12997 0
M  V30 160 N 21.9891 6.48491 2.43786 0
M  V30 161 N 23.7821 5.19766 2.14008 0
M  V30 162 H 15.9331 2.1133 -0.212925 0
M  V30 163 H 18.1961 0.947439 -0.0326199 0
M  V30 164 H 17.9021 3.4852 0.471905 0
M  V30 165 H 17.7761 3.08177 2.17501 0
M  V30 166 H 20.1631 2.09462 2.0787 0
M  V30 167 H 20.2441 2.53168 0.366027 0
M  V30 168 H 19.8881 4.98018 0.997013 0
M  V30 169 H 19.8181 4.5124 2.71459 0
M  V30 170 H 22.3091 3.42772 1.59108 0
M  V30 171 H 22.6221 7.24993 2.67592 0
M  V30 172 H 20.9671 6.51765 2.41304 0
M  V30 173 H 24.1581 4.28066 1.89412 0
M  V30 174 H 24.3311 6.02354 2.38902 0
M  V30 175 N 17.7372 -0.778329 1.37039 0
M  V30 176 C 18.7002 -1.87301 1.32102 0
M  V30 177 C 19.7002 -1.59198 0.226405 0
M  V30 178 O 20.8902 -1.67403 0.481861 0
M  V30 179 C 18.0222 -3.24309 1.05055 0
M  V30 180 H 19.2152 -1.93093 2.29467 0
M  V30 181 H 16.7682 -0.977358 1.21973 0
M  V30 182 H 17.5032 -3.24196 0.0819373 0
M  V30 183 H 17.2882 -3.46098 1.84279 0
M  V30 184 H 18.7782 -4.04382 1.04234 0
M  V30 185 N 19.2153 -1.21501 -1.00376 0
M  V30 186 C 20.4633 -1.03095 -1.73827 0
M  V30 187 C 20.7843 0.436341 -1.90055 0
M  V30 188 O 20.0543 1.31466 -1.45236 0
M  V30 189 H 18.6343 -0.378487 -0.644016 0
M  V30 190 H 21.2963 -1.52831 -1.20949 0
M  V30 191 H 20.3923 -1.49991 -2.73695 0
M  V30 192 N 20.6934 1.19889 -1.02296 0
M  V30 193 C 21.6254 2.22334 -0.556787 0
M  V30 194 C 22.6384 1.58674 0.364199 0
M  V30 195 O 23.8274 1.77768 0.161533 0
M  V30 196 C 20.9274 3.38257 0.208694 0
M  V30 197 C 20.1004 4.31504 -0.71577 0
M  V30 198 C 19.1594 5.262 0.00325597 0
M  V30 199 O 18.1854 5.65798 -0.621357 0
M  V30 200 N 19.3874 5.66303 1.27599 0
M  V30 201 H 22.1524 2.62957 -1.43784 0
M  V30 202 H 19.7134 1.34495 -0.901261 0
M  V30 203 H 21.7054 3.98616 0.699111 0
M  V30 204 H 20.2754 2.96472 0.991102 0
M  V30 205 H 19.4954 3.69016 -1.38638 0
M  V30 206 H 20.7834 4.9072 -1.34428 0
M  V30 207 H 20.1814 5.36155 1.80429 0
M  V30 208 H 18.7384 6.28942 1.71102 0
M  V30 209 N 22.1715 0.800033 1.35784 0
M  V30 210 C 23.5875 0.482977 1.52117 0
M  V30 211 C 23.7875 -0.996948 1.75109 0
M  V30 212 O 22.8435 -1.78216 1.78872 0
M  V30 213 C 24.1565 1.32264 2.70049 0
M  V30 214 C 25.7045 1.31742 2.83924 0
M  V30 215 C 26.1795 2.14106 4.04874 0
M  V30 216 N 27.6705 2.11607 4.12039 0
M  V30 217 C 28.4055 2.72099 5.04727 0
M  V30 218 N 27.9015 3.41492 6.02789 0
M  V30 219 N 29.6945 2.61776 4.97423 0
M  V30 220 H 21.8455 1.75856 1.19115 0
M  V30 221 H 24.1085 0.748122 0.582252 0
M  V30 222 H 23.8145 2.37261 2.59616 0
M  V30 223 H 23.6885 0.971303 3.6448 0
M  V30 224 H 26.0755 0.275333 2.93813 0
M  V30 225 H 26.1565 1.70859 1.9037 0
M  V30 226 H 25.8005 3.18351 3.95746 0
M  V30 227 H 25.7305 1.72353 4.97596 0
M  V30 228 H 28.2215 1.61112 3.41835 0
M  V30 229 H 28.5345 3.84953 6.70098 0
M  V30 230 H 26.8795 3.45596 6.02983 0
M  V30 231 H 30.0705 2.07157 4.19766 0
M  V30 232 H 30.2435 3.0921 5.69468 0
M  V30 233 N 23.6496 -1.47581 0.552962 0
M  V30 234 C 24.5996 -2.26961 -0.217423 0
M  V30 235 C 25.5836 -1.34099 -0.889168 0
M  V30 236 O 26.7756 -1.58483 -0.788176 0
M  V30 237 C 23.9046 -3.19756 -1.24944 0
M  V30 238 C 22.9906 -4.20097 -0.581327 0
M  V30 239 N 23.3816 -5.04614 0.346171 0
M  V30 240 C 21.6796 -4.38099 -0.835767 0
M  V30 241 C 22.3806 -5.77052 0.733854 0
M  V30 242 N 21.3566 -5.43526 0.0896567 0
M  V30 243 H 25.1586 -2.89688 0.495761 0
M  V30 244 H 22.6726 -1.58068 0.372597 0
M  V30 245 H 24.6696 -3.75305 -1.81527 0
M  V30 246 H 23.3296 -2.58585 -1.96376 0
M  V30 247 H 24.3406 -5.12869 0.720098 0
M  V30 248 H 21.0176 -3.88102 -1.53892 0
M  V30 249 H 22.4076 -6.5504 1.49574 0
M  V30 250 N 25.1277 -0.289203 -1.54924 0
M  V30 251 C 26.0377 0.601863 -2.26748 0
M  V30 252 C 27.0537 1.15834 -1.2984 0
M  V30 253 O 28.2297 1.18564 -1.62802 0
M  V30 254 C 25.2947 1.76299 -2.98529 0
M  V30 255 C 24.3557 1.24178 -4.10948 0
M  V30 256 C 23.5887 2.34757 -4.79296 0
M  V30 257 O 23.8117 3.54411 -4.46933 0
M  V30 258 O 22.7457 2.02115 -5.66951 0
M  V30 259 H 26.5717 0.0195879 -3.03694 0
M  V30 260 H 24.1567 -0.0560868 -1.49295 0
M  V30 261 H 26.0387 2.43973 -3.43592 0
M  V30 262 H 24.7137 2.33209 -2.24488 0
M  V30 263 H 23.6207 0.531104 -3.70311 0
M  V30 264 H 24.9537 0.718252 -4.86931 0
M  V30 265 N 26.6058 1.57591 -0.0167156 0
M  V30 266 C 27.8518 1.91567 0.665582 0
M  V30 267 C 28.1848 0.892298 1.72487 0
M  V30 268 O 27.4598 -0.0867127 1.94307 0
M  V30 269 C 27.7428 3.36069 1.29342 0
M  V30 270 C 27.5958 4.49135 0.244541 0
M  V30 271 C 28.9148 3.803 2.21495 0
M  V30 272 H 26.0338 0.69666 0.240488 0
M  V30 273 H 28.6758 1.89866 -0.0714356 0
M  V30 274 H 26.8258 3.3765 1.92158 0
M  V30 275 H 28.4978 4.59689 -0.385228 0
M  V30 276 H 26.7408 4.3165 -0.431379 0
M  V30 277 H 27.4118 5.47242 0.723207 0
M  V30 278 H 29.8878 3.80377 1.68678 0
M  V30 279 H 28.7638 4.82127 2.62382 0
M  V30 280 H 29.0248 3.15104 3.101 0
M  V30 281 N 28.0839 -0.256276 1.55502 0
M  V30 282 C 29.3319 -0.983672 1.76545 0
M  V30 283 C 29.6529 -1.86206 0.578982 0
M  V30 284 O 28.9229 -1.91656 -0.405577 0
M  V30 285 H 27.5029 -0.366191 0.651086 0
M  V30 286 H 30.1649 -0.276479 1.92929 0
M  V30 287 H 29.2609 -1.61087 2.67315 0
M  V30 288 N 29.562 -1.4872 -0.521534 0
M  V30 289 C 30.492 -1.66771 -1.63431 0
M  V30 290 C 31.473 -0.516499 -1.62069 0
M  V30 291 O 32.658 -0.750013 -1.79132 0
M  V30 292 C 29.788 -1.71515 -3.01993 0
M  V30 293 C 28.742 -2.86222 -3.18216 0
M  V30 294 C 28.068 -2.76061 -4.57924 0
M  V30 295 C 29.368 -4.27419 -3.00184 0
M  V30 296 H 31.062 -2.59932 -1.48579 0
M  V30 297 H 28.608 -1.25089 -0.713358 0
M  V30 298 H 30.561 -1.82731 -3.7972 0
M  V30 299 H 29.285 -0.749393 -3.17886 0
M  V30 300 H 27.944 -2.74575 -2.42908 0
M  V30 301 H 27.592 -1.77437 -4.70665 0
M  V30 302 H 27.292 -3.53037 -4.69722 0
M  V30 303 H 28.816 -2.89256 -5.37739 0
M  V30 304 H 30.23 -4.39855 -3.67697 0
M  V30 305 H 28.627 -5.05458 -3.2347 0
M  V30 306 H 29.697 -4.43293 -1.96518 0
M  V30 307 N 31.0401 0.771051 -1.3745 0
M  V30 308 C 32.0031 1.86598 -1.33093 0
M  V30 309 C 33.0031 1.59076 -0.234845 0
M  V30 310 O 34.1931 1.67145 -0.490732 0
M  V30 311 C 31.3251 3.23747 -1.06773 0
M  V30 312 H 32.5181 1.91873 -2.30488 0
M  V30 313 H 30.0711 0.970876 -1.2249 0
M  V30 314 H 30.8061 3.24148 -0.099129 0
M  V30 315 H 30.5911 3.45115 -1.86112 0
M  V30 316 H 32.0811 4.03824 -1.06377 0
M  V30 317 N 32.5182 1.22032 0.997298 0
M  V30 318 C 33.4502 0.944263 2.08845 0
M  V30 319 C 34.4632 -0.0754663 1.62625 0
M  V30 320 O 35.6522 0.157994 1.77799 0
M  V30 321 C 32.7522 0.397723 3.36558 0
M  V30 322 C 31.9252 1.47362 4.11829 0
M  V30 323 C 30.9842 0.934951 5.17827 0
M  V30 324 O 30.0102 1.62016 5.45655 0
M  V30 325 N 31.2122 -0.245895 5.79979 0
M  V30 326 H 33.9772 1.88363 2.33109 0
M  V30 327 H 31.5382 1.12661 1.16272 0
M  V30 328 H 33.5302 0.0227771 4.04694 0
M  V30 329 H 32.1002 -0.446646 3.09393 0
M  V30 330 H 31.3202 2.02208 3.38386 0
M  V30 331 H 32.6082 2.19764 4.58891 0
M  V30 332 H 32.0062 -0.819475 5.59733 0
M  V30 333 H 30.5632 -0.562272 6.4937 0
M  V30 334 N 33.9963 -1.19345 1.0293 0
M  V30 335 C 34.9263 -2.2481 0.631105 0
M  V30 336 C 35.9073 -1.66245 -0.360104 0
M  V30 337 O 37.0923 -1.92677 -0.242726 0
M  V30 338 C 34.2223 -3.47295 -0.0184607 0
M  V30 339 C 33.1763 -4.18536 0.895073 0
M  V30 340 C 32.5023 -5.34586 0.110592 0
M  V30 341 C 33.8023 -4.73287 2.209 0
M  V30 342 H 35.4963 -2.58372 1.51275 0
M  V30 343 H 33.0423 -1.24194 0.728818 0
M  V30 344 H 34.9953 -4.20268 -0.308675 0
M  V30 345 H 33.7193 -3.12933 -0.934907 0
M  V30 346 H 32.3783 -3.47446 1.16949 0
M  V30 347 H 32.0263 -4.96469 -0.807902 0
M  V30 348 H 31.7263 -5.83183 0.719087 0
M  V30 349 H 33.2503 -6.10355 -0.172871 0
M  V30 350 H 34.6643 -5.38013 1.98028 0
M  V30 351 H 33.0613 -5.32373 2.76946 0
M  V30 352 H 34.1313 -3.91331 2.86336 0
M  V30 353 N 35.4744 -0.807222 -1.35358 0
M  V30 354 C 36.8854 -0.44876 -1.81226 0
M  V30 355 C 37.2364 1.02929 -1.67033 0
M  V30 356 O 36.3614 1.79991 -1.20133 0
M  V30 357 C 36.9564 -0.807774 -3.2903 0
M  V30 358 C 35.5154 -0.501901 -3.73039 0
M  V30 359 C 34.6624 -1.03304 -2.57339 0
M  V30 360 H 37.6134 -0.998808 -1.23327 0
M  V30 361 H 37.6344 -0.10554 -3.80354 0
M  V30 362 H 37.1464 -1.88357 -3.39328 0
M  V30 363 H 35.2474 0.565128 -3.68289 0
M  V30 364 H 35.3604 -1.03497 -4.67787 0
M  V30 365 H 33.7244 -0.455339 -2.50597 0
M  V30 366 H 34.5074 -2.11496 -2.70415 0
M  V30 367 N 36.9525 1.47285 -0.560781 0
M  V30 368 C 38.3635 1.86258 -0.128343 0
M  V30 369 C 38.7145 1.46699 1.30284 0
M  V30 370 O 37.8395 0.871698 1.98067 0
M  V30 371 C 38.4345 3.38044 -0.22614 0
M  V30 372 C 36.9935 3.76096 0.151283 0
M  V30 373 C 36.1405 2.71335 -0.572084 0
M  V30 374 H 39.0915 1.38752 -0.770297 0
M  V30 375 H 39.1125 3.76441 0.554322 0
M  V30 376 H 38.6245 3.66806 -1.26788 0
M  V30 377 H 36.7255 3.52951 1.19399 0
M  V30 378 H 36.8385 4.78641 -0.209765 0
M  V30 379 H 35.2025 2.54696 -0.0147653 0
M  V30 380 H 35.9855 3.02938 -1.61504 0
M  V30 381 N 38.4306 0.297415 1.54768 0
M  V30 382 C 39.3936 -0.567375 2.22066 0
M  V30 383 C 40.3936 -1.06409 1.20556 0
M  V30 384 O 41.5836 -0.960691 1.45315 0
M  V30 385 C 38.7156 -1.78517 2.90421 0
M  V30 386 H 39.9086 0.0205534 2.99893 0
M  V30 387 H 37.4616 0.0482163 1.56226 0
M  V30 388 H 38.1966 -2.41303 2.16664 0
M  V30 389 H 37.9816 -1.43669 3.64831 0
M  V30 390 H 39.4716 -2.39964 3.41771 0
M  V30 391 N 39.9087 -1.5758 0.0250728 0
M  V30 392 C 41.3197 -1.79476 -0.514323 0
M  V30 393 C 41.6707 -0.934956 -1.72491 0
M  V30 394 O 40.7957 -0.144245 -2.15919 0
M  V30 395 C 41.3907 -3.25503 -0.939842 0
M  V30 396 C 39.9497 -3.48408 -1.42438 0
M  V30 397 C 39.0967 -2.74583 -0.387201 0
M  V30 398 H 42.0477 -1.567 0.25113 0
M  V30 399 H 42.0687 -3.34992 -1.80445 0
M  V30 400 H 41.5807 -3.88056 -0.0585628 0
M  V30 401 H 39.6817 -2.91103 -2.32572 0
M  V30 402 H 39.7947 -4.57119 -1.43455 0
M  V30 403 H 38.1587 -2.39942 -0.854409 0
M  V30 404 H 38.9417 -3.39849 0.485543 0
M  V30 405 N 41.3868 0.248026 -1.55636 0
M  V30 406 C 42.7978 0.817177 -1.67866 0
M  V30 407 C 43.1488 1.86069 -0.622322 0
M  V30 408 O 42.2738 2.15157 0.231618 0
M  V30 409 C 42.8688 1.489 -3.04326 0
M  V30 410 C 41.4278 2.00587 -3.185 0
M  V30 411 C 40.5748 0.856573 -2.63739 0
M  V30 412 H 43.5258 0.0238579 -1.58682 0
M  V30 413 H 43.5468 2.35698 -2.98708 0
M  V30 414 H 43.0588 0.729279 -3.81186 0
M  V30 415 H 41.1598 2.79443 -2.4646 0
M  V30 416 H 41.2728 2.20402 -4.25393 0
M  V30 417 H 39.6368 1.25678 -2.21534 0
M  V30 418 H 40.4198 0.109953 -3.43124 0
M  V30 419 N 42.8649 1.48995 0.513639 0
M  V30 420 C 44.0929 1.61531 1.29288 0
M  V30 421 C 44.5079 0.281801 1.86685 0
M  V30 422 O 43.8649 -0.731111 1.67215 0
M  V30 423 C 43.9159 2.67449 2.43215 0
M  V30 424 O 43.6369 3.95626 1.88179 0
M  V30 425 C 45.1379 2.90575 3.34785 0
M  V30 426 H 42.3579 0.544165 0.392588 0
M  V30 427 H 44.9019 1.9494 0.617956 0
M  V30 428 H 43.0569 2.36853 3.0656 0
M  V30 429 H 43.4709 4.53868 2.62876 0
M  V30 430 H 44.9449 3.68449 4.11035 0
M  V30 431 H 45.4219 2.00011 3.91015 0
M  V30 432 H 46.0279 3.22538 2.77218 0
M  V30 433 N 44.343 -0.763751 1.37857 0
M  V30 434 C 45.571 -1.55293 1.36718 0
M  V30 435 C 45.986 -1.88745 -0.0455434 0
M  V30 436 O 45.343 -1.52039 -1.00947 0
M  V30 437 C 45.394 -2.85831 2.2132 0
M  V30 438 O 45.115 -2.5381 3.57089 0
M  V30 439 C 46.616 -3.80023 2.28249 0
M  V30 440 H 43.836 -0.480841 0.468009 0
M  V30 441 H 46.38 -0.946009 1.81303 0
M  V30 442 H 44.535 -3.42926 1.80223 0
M  V30 443 H 44.949 -3.37459 4.01524 0
M  V30 444 H 46.423 -4.68599 2.91752 0
M  V30 445 H 46.9 -4.1973 1.2932 0
M  V30 446 H 47.506 -3.28855 2.69693 0
M  V30 447 N 45.8211 -1.22559 -0.990812 0
M  V30 448 C 47.0671 -1.05297 -1.73322 0
M  V30 449 C 47.4001 0.410655 -1.89808 0
M  V30 450 O 46.6751 1.30439 -1.44277 0
M  V30 451 C 46.9581 -1.76713 -3.13759 0
M  V30 452 C 46.8111 -3.30684 -3.04907 0
M  V30 453 C 48.1301 -1.52121 -4.12974 0
M  V30 454 H 45.2491 -0.38392 -0.629106 0
M  V30 455 H 47.8911 -1.50926 -1.15418 0
M  V30 456 H 46.0411 -1.37924 -3.63193 0
M  V30 457 H 47.7131 -3.7893 -2.63077 0
M  V30 458 H 45.9561 -3.60253 -2.41661 0
M  V30 459 H 46.6271 -3.75833 -4.04294 0
M  V30 460 H 49.1031 -1.85819 -3.72304 0
M  V30 461 H 47.9791 -2.04582 -5.0935 0
M  V30 462 H 48.2401 -0.454257 -4.3976 0
M  V30 463 N 47.2992 1.18797 -1.03562 0
M  V30 464 C 48.2622 2.20464 -0.626769 0
M  V30 465 C 49.2622 1.57721 0.313173 0
M  V30 466 O 50.4522 1.73917 0.0992615 0
M  V30 467 C 47.5842 3.40802 0.0818498 0
M  V30 468 H 48.7772 2.58149 -1.5264 0
M  V30 469 H 46.3302 1.32593 -0.827578 0
M  V30 470 H 47.0652 3.08642 0.995518 0
M  V30 471 H 46.8502 3.8758 -0.593652 0
M  V30 472 H 48.3402 4.16092 0.354584 0
M  V30 473 N 48.7773 0.814389 1.34928 0
M  V30 474 C 50.0233 0.399013 1.98836 0
M  V30 475 C 50.3563 -1.03314 1.64438 0
M  V30 476 O 49.6313 -1.71811 0.911659 0
M  V30 477 C 49.9143 0.591629 3.55207 0
M  V30 478 C 49.7673 2.06928 3.99376 0
M  V30 479 C 51.0863 0.022199 4.40094 0
M  V30 480 H 48.2053 0.146451 0.722303 0
M  V30 481 H 50.8473 1.02537 1.59957 0
M  V30 482 H 48.9973 0.0584441 3.88456 0
M  V30 483 H 50.6693 2.66544 3.76499 0
M  V30 484 H 48.9123 2.56287 3.49999 0
M  V30 485 H 49.5833 2.1549 5.08201 0
M  V30 486 H 52.0593 0.477643 4.13349 0
M  V30 487 H 50.9353 0.186832 5.48582 0
M  V30 488 H 51.1963 -1.07215 4.28902 0
M  V30 489 N 50.2554 -1.46986 0.568584 0
M  V30 490 C 51.5044 -2.01646 0.0465894 0
M  V30 491 C 51.8174 -1.44721 -1.31587 0
M  V30 492 O 53.0234 -1.91113 -1.92842 0
M  V30 493 C 51.4794 -3.59885 0.032752 0
M  V30 494 C 51.0874 -4.25804 1.39266 0
M  V30 495 C 52.8314 -4.22255 -0.436038 0
M  V30 496 C 50.7384 -5.76081 1.33732 0
M  V30 497 H 49.6684 -0.753876 0.013647 0
M  V30 498 H 52.3194 -1.68864 0.718131 0
M  V30 499 H 50.7014 -3.8968 -0.704669 0
M  V30 500 H 51.8754 -4.07637 2.1487 0
M  V30 501 H 50.1904 -3.7547 1.80032 0
M  V30 502 H 52.7874 -5.32394 -0.49602 0
M  V30 503 H 53.1304 -3.90212 -1.45053 0
M  V30 504 H 53.6634 -3.97033 0.246877 0
M  V30 505 H 50.4024 -6.12761 2.32817 0
M  V30 506 H 49.9224 -5.96553 0.623267 0
M  V30 507 H 51.6014 -6.38518 1.0442 0
M  V30 508 N 51.7335 -0.305618 -1.54608 0
M  V30 509 C 52.6435 0.57778 -2.27374 0
M  V30 510 C 53.6595 1.14451 -1.31061 0
M  V30 511 O 54.8355 1.16831 -1.6405 0
M  V30 512 C 51.9005 1.73123 -3.00382 0
M  V30 513 C 50.9615 1.19812 -4.12242 0
M  V30 514 C 50.1945 2.2966 -4.81759 0
M  V30 515 O 50.4175 3.49651 -4.50666 0
M  V30 516 O 49.3515 1.96091 -5.69062 0
M  V30 517 H 53.1775 -0.012624 -3.03697 0
M  V30 518 H 50.7625 -0.0719184 -1.49227 0
M  V30 519 H 52.6445 2.40315 -3.4616 0
M  V30 520 H 51.3195 2.30815 -2.26949 0
M  V30 521 H 50.2265 0.491798 -3.70853 0
M  V30 522 H 51.5595 0.666566 -4.87666 0
M  V30 523 N 53.2116 1.57565 -0.0334293 0
M  V30 524 C 54.4596 1.91598 0.642999 0
M  V30 525 C 54.7806 0.910847 1.7242 0
M  V30 526 O 54.0506 -0.0469931 1.95844 0
M  V30 527 H 52.6306 0.707228 0.240496 0
M  V30 528 H 55.2926 1.94726 -0.0822488 0
M  V30 529 H 54.3886 2.92336 1.09298 0
M  V30 530 N 54.6897 -0.239769 1.55765 0
M  V30 531 C 55.6197 -1.30052 1.9393 0
M  V30 532 C 56.6007 -1.49839 0.805132 0
M  V30 533 O 57.7857 -1.62328 1.06599 0
M  V30 534 C 54.9157 -2.65391 2.2402 0
M  V30 535 C 53.8697 -2.60289 3.39755 0
M  V30 536 C 53.1957 -3.99489 3.55405 0
M  V30 537 C 54.4957 -2.16654 4.75246 0
M  V30 538 H 56.1897 -0.983573 2.82783 0
M  V30 539 H 53.7357 -0.471701 1.36055 0
M  V30 540 H 55.6887 -3.3974 2.49308 0
M  V30 541 H 54.4127 -2.98736 1.32 0
M  V30 542 H 53.0717 -1.88398 3.14487 0
M  V30 543 H 52.7197 -4.30112 2.60793 0
M  V30 544 H 52.4197 -3.96962 4.33238 0
M  V30 545 H 53.9437 -4.75528 3.83022 0
M  V30 546 H 55.3577 -2.80737 4.99859 0
M  V30 547 H 53.7547 -2.25223 5.56232 0
M  V30 548 H 54.8247 -1.11835 4.71827 0
M  V30 549 N 56.1678 -1.49265 -0.50573 0
M  V30 550 C 57.1308 -1.65075 -1.59006 0
M  V30 551 C 58.1308 -0.522768 -1.52065 0
M  V30 552 O 59.3208 -0.789117 -1.55302 0
M  V30 553 C 56.4528 -1.64369 -2.98656 0
M  V30 554 H 57.6458 -2.61784 -1.46319 0
M  V30 555 H 55.1988 -1.38226 -0.729616 0
M  V30 556 H 55.9338 -0.692272 -3.16825 0
M  V30 557 H 55.7188 -2.46282 -3.05103 0
M  V30 558 H 57.2088 -1.78674 -3.77446 0
M  V30 559 N 57.6459 0.756429 -1.3826 0
M  V30 560 C 58.8739 1.54565 -1.3754 0
M  V30 561 C 59.2889 1.88767 0.0355331 0
M  V30 562 O 58.6459 1.52572 1.0014 0
M  V30 563 C 58.6969 2.84654 -2.22833 0
M  V30 564 O 58.4179 2.51912 -3.5843 0
M  V30 565 C 59.9189 3.78807 -2.30261 0
M  V30 566 H 57.1389 0.478353 -0.470553 0
M  V30 567 H 59.6829 0.936381 -1.81803 0
M  V30 568 H 57.8379 3.41965 -1.8204 0
M  V30 569 H 58.2519 3.35325 -4.03308 0
M  V30 570 H 59.7259 4.67045 -2.94233 0
M  V30 571 H 60.2029 4.19038 -1.31545 0
M  V30 572 H 60.8089 3.2742 -2.71433 0
M  V30 573 N 59.124 1.23083 0.984299 0
M  V30 574 C 60.372 1.05848 1.72165 0
M  V30 575 C 60.693 -0.406049 1.90726 0
M  V30 576 O 59.963 -1.29139 1.47309 0
M  V30 577 H 58.543 0.388685 0.637913 0
M  V30 578 H 61.205 1.54736 1.18503 0
M  V30 579 H 60.301 1.54327 2.71274 0
M  V30 580 N 60.6021 -1.18246 1.0419 0
M  V30 581 C 61.8301 -1.92195 0.766072 0
M  V30 582 C 62.2451 -1.76247 -0.676933 0
M  V30 583 O 61.6021 -1.09293 -1.46155 0
M  V30 584 C 61.6531 -3.43568 1.12442 0
M  V30 585 O 61.3741 -3.59015 2.51078 0
M  V30 586 C 62.8751 -4.34613 0.873275 0
M  V30 587 H 60.0951 -0.610114 0.279288 0
M  V30 588 H 62.6391 -1.50007 1.38989 0
M  V30 589 H 60.7941 -3.8354 0.545542 0
M  V30 590 H 61.2081 -4.5273 2.64831 0
M  V30 591 H 62.6821 -5.39374 1.17385 0
M  V30 592 H 63.1591 -4.38781 -0.191909 0
M  V30 593 H 63.7651 -4.00341 1.43551 0
M  V30 594 N 62.0802 -0.821533 -1.34494 0
M  V30 595 C 63.4912 -0.467956 -1.8074 0
M  V30 596 C 63.8422 1.01151 -1.68116 0
M  V30 597 O 62.9672 1.78707 -1.22036 0
M  V30 598 C 63.5622 -0.842627 -3.28154 0
M  V30 599 C 62.1212 -0.541439 -3.72485 0
M  V30 600 C 61.2682 -1.06028 -2.56229 0
M  V30 601 H 64.2192 -1.01183 -1.22261 0
M  V30 602 H 64.2402 -0.145876 -3.8022 0
M  V30 603 H 63.7522 -1.91945 -3.37311 0
M  V30 604 H 61.8532 0.526034 -3.68868 0
M  V30 605 H 61.9662 -1.08453 -4.66663 0
M  V30 606 H 60.3302 -0.481892 -2.501 0
M  V30 607 H 61.1132 -2.14352 -2.68157 0
M  V30 608 N 63.5583 1.46682 -0.576371 0
M  V30 609 C 64.9743 1.57822 -0.237562 0
M  V30 610 C 65.1743 1.57237 1.26011 0
M  V30 611 O 64.2303 1.48596 2.04146 0
M  V30 612 C 65.5433 2.87499 -0.881168 0
M  V30 613 C 67.0913 3.01119 -0.85417 0
M  V30 614 C 67.5663 4.33524 -1.4772 0
M  V30 615 N 69.0573 4.40207 -1.44125 0
M  V30 616 C 69.7923 5.4126 -1.89276 0
M  V30 617 N 69.2883 6.49021 -2.42371 0
M  V30 618 N 71.0813 5.32422 -1.80231 0
M  V30 619 H 63.2323 1.45306 -1.54919 0
M  V30 620 H 65.4953 0.692733 -0.647167 0
M  V30 621 H 65.2013 2.9372 -1.93447 0
M  V30 622 H 65.0753 3.75224 -0.385592 0
M  V30 623 H 67.4623 2.94485 0.190491 0
M  V30 624 H 67.5433 2.14887 -1.3877 0
M  V30 625 H 67.1873 4.40916 -2.52103 0
M  V30 626 H 67.1173 5.1852 -0.918947 0
M  V30 627 H 69.6083 3.62931 -1.05307 0
M  V30 628 H 69.9213 7.2233 -2.74698 0
M  V30 629 H 68.2663 6.49858 -2.46393 0
M  V30 630 H 71.4573 4.47137 -1.38514 0
M  V30 631 H 71.6303 6.11034 -2.15735 0
M  V30 632 N 65.0364 0.313813 1.54444 0
M  V30 633 C 66.4524 -0.0391619 1.59552 0
M  V30 634 C 66.6524 -1.51322 1.33056 0
M  V30 635 O 65.7084 -2.26782 1.11022 0
M  V30 636 C 67.0214 0.370302 2.98411 0
M  V30 637 C 68.5694 0.320139 3.11358 0
M  V30 638 C 69.0444 0.704617 4.52547 0
M  V30 639 N 70.5354 0.657645 4.58508 0
M  V30 640 C 71.2704 0.927453 5.6585 0
M  V30 641 N 70.7664 1.26389 6.81174 0
M  V30 642 N 72.5594 0.853662 5.5558 0
M  V30 643 H 64.7104 1.27433 1.69925 0
M  V30 644 H 66.9734 0.517511 0.794284 0
M  V30 645 H 66.6794 1.39694 3.22767 0
M  V30 646 H 66.5534 -0.269619 3.76235 0
M  V30 647 H 68.9404 -0.697275 2.86744 0
M  V30 648 H 69.0214 0.99486 2.35661 0
M  V30 649 H 68.6654 1.7199 4.77893 0
M  V30 650 H 68.5954 0.00768843 5.26599 0
M  V30 651 H 71.0864 0.409067 3.75679 0
M  V30 652 H 71.3994 1.4554 7.58972 0
M  V30 653 H 69.7444 1.30206 6.82694 0
M  V30 654 H 72.9354 0.590383 4.64362 0
M  V30 655 H 73.1084 1.0673 6.3915 0
M  V30 656 N 66.5145 -1.57545 0.0417849 0
M  V30 657 C 67.7605 -1.92601 -0.635021 0
M  V30 658 C 68.0935 -0.919627 -1.71045 0
M  V30 659 O 67.3685 0.0557892 -1.9442 0
M  V30 660 C 67.6515 -3.38085 -1.23979 0
M  V30 661 C 67.5045 -4.49467 -0.173057 0
M  V30 662 C 68.8235 -3.83776 -2.15416 0
M  V30 663 H 65.9425 -0.700397 -0.229374 0
M  V30 664 H 68.5845 -1.89728 0.101633 0
M  V30 665 H 66.7345 -3.40664 -1.86762 0
M  V30 666 H 68.4065 -4.59018 0.458312 0
M  V30 667 H 66.6495 -4.30909 0.499996 0
M  V30 668 H 67.3205 -5.48323 -0.636054 0
M  V30 669 H 69.7965 -3.83013 -1.62605 0
M  V30 670 H 68.6725 -4.8624 -2.54679 0
M  V30 671 H 68.9335 -3.19998 -3.05047 0
M  V30 672 N 67.9926 0.231505 -1.5589 0
M  V30 673 C 69.2386 0.95877 -1.78705 0
M  V30 674 C 69.5716 1.8438 -0.609725 0
M  V30 675 O 68.8466 1.90521 0.391426 0
M  V30 676 C 69.1296 1.8062 -3.11526 0
M  V30 677 C 68.9826 0.948328 -4.39689 0
M  V30 678 C 70.3016 2.78585 -3.40703 0
M  V30 679 H 67.4206 0.347129 -0.650131 0
M  V30 680 H 70.0626 0.228259 -1.88624 0
M  V30 681 H 68.2126 2.42902 -3.03201 0
M  V30 682 H 69.8846 0.343016 -4.60023 0
M  V30 683 H 68.1276 0.253314 -4.3306 0
M  V30 684 H 68.7986 1.57543 -5.29041 0
M  V30 685 H 71.2746 2.26439 -3.49091 0
M  V30 686 H 70.1506 3.34988 -4.34826 0
M  V30 687 H 70.4116 3.55825 -2.62375 0
M  V30 688 N 69.4707 1.49531 0.497807 0
M  V30 689 C 70.4187 1.66926 1.61983 0
M  V30 690 C 71.4127 0.535167 1.60724 0
M  V30 691 O 72.6187 0.714896 1.65195 0
M  V30 692 H 68.9937 0.526415 0.537021 0
M  V30 693 H 70.9647 2.61098 1.44465 0
M  V30 694 C 69.7137 1.75602 3.00099 0
M  V30 695 H 69.0367 2.62244 3.01775 0
M  V30 696 H 70.4767 1.91807 3.78135 0
M  V30 697 C 68.9357 0.501543 3.33146 0
M  V30 698 O 69.4657 -0.371342 3.9998 0
M  V30 699 N 67.6717 0.363531 2.88317 0
M  V30 700 H 67.2187 1.07485 2.34104 0
M  V30 701 H 67.1767 -0.474728 3.10795 0
M  V30 702 N 70.9488 -0.749086 1.3866 0
M  V30 703 C 71.8808 -1.87273 1.32142 0
M  V30 704 C 72.8938 -1.61127 0.232787 0
M  V30 705 O 74.0828 -1.71623 0.49069 0
M  V30 706 C 71.1828 -3.23005 1.02571 0
M  V30 707 C 70.3558 -3.7662 2.22433 0
M  V30 708 C 69.4148 -4.90879 1.89537 0
M  V30 709 O 68.4408 -5.05276 2.62078 0
M  V30 710 N 69.6428 -5.74198 0.853031 0
M  V30 711 H 72.4078 -1.93373 2.28969 0
M  V30 712 H 69.9688 -0.929216 1.32579 0
M  V30 713 H 71.9608 -3.96992 0.786085 0
M  V30 714 H 70.5308 -3.12262 0.145249 0
M  V30 715 H 69.7508 -2.94147 2.62434 0
M  V30 716 H 71.0388 -4.09173 3.02415 0
M  V30 717 H 70.4368 -5.6514 0.25155 0
M  V30 718 H 68.9938 -6.48313 0.67329 0
M  V30 719 N 72.4269 -1.23603 -0.977757 0
M  V30 720 C 73.6519 -1.09735 -1.75991 0
M  V30 721 C 74.0769 0.346858 -1.84874 0
M  V30 722 O 73.4349 1.25093 -1.3123 0
M  V30 723 C 73.4829 -1.73051 -3.16363 0
M  V30 724 O 72.5869 -0.994452 -4.0023 0
M  V30 725 H 71.9279 -0.384476 -0.541364 0
M  V30 726 H 74.4579 -1.6371 -1.2272 0
M  V30 727 H 74.4679 -1.78398 -3.66931 0
M  V30 728 H 73.1429 -2.78137 -3.09213 0
M  V30 729 H 71.7199 -1.01812 -3.58732 0
M  V30 730 N 73.905 1.17692 -1.04816 0
M  V30 731 C 75.182 1.83768 -0.669963 0
M  V30 732 C 75.562 1.93232 0.849986 0
M  V30 733 O 74.91 1.46397 1.75443 0
M  V30 734 C 75.12 3.21641 -1.35455 0
M  V30 735 C 76.468 3.97592 -1.49017 0
M  V30 736 O 77.492 3.31107 -1.31326 0
M  V30 737 O 76.351 5.16729 -1.77914 0
M  V30 738 H 73.445 0.792799 -0.235368 0
M  V30 739 H 75.991 1.25021 -1.14751 0
M  V30 740 H 74.763 3.097 -2.39168 0
M  V30 741 H 74.386 3.88052 -0.866107 0
M  V30 742 N 75.3831 0.828654 1.34056 0
M  V30 743 C 76.3461 0.259927 2.27721 0
M  V30 744 C 77.3461 -0.565478 1.50529 0
M  V30 745 O 78.5361 -0.38075 1.69988 0
M  V30 746 C 75.6681 -0.634944 3.34935 0
M  V30 747 H 76.8611 1.0863 2.79534 0
M  V30 748 H 74.4141 0.600951 1.44285 0
M  V30 749 H 75.1491 -1.48416 2.88346 0
M  V30 750 H 74.9341 -0.0444999 3.92075 0
M  V30 751 H 76.4241 -1.02648 4.04788 0
M  V30 752 N 76.8612 -1.46375 0.584142 0
M  V30 753 C 77.8242 -2.28784 -0.138108 0
M  V30 754 C 78.8242 -1.38471 -0.817462 0
M  V30 755 O 80.0142 -1.60833 -0.669199 0
M  V30 756 C 77.1462 -3.18892 -1.20503 0
M  V30 757 H 78.3392 -2.94117 0.586127 0
M  V30 758 H 75.8922 -1.52509 0.342171 0
M  V30 759 H 76.6272 -2.58309 -1.96079 0
M  V30 760 H 76.4122 -3.85388 -0.722384 0
M  V30 761 H 77.9022 -3.80914 -1.71155 0
M  V30 762 N 78.3393 -0.321999 -1.54275 0
M  V30 763 C 79.6163 0.335232 -1.92706 0
M  V30 764 C 79.9963 1.70006 -1.25145 0
M  V30 765 O 79.3443 2.25067 -0.394596 0
M  V30 766 C 79.5543 0.429008 -3.46353 0
M  V30 767 C 80.9023 0.690029 -4.18956 0
M  V30 768 O 81.9263 0.511992 -3.52501 0
M  V30 769 O 80.7853 1.03338 -5.36641 0
M  V30 770 H 77.8793 0.191143 -0.804608 0
M  V30 771 H 80.4253 -0.3716 -1.65581 0
M  V30 772 H 79.1973 -0.529611 -3.87699 0
M  V30 773 H 78.8203 1.18348 -3.79578 0
M  V30 774 N 79.8174 1.5752 -0.0501392 0
M  V30 775 C 81.2334 1.56631 0.306402 0
M  V30 776 C 81.4334 1.0577 1.71508 0
M  V30 777 O 80.4894 0.713837 2.422 0
M  V30 778 C 81.8024 3.00393 0.135811 0
M  V30 779 C 83.3504 3.12315 0.206993 0
M  V30 780 C 83.8254 4.57954 0.064944 0
M  V30 781 N 85.3164 4.63041 0.121254 0
M  V30 782 C 86.0514 5.73389 0.0354381 0
M  V30 783 N 85.5474 6.92724 -0.102666 0
M  V30 784 N 87.3404 5.62026 0.090946 0
M  V30 785 H 79.4914 1.88903 -0.971046 0
M  V30 786 H 81.7544 0.869876 -0.376855 0
M  V30 787 H 81.4604 3.41635 -0.835384 0
M  V30 788 H 81.3344 3.66373 0.897275 0
M  V30 789 H 83.7214 2.70973 1.16866 0
M  V30 790 H 83.8024 2.49016 -0.585208 0
M  V30 791 H 83.4464 4.99981 -0.893394 0
M  V30 792 H 83.3764 5.19258 0.876277 0
M  V30 793 H 85.8674 3.77216 0.227284 0
M  V30 794 H 86.1804 7.72633 -0.160882 0
M  V30 795 H 84.5254 6.94864 -0.137737 0
M  V30 796 H 87.7164 4.67684 0.197388 0
M  V30 797 H 87.8894 6.47997 0.0206089 0
M  V30 798 N 81.2955 -0.223234 1.56011 0
M  V30 799 C 82.5415 -0.949279 1.79211 0
M  V30 800 C 82.8745 -1.84054 0.619494 0
M  V30 801 O 82.1495 -1.90726 -0.381317 0
M  V30 802 C 82.4325 -1.78965 3.12479 0
M  V30 803 C 82.2855 -0.924997 4.40186 0
M  V30 804 C 83.6045 -2.76774 3.42175 0
M  V30 805 H 80.7235 -0.343676 0.651963 0
M  V30 806 H 83.3655 -0.218253 1.88742 0
M  V30 807 H 81.5155 -2.41291 3.04485 0
M  V30 808 H 83.1875 -0.318615 4.60198 0
M  V30 809 H 81.4305 -0.230344 4.33188 0
M  V30 810 H 82.1015 -1.54735 5.29869 0
M  V30 811 H 84.5775 -2.24584 3.50287 0
M  V30 812 H 83.4535 -3.32678 4.36597 0
M  V30 813 H 83.7145 -3.54429 2.64258 0
M  V30 814 N 82.7736 -1.49793 -0.48987 0
M  V30 815 C 83.7366 -1.66752 -1.57246 0
M  V30 816 C 84.7366 -0.538867 -1.51502 0
M  V30 817 O 85.9266 -0.805545 -1.54456 0
M  V30 818 C 83.0586 -1.67528 -2.96896 0
M  V30 819 H 84.2516 -2.63321 -1.43534 0
M  V30 820 H 81.8046 -1.38992 -0.714914 0
M  V30 821 H 82.5396 -0.725837 -3.16073 0
M  V30 822 H 82.3246 -2.49504 -3.02473 0
M  V30 823 H 83.8146 -1.82667 -3.7553 0
M  V30 824 N 84.2517 0.741722 -1.39055 0
M  V30 825 C 85.1617 1.88621 -1.39496 0
M  V30 826 C 86.1777 1.71557 -0.290578 0
M  V30 827 O 87.3537 1.94275 -0.530954 0
M  V30 828 C 84.4187 3.24134 -1.23037 0
M  V30 829 C 83.4797 3.5364 -2.43387 0
M  V30 830 C 82.7127 4.82687 -2.27703 0
M  V30 831 O 82.9357 5.55922 -1.27696 0
M  V30 832 O 81.8697 5.1194 -3.16545 0
M  V30 833 H 85.6957 1.91203 -2.35956 0
M  V30 834 H 83.2807 0.888625 -1.20099 0
M  V30 835 H 85.1627 4.0513 -1.15964 0
M  V30 836 H 83.8377 3.22337 -0.296691 0
M  V30 837 H 82.7447 2.72758 -2.56035 0
M  V30 838 H 84.0777 3.60209 -3.35425 0
M  V30 839 N 85.7298 1.2412 0.971189 0
M  V30 840 C 86.6598 1.05508 2.08304 0
M  V30 841 C 87.6408 -0.0308864 1.70072 0
M  V30 842 O 88.8258 0.135521 1.93727 0
M  V30 843 C 85.9558 0.655365 3.4106 0
M  V30 844 C 84.9098 1.68971 3.93234 0
M  V30 845 C 84.2358 1.14516 5.22293 0
M  V30 846 C 85.5358 3.08487 4.21465 0
M  V30 847 H 87.2298 1.98507 2.24132 0
M  V30 848 H 84.7758 0.955821 1.07704 0
M  V30 849 H 86.7288 0.51217 4.18276 0
M  V30 850 H 85.4528 -0.31032 3.25122 0
M  V30 851 H 84.1118 1.82106 3.18171 0
M  V30 852 H 83.7598 0.170189 5.02712 0
M  V30 853 H 83.4598 1.83635 5.58168 0
M  V30 854 H 84.9838 1.01401 6.02121 0
M  V30 855 H 86.3978 2.98601 4.89398 0
M  V30 856 H 84.7948 3.74926 4.68562 0
M  V30 857 H 85.8648 3.56787 3.28376 0
M  V30 858 N 87.2079 -1.17134 1.05439 0
M  V30 859 C 88.4549 -1.87456 0.765942 0
M  V30 860 C 88.7829 -1.81189 -0.707153 0
M  V30 861 O 88.0379 -1.21633 -1.5331 0
M  V30 862 C 88.3369 -3.36833 1.19491 0
M  V30 863 C 88.0029 -3.63301 2.67063 0
M  V30 864 C 86.6649 -3.70234 3.07376 0
M  V30 865 C 89.0169 -3.74575 3.62413 0
M  V30 866 C 86.3449 -3.85933 4.41896 0
M  V30 867 C 88.6969 -3.91793 4.9667 0
M  V30 868 C 87.3609 -3.96966 5.36633 0
M  V30 869 H 86.6309 -0.685948 0.280278 0
M  V30 870 H 89.2779 -1.38556 1.32192 0
M  V30 871 H 87.5829 -3.87807 0.557969 0
M  V30 872 H 89.2799 -3.89611 0.948893 0
M  V30 873 H 85.8699 -3.58532 2.34846 0
M  V30 874 H 90.0539 -3.68537 3.32406 0
M  V30 875 H 85.3099 -3.88187 4.72357 0
M  V30 876 H 89.4839 -3.99458 5.70444 0
M  V30 877 H 87.1109 -4.08883 6.40874 0
M  V30 878 N 88.686 -0.835752 -1.33615 0
M  V30 879 C 89.616 -0.281739 -2.31794 0
M  V30 880 C 90.597 0.608833 -1.58831 0
M  V30 881 O 91.782 0.533035 -1.86741 0
M  V30 882 C 88.912 0.546612 -3.42971 0
M  V30 883 C 87.866 -0.247904 -4.27281 0
M  V30 884 C 87.192 0.704001 -5.30045 0
M  V30 885 C 88.492 -1.46324 -5.01385 0
M  V30 886 H 90.186 -1.10206 -2.78379 0
M  V30 887 H 87.732 -0.531388 -1.33837 0
M  V30 888 H 89.685 0.944467 -4.1068 0
M  V30 889 H 88.409 1.40011 -2.95067 0
M  V30 890 H 87.068 -0.627281 -3.61194 0
M  V30 891 H 86.716 1.55381 -4.78399 0
M  V30 892 H 86.416 0.176524 -5.87335 0
M  V30 893 H 87.94 1.09944 -6.0062 0
M  V30 894 H 89.354 -1.13871 -5.61877 0
M  V30 895 H 87.751 -1.92728 -5.6831 0
M  V30 896 H 88.821 -2.23467 -4.30338 0
M  V30 897 N 90.1641 1.46063 -0.591896 0
M  V30 898 C 91.4411 1.95595 -0.0137119 0
M  V30 899 C 91.8211 1.5345 1.4497 0
M  V30 900 O 91.1691 0.789543 2.14426 0
M  V30 901 C 91.3791 3.48453 -0.195373 0
M  V30 902 C 92.7271 4.24546 -0.0679765 0
M  V30 903 O 93.7511 3.55982 -0.124681 0
M  V30 904 O 92.6101 5.46467 0.0600579 0
M  V30 905 H 89.7041 0.825795 0.0446279 0
M  V30 906 H 92.2501 1.56303 -0.660859 0
M  V30 907 H 91.0221 3.72045 -1.21235 0
M  V30 908 H 90.6451 3.94597 0.487775 0
M  V30 909 N 91.6422 0.330177 1.54103 0
M  V30 910 C 93.0532 -0.15652 1.86043 0
M  V30 911 C 93.4042 -1.51086 1.2517 0
M  V30 912 O 92.5292 -2.09023 0.560217 0
M  V30 913 C 93.1242 -0.290784 3.3755 0
M  V30 914 C 91.6832 -0.721705 3.69416 0
M  V30 915 C 90.8302 0.152622 2.7688 0
M  V30 916 H 93.7812 0.550237 1.48856 0
M  V30 917 H 93.8022 -1.12058 3.63625 0
M  V30 918 H 93.3142 0.695068 3.81825 0
M  V30 919 H 91.4152 -1.71706 3.30678 0
M  V30 920 H 91.5282 -0.520869 4.7626 0
M  V30 921 H 89.8922 -0.372894 2.51956 0
M  V30 922 H 90.6752 1.13536 3.23982 0
M  V30 923 N 93.1203 -1.57491 0.0584922 0
M  V30 924 C 94.3683 -1.92597 -0.612436 0
M  V30 925 C 94.6893 -0.938162 -1.70949 0
M  V30 926 O 93.9593 0.0158301 -1.95894 0
M  V30 927 H 92.5393 -0.710964 -0.229214 0
M  V30 928 H 95.2013 -1.94571 0.113218 0
M  V30 929 H 94.2973 -2.94038 -1.04633 0
M  V30 930 N 94.5984 0.214957 -1.56127 0
M  V30 931 C 95.5304 1.29004 -1.89448 0
M  V30 932 C 96.5434 1.42716 -0.783326 0
M  V30 933 O 97.7324 1.43496 -1.06166 0
M  V30 934 C 94.8324 2.66482 -2.09381 0
M  V30 935 C 94.0054 2.74633 -3.40434 0
M  V30 936 C 93.0644 3.9317 -3.49719 0
M  V30 937 O 92.0904 3.812 -4.227 0
M  V30 938 N 93.2924 5.07765 -2.81346 0
M  V30 939 H 96.0574 1.00743 -2.82261 0
M  V30 940 H 93.6184 0.40497 -1.56753 0
M  V30 941 H 95.6104 3.44173 -2.12901 0
M  V30 942 H 94.1804 2.87314 -1.23163 0
M  V30 943 H 93.4004 1.83368 -3.48955 0
M  V30 944 H 94.6884 2.77054 -4.26754 0
M  V30 945 H 94.0864 5.20386 -2.21843 0
M  V30 946 H 92.6434 5.83474 -2.90519 0
M  V30 947 N 96.0765 1.50051 0.48192 0
M  V30 948 C 97.4925 1.37237 0.814756 0
M  V30 949 C 97.6925 0.420109 1.97072 0
M  V30 950 O 96.7485 -0.141246 2.52105 0
M  V30 951 C 98.0615 2.78375 1.13701 0
M  V30 952 C 99.6095 2.87213 1.2441 0
M  V30 953 C 100.084 4.29161 1.59954 0
M  V30 954 N 101.575 4.32061 1.66967 0
M  V30 955 C 102.31 5.38879 1.95952 0
M  V30 956 N 101.806 6.55918 2.23031 0
M  V30 957 N 103.599 5.26312 1.97363 0
M  V30 958 H 95.7505 2.10546 -0.28005 0
M  V30 959 H 98.0135 0.945921 -0.0627454 0
M  V30 960 H 97.7195 3.49845 0.360787 0
M  V30 961 H 97.5935 3.14941 2.07586 0
M  V30 962 H 99.9805 2.15969 2.01101 0
M  V30 963 H 100.061 2.54204 0.285299 0
M  V30 964 H 99.7055 5.00938 0.838067 0
M  V30 965 H 99.6355 4.59648 2.56966 0
M  V30 966 H 102.126 3.47661 1.48123 0
M  V30 967 H 102.439 7.33139 2.44391 0
M  V30 968 H 100.784 6.59112 2.20447 0
M  V30 969 H 103.975 4.33876 1.75697 0
M  V30 970 H 104.148 6.09649 2.19618 0
M  V30 971 N 97.5546 -0.734337 1.39446 0
M  V30 972 C 98.4646 -1.87879 1.40495 0
M  V30 973 C 99.4806 -1.714 0.299672 0
M  V30 974 O 100.657 -1.93991 0.541249 0
M  V30 975 C 97.7216 -3.23477 1.24754 0
M  V30 976 C 96.7826 -3.52344 2.45259 0
M  V30 977 C 96.0156 -4.81473 2.30259 0
M  V30 978 O 96.2386 -5.55237 1.30643 0
M  V30 979 O 95.1726 -5.10254 3.19256 0
M  V30 980 H 98.9986 -1.89949 2.36966 0
M  V30 981 H 96.5836 -0.882243 1.20569 0
M  V30 982 H 98.4656 -4.04509 1.18111 0
M  V30 983 H 97.1406 -3.22176 0.313781 0
M  V30 984 H 96.0476 -2.71396 2.57478 0
M  V30 985 H 97.3806 -3.58426 3.37331 0
M  V30 986 N 99.0327 -1.24633 -0.964593 0
M  V30 987 C 100.449 -1.01239 -1.2338 0
M  V30 988 C 100.649 0.2769 -1.99588 0
M  V30 989 O 99.7047 0.992241 -2.32187 0
M  V30 990 C 101.018 -2.22937 -2.01791 0
M  V30 991 C 102.566 -2.27594 -2.14872 0
M  V30 992 C 103.041 -3.48921 -2.96678 0
M  V30 993 N 104.532 -3.49257 -3.04259 0
M  V30 994 C 105.267 -4.39795 -3.67924 0
M  V30 995 N 104.763 -5.40591 -4.33281 0
M  V30 996 N 106.556 -4.275 -3.64966 0
M  V30 997 H 98.7067 -2.0748 -0.454502 0
M  V30 998 H 100.97 -0.910647 -0.26349 0
M  V30 999 H 100.676 -3.16587 -1.53184 0
M  V30 1000 H 100.55 -2.25306 -3.02518 0
M  V30 1001 H 102.937 -1.34473 -2.6268 0
M  V30 1002 H 103.018 -2.2925 -1.13482 0
M  V30 1003 H 102.662 -4.42359 -2.49562 0
M  V30 1004 H 102.592 -3.4451 -3.98272 0
M  V30 1005 H 105.083 -2.76337 -2.57771 0
M  V30 1006 H 105.396 -6.05904 -4.79687 0
M  V30 1007 H 103.741 -5.44475 -4.3194 0
M  V30 1008 H 106.932 -3.47987 -3.13086 0
M  V30 1009 H 107.105 -4.98258 -4.14298 0
M  V30 1010 N 100.511 1.16574 -1.06058 0
M  V30 1011 C 101.76 1.86385 -0.770944 0
M  V30 1012 C 102.073 1.82448 0.705129 0
M  V30 1013 O 103.279 2.47815 1.10905 0
M  V30 1014 C 101.735 3.34466 -1.32893 0
M  V30 1015 C 101.343 3.46883 -2.83507 0
M  V30 1016 C 103.087 4.09548 -1.11672 0
M  V30 1017 C 100.994 4.89036 -3.32562 0
M  V30 1018 H 99.9238 0.698181 -0.284709 0
M  V30 1019 H 102.575 1.31583 -1.27899 0
M  V30 1020 H 100.957 3.88859 -0.748662 0
M  V30 1021 H 102.131 3.02663 -3.47465 0
M  V30 1022 H 100.446 2.85232 -3.03368 0
M  V30 1023 H 103.043 5.14434 -1.45814 0
M  V30 1024 H 103.386 4.16264 -0.0549535 0
M  V30 1025 H 103.919 3.61387 -1.66265 0
M  V30 1026 H 100.658 4.87499 -4.38207 0
M  V30 1027 H 100.178 5.3389 -2.73351 0
M  V30 1028 H 101.857 5.57843 -3.2775 0
M  V30 1029 N 101.989 0.842826 1.3317 0
M  V30 1030 C 103.4 0.496651 1.79973 0
M  V30 1031 C 103.751 -0.984641 1.69703 0
M  V30 1032 O 102.876 -1.76743 1.24863 0
M  V30 1033 C 103.471 0.894727 3.26772 0
M  V30 1034 C 102.03 0.600629 3.71577 0
M  V30 1035 C 101.177 1.10091 2.5451 0
M  V30 1036 H 104.128 1.03116 1.20635 0
M  V30 1037 H 104.149 0.206347 3.7994 0
M  V30 1038 H 103.661 1.97287 3.34215 0
M  V30 1039 H 101.762 -0.467284 3.69658 0
M  V30 1040 H 101.875 1.15863 4.64879 0
M  V30 1041 H 100.239 0.52162 2.49301 0
M  V30 1042 H 101.022 2.18591 2.64713 0
M  V30 1043 N 103.467 -1.45747 0.599634 0
M  V30 1044 C 104.883 -1.57424 0.26264 0
M  V30 1045 C 105.083 -1.59222 -1.23493 0
M  V30 1046 O 104.139 -1.51825 -2.01756 0
M  V30 1047 C 105.452 -2.86061 0.926795 0
M  V30 1048 C 107 -2.99722 0.901967 0
M  V30 1049 C 107.475 -4.31119 1.54598 0
M  V30 1050 N 108.966 -4.37858 1.5111 0
M  V30 1051 C 109.701 -5.3818 1.97863 0
M  V30 1052 N 109.197 -6.45083 2.52666 0
M  V30 1053 N 110.99 -5.29487 1.88679 0
M  V30 1054 H 103.141 -1.42823 1.57211 0
M  V30 1055 H 105.404 -0.68235 0.658105 0
M  V30 1056 H 105.11 -2.90605 1.98095 0
M  V30 1057 H 104.984 -3.74563 0.445238 0
M  V30 1058 H 107.371 -2.9475 -0.143617 0
M  V30 1059 H 107.452 -2.12652 1.42171 0
M  V30 1060 H 107.096 -4.36849 2.59085 0
M  V30 1061 H 107.026 -5.16992 1.00132 0
M  V30 1062 H 109.517 -3.61209 1.11068 0
M  V30 1063 H 109.83 -7.17869 2.86155 0
M  V30 1064 H 108.175 -6.45856 2.56701 0
M  V30 1065 H 111.366 -4.44877 1.4561 0
M  V30 1066 H 111.539 -6.07524 2.25429 0
M  V30 1067 N 104.945 -0.338344 -1.53925 0
M  V30 1068 C 106.191 0.260143 -2.01125 0
M  V30 1069 C 106.524 1.50617 -1.22589 0
M  V30 1070 O 105.799 1.91979 -0.312113 0
M  V30 1071 C 106.082 0.579499 -3.55407 0
M  V30 1072 C 105.935 -0.678264 -4.44657 0
M  V30 1073 C 107.254 1.39122 -4.17532 0
M  V30 1074 H 104.373 0.0930772 -0.731099 0
M  V30 1075 H 107.015 -0.457852 -1.84401 0
M  V30 1076 H 105.165 1.19118 -3.69788 0
M  V30 1077 H 106.837 -1.31631 -4.42121 0
M  V30 1078 H 105.08 -1.3042 -4.13731 0
M  V30 1079 H 105.751 -0.410143 -5.50474 0
M  V30 1080 H 108.227 0.874035 -4.06817 0
M  V30 1081 H 107.103 1.58342 -5.25565 0
M  V30 1082 H 107.364 2.39178 -3.71815 0
M  V30 1083 N 106.423 1.57458 -0.0668435 0
M  V30 1084 C 107.653 1.97337 0.611677 0
M  V30 1085 C 108.061 0.943744 1.63982 0
M  V30 1086 O 107.404 -0.0785584 1.83532 0
M  V30 1087 C 107.466 3.33511 1.34205 0
M  V30 1088 C 107.13 4.54598 0.467941 0
M  V30 1089 C 108.127 5.19186 -0.272439 0
M  V30 1090 C 105.812 5.0075 0.39427 0
M  V30 1091 C 107.806 6.28274 -1.07476 0
M  V30 1092 C 105.493 6.09711 -0.411729 0
M  V30 1093 C 106.491 6.73335 -1.14492 0
M  V30 1094 O 106.179 7.80199 -1.93763 0
M  V30 1095 H 105.911 0.654042 0.170893 0
M  V30 1096 H 108.465 2.04961 -0.134289 0
M  V30 1097 H 106.695 3.22487 2.13398 0
M  V30 1098 H 108.384 3.58029 1.91233 0
M  V30 1099 H 109.15 4.84477 -0.225086 0
M  V30 1100 H 105.029 4.51009 0.954569 0
M  V30 1101 H 108.573 6.77866 -1.64755 0
M  V30 1102 H 104.47 6.43854 -0.460664 0
M  V30 1103 H 105.238 7.97053 -1.86142 0
M  V30 1104 N 107.901 -0.206675 1.56239 0
M  V30 1105 C 108.833 -1.27997 1.9013 0
M  V30 1106 C 109.846 -1.42299 0.790883 0
M  V30 1107 O 111.035 -1.42931 1.06925 0
M  V30 1108 C 108.135 -2.65368 2.10792 0
M  V30 1109 C 107.308 -2.72824 3.41886 0
M  V30 1110 C 106.367 -3.9131 3.51799 0
M  V30 1111 O 105.393 -3.78953 4.24716 0
M  V30 1112 N 106.595 -5.06265 2.84035 0
M  V30 1113 H 109.36 -0.992444 2.82791 0
M  V30 1114 H 106.921 -0.396652 1.56966 0
M  V30 1115 H 108.913 -3.43039 2.14724 0
M  V30 1116 H 107.483 -2.86657 1.24685 0
M  V30 1117 H 106.703 -1.81515 3.49923 0
M  V30 1118 H 107.991 -2.74786 4.28217 0
M  V30 1119 H 107.389 -5.19203 2.246 0
M  V30 1120 H 105.946 -5.81925 2.93609 0
M  V30 1121 N 109.379 -1.50304 -0.473955 0
M  V30 1122 C 110.326 -1.68959 -1.57231 0
M  V30 1123 C 111.296 -0.530899 -1.57387 0
M  V30 1124 O 112.481 -0.761133 -1.74961 0
M  V30 1125 C 109.621 -1.7871 -2.95223 0
M  V30 1126 C 108.734 -3.06061 -3.04878 0
M  V30 1127 C 107.869 -3.06626 -4.33767 0
M  V30 1128 C 106.908 -4.28443 -4.37154 0
M  V30 1129 N 106.045 -4.26763 -5.5751 0
M  V30 1130 H 110.885 -2.6273 -1.40631 0
M  V30 1131 H 108.422 -1.30241 -0.683789 0
M  V30 1132 H 110.38 -1.82344 -3.75242 0
M  V30 1133 H 109.01 -0.883806 -3.10465 0
M  V30 1134 H 108.062 -3.11911 -2.17751 0
M  V30 1135 H 109.374 -3.96039 -3.0324 0
M  V30 1136 H 108.528 -3.08973 -5.22131 0
M  V30 1137 H 107.267 -2.14473 -4.3801 0
M  V30 1138 H 106.272 -4.2631 -3.47188 0
M  V30 1139 H 107.497 -5.2182 -4.34605 0
M  V30 1140 H 105.443 -3.37462 -5.62544 0
M  V30 1141 H 105.36 -5.10507 -5.57601 0
M  V30 1142 H 106.628 -4.33253 -6.48006 0
M  V30 1143 N 110.857 0.726932 -1.39834 0
M  V30 1144 C 112.082 1.52121 -1.40976 0
M  V30 1145 C 112.507 1.88098 -0.00826029 0
M  V30 1146 O 111.865 1.52479 0.980807 0
M  V30 1147 C 111.913 2.78021 -2.29644 0
M  V30 1148 O 111.017 3.74272 -1.73188 0
M  V30 1149 H 110.358 0.45908 -0.479731 0
M  V30 1150 H 112.888 0.896207 -1.83927 0
M  V30 1151 H 112.898 3.26671 -2.44438 0
M  V30 1152 H 111.573 2.51169 -3.31492 0
M  V30 1153 H 110.15 3.33073 -1.6768 0
M  V30 1154 N 112.336 1.25143 0.95797 0
M  V30 1155 C 113.752 1.01892 1.22842 0
M  V30 1156 C 113.952 -0.266311 1.99732 0
M  V30 1157 O 113.008 -0.979913 2.3271 0
M  V30 1158 C 114.321 2.24004 2.00606 0
M  V30 1159 C 115.869 2.28731 2.13662 0
M  V30 1160 C 116.344 3.5049 2.94823 0
M  V30 1161 N 117.835 3.50866 3.02403 0
M  V30 1162 C 118.57 4.4174 3.65586 0
M  V30 1163 N 118.066 5.42882 4.30408 0
M  V30 1164 N 119.859 4.29429 3.62694 0
M  V30 1165 H 112.01 2.07718 0.443493 0
M  V30 1166 H 114.273 0.912031 0.258657 0
M  V30 1167 H 113.979 3.17395 1.51503 0
M  V30 1168 H 113.853 2.26907 3.01319 0
M  V30 1169 H 116.24 1.35865 2.61963 0
M  V30 1170 H 116.321 2.29848 1.12265 0
M  V30 1171 H 115.965 4.43676 2.47213 0
M  V30 1172 H 115.895 3.46617 3.96439 0
M  V30 1173 H 118.386 2.777 2.56302 0
M  V30 1174 H 118.699 6.0844 4.76467 0
M  V30 1175 H 117.044 5.46758 4.29047 0
M  V30 1176 H 120.235 3.49643 3.11236 0
M  V30 1177 H 120.408 5.00448 4.1165 0
M  V30 1178 N 113.814 -1.1601 1.06675 0
M  V30 1179 C 115.063 -1.85973 0.780818 0
M  V30 1180 C 115.376 -1.82819 -0.695444 0
M  V30 1181 O 116.582 -2.484 -1.09589 0
M  V30 1182 C 115.038 -3.33757 1.34665 0
M  V30 1183 C 114.646 -3.45374 2.85343 0
M  V30 1184 C 116.39 -4.0895 1.13843 0
M  V30 1185 C 114.297 -4.87266 3.35151 0
M  V30 1186 H 113.227 -0.696661 0.288407 0
M  V30 1187 H 115.878 -1.30903 1.28595 0
M  V30 1188 H 114.26 -3.88456 0.769274 0
M  V30 1189 H 115.434 -3.00816 3.49065 0
M  V30 1190 H 113.749 -2.83619 3.04876 0
M  V30 1191 H 116.346 -5.13654 1.4854 0
M  V30 1192 H 116.689 -4.16229 0.0770282 0
M  V30 1193 H 117.222 -3.605 1.68179 0
M  V30 1194 H 113.961 -4.85168 4.40786 0
M  V30 1195 H 113.481 -5.32433 2.76179 0
M  V30 1196 H 115.16 -5.56097 3.30704 0
M  V30 1197 N 115.292 -0.849877 -1.32721 0
M  V30 1198 C 116.52 -0.464754 -2.01613 0
M  V30 1199 C 116.935 0.937191 -1.63897 0
M  V30 1200 O 116.292 1.61081 -0.857856 0
M  V30 1201 C 116.343 -0.588638 -3.56675 0
M  V30 1202 O 116.064 -1.93535 -3.93034 0
M  V30 1203 C 117.565 -0.2019 -4.4284 0
M  V30 1204 H 114.785 -0.183215 -0.645502 0
M  V30 1205 H 117.329 -1.1455 -1.69407 0
M  V30 1206 H 115.484 0.0443159 -3.87375 0
M  V30 1207 H 115.898 -1.92871 -4.87751 0
M  V30 1208 H 117.372 -0.339599 -5.50954 0
M  V30 1209 H 117.849 0.857224 -4.30753 0
M  V30 1210 H 118.455 -0.809733 -4.17521 0
M  V30 1211 N 116.77 1.45427 -0.607355 0
M  V30 1212 C 117.998 2.06614 -0.108814 0
M  V30 1213 C 118.413 1.45204 1.2067 0
M  V30 1214 O 117.77 0.566132 1.73497 0
M  V30 1215 C 117.821 3.61481 0.0375347 0
M  V30 1216 O 117.542 4.20598 -1.22593 0
M  V30 1217 C 119.043 4.39652 0.567561 0
M  V30 1218 H 116.263 0.66747 -0.0687351 0
M  V30 1219 H 118.807 1.86675 -0.835022 0
M  V30 1220 H 116.962 3.80762 0.714068 0
M  V30 1221 H 117.376 5.1377 -1.05547 0
M  V30 1222 H 118.85 5.48518 0.61905 0
M  V30 1223 H 119.327 4.09417 1.58978 0
M  V30 1224 H 119.933 4.25234 -0.0749202 0
M  V30 1225 N 118.248 0.346503 1.53744 0
M  V30 1226 C 119.664 -0.00530975 1.59599 0
M  V30 1227 C 119.864 -1.48465 1.36236 0
M  V30 1228 O 118.92 -2.24376 1.15808 0
M  V30 1229 C 120.233 0.433516 2.97559 0
M  V30 1230 C 121.781 0.386111 3.10609 0
M  V30 1231 C 122.256 0.800451 4.50951 0
M  V30 1232 N 123.747 0.754753 4.5701 0
M  V30 1233 C 124.482 1.04727 5.63755 0
M  V30 1234 N 123.978 1.4081 6.7834 0
M  V30 1235 N 125.771 0.971316 5.53644 0
M  V30 1236 H 117.922 1.31009 1.67184 0
M  V30 1237 H 120.185 0.534242 0.783128 0
M  V30 1238 H 119.891 1.46509 3.19731 0
M  V30 1239 H 119.765 -0.189753 3.76722 0
M  V30 1240 H 122.152 -0.636295 2.88158 0
M  V30 1241 H 122.233 1.04462 2.33498 0
M  V30 1242 H 121.877 1.82088 4.74137 0
M  V30 1243 H 121.807 0.119386 5.26465 0
M  V30 1244 H 124.298 0.488662 3.74727 0
M  V30 1245 H 124.611 1.61607 7.55714 0
M  V30 1246 H 122.956 1.44657 6.79779 0
M  V30 1247 H 126.147 0.688748 4.63005 0
M  V30 1248 H 126.32 1.20263 6.36742 0
M  V30 1249 N 119.726 -1.57421 0.075193 0
M  V30 1250 C 121.142 -1.57099 -0.281444 0
M  V30 1251 C 121.342 -1.08486 -1.69803 0
M  V30 1252 O 120.398 -0.752279 -2.41033 0
M  V30 1253 C 121.711 -3.00571 -0.0880041 0
M  V30 1254 C 123.259 -3.12605 -0.157281 0
M  V30 1255 C 123.734 -4.57999 0.0079207 0
M  V30 1256 N 125.225 -4.63176 -0.0475725 0
M  V30 1257 C 125.96 -5.73373 0.0557876 0
M  V30 1258 N 125.456 -6.92473 0.21286 0
M  V30 1259 N 127.249 -5.621 -0.00152098 0
M  V30 1260 H 119.4 -1.87335 1.00098 0
M  V30 1261 H 121.663 -0.86377 0.390646 0
M  V30 1262 H 121.369 -3.40262 0.889629 0
M  V30 1263 H 121.243 -3.67754 -0.838875 0
M  V30 1264 H 123.63 -2.72798 -1.1254 0
M  V30 1265 H 123.711 -2.48053 0.62475 0
M  V30 1266 H 123.355 -4.98496 0.972824 0
M  V30 1267 H 123.285 -5.20586 -0.793556 0
M  V30 1268 H 125.776 -3.7753 -0.167244 0
M  V30 1269 H 126.089 -7.72279 0.283781 0
M  V30 1270 H 124.434 -6.94556 0.248267 0
M  V30 1271 H 127.625 -4.67938 -0.122958 0
M  V30 1272 H 127.798 -6.47948 0.0824844 0
M  V30 1273 N 121.204 0.198386 -1.56346 0
M  V30 1274 C 122.137 1.27381 -1.89339 0
M  V30 1275 C 123.115 1.44106 -0.753134 0
M  V30 1276 O 124.299 1.59549 -1.00381 0
M  V30 1277 C 121.426 2.6409 -2.12071 0
M  V30 1278 C 120.472 2.64253 -3.34772 0
M  V30 1279 S 121.305 2.16013 -4.89999 0
M  V30 1280 C 122.461 3.54553 -5.15794 0
M  V30 1281 H 122.694 0.992058 -2.8026 0
M  V30 1282 H 120.227 0.401726 -1.49082 0
M  V30 1283 H 122.185 3.42786 -2.2585 0
M  V30 1284 H 120.846 2.89478 -1.21906 0
M  V30 1285 H 120.039 3.64768 -3.47794 0
M  V30 1286 H 119.641 1.93637 -3.1997 0
M  V30 1287 H 121.933 4.50396 -5.06112 0
M  V30 1288 H 122.876 3.46428 -6.1757 0
M  V30 1289 H 123.284 3.49313 -4.43442 0
M  V30 1290 N 122.682 1.50554 0.465978 0
M  V30 1291 C 123.645 1.69233 1.54574 0
M  V30 1292 C 124.645 0.562901 1.50626 0
M  V30 1293 O 125.835 0.830016 1.53155 0
M  V30 1294 C 122.967 1.7223 2.94193 0
M  V30 1295 H 124.16 2.65571 1.39327 0
M  V30 1296 H 121.713 1.40111 0.692711 0
M  V30 1297 H 122.448 0.77603 3.14878 0
M  V30 1298 H 122.233 2.54285 2.98466 0
M  V30 1299 H 123.723 1.88618 3.72576 0
M  V30 1300 N 124.16 -0.719506 1.40217 0
M  V30 1301 C 125.406 -1.48152 1.38488 0
M  V30 1302 C 125.739 -1.94195 -0.0141867 0
M  V30 1303 O 125.014 -1.67884 -0.982096 0
M  V30 1304 C 125.297 -2.71035 2.37091 0
M  V30 1305 C 125.15 -2.30912 3.86005 0
M  V30 1306 C 126.469 -3.73182 2.33288 0
M  V30 1307 H 123.588 -0.537395 0.504357 0
M  V30 1308 H 126.23 -0.821472 1.71324 0
M  V30 1309 H 124.38 -3.27352 2.0922 0
M  V30 1310 H 126.052 -1.80107 4.24687 0
M  V30 1311 H 124.295 -1.62958 4.02029 0
M  V30 1312 H 124.966 -3.18978 4.50508 0
M  V30 1313 H 127.442 -3.26485 2.57966 0
M  V30 1314 H 126.318 -4.56806 3.04334 0
M  V30 1315 H 126.579 -4.21202 1.34317 0
M  V30 1316 N 125.638 -1.25649 -0.95132 0
M  V30 1317 C 126.915 -1.01361 -1.67288 0
M  V30 1318 C 127.295 0.459135 -2.06046 0
M  V30 1319 O 126.643 1.43723 -1.7764 0
M  V30 1320 C 126.853 -1.95256 -2.89268 0
M  V30 1321 C 128.201 -2.23289 -3.61147 0
M  V30 1322 O 129.225 -1.93041 -2.99355 0
M  V30 1323 O 128.084 -2.74741 -4.72419 0
M  V30 1324 H 125.178 -0.38464 -0.732107 0
M  V30 1325 H 127.724 -1.36817 -1.00395 0
M  V30 1326 H 126.496 -2.94685 -2.57442 0
M  V30 1327 H 126.119 -1.60218 -3.6389 0
M  V30 1328 N 127.117 1.15442 -1.07289 0
M  V30 1329 C 128.528 1.67803 -0.818475 0
M  V30 1330 C 128.879 1.8489 0.656507 0
M  V30 1331 O 128.004 1.55176 1.50829 0
M  V30 1332 C 128.599 3.04805 -1.47917 0
M  V30 1333 C 127.158 3.54245 -1.27229 0
M  V30 1334 C 126.305 2.29986 -1.54925 0
M  V30 1335 H 129.256 0.996646 -1.23502 0
M  V30 1336 H 129.277 3.69702 -0.90005 0
M  V30 1337 H 128.789 2.92336 -2.55267 0
M  V30 1338 H 126.89 3.71956 -0.21899 0
M  V30 1339 H 127.003 4.35723 -1.99203 0
M  V30 1340 H 125.367 2.35496 -0.970242 0
M  V30 1341 H 126.15 2.20105 -2.63455 0
M  V30 1342 N 128.595 0.856903 1.32268 0
M  V30 1343 C 129.525 0.31858 2.31316 0
M  V30 1344 C 130.506 -0.583487 1.59779 0
M  V30 1345 O 131.691 -0.503259 1.87566 0
M  V30 1346 C 128.821 -0.491979 3.43798 0
M  V30 1347 C 127.775 0.315849 4.26833 0
M  V30 1348 C 127.101 -0.619586 5.31098 0
M  V30 1349 C 128.401 1.54282 4.98993 0
M  V30 1350 H 130.095 1.14621 2.76591 0
M  V30 1351 H 127.641 0.552613 1.32974 0
M  V30 1352 H 129.594 -0.879012 4.1213 0
M  V30 1353 H 128.318 -1.35299 2.97257 0
M  V30 1354 H 126.977 0.684664 3.6015 0
M  V30 1355 H 126.625 -1.47751 4.8081 0
M  V30 1356 H 126.325 -0.0830621 5.87541 0
M  V30 1357 H 127.849 -1.00375 6.02293 0
M  V30 1358 H 129.263 1.22796 5.59995 0
M  V30 1359 H 127.66 2.01745 5.65172 0
M  V30 1360 H 128.73 2.30285 4.26728 0
M  V30 1361 N 130.073 -1.45103 0.615059 0
M  V30 1362 C 131.35 -1.95549 0.0448276 0
M  V30 1363 C 131.73 -1.55737 -1.4251 0
M  V30 1364 O 131.078 -0.823556 -2.13143 0
M  V30 1365 C 131.288 -3.48098 0.250785 0
M  V30 1366 C 132.636 -4.24384 0.135509 0
M  V30 1367 O 133.66 -3.55738 0.181299 0
M  V30 1368 O 132.519 -5.46493 0.0268878 0
M  V30 1369 H 129.613 -0.8264 -0.0314845 0
M  V30 1370 H 132.159 -1.55232 0.685642 0
M  V30 1371 H 130.931 -3.7007 1.27139 0
M  V30 1372 H 130.554 -3.95323 -0.424937 0
M  V30 1373 N 131.551 -0.354651 -1.53558 0
M  V30 1374 C 132.514 0.484566 -2.24019 0
M  V30 1375 C 133.514 1.01861 -1.24422 0
M  V30 1376 O 134.704 0.906097 -1.4878 0
M  V30 1377 C 131.836 1.67615 -2.96847 0
M  V30 1378 H 133.029 -0.131843 -2.9961 0
M  V30 1379 H 130.582 -0.106165 -1.55939 0
M  V30 1380 H 131.317 2.33095 -2.25471 0
M  V30 1381 H 131.102 1.30029 -3.69912 0
M  V30 1382 H 132.592 2.27114 -3.50441 0
M  V30 1383 N 133.029 1.57378 -0.0835403 0
M  V30 1384 C 133.976 2.13384 0.879539 0
M  V30 1385 C 134.946 1.04936 1.28754 0
M  V30 1386 O 136.131 1.32662 1.37133 0
M  V30 1387 C 133.271 2.70932 2.13752 0
M  V30 1388 C 132.384 3.93575 1.7811 0
M  V30 1389 C 131.519 4.39326 2.98607 0
M  V30 1390 C 130.558 5.54587 2.59037 0
M  V30 1391 N 129.695 5.95243 3.72331 0
M  V30 1392 H 134.535 2.9537 0.395076 0
M  V30 1393 H 132.072 1.45953 0.183349 0
M  V30 1394 H 134.03 3.02411 2.87408 0
M  V30 1395 H 132.66 1.91693 2.59718 0
M  V30 1396 H 131.712 3.68483 0.94469 0
M  V30 1397 H 133.024 4.77258 1.45005 0
M  V30 1398 H 132.178 4.72528 3.80529 0
M  V30 1399 H 130.917 3.5452 3.34913 0
M  V30 1400 H 129.922 5.21024 1.75539 0
M  V30 1401 H 131.147 6.41133 2.23887 0
M  V30 1402 H 129.093 5.13385 4.08378 0
M  V30 1403 H 129.01 6.73694 3.43034 0
M  V30 1404 H 130.278 6.33072 4.54797 0
M  V30 1405 N 134.507 -0.190092 1.56449 0
M  V30 1406 C 135.754 -0.909705 1.80916 0
M  V30 1407 C 136.082 -1.83047 0.657583 0
M  V30 1408 O 135.337 -1.92428 -0.356356 0
M  V30 1409 C 135.636 -1.75382 3.1141 0
M  V30 1410 C 135.302 -0.983606 4.40041 0
M  V30 1411 C 133.964 -0.770967 4.74984 0
M  V30 1412 C 136.316 -0.442024 5.19322 0
M  V30 1413 C 133.644 -0.0053448 5.867 0
M  V30 1414 C 135.996 0.310412 6.31838 0
M  V30 1415 C 134.66 0.534023 6.6536 0
M  V30 1416 H 133.93 -0.332885 0.662019 0
M  V30 1417 H 136.577 -0.175762 1.90692 0
M  V30 1418 H 134.882 -2.55659 2.96893 0
M  V30 1419 H 136.579 -2.31331 3.27547 0
M  V30 1420 H 133.169 -1.15936 4.12622 0
M  V30 1421 H 137.353 -0.593693 4.92736 0
M  V30 1422 H 132.609 0.177825 6.11141 0
M  V30 1423 H 136.783 0.737419 6.92485 0
M  V30 1424 H 134.41 1.12918 7.51767 0
M  V30 1425 N 135.985 -1.50799 -0.457987 0
M  V30 1426 C 137.262 -1.52968 -1.21902 0
M  V30 1427 C 137.642 -0.281906 -2.09209 0
M  V30 1428 O 136.99 0.734076 -2.16388 0
M  V30 1429 C 137.2 -2.8326 -2.03875 0
M  V30 1430 C 138.548 -3.34425 -2.6162 0
M  V30 1431 O 139.572 -2.8467 -2.14106 0
M  V30 1432 O 138.431 -4.21188 -3.48228 0
M  V30 1433 H 135.525 -0.614129 -0.553873 0
M  V30 1434 H 138.071 -1.63098 -0.468739 0
M  V30 1435 H 136.843 -3.65543 -1.39621 0
M  V30 1436 H 136.466 -2.76195 -2.8601 0
M  V30 1437 N 137.463 0.71206 -1.40597 0
M  V30 1438 C 138.709 1.47416 -1.39271 0
M  V30 1439 C 139.042 1.942 0.00388791 0
M  V30 1440 O 138.317 1.68403 0.973179 0
M  V30 1441 C 138.6 2.69774 -2.38525 0
M  V30 1442 C 138.453 2.28861 -3.87224 0
M  V30 1443 C 139.772 3.71939 -2.35264 0
M  V30 1444 H 136.891 0.534713 -0.5072 0
M  V30 1445 H 139.533 0.812375 -1.71757 0
M  V30 1446 H 137.683 3.26238 -2.10953 0
M  V30 1447 H 139.355 1.77852 -4.25636 0
M  V30 1448 H 137.598 1.60824 -4.02887 0
M  V30 1449 H 138.269 3.16584 -4.52193 0
M  V30 1450 H 140.745 3.25113 -2.59694 0
M  V30 1451 H 139.621 4.55186 -3.06753 0
M  V30 1452 H 139.882 4.20484 -1.36549 0
M  V30 1453 N 138.941 1.26152 0.944643 0
M  V30 1454 C 140.188 1.11492 1.69044 0
M  V30 1455 C 140.516 -0.342366 1.91463 0
M  V30 1456 O 139.771 -1.26812 1.49054 0
M  V30 1457 C 140.07 1.82541 3.07268 0
M  V30 1458 C 139.736 3.32445 3.04616 0
M  V30 1459 C 138.398 3.73337 3.036 0
M  V30 1460 C 140.75 4.28171 2.97185 0
M  V30 1461 C 138.078 5.08348 2.92915 0
M  V30 1462 C 140.43 5.63218 2.88041 0
M  V30 1463 C 139.094 6.03426 2.85366 0
M  V30 1464 H 138.364 0.407977 0.618576 0
M  V30 1465 H 141.011 1.56551 1.10291 0
M  V30 1466 H 139.316 1.29941 3.69625 0
M  V30 1467 H 141.013 1.68642 3.63815 0
M  V30 1468 H 137.603 2.99915 3.06185 0
M  V30 1469 H 141.787 3.97563 2.97081 0
M  V30 1470 H 137.043 5.38667 2.89219 0
M  V30 1471 H 141.217 6.37078 2.81254 0
M  V30 1472 H 138.844 7.07999 2.76842 0
M  V30 1473 N 140.419 -1.14872 1.07899 0
M  V30 1474 C 141.835 -1.37776 0.805606 0
M  V30 1475 C 142.035 -1.92743 -0.587555 0
M  V30 1476 O 141.091 -2.13678 -1.34528 0
M  V30 1477 C 142.404 -2.34361 1.88402 0
M  V30 1478 C 143.952 -2.48012 1.90942 0
M  V30 1479 C 144.427 -3.47893 2.97883 0
M  V30 1480 N 145.918 -3.55433 2.97021 0
M  V30 1481 C 146.653 -4.32553 3.76412 0
M  V30 1482 N 146.149 -5.12959 4.65666 0
M  V30 1483 N 147.942 -4.27697 3.64735 0
M  V30 1484 H 140.093 -0.775365 1.97742 0
M  V30 1485 H 142.356 -0.403521 0.857831 0
M  V30 1486 H 142.062 -2.01098 2.88535 0
M  V30 1487 H 141.936 -3.34206 1.74889 0
M  V30 1488 H 144.323 -2.8057 0.914579 0
M  V30 1489 H 144.404 -1.48147 2.08534 0
M  V30 1490 H 144.048 -3.16069 3.97571 0
M  V30 1491 H 143.978 -4.47527 2.77538 0
M  V30 1492 H 146.469 -2.98048 2.32326 0
M  V30 1493 H 146.782 -5.69065 5.22862 0
M  V30 1494 H 145.127 -5.12245 4.69712 0
M  V30 1495 H 148.318 -3.63949 2.94378 0
M  V30 1496 H 148.491 -4.8755 4.26848 0
M  V30 1497 N 141.898 -0.863906 -1.31812 0
M  V30 1498 C 143.314 -0.555004 -1.49639 0
M  V30 1499 C 143.514 0.912266 -1.79666 0
M  V30 1500 O 142.57 1.69479 -1.87171 0
M  V30 1501 C 143.883 -1.44998 -2.63431 0
M  V30 1502 C 145.431 -1.45138 -2.77316 0
M  V30 1503 C 145.906 -2.33179 -3.94197 0
M  V30 1504 N 147.397 -2.31025 -4.01474 0
M  V30 1505 C 148.132 -2.95871 -4.9117 0
M  V30 1506 N 147.628 -3.69863 -5.8581 0
M  V30 1507 N 149.421 -2.85211 -4.84367 0
M  V30 1508 H 141.572 -1.81339 -1.10589 0
M  V30 1509 H 143.835 -0.77505 -0.545895 0
M  V30 1510 H 143.541 -2.49377 -2.48 0
M  V30 1511 H 143.415 -1.14409 -3.59431 0
M  V30 1512 H 145.802 -0.415201 -2.92164 0
M  V30 1513 H 145.883 -1.79747 -1.82001 0
M  V30 1514 H 145.527 -3.3687 -3.80107 0
M  V30 1515 H 145.457 -1.95897 -4.88807 0
M  V30 1516 H 147.948 -1.77238 -3.33759 0
M  V30 1517 H 148.261 -4.16486 -6.50968 0
M  V30 1518 H 146.606 -3.73971 -5.85808 0
M  V30 1519 H 149.797 -2.26948 -4.09405 0
M  V30 1520 H 149.97 -3.36027 -5.54066 0
M  V30 1521 N 143.376 1.44774 -0.622745 0
M  V30 1522 C 144.286 2.34433 0.0886031 0
M  V30 1523 C 145.302 1.52131 0.844529 0
M  V30 1524 O 146.478 1.84886 0.798691 0
M  V30 1525 C 143.543 3.29986 1.0635 0
M  V30 1526 C 142.604 4.28195 0.307873 0
M  V30 1527 C 141.837 5.19183 1.23633 0
M  V30 1528 O 142.06 5.13918 2.47476 0
M  V30 1529 O 140.994 5.97515 0.725189 0
M  V30 1530 H 144.82 2.96693 -0.648599 0
M  V30 1531 H 142.405 1.44408 -0.382957 0
M  V30 1532 H 144.287 3.88825 1.6246 0
M  V30 1533 H 142.962 2.70269 1.78146 0
M  V30 1534 H 141.869 3.72927 -0.296064 0
M  V30 1535 H 143.202 4.90808 -0.3699 0
M  V30 1536 N 144.854 0.36279 1.53368 0
M  V30 1537 C 146.265 -0.117022 1.86333 0
M  V30 1538 C 146.616 -1.48397 1.28347 0
M  V30 1539 O 145.741 -2.07787 0.604428 0
M  V30 1540 C 146.336 -0.21912 3.38091 0
M  V30 1541 C 144.895 -0.643184 3.70864 0
M  V30 1542 C 144.042 0.211318 2.76494 0
M  V30 1543 H 146.993 0.581687 1.47655 0
M  V30 1544 H 147.014 -1.04319 3.6592 0
M  V30 1545 H 146.526 0.775902 3.80265 0
M  V30 1546 H 144.627 -1.64654 3.34245 0
M  V30 1547 H 144.74 -0.41973 4.77258 0
M  V30 1548 H 143.104 -0.319367 2.5269 0
M  V30 1549 H 143.887 1.20383 3.21501 0
M  V30 1550 N 146.332 -1.57332 0.0918853 0
M  V30 1551 C 147.295 -2.12708 -0.85369 0
M  V30 1552 C 148.295 -1.05561 -1.213 0
M  V30 1553 O 149.485 -1.31461 -1.14296 0
M  V30 1554 C 146.617 -2.64503 -2.15061 0
M  V30 1555 H 147.81 -2.97573 -0.3729 0
M  V30 1556 H 145.363 -1.55509 -0.157072 0
M  V30 1557 H 146.098 -1.83149 -2.67632 0
M  V30 1558 H 145.883 -3.4284 -1.90272 0
M  V30 1559 H 147.373 -3.07351 -2.82711 0
M  V30 1560 N 147.81 0.181792 -1.56548 0
M  V30 1561 C 149.038 0.915947 -1.85521 0
M  V30 1562 C 149.453 1.76282 -0.676016 0
M  V30 1563 O 148.81 1.79012 0.355077 0
M  V30 1564 C 148.861 1.80126 -3.13427 0
M  V30 1565 O 148.582 0.988562 -4.26801 0
M  V30 1566 C 150.083 2.64597 -3.55673 0
M  V30 1567 H 147.303 0.26661 -0.61576 0
M  V30 1568 H 149.847 0.185039 -2.03661 0
M  V30 1569 H 148.002 2.48563 -2.97145 0
M  V30 1570 H 148.416 1.59308 -4.99721 0
M  V30 1571 H 149.89 3.2235 -4.48101 0
M  V30 1572 H 150.367 3.38958 -2.79292 0
M  V30 1573 H 150.973 2.0151 -3.74532 0
M  V30 1574 N 149.288 1.51039 0.449983 0
M  V30 1575 C 150.537 1.62317 1.19733 0
M  V30 1576 C 150.85 0.339101 1.92638 0
M  V30 1577 O 152.056 0.331069 2.69474 0
M  V30 1578 C 150.512 2.86608 2.17678 0
M  V30 1579 C 150.12 4.21972 1.50479 0
M  V30 1580 C 151.864 3.07239 2.92924 0
M  V30 1581 C 149.771 5.37426 2.46834 0
M  V30 1582 H 148.701 0.604532 0.450619 0
M  V30 1583 H 151.352 1.77494 0.465625 0
M  V30 1584 H 149.734 2.65037 2.94231 0
M  V30 1585 H 150.908 4.53878 0.795716 0
M  V30 1586 H 149.223 4.07117 0.874344 0
M  V30 1587 H 151.82 3.90668 3.65079 0
M  V30 1588 H 152.163 2.19807 3.5354 0
M  V30 1589 H 152.696 3.29091 2.23481 0
M  V30 1590 H 149.435 6.27079 1.90926 0
M  V30 1591 H 148.955 5.09912 3.15832 0
M  V30 1592 H 150.634 5.68862 3.08228 0
M  V30 1593 N 150.766 -0.704594 1.40972 0
M  V30 1594 C 152.182 -1.01406 1.23244 0
M  V30 1595 C 152.382 -2.01169 0.115399 0
M  V30 1596 O 151.438 -2.47021 -0.523147 0
M  V30 1597 C 152.751 -1.54728 2.57836 0
M  V30 1598 C 154.299 -1.66658 2.64942 0
M  V30 1599 C 154.774 -2.23383 3.9983 0
M  V30 1600 N 156.265 -2.30756 4.01629 0
M  V30 1601 C 157 -2.75655 5.02794 0
M  V30 1602 N 156.496 -3.20225 6.14352 0
M  V30 1603 N 158.289 -2.75138 4.90159 0
M  V30 1604 H 150.44 -0.0435285 2.12355 0
M  V30 1605 H 152.703 -0.0818951 0.944456 0
M  V30 1606 H 152.409 -0.888832 3.40283 0
M  V30 1607 H 152.283 -2.53084 2.79693 0
M  V30 1608 H 154.67 -2.31617 1.8286 0
M  V30 1609 H 154.751 -0.668717 2.46904 0
M  V30 1610 H 154.395 -1.59043 4.82357 0
M  V30 1611 H 154.325 -3.23904 4.15203 0
M  V30 1612 H 156.816 -1.99291 3.21079 0
M  V30 1613 H 157.129 -3.53084 6.87424 0
M  V30 1614 H 155.474 -3.18156 6.17901 0
M  V30 1615 H 158.665 -2.39661 4.02095 0
M  V30 1616 H 158.838 -3.09812 5.6914 0
M  V30 1617 N 152.244 -1.26651 -0.937939 0
M  V30 1618 C 153.521 -1.0313 -1.66204 0
M  V30 1619 C 153.901 0.437256 -2.06522 0
M  V30 1620 O 153.249 1.41831 -1.79154 0
M  V30 1621 C 153.459 -1.98314 -2.87181 0
M  V30 1622 C 154.807 -2.27107 -3.58758 0
M  V30 1623 O 155.831 -1.96205 -2.97291 0
M  V30 1624 O 154.69 -2.79736 -4.69479 0
M  V30 1625 H 151.784 -0.392384 -0.727986 0
M  V30 1626 H 154.33 -1.37874 -0.989382 0
M  V30 1627 H 153.102 -2.97399 -2.54302 0
M  V30 1628 H 152.725 -1.64068 -3.6217 0
M  V30 1629 N 153.722 1.14298 -1.08507 0
M  V30 1630 C 155.138 1.37347 -0.812901 0
M  V30 1631 C 155.338 1.93052 0.577325 0
M  V30 1632 O 154.394 2.14389 1.33393 0
M  V30 1633 C 155.707 2.33359 -1.89642 0
M  V30 1634 C 157.255 2.46996 -1.92255 0
M  V30 1635 C 157.73 3.46309 -2.99724 0
M  V30 1636 N 159.221 3.53853 -2.98902 0
M  V30 1637 C 159.956 4.3055 -3.787 0
M  V30 1638 N 159.452 5.10482 -4.6838 0
M  V30 1639 N 161.245 4.25757 -3.66998 0
M  V30 1640 H 153.396 0.764867 -1.9815 0
M  V30 1641 H 155.659 0.398966 -0.859959 0
M  V30 1642 H 155.365 1.99565 -2.89597 0
M  V30 1643 H 155.239 3.33274 -1.76659 0
M  V30 1644 H 157.626 2.80081 -0.929445 0
M  V30 1645 H 157.707 1.47039 -2.09316 0
M  V30 1646 H 157.351 3.13957 -3.99241 0
M  V30 1647 H 157.281 4.46049 -2.79907 0
M  V30 1648 H 159.772 2.96812 -2.33904 0
M  V30 1649 H 160.085 5.66284 -5.25873 0
M  V30 1650 H 158.43 5.09747 -4.72422 0
M  V30 1651 H 161.621 3.62383 -2.96304 0
M  V30 1652 H 161.794 4.85279 -4.29427 0
M  V30 1653 N 155.201 0.870884 1.31352 0
M  V30 1654 C 156.134 0.271983 2.26573 0
M  V30 1655 C 157.112 -0.599385 1.51149 0
M  V30 1656 O 158.296 -0.552605 1.80218 0
M  V30 1657 C 155.423 -0.614801 3.33073 0
M  V30 1658 C 154.469 0.185342 4.26097 0
M  V30 1659 S 155.302 1.56444 5.12138 0
M  V30 1660 C 156.458 0.683807 6.22153 0
M  V30 1661 H 156.691 1.07916 2.77023 0
M  V30 1662 H 154.224 0.669459 1.39132 0
M  V30 1663 H 156.182 -1.12074 3.94905 0
M  V30 1664 H 154.843 -1.39593 2.81376 0
M  V30 1665 H 154.036 -0.490771 5.01605 0
M  V30 1666 H 153.638 0.623415 3.68768 0
M  V30 1667 H 155.93 -0.10521 6.77418 0
M  V30 1668 H 156.873 1.41004 6.93919 0
M  V30 1669 H 157.281 0.250952 5.63942 0
M  V30 1670 N 156.679 -1.44442 0.630414 0
M  V30 1671 C 157.629 -2.27794 -0.0968103 0
M  V30 1672 C 158.613 -1.38624 -0.816834 0
M  V30 1673 O 159.805 -1.62438 -0.70306 0
M  V30 1674 C 156.934 -3.25929 -1.07819 0
M  V30 1675 C 156.02 -4.22588 -0.357826 0
M  V30 1676 N 156.411 -5.0207 0.613169 0
M  V30 1677 C 154.709 -4.41914 -0.602365 0
M  V30 1678 C 155.41 -5.72351 1.03871 0
M  V30 1679 N 154.386 -5.42287 0.377642 0
M  V30 1680 H 158.188 -2.86653 0.648621 0
M  V30 1681 H 155.702 -1.55871 0.455862 0
M  V30 1682 H 157.699 -3.84399 -1.61378 0
M  V30 1683 H 156.359 -2.68631 -1.82393 0
M  V30 1684 H 157.37 -5.08331 0.990947 0
M  V30 1685 H 154.047 -3.95714 -1.33103 0
M  V30 1686 H 155.437 -6.4619 1.84086 0
M  V30 1687 N 158.157 -0.370918 -1.53173 0
M  V30 1688 C 159.087 0.464847 -2.28826 0
M  V30 1689 C 160.068 1.07936 -1.31468 0
M  V30 1690 O 161.253 1.0956 -1.60344 0
M  V30 1691 C 158.383 1.60196 -3.08147 0
M  V30 1692 C 157.337 1.11443 -4.13237 0
M  V30 1693 C 156.663 2.3422 -4.80672 0
M  V30 1694 C 157.963 0.195384 -5.21934 0
M  V30 1695 H 159.657 -0.166329 -2.98938 0
M  V30 1696 H 157.203 -0.0814359 -1.4377 0
M  V30 1697 H 159.156 2.19332 -3.59822 0
M  V30 1698 H 157.88 2.26045 -2.35735 0
M  V30 1699 H 156.539 0.545727 -3.62515 0
M  V30 1700 H 156.187 2.98537 -4.04827 0
M  V30 1701 H 155.887 2.02269 -5.51689 0
M  V30 1702 H 157.411 2.94032 -5.35143 0
M  V30 1703 H 158.825 0.694375 -5.69079 0
M  V30 1704 H 157.222 -0.0335027 -6.00091 0
M  V30 1705 H 158.292 -0.760961 -4.78892 0
M  V30 1706 N 159.635 1.57281 -0.100228 0
M  V30 1707 C 160.882 1.94537 0.562268 0
M  V30 1708 C 161.21 0.982315 1.67871 0
M  V30 1709 O 160.465 0.00280936 1.957 0
M  V30 1710 C 160.764 3.38305 1.15259 0
M  V30 1711 C 160.43 4.50618 0.159409 0
M  V30 1712 C 159.092 4.81066 -0.113741 0
M  V30 1713 C 161.444 5.18615 -0.518461 0
M  V30 1714 C 158.772 5.76835 -1.07137 0
M  V30 1715 C 161.124 6.15412 -1.46459 0
M  V30 1716 C 159.788 6.44262 -1.74592 0
M  V30 1717 H 159.058 0.711863 0.205748 0
M  V30 1718 H 161.705 1.90679 -0.17715 0
M  V30 1719 H 160.01 3.38766 1.96836 0
M  V30 1720 H 161.707 3.64435 1.67297 0
M  V30 1721 H 158.297 4.2689 0.382491 0
M  V30 1722 H 162.481 4.95264 -0.320581 0
M  V30 1723 H 157.737 5.975 -1.29628 0
M  V30 1724 H 161.911 6.67194 -1.99564 0
M  V30 1725 H 159.538 7.1828 -2.48953 0
M  V30 1726 N 161.113 -0.173488 1.56642 0
M  V30 1727 C 162.343 -0.904781 1.85734 0
M  V30 1728 C 162.751 -1.76431 0.68328 0
M  V30 1729 O 162.094 -1.802 -0.356865 0
M  V30 1730 C 162.156 -1.83382 3.09211 0
M  V30 1731 C 161.82 -1.15411 4.42187 0
M  V30 1732 C 162.817 -0.520609 5.17287 0
M  V30 1733 C 160.502 -1.15151 4.88923 0
M  V30 1734 C 162.496 0.106412 6.37311 0
M  V30 1735 C 160.183 -0.520664 6.08878 0
M  V30 1736 C 161.181 0.107196 6.82916 0
M  V30 1737 O 160.869 0.728102 8.00596 0
M  V30 1738 H 160.601 -0.268408 0.62043 0
M  V30 1739 H 163.155 -0.179096 2.04618 0
M  V30 1740 H 161.385 -2.59976 2.86268 0
M  V30 1741 H 163.074 -2.43476 3.24768 0
M  V30 1742 H 163.84 -0.514606 4.82262 0
M  V30 1743 H 159.719 -1.62961 4.31236 0
M  V30 1744 H 163.263 0.597081 6.9504 0
M  V30 1745 H 159.16 -0.524242 6.43368 0
M  V30 1746 H 159.928 0.627138 8.16094 0
M  V30 1747 N 162.591 -1.51276 -0.441967 0
M  V30 1748 C 163.501 -1.75092 -1.56141 0
M  V30 1749 C 164.517 -0.634963 -1.62001 0
M  V30 1750 O 165.693 -0.916686 -1.79329 0
M  V30 1751 C 162.758 -1.86666 -2.92158 0
M  V30 1752 C 161.819 -3.10506 -2.96453 0
M  V30 1753 C 161.052 -3.21519 -4.25982 0
M  V30 1754 O 161.275 -2.38586 -5.18105 0
M  V30 1755 O 160.209 -4.14465 -4.36466 0
M  V30 1756 H 164.035 -2.70044 -1.38961 0
M  V30 1757 H 161.62 -1.35722 -0.624499 0
M  V30 1758 H 163.502 -1.96292 -3.72891 0
M  V30 1759 H 162.177 -0.949014 -3.09476 0
M  V30 1760 H 161.084 -3.06363 -2.14692 0
M  V30 1761 H 162.417 -4.01945 -2.84079 0
M  V30 1762 N 164.069 0.697108 -1.41344 0
M  V30 1763 C 165.019 1.80313 -1.39539 0
M  V30 1764 C 166.003 1.58618 -0.270001 0
M  V30 1765 O 167.195 1.69477 -0.510551 0
M  V30 1766 C 164.324 3.18606 -1.27848 0
M  V30 1767 C 163.41 3.46001 -2.45244 0
M  V30 1768 N 163.801 3.44103 -3.70711 0
M  V30 1769 C 162.099 3.76542 -2.39023 0
M  V30 1770 C 162.8 3.7036 -4.48563 0
M  V30 1771 N 161.776 3.90027 -3.78655 0
M  V30 1772 H 165.578 1.77207 -2.34468 0
M  V30 1773 H 163.092 0.897031 -1.35378 0
M  V30 1774 H 165.089 3.97833 -1.24637 0
M  V30 1775 H 163.749 3.22925 -0.339032 0
M  V30 1776 H 164.76 3.2452 -4.03618 0
M  V30 1777 H 161.437 3.88241 -1.53542 0
M  V30 1778 H 162.827 3.75042 -5.57488 0
M  V30 1779 N 165.547 1.27147 0.931209 0
M  V30 1780 C 166.51 1.09615 2.01289 0
M  V30 1781 C 167.51 0.0412581 1.60747 0
M  V30 1782 O 168.7 0.285545 1.71844 0
M  V30 1783 C 165.832 0.669447 3.34262 0
M  V30 1784 H 167.025 2.05662 2.18273 0
M  V30 1785 H 164.578 1.09885 1.11153 0
M  V30 1786 H 165.313 -0.292572 3.22978 0
M  V30 1787 H 165.098 1.43127 3.65044 0
M  V30 1788 H 166.588 0.568921 4.13706 0
M  V30 1789 N 167.025 -1.13721 1.09112 0
M  V30 1790 C 168.271 -1.85198 0.826414 0
M  V30 1791 C 168.604 -1.83129 -0.646319 0
M  V30 1792 O 167.879 -1.2671 -1.47563 0
M  V30 1793 C 168.162 -3.33507 1.35812 0
M  V30 1794 C 168.015 -3.44108 2.89672 0
M  V30 1795 C 169.334 -4.28838 0.989256 0
M  V30 1796 H 166.453 -0.67243 0.301675 0
M  V30 1797 H 169.095 -1.33499 1.35197 0
M  V30 1798 H 167.245 -3.77666 0.911082 0
M  V30 1799 H 168.917 -3.08684 3.428 0
M  V30 1800 H 167.16 -2.85087 3.26967 0
M  V30 1801 H 167.831 -4.48388 3.21951 0
M  V30 1802 H 170.307 -3.92734 1.37475 0
M  V30 1803 H 169.183 -5.31051 1.38838 0
M  V30 1804 H 169.444 -4.4198 -0.102924 0
M  V30 1805 N 168.503 -0.877838 -1.30888 0
M  V30 1806 C 169.914 -0.544193 -1.78593 0
M  V30 1807 C 170.265 0.939301 -1.72254 0
M  V30 1808 O 169.39 1.7337 -1.29505 0
M  V30 1809 C 169.985 -0.98105 -3.24285 0
M  V30 1810 C 168.544 -0.698935 -3.69854 0
M  V30 1811 C 167.691 -1.168 -2.51502 0
M  V30 1812 H 170.642 -1.06278 -1.17859 0
M  V30 1813 H 170.663 -0.307009 -3.79259 0
M  V30 1814 H 170.175 -2.06079 -3.28866 0
M  V30 1815 H 168.276 0.369112 -3.70767 0
M  V30 1816 H 168.389 -1.28148 -4.61644 0
M  V30 1817 H 166.753 -0.587535 -2.47831 0
M  V30 1818 H 167.536 -2.25533 -2.58824 0
M  V30 1819 N 169.982 1.44106 -0.638065 0
M  V30 1820 C 170.912 2.33448 0.0494287 0
M  V30 1821 C 171.893 1.48606 0.827672 0
M  V30 1822 O 173.078 1.77308 0.792173 0
M  V30 1823 C 170.208 3.31771 1.02691 0
M  V30 1824 C 169.162 4.26485 0.359823 0
M  V30 1825 C 168.488 5.14729 1.44769 0
M  V30 1826 C 169.788 5.17056 -0.738296 0
M  V30 1827 H 171.482 2.91183 -0.696636 0
M  V30 1828 H 169.028 1.40014 -0.336456 0
M  V30 1829 H 170.981 3.93161 1.51666 0
M  V30 1830 H 169.705 2.7226 1.80395 0
M  V30 1831 H 168.364 3.66437 -0.10934 0
M  V30 1832 H 168.012 4.51566 2.21578 0
M  V30 1833 H 167.712 5.78913 1.00668 0
M  V30 1834 H 169.236 5.78991 1.93911 0
M  V30 1835 H 170.65 5.72342 -0.331354 0
M  V30 1836 H 169.047 5.89879 -1.10286 0
M  V30 1837 H 170.117 4.57652 -1.60258 0
M  V30 1838 N 171.46 0.379036 1.52974 0
M  V30 1839 C 172.423 -0.448865 2.24762 0
M  V30 1840 C 173.423 -0.998689 1.26027 0
M  V30 1841 O 174.613 -0.882313 1.50203 0
M  V30 1842 C 171.745 -1.62872 2.99476 0
M  V30 1843 H 172.938 0.179491 2.99362 0
M  V30 1844 H 170.491 0.13096 1.5575 0
M  V30 1845 H 171.226 -2.29479 2.29151 0
M  V30 1846 H 171.011 -1.24128 3.71934 0
M  V30 1847 H 172.501 -2.2151 3.5401 0
M  V30 1848 N 172.938 -1.57226 0.108567 0
M  V30 1849 C 174.184 -1.95121 -0.552761 0
M  V30 1850 C 174.517 -0.991345 -1.66991 0
M  V30 1851 O 173.792 -0.0267211 -1.94482 0
M  V30 1852 C 174.075 -3.43039 -1.09528 0
M  V30 1853 C 173.928 -4.49797 0.0177332 0
M  V30 1854 C 175.247 -3.92567 -1.98945 0
M  V30 1855 H 172.366 -0.709496 -0.199461 0
M  V30 1856 H 175.008 -1.89126 0.182011 0
M  V30 1857 H 173.158 -3.48279 -1.72146 0
M  V30 1858 H 174.83 -4.56661 0.652584 0
M  V30 1859 H 173.073 -4.284 0.682309 0
M  V30 1860 H 173.744 -5.50528 -0.402919 0
M  V30 1861 H 176.22 -3.89565 -1.46214 0
M  V30 1862 H 175.096 -4.96605 -2.33827 0
M  V30 1863 H 175.357 -3.32648 -2.91201 0
M  V30 1864 N 174.416 0.165178 -1.56732 0
M  V30 1865 C 175.693 0.908443 -1.73224 0
M  V30 1866 C 176.073 2.0013 -0.67165 0
M  V30 1867 O 175.421 2.26353 0.31253 0
M  V30 1868 C 175.631 1.46756 -3.16644 0
M  V30 1869 C 176.979 1.93809 -3.77787 0
M  V30 1870 O 178.003 1.56537 -3.1996 0
M  V30 1871 O 176.862 2.62486 -4.79336 0
M  V30 1872 H 173.956 0.428025 -0.707618 0
M  V30 1873 H 176.502 0.152526 -1.69013 0
M  V30 1874 H 175.274 0.68129 -3.85323 0
M  V30 1875 H 174.897 2.28749 -3.25207 0
M  V30 1876 N 175.894 1.51508 0.433938 0
M  V30 1877 C 177.14 1.64588 1.18484 0
M  V30 1878 C 177.473 0.362666 1.90784 0
M  V30 1879 O 176.748 -0.637892 1.83742 0
M  V30 1880 C 177.031 2.85149 2.19913 0
M  V30 1881 C 176.884 4.23456 1.51674 0
M  V30 1882 C 178.203 3.01227 3.20858 0
M  V30 1883 H 175.322 0.598994 0.429389 0
M  V30 1884 H 177.964 1.84002 0.473647 0
M  V30 1885 H 176.114 2.68729 2.80566 0
M  V30 1886 H 177.786 4.51552 0.943322 0
M  V30 1887 H 176.029 4.25998 0.819035 0
M  V30 1888 H 176.7 5.03812 2.2556 0
M  V30 1889 H 179.176 3.16382 2.70263 0
M  V30 1890 H 178.052 3.87141 3.89118 0
M  V30 1891 H 178.313 2.13447 3.8716 0
M  V30 1892 N 177.372 -0.689602 1.41712 0
M  V30 1893 C 178.597 -1.48329 1.44959 0
M  V30 1894 C 179.022 -1.8801 0.0581283 0
M  V30 1895 O 178.38 -1.55026 -0.940035 0
M  V30 1896 C 178.428 -2.71835 2.36935 0
M  V30 1897 O 177.532 -3.69549 1.8305 0
M  V30 1898 H 176.873 -0.446199 0.491734 0
M  V30 1899 H 179.403 -0.847127 1.86239 0
M  V30 1900 H 179.413 -3.20076 2.53013 0
M  V30 1901 H 178.088 -2.42291 3.38035 0
M  V30 1902 H 176.665 -3.2851 1.76452 0
M  V30 1903 N 178.85 -1.27639 -0.924453 0
M  V30 1904 C 179.797 -1.10644 -2.0255 0
M  V30 1905 C 180.767 -0.00658438 -1.66099 0
M  V30 1906 O 181.952 -0.16952 -1.90045 0
M  V30 1907 C 179.092 -0.76309 -3.36557 0
M  V30 1908 C 178.205 -1.94091 -3.85944 0
M  V30 1909 C 177.34 -1.53914 -5.08413 0
M  V30 1910 C 176.379 -2.68425 -5.50104 0
M  V30 1911 N 175.516 -2.28815 -6.63768 0
M  V30 1912 H 180.356 -2.04858 -2.16419 0
M  V30 1913 H 177.893 -1.01974 -1.06017 0
M  V30 1914 H 179.851 -0.544822 -4.13627 0
M  V30 1915 H 178.481 0.142102 -3.22487 0
M  V30 1916 H 177.533 -2.27162 -3.05125 0
M  V30 1917 H 178.845 -2.7998 -4.12811 0
M  V30 1918 H 177.999 -1.28231 -5.92994 0
M  V30 1919 H 176.738 -0.651391 -4.8333 0
M  V30 1920 H 175.743 -2.94819 -4.64071 0
M  V30 1921 H 176.968 -3.57826 -5.7718 0
M  V30 1922 H 174.914 -1.42495 -6.40337 0
M  V30 1923 H 174.831 -3.08242 -6.90306 0
M  V30 1924 H 176.099 -2.06387 -7.51681 0
M  V30 1925 N 180.328 1.1314 -1.09713 0
M  V30 1926 C 181.744 1.36477 -0.827423 0
M  V30 1927 C 181.944 1.93654 0.556817 0
M  V30 1928 O 181 2.15791 1.31112 0
M  V30 1929 C 182.313 2.31334 -1.92106 0
M  V30 1930 C 183.861 2.44943 -1.94864 0
M  V30 1931 C 184.336 3.4311 -3.0338 0
M  V30 1932 N 185.827 3.50662 -3.02639 0
M  V30 1933 C 186.562 4.2651 -3.83246 0
M  V30 1934 N 186.058 5.05485 -4.73768 0
M  V30 1935 N 187.851 4.2184 -3.71493 0
M  V30 1936 H 180.002 0.743807 -1.9895 0
M  V30 1937 H 182.265 0.389823 -0.864143 0
M  V30 1938 H 181.971 1.96483 -2.91698 0
M  V30 1939 H 181.845 3.31381 -1.80184 0
M  V30 1940 H 184.232 2.79079 -0.959099 0
M  V30 1941 H 184.313 1.4481 -2.10864 0
M  V30 1942 H 183.957 3.09704 -4.02549 0
M  V30 1943 H 183.887 4.43055 -2.84622 0
M  V30 1944 H 186.378 2.94315 -2.37039 0
M  V30 1945 H 186.691 5.60675 -5.3185 0
M  V30 1946 H 185.036 5.04708 -4.77802 0
M  V30 1947 H 188.227 3.5922 -3.00131 0
M  V30 1948 H 188.4 4.80697 -4.3455 0
M  V30 1949 N 181.806 0.884767 1.30421 0
M  V30 1950 C 182.769 0.356277 2.26414 0
M  V30 1951 C 183.769 -0.501124 1.52792 0
M  V30 1952 O 184.959 -0.30831 1.7145 0
M  V30 1953 C 182.091 -0.492316 3.37326 0
M  V30 1954 H 183.284 1.20389 2.74675 0
M  V30 1955 H 180.837 0.661607 1.41607 0
M  V30 1956 H 181.572 -1.36052 2.94381 0
M  V30 1957 H 181.357 0.121832 3.91911 0
M  V30 1958 H 182.847 -0.853871 4.08777 0
M  V30 1959 N 183.284 -1.43765 0.645699 0
M  V30 1960 C 184.214 -2.33471 -0.0370477 0
M  V30 1961 C 185.195 -1.49042 -0.819779 0
M  V30 1962 O 186.38 -1.77726 -0.782758 0
M  V30 1963 C 183.51 -3.32311 -1.0093 0
M  V30 1964 C 182.464 -4.2667 -0.337201 0
M  V30 1965 C 181.79 -5.1549 -1.42037 0
M  V30 1966 C 183.09 -5.16657 0.765706 0
M  V30 1967 H 184.784 -2.90809 0.712069 0
M  V30 1968 H 182.33 -1.39834 0.343876 0
M  V30 1969 H 184.283 -3.9396 -1.49578 0
M  V30 1970 H 183.007 -2.73213 -1.78948 0
M  V30 1971 H 181.666 -3.66374 0.128771 0
M  V30 1972 H 181.314 -4.52735 -2.1918 0
M  V30 1973 H 181.014 -5.79438 -0.975966 0
M  V30 1974 H 182.538 -5.80012 -1.90838 0
M  V30 1975 H 183.952 -5.72158 0.361702 0
M  V30 1976 H 182.349 -5.89286 1.13413 0
M  V30 1977 H 183.419 -4.56796 1.62683 0
M  V30 1978 N 184.763 -0.387143 -1.52771 0
M  V30 1979 C 185.726 0.436939 -2.24997 0
M  V30 1980 C 186.726 0.991991 -1.26555 0
M  V30 1981 O 187.916 0.874335 -1.50669 0
M  V30 1982 C 185.048 1.61281 -3.00335 0
M  V30 1983 H 186.241 -0.195365 -2.99263 0
M  V30 1984 H 183.794 -0.139218 -1.55679 0
M  V30 1985 H 184.529 2.2826 -2.30364 0
M  V30 1986 H 184.314 1.22154 -3.72587 0
M  V30 1987 H 185.804 2.19629 -3.5518 0
M  V30 1988 N 186.241 1.57166 -0.116904 0
M  V30 1989 C 187.489 1.94737 0.540533 0
M  V30 1990 C 187.81 1.00096 1.67349 0
M  V30 1991 O 187.08 0.0568854 1.95817 0
M  V30 1992 H 185.66 0.718981 0.202669 0
M  V30 1993 H 188.322 1.94017 -0.185353 0
M  V30 1994 H 187.418 2.97719 0.936483 0
M  V30 1995 N 187.719 -0.156864 1.56817 0
M  V30 1996 C 188.649 -1.19589 2.00551 0
M  V30 1997 C 189.63 -1.4536 0.883426 0
M  V30 1998 O 190.815 -1.56449 1.15054 0
M  V30 1999 C 187.945 -2.53143 2.37773 0
M  V30 2000 C 186.899 -2.41913 3.53075 0
M  V30 2001 C 186.225 -3.80088 3.76081 0
M  V30 2002 C 187.525 -1.91157 4.86062 0
M  V30 2003 H 189.219 -0.832293 2.87599 0
M  V30 2004 H 186.765 -0.398918 1.38364 0
M  V30 2005 H 188.718 -3.26047 2.66967 0
M  V30 2006 H 187.442 -2.91319 1.4765 0
M  V30 2007 H 186.101 -1.71462 3.24031 0
M  V30 2008 H 185.749 -4.15683 2.83225 0
M  V30 2009 H 185.449 -3.73439 4.53671 0
M  V30 2010 H 186.973 -4.54556 4.0769 0
M  V30 2011 H 188.387 -2.53846 5.14038 0
M  V30 2012 H 186.784 -1.95422 5.67389 0
M  V30 2013 H 187.854 -0.866673 4.77092 0
M  V30 2014 N 189.197 -1.51736 -0.425897 0
M  V30 2015 C 190.608 -1.5732 -1.00536 0
M  V30 2016 C 190.959 -0.403537 -1.92005 0
M  V30 2017 O 190.084 0.478256 -2.11049 0
M  V30 2018 C 190.679 -2.85119 -1.8301 0
M  V30 2019 C 189.238 -2.93236 -2.35987 0
M  V30 2020 C 188.385 -2.52098 -1.15508 0
M  V30 2021 H 191.336 -1.57348 -0.206739 0
M  V30 2022 H 191.357 -2.69526 -2.68581 0
M  V30 2023 H 190.869 -3.7023 -1.16411 0
M  V30 2024 H 188.97 -2.12581 -3.06007 0
M  V30 2025 H 189.083 -3.9713 -2.68001 0
M  V30 2026 H 187.447 -2.05558 -1.50393 0
M  V30 2027 H 188.23 -3.39565 -0.505014 0
M  V30 2028 N 190.675 0.682077 -1.42076 0
M  V30 2029 C 191.905 1.46844 -1.45329 0
M  V30 2030 C 192.313 1.89102 -0.0609328 0
M  V30 2031 O 191.656 1.58238 0.933082 0
M  V30 2032 C 191.718 2.75375 -2.31104 0
M  V30 2033 C 191.382 2.55238 -3.79081 0
M  V30 2034 C 192.379 2.20309 -4.70914 0
M  V30 2035 C 190.064 2.70459 -4.2327 0
M  V30 2036 C 192.058 2.00859 -6.04925 0
M  V30 2037 C 189.745 2.50624 -5.57343 0
M  V30 2038 C 190.743 2.15876 -6.47986 0
M  V30 2039 O 190.431 1.96227 -7.79583 0
M  V30 2040 H 190.163 0.4586 -0.496651 0
M  V30 2041 H 192.717 0.846131 -1.87162 0
M  V30 2042 H 190.947 3.40061 -1.84107 0
M  V30 2043 H 192.636 3.37231 -2.25898 0
M  V30 2044 H 193.402 2.08153 -4.38061 0
M  V30 2045 H 189.281 2.96485 -3.53012 0
M  V30 2046 H 192.825 1.7366 -6.75639 0
M  V30 2047 H 188.722 2.62375 -5.89771 0
M  V30 2048 H 189.49 2.10883 -7.90867 0
M  V30 2049 N 192.153 1.28127 0.917671 0
M  V30 2050 C 193.569 1.05749 1.19538 0
M  V30 2051 C 193.769 -0.202633 2.00479 0
M  V30 2052 O 192.825 -0.905382 2.3571 0
M  V30 2053 C 194.138 2.30273 1.93378 0
M  V30 2054 C 195.686 2.35412 2.06277 0
M  V30 2055 C 196.161 3.59692 2.83524 0
M  V30 2056 N 197.652 3.60309 2.91087 0
M  V30 2057 C 198.387 4.53147 3.51348 0
M  V30 2058 N 197.883 5.563 4.12919 0
M  V30 2059 N 199.676 4.40751 3.48849 0
M  V30 2060 H 191.827 2.09024 0.377184 0
M  V30 2061 H 194.09 0.919798 0.22951 0
M  V30 2062 H 193.796 3.22055 1.41328 0
M  V30 2063 H 193.67 2.36378 2.93947 0
M  V30 2064 H 196.057 1.4413 2.57508 0
M  V30 2065 H 196.138 2.33304 1.04895 0
M  V30 2066 H 195.782 4.51316 2.32973 0
M  V30 2067 H 195.712 3.59054 3.85211 0
M  V30 2068 H 198.203 2.85714 2.47338 0
M  V30 2069 H 198.516 6.2329 4.56869 0
M  V30 2070 H 196.861 5.60131 4.11435 0
M  V30 2071 H 200.052 3.59367 2.99955 0
M  V30 2072 H 200.225 5.13291 3.9552 0
M  V30 2073 N 193.631 -1.12557 1.10312 0
M  V30 2074 C 194.594 -2.16434 0.75424 0
M  V30 2075 C 195.594 -1.59278 -0.220685 0
M  V30 2076 O 196.784 -1.742 0.00230591 0
M  V30 2077 C 193.916 -3.40699 0.116987 0
M  V30 2078 H 195.109 -2.48811 1.67431 0
M  V30 2079 H 192.662 -1.27542 0.903475 0
M  V30 2080 H 193.397 -3.13921 -0.813877 0
M  V30 2081 H 193.182 -3.83459 0.818613 0
M  V30 2082 H 194.672 -4.17451 -0.111387 0
M  V30 2083 N 195.109 -0.891671 -1.2995 0
M  V30 2084 C 196.072 -0.36828 -2.26222 0
M  V30 2085 C 197.072 0.493014 -1.53056 0
M  V30 2086 O 198.262 0.299213 -1.71611 0
M  V30 2087 C 195.394 0.47442 -3.37583 0
M  V30 2088 H 196.587 -1.21844 -2.74033 0
M  V30 2089 H 194.14 -0.669107 -1.41254 0
M  V30 2090 H 194.875 1.34489 -2.95099 0
M  V30 2091 H 194.66 -0.142615 -3.91841 0
M  V30 2092 H 196.15 0.83218 -4.09224 0
M  V30 2093 N 196.587 1.43421 -0.653314 0
M  V30 2094 C 197.497 2.34568 0.0388565 0
M  V30 2095 C 198.513 1.53888 0.81207 0
M  V30 2096 O 199.689 1.86539 0.759294 0
M  V30 2097 C 196.754 3.32167 0.993269 0
M  V30 2098 C 195.815 4.28751 0.216977 0
M  V30 2099 C 195.048 5.21688 1.12593 0
M  V30 2100 O 195.271 5.19052 2.36519 0
M  V30 2101 O 194.205 5.98919 0.598284 0
M  V30 2102 H 198.031 2.95251 -0.711386 0
M  V30 2103 H 195.616 1.43564 -0.413502 0
M  V30 2104 H 197.498 3.92183 1.54176 0
M  V30 2105 H 196.173 2.73987 1.72374 0
M  V30 2106 H 195.08 3.72215 -0.375101 0
M  V30 2107 H 196.413 4.89913 -0.473924 0
M  V30 2108 N 198.065 0.39524 1.52563 0
M  V30 2109 C 199.314 -0.186321 2.00838 0
M  V30 2110 C 199.627 -1.47402 1.28577 0
M  V30 2111 O 200.833 -2.13599 1.67593 0
M  V30 2112 C 199.289 -0.382595 3.57861 0
M  V30 2113 C 198.897 0.892202 4.39026 0
M  V30 2114 C 200.641 -0.9202 4.14406 0
M  V30 2115 C 198.548 0.66388 5.87662 0
M  V30 2116 H 197.478 -0.0734041 0.750418 0
M  V30 2117 H 200.129 0.518552 1.76021 0
M  V30 2118 H 198.511 -1.14946 3.7895 0
M  V30 2119 H 199.685 1.66414 4.29701 0
M  V30 2120 H 198 1.35519 3.9373 0
M  V30 2121 H 200.597 -1.10683 5.23119 0
M  V30 2122 H 200.94 -1.89096 3.70875 0
M  V30 2123 H 201.473 -0.212751 3.97231 0
M  V30 2124 H 198.212 1.6058 6.35527 0
M  V30 2125 H 197.732 -0.0690193 5.9976 0
M  V30 2126 H 199.411 0.300699 6.46301 0
M  V30 2127 N 199.544 -1.57102 0.125237 0
M  V30 2128 C 200.792 -1.95021 -0.530198 0
M  V30 2129 C 201.113 -1.00982 -1.66816 0
M  V30 2130 O 200.383 -0.0672693 -1.95784 0
M  V30 2131 H 198.963 -0.720046 -0.198853 0
M  V30 2132 H 201.625 -1.93916 0.19564 0
M  V30 2133 H 200.721 -2.98211 -0.920681 0
M  V30 2134 N 201.022 0.148545 -1.56898 0
M  V30 2135 C 201.952 1.18524 -2.01182 0
M  V30 2136 C 202.933 1.4489 -0.891123 0
M  V30 2137 O 204.118 1.55836 -1.15882 0
M  V30 2138 C 201.248 2.51879 -2.39112 0
M  V30 2139 C 200.202 2.40038 -3.54353 0
M  V30 2140 C 199.528 3.78089 -3.78091 0
M  V30 2141 C 200.828 1.88577 -4.87069 0
M  V30 2142 H 202.522 0.817029 -2.88036 0
M  V30 2143 H 200.068 0.391575 -1.38574 0
M  V30 2144 H 202.021 3.24627 -2.68692 0
M  V30 2145 H 200.745 2.90532 -1.49193 0
M  V30 2146 H 199.404 1.69742 -3.24936 0
M  V30 2147 H 199.052 4.14175 -2.85426 0
M  V30 2148 H 198.752 3.71028 -4.55645 0
M  V30 2149 H 200.276 4.52387 -4.10095 0
M  V30 2150 H 201.69 2.51117 -5.15377 0
M  V30 2151 H 200.087 1.9241 -5.68417 0
M  V30 2152 H 201.157 0.84136 -4.77545 0
M  V30 2153 N 202.5 1.5196 0.417844 0
M  V30 2154 C 203.43 1.77634 1.51554 0
M  V30 2155 C 204.411 0.626918 1.58126 0
M  V30 2156 O 205.596 0.871632 1.7354 0
M  V30 2157 C 202.726 1.91911 2.8946 0
M  V30 2158 C 201.68 3.07463 2.97743 0
M  V30 2159 C 201.006 3.06951 4.37819 0
M  V30 2160 C 202.306 4.47082 2.70027 0
M  V30 2161 H 204 2.6955 1.3032 0
M  V30 2162 H 201.546 1.29706 0.625492 0
M  V30 2163 H 203.499 2.08455 3.6623 0
M  V30 2164 H 202.223 0.966598 3.11969 0
M  V30 2165 H 200.882 2.90656 2.23416 0
M  V30 2166 H 200.53 2.09438 4.57323 0
M  V30 2167 H 200.23 3.84556 4.44286 0
M  V30 2168 H 201.754 3.25613 5.16535 0
M  V30 2169 H 203.168 4.6414 3.36522 0
M  V30 2170 H 201.565 5.2654 2.87881 0
M  V30 2171 H 202.635 4.55777 1.65514 0
M  V30 2172 N 203.978 -0.674533 1.42435 0
M  V30 2173 C 205.224 -1.43671 1.43131 0
M  V30 2174 C 205.557 -1.94142 0.0476021 0
M  V30 2175 O 204.832 -1.70924 -0.928188 0
M  V30 2176 C 205.115 -2.63355 2.45594 0
M  V30 2177 C 204.968 -2.18514 3.93156 0
M  V30 2178 C 206.287 -3.65571 2.45043 0
M  V30 2179 H 203.406 -0.521077 0.521198 0
M  V30 2180 H 206.048 -0.766551 1.7385 0
M  V30 2181 H 204.198 -3.2053 2.19528 0
M  V30 2182 H 205.87 -1.66504 4.30202 0
M  V30 2183 H 204.113 -1.50086 4.07009 0
M  V30 2184 H 204.784 -3.04484 4.60428 0
M  V30 2185 H 207.26 -3.18113 2.68223 0
M  V30 2186 H 206.136 -4.46893 3.18713 0
M  V30 2187 H 206.397 -4.16716 1.47649 0
M  V30 2188 N 205.456 -1.28612 -0.910864 0
M  V30 2189 C 206.386 -1.15326 -2.03032 0
M  V30 2190 C 207.367 -0.0502924 -1.70026 0
M  V30 2191 O 208.552 -0.227797 -1.92859 0
M  V30 2192 C 205.682 -0.817343 -3.37545 0
M  V30 2193 C 204.636 -1.8754 -3.84724 0
M  V30 2194 C 203.962 -1.39305 -5.16235 0
M  V30 2195 C 205.262 -3.28244 -4.06267 0
M  V30 2196 H 206.956 -2.08975 -2.14406 0
M  V30 2197 H 204.502 -1.00612 -1.03021 0
M  V30 2198 H 206.455 -0.711151 -4.15356 0
M  V30 2199 H 205.179 0.154846 -3.26233 0
M  V30 2200 H 203.838 -1.97079 -3.09121 0
M  V30 2201 H 203.486 -0.409846 -5.01328 0
M  V30 2202 H 203.186 -2.10057 -5.48771 0
M  V30 2203 H 204.71 -1.30014 -5.96598 0
M  V30 2204 H 206.124 -3.21611 -4.74594 0
M  V30 2205 H 204.521 -3.96855 -4.5014 0
M  V30 2206 H 205.591 -3.72048 -3.10979 0
M  V30 2207 N 206.934 1.1197 -1.10907 0
M  V30 2208 C 207.897 2.16031 -0.765707 0
M  V30 2209 C 208.897 1.59393 0.212235 0
M  V30 2210 O 210.087 1.74196 -0.0115441 0
M  V30 2211 C 207.219 3.40632 -0.135053 0
M  V30 2212 H 208.412 2.47919 -1.68748 0
M  V30 2213 H 205.965 1.27061 -0.910226 0
M  V30 2214 H 206.7 3.14348 0.797218 0
M  V30 2215 H 206.485 3.8302 -0.838937 0
M  V30 2216 H 207.975 4.17505 0.0892469 0
M  V30 2217 N 208.412 0.89855 1.29475 0
M  V30 2218 C 209.64 0.539261 1.99749 0
M  V30 2219 C 210.055 -0.875716 1.67262 0
M  V30 2220 O 209.412 -1.57786 0.917049 0
M  V30 2221 C 209.463 0.72061 3.54245 0
M  V30 2222 O 209.184 2.07989 3.8558 0
M  V30 2223 C 210.685 0.366118 4.41786 0
M  V30 2224 H 207.905 0.207047 0.638258 0
M  V30 2225 H 210.449 1.20758 1.65039 0
M  V30 2226 H 208.604 0.0994862 3.87272 0
M  V30 2227 H 209.018 2.10841 4.80257 0
M  V30 2228 H 210.492 0.543848 5.49314 0
M  V30 2229 H 210.969 -0.696763 4.33638 0
M  V30 2230 H 211.575 0.964135 4.14228 0
M  V30 2231 N 209.89 -1.43072 0.660911 0
M  V30 2232 C 211.115 -2.06584 0.183805 0
M  V30 2233 C 211.54 -1.49257 -1.14472 0
M  V30 2234 O 210.898 -0.605528 -1.70889 0
M  V30 2235 C 210.946 -3.60418 0.114434 0
M  V30 2236 O 210.05 -4.01981 -0.921137 0
M  V30 2237 H 209.391 -0.656669 0.0983994 0
M  V30 2238 H 211.921 -1.83447 0.906006 0
M  V30 2239 H 211.931 -4.07946 -0.0663394 0
M  V30 2240 H 210.606 -4.01519 1.08422 0
M  V30 2241 H 209.183 -3.66029 -0.71253 0
M  V30 2242 N 211.368 -0.403325 -1.52352 0
M  V30 2243 C 212.596 0.174012 -2.06167 0
M  V30 2244 C 213.011 1.39347 -1.27388 0
M  V30 2245 O 212.368 1.79597 -0.324201 0
M  V30 2246 C 212.419 0.530223 -3.5759 0
M  V30 2247 O 212.14 -0.640806 -4.33388 0
M  V30 2248 C 213.641 1.16192 -4.27802 0
M  V30 2249 H 210.861 0.0229464 -0.670608 0
M  V30 2250 H 213.405 -0.572604 -1.9632 0
M  V30 2251 H 211.56 1.22673 -3.67464 0
M  V30 2252 H 211.974 -0.344851 -5.23365 0
M  V30 2253 H 213.448 1.36141 -5.34948 0
M  V30 2254 H 213.925 2.13335 -3.83907 0
M  V30 2255 H 214.531 0.505775 -4.22282 0
M  V30 2256 N 212.846 1.57033 -0.133567 0
M  V30 2257 C 214.094 1.953 0.519848 0
M  V30 2258 C 214.415 1.01866 1.66278 0
M  V30 2259 O 213.685 0.0776513 1.95746 0
M  V30 2260 H 212.265 0.721091 0.195032 0
M  V30 2261 H 214.927 1.93809 -0.205921 0
M  V30 2262 H 214.023 2.98695 0.904854 0
M  V30 2263 N 214.325 -0.140222 1.56975 0
M  V30 2264 C 215.572 -0.851687 1.83719 0
M  V30 2265 C 215.9 -1.80862 0.715485 0
M  V30 2266 O 215.155 -1.93464 -0.294956 0
M  V30 2267 C 215.454 -1.65386 3.16832 0
M  V30 2268 C 215.12 -0.843112 4.42947 0
M  V30 2269 C 213.782 -0.619464 4.77196 0
M  V30 2270 C 216.134 -0.276582 5.20466 0
M  V30 2271 C 213.462 0.181312 5.8642 0
M  V30 2272 C 215.814 0.51127 6.30531 0
M  V30 2273 C 214.478 0.745432 6.63325 0
M  V30 2274 H 213.748 -0.311654 0.672274 0
M  V30 2275 H 216.395 -0.115006 1.91154 0
M  V30 2276 H 214.7 -2.46084 3.04877 0
M  V30 2277 H 216.397 -2.20793 3.34741 0
M  V30 2278 H 212.987 -1.0275 4.16101 0
M  V30 2279 H 217.171 -0.436632 4.94376 0
M  V30 2280 H 212.427 0.372165 6.10266 0
M  V30 2281 H 216.601 0.957354 6.89788 0
M  V30 2282 H 214.228 1.36778 7.47794 0
M  V30 2283 N 215.803 -1.52179 -0.40978 0
M  V30 2284 C 217.052 -1.65434 -1.15388 0
M  V30 2285 C 217.365 -0.390056 -1.91671 0
M  V30 2286 O 218.571 -0.402399 -2.68501 0
M  V30 2287 C 217.027 -2.92279 -2.10003 0
M  V30 2288 C 216.635 -4.25813 -1.39239 0
M  V30 2289 C 218.379 -3.14897 -2.84675 0
M  V30 2290 C 216.286 -5.43782 -2.32498 0
M  V30 2291 H 215.216 -0.616267 -0.434432 0
M  V30 2292 H 217.867 -1.78666 -0.418401 0
M  V30 2293 H 216.249 -2.72744 -2.871 0
M  V30 2294 H 217.423 -4.55828 -0.675099 0
M  V30 2295 H 215.738 -4.09292 -0.766097 0
M  V30 2296 H 218.335 -4.0021 -3.54593 0
M  V30 2297 H 218.678 -2.29103 -3.47588 0
M  V30 2298 H 219.211 -3.34901 -2.14677 0
M  V30 2299 H 215.95 -6.3192 -1.74233 0
M  V30 2300 H 215.47 -5.18106 -3.02201 0
M  V30 2301 H 217.149 -5.76834 -2.93038 0
M  V30 2302 N 217.281 0.66697 -1.42791 0
M  V30 2303 C 218.244 1.76211 -1.46568 0
M  V30 2304 C 219.244 1.56896 -0.352196 0
M  V30 2305 O 220.434 1.63044 -0.613364 0
M  V30 2306 C 217.566 3.14935 -1.30494 0
M  V30 2307 H 218.759 1.74247 -2.44086 0
M  V30 2308 H 216.312 0.877342 -1.29354 0
M  V30 2309 H 217.047 3.2252 -0.339301 0
M  V30 2310 H 216.832 3.30359 -2.11199 0
M  V30 2311 H 218.322 3.94821 -1.36038 0
M  V30 2312 N 218.759 1.29093 0.90403 0
M  V30 2313 C 220.17 1.15186 1.46932 0
M  V30 2314 C 220.521 -0.254587 1.94541 0
M  V30 2315 O 219.646 -1.14972 1.83332 0
M  V30 2316 C 220.241 2.08492 2.67051 0
M  V30 2317 C 218.8 1.98621 3.19729 0
M  V30 2318 C 217.947 1.9967 1.92425 0
M  V30 2319 H 220.898 1.41641 0.715789 0
M  V30 2320 H 220.919 1.65461 3.42641 0
M  V30 2321 H 220.431 3.10847 2.3237 0
M  V30 2322 H 218.532 0.993389 3.59114 0
M  V30 2323 H 218.645 2.86068 3.8432 0
M  V30 2324 H 217.009 1.44208 2.09943 0
M  V30 2325 H 217.792 3.03721 1.60026 0
M  V30 2326 N 220.237 -1.11381 1.11499 0
M  V30 2327 C 221.485 -1.8277 0.862524 0
M  V30 2328 C 221.806 -1.85097 -0.613534 0
M  V30 2329 O 221.076 -1.32198 -1.4457 0
M  V30 2330 H 219.656 -0.676823 0.316101 0
M  V30 2331 H 222.318 -1.34816 1.4075 0
M  V30 2332 H 221.414 -2.86614 1.23527 0
M  V30 2333 N 221.715 -0.905404 -1.28997 0
M  V30 2334 C 222.961 -0.535039 -1.95615 0
M  V30 2335 C 223.294 0.917404 -1.71165 0
M  V30 2336 O 222.569 1.65123 -1.02785 0
M  V30 2337 C 222.852 -0.834918 -3.50287 0
M  V30 2338 C 222.705 -2.33948 -3.84172 0
M  V30 2339 C 224.024 -0.325318 -4.38896 0
M  V30 2340 H 221.143 -0.195861 -0.710498 0
M  V30 2341 H 223.785 -1.13313 -1.52513 0
M  V30 2342 H 221.935 -0.325904 -3.87131 0
M  V30 2343 H 223.607 -2.91847 -3.57243 0
M  V30 2344 H 221.85 -2.79789 -3.31513 0
M  V30 2345 H 222.521 -2.49987 -4.92149 0
M  V30 2346 H 224.997 -0.761256 -4.09077 0
M  V30 2347 H 223.873 -0.564295 -5.45992 0
M  V30 2348 H 224.134 0.774144 -4.35269 0
M  V30 2349 N 223.193 1.4272 -0.668489 0
M  V30 2350 C 224.47 1.95248 -0.117373 0
M  V30 2351 C 224.85 1.60919 1.36632 0
M  V30 2352 O 224.198 0.902095 2.09939 0
M  V30 2353 C 224.408 3.46927 -0.379806 0
M  V30 2354 C 225.756 4.23588 -0.292923 0
M  V30 2355 O 226.78 3.5482 -0.313204 0
M  V30 2356 O 225.639 5.46017 -0.229697 0
M  V30 2357 H 222.733 0.827 0.00079152 0
M  V30 2358 H 225.279 1.52581 -0.742783 0
M  V30 2359 H 224.051 3.65096 -1.40786 0
M  V30 2360 H 223.674 3.96627 0.277923 0
M  V30 2361 N 224.671 0.411399 1.52136 0
M  V30 2362 C 225.917 -0.163888 2.02137 0
M  V30 2363 C 226.25 -1.44597 1.29636 0
M  V30 2364 O 225.525 -1.90272 0.403353 0
M  V30 2365 C 225.808 -0.40927 3.57767 0
M  V30 2366 C 225.661 0.889643 4.40914 0
M  V30 2367 C 226.98 -1.19042 4.23694 0
M  V30 2368 H 224.099 -0.0580896 0.734707 0
M  V30 2369 H 226.741 0.54531 1.82007 0
M  V30 2370 H 224.891 -1.0134 3.7505 0
M  V30 2371 H 226.563 1.52575 4.35337 0
M  V30 2372 H 224.806 1.50011 4.07037 0
M  V30 2373 H 225.477 0.672314 5.4789 0
M  V30 2374 H 227.953 -0.678942 4.10524 0
M  V30 2375 H 226.829 -1.33086 5.32522 0
M  V30 2376 H 227.09 -2.21166 3.82803 0
M  V30 2377 N 226.149 -1.5696 0.141893 0
M  V30 2378 C 227.112 -2.15316 -0.785587 0
M  V30 2379 C 228.112 -1.09366 -1.1788 0
M  V30 2380 O 229.302 -1.35031 -1.10056 0
M  V30 2381 C 226.434 -2.71211 -2.06537 0
M  V30 2382 H 227.627 -2.98608 -0.278041 0
M  V30 2383 H 225.18 -1.5593 -0.107519 0
M  V30 2384 H 225.915 -1.91571 -2.6167 0
M  V30 2385 H 225.7 -3.4872 -1.79268 0
M  V30 2386 H 227.19 -3.16189 -2.72789 0
M  V30 2387 N 227.627 0.131896 -1.57047 0
M  V30 2388 C 228.876 0.84044 -1.83356 0
M  V30 2389 C 229.189 1.81646 -0.725535 0
M  V30 2390 O 230.395 2.57025 -0.874659 0
M  V30 2391 C 228.851 1.54528 -3.25037 0
M  V30 2392 C 228.459 0.610902 -4.43815 0
M  V30 2393 C 230.203 2.23972 -3.60606 0
M  V30 2394 C 228.11 1.31823 -5.76521 0
M  V30 2395 H 227.04 0.317599 -0.683847 0
M  V30 2396 H 229.691 0.0931561 -1.83263 0
M  V30 2397 H 228.073 2.33873 -3.19561 0
M  V30 2398 H 229.247 -0.148407 -4.60561 0
M  V30 2399 H 227.562 0.0241016 -4.16393 0
M  V30 2400 H 230.159 2.77558 -4.57018 0
M  V30 2401 H 230.502 3.01173 -2.87403 0
M  V30 2402 H 231.035 1.51529 -3.6781 0
M  V30 2403 H 227.774 0.587771 -6.52859 0
M  V30 2404 H 227.294 2.04987 -5.63685 0
M  V30 2405 H 228.973 1.855 -6.19838 0
M  V30 2406 N 229.106 1.52395 0.401703 0
M  V30 2407 C 230.352 1.67065 1.14966 0
M  V30 2408 C 230.685 0.403052 1.89971 0
M  V30 2409 O 229.96 -0.598774 1.85054 0
M  V30 2410 C 230.243 2.8975 2.13815 0
M  V30 2411 C 230.096 4.26578 1.42658 0
M  V30 2412 C 231.415 3.07965 3.14397 0
M  V30 2413 H 228.534 0.607968 0.416587 0
M  V30 2414 H 231.176 1.84965 0.434511 0
M  V30 2415 H 229.326 2.74619 2.74803 0
M  V30 2416 H 230.998 4.53451 0.847329 0
M  V30 2417 H 229.241 4.27639 0.72849 0
M  V30 2418 H 229.912 5.08483 2.14823 0
M  V30 2419 H 232.388 3.22043 2.63491 0
M  V30 2420 H 231.264 3.95308 3.80819 0
M  V30 2421 H 231.525 2.21611 3.82545 0
M  V30 2422 N 230.584 -0.659388 1.43143 0
M  V30 2423 C 231.531 -1.77249 1.47822 0
M  V30 2424 C 232.501 -1.62818 0.328558 0
M  V30 2425 O 233.686 -1.83151 0.534838 0
M  V30 2426 C 230.826 -3.15371 1.40126 0
M  V30 2427 C 229.939 -3.4098 2.65249 0
M  V30 2428 C 229.074 -4.68915 2.49584 0
M  V30 2429 C 228.113 -4.87608 3.70006 0
M  V30 2430 N 227.25 -6.06796 3.53189 0
M  V30 2431 H 232.09 -1.72584 2.42938 0
M  V30 2432 H 229.627 -0.842297 1.20598 0
M  V30 2433 H 231.585 -3.9521 1.33659 0
M  V30 2434 H 230.215 -3.19121 0.485964 0
M  V30 2435 H 229.267 -2.55282 2.8202 0
M  V30 2436 H 230.579 -3.50681 3.54717 0
M  V30 2437 H 229.733 -5.56871 2.4079 0
M  V30 2438 H 228.472 -4.61524 1.5763 0
M  V30 2439 H 227.477 -3.9809 3.79215 0
M  V30 2440 H 228.702 -4.96834 4.62961 0
M  V30 2441 H 226.648 -6.00549 2.63965 0
M  V30 2442 H 226.565 -6.17428 4.36255 0
M  V30 2443 H 227.833 -6.9739 3.48236 0
M  V30 2444 N 232.062 -1.29571 -0.897171 0
M  V30 2445 C 232.972 -1.16808 -2.03453 0
M  V30 2446 C 233.988 -0.0907471 -1.73763 0
M  V30 2447 O 235.164 -0.303312 -1.99103 0
M  V30 2448 C 232.229 -0.848264 -3.36163 0
M  V30 2449 C 231.29 -2.0097 -3.79354 0
M  V30 2450 C 230.523 -1.70505 -5.05731 0
M  V30 2451 O 230.746 -0.62718 -5.66941 0
M  V30 2452 O 229.68 -2.5538 -5.45036 0
M  V30 2453 H 233.506 -2.12325 -2.17144 0
M  V30 2454 H 231.091 -1.09047 -1.02123 0
M  V30 2455 H 232.973 -0.684581 -4.15802 0
M  V30 2456 H 231.648 0.0771071 -3.23608 0
M  V30 2457 H 230.555 -2.22863 -3.00471 0
M  V30 2458 H 231.888 -2.91636 -3.96496 0
M  V30 2459 N 233.54 1.10788 -1.12088 0
M  V30 2460 C 234.47 2.19083 -0.807755 0
M  V30 2461 C 235.451 1.6858 0.226859 0
M  V30 2462 O 236.636 1.93997 0.0888475 0
M  V30 2463 C 233.766 3.46344 -0.257576 0
M  V30 2464 C 232.72 4.101 -1.22483 0
M  V30 2465 C 232.046 5.32016 -0.535052 0
M  V30 2466 C 233.346 4.54236 -2.57811 0
M  V30 2467 H 235.04 2.45534 -1.71328 0
M  V30 2468 H 232.586 1.1801 -0.825205 0
M  V30 2469 H 234.539 4.21392 -0.0262679 0
M  V30 2470 H 233.263 3.19373 0.683278 0
M  V30 2471 H 231.922 3.37054 -1.44189 0
M  V30 2472 H 231.57 5.01319 0.410827 0
M  V30 2473 H 231.27 5.75625 -1.18024 0
M  V30 2474 H 232.794 6.09799 -0.312695 0
M  V30 2475 H 234.208 5.20575 -2.40155 0
M  V30 2476 H 232.605 5.08682 -3.18375 0
M  V30 2477 H 233.675 3.6734 -3.16528 0
M  V30 2478 N 235.018 0.912232 1.28515 0
M  V30 2479 C 236.266 0.543523 1.94654 0
M  V30 2480 C 236.587 -0.9155 1.72173 0
M  V30 2481 O 235.857 -1.64708 1.06058 0
M  V30 2482 H 234.437 0.198017 0.720277 0
M  V30 2483 H 237.099 1.16126 1.56527 0
M  V30 2484 H 236.195 0.736684 3.03281 0
M  V30 2485 N 236.496 -1.42363 0.676048 0
M  V30 2486 C 237.426 -2.33497 0.0124832 0
M  V30 2487 C 238.407 -1.50748 -0.787981 0
M  V30 2488 O 239.592 -1.79346 -0.744884 0
M  V30 2489 C 236.722 -3.34377 -0.938582 0
M  V30 2490 C 235.676 -4.27289 -0.246622 0
M  V30 2491 C 235.002 -5.18386 -1.31071 0
M  V30 2492 C 236.302 -5.14916 0.875125 0
M  V30 2493 H 237.996 -2.89233 0.773593 0
M  V30 2494 H 235.542 -1.39073 0.37346 0
M  V30 2495 H 237.495 -3.97044 -1.41188 0
M  V30 2496 H 236.219 -2.76947 -1.73113 0
M  V30 2497 H 234.878 -3.66018 0.206456 0
M  V30 2498 H 234.526 -4.57282 -2.09528 0
M  V30 2499 H 234.226 -5.81378 -0.852839 0
M  V30 2500 H 235.75 -5.83929 -1.78492 0
M  V30 2501 H 237.164 -5.71262 0.482983 0
M  V30 2502 H 235.561 -5.86747 1.25887 0
M  V30 2503 H 236.631 -4.53242 1.72335 0
M  V30 2504 N 237.974 -0.419461 -1.51915 0
M  V30 2505 C 239.199 0.154572 -2.06823 0
M  V30 2506 C 239.624 1.3722 -1.28656 0
M  V30 2507 O 238.982 1.78461 -0.319583 0
M  V30 2508 C 239.03 0.473172 -3.57482 0
M  V30 2509 O 238.134 1.56255 -3.81652 0
M  V30 2510 H 237.475 0.0096924 -0.663929 0
M  V30 2511 H 240.005 -0.595642 -1.95738 0
M  V30 2512 H 240.015 0.728825 -4.01438 0
M  V30 2513 H 238.69 -0.416873 -4.13805 0
M  V30 2514 H 237.267 1.29825 -3.49571 0
M  V30 2515 N 239.452 1.56882 -0.150215 0
M  V30 2516 C 240.863 1.82995 0.370076 0
M  V30 2517 C 241.214 1.06907 1.64515 0
M  V30 2518 O 240.339 0.315369 2.1409 0
M  V30 2519 C 240.934 3.31942 0.678208 0
M  V30 2520 C 239.493 3.58625 1.14301 0
M  V30 2521 C 238.64 2.76792 0.167778 0
M  V30 2522 H 241.591 1.54209 -0.374858 0
M  V30 2523 H 241.612 3.48272 1.53254 0
M  V30 2524 H 241.124 3.87294 -0.249991 0
M  V30 2525 H 239.225 3.08664 2.08704 0
M  V30 2526 H 239.338 4.67073 1.06676 0
M  V30 2527 H 237.702 2.45972 0.661037 0
M  V30 2528 H 238.485 3.34916 -0.754069 0
M  V30 2529 N 240.93 -0.123565 1.57115 0
M  V30 2530 C 242.155 -0.850398 1.89164 0
M  V30 2531 C 242.58 -1.7286 0.741688 0
M  V30 2532 O 241.938 -1.78665 -0.307958 0
M  V30 2533 C 241.986 -1.66353 3.19936 0
M  V30 2534 O 241.09 -2.77004 3.0552 0
M  V30 2535 H 240.431 -0.235454 0.620852 0
M  V30 2536 H 242.961 -0.107335 2.04318 0
M  V30 2537 H 242.971 -2.05372 3.52543 0
M  V30 2538 H 241.646 -1.01881 4.03228 0
M  V30 2539 H 240.223 -2.41221 2.84371 0
M  V30 2540 N 242.408 -1.52605 -0.393616 0
M  V30 2541 C 243.657 -1.66649 -1.13627 0
M  V30 2542 C 243.97 -0.410364 -1.91247 0
M  V30 2543 O 245.176 -0.430854 -2.68059 0
M  V30 2544 C 243.632 -2.9449 -2.06891 0
M  V30 2545 C 243.24 -4.27266 -1.34714 0
M  V30 2546 C 244.984 -3.17899 -2.81319 0
M  V30 2547 C 242.891 -5.46217 -2.26717 0
M  V30 2548 H 241.821 -0.62084 -0.427871 0
M  V30 2549 H 244.472 -1.791 -0.399428 0
M  V30 2550 H 242.854 -2.75774 -2.84191 0
M  V30 2551 H 244.028 -4.56518 -0.626714 0
M  V30 2552 H 242.343 -4.10081 -0.722643 0
M  V30 2553 H 244.94 -4.03949 -3.50328 0
M  V30 2554 H 245.283 -2.32777 -3.45139 0
M  V30 2555 H 245.816 -3.37159 -2.11113 0
M  V30 2556 H 242.555 -6.33733 -1.67521 0
M  V30 2557 H 242.075 -5.21283 -2.96689 0
M  V30 2558 H 243.754 -5.7991 -2.86903 0
M  V30 2559 N 243.887 0.651787 -1.4349 0
M  V30 2560 C 245.112 1.44434 -1.48841 0
M  V30 2561 C 245.537 1.8779 -0.107955 0
M  V30 2562 O 244.895 1.57464 0.898602 0
M  V30 2563 C 244.943 2.65458 -2.44059 0
M  V30 2564 O 244.047 3.64566 -1.92784 0
M  V30 2565 H 243.388 0.433005 -0.503391 0
M  V30 2566 H 245.918 0.797451 -1.88419 0
M  V30 2567 H 245.928 3.13255 -2.6141 0
M  V30 2568 H 244.603 2.33244 -3.4434 0
M  V30 2569 H 243.18 3.23716 -1.851 0
M  V30 2570 N 245.365 1.30045 0.890287 0
M  V30 2571 C 246.781 1.08261 1.17268 0
M  V30 2572 C 246.981 -0.160063 2.00863 0
M  V30 2573 O 246.037 -0.855181 2.37577 0
M  V30 2574 C 247.35 2.34323 1.8845 0
M  V30 2575 C 248.898 2.39735 2.01237 0
M  V30 2576 C 249.373 3.65625 2.7583 0
M  V30 2577 N 250.864 3.66402 2.83379 0
M  V30 2578 C 251.599 4.60498 3.41657 0
M  V30 2579 N 251.095 5.64933 4.01026 0
M  V30 2580 N 252.888 4.48051 3.39421 0
M  V30 2581 H 245.039 2.09777 0.332762 0
M  V30 2582 H 247.302 0.92446 0.209948 0
M  V30 2583 H 247.008 3.2498 1.34465 0
M  V30 2584 H 246.882 2.4256 2.88867 0
M  V30 2585 H 249.269 1.4956 2.54393 0
M  V30 2586 H 249.35 2.35476 0.999232 0
M  V30 2587 H 248.994 4.56156 2.23347 0
M  V30 2588 H 248.924 3.67144 3.77509 0
M  V30 2589 H 251.415 2.90896 2.41222 0
M  V30 2590 H 251.728 6.32841 4.43545 0
M  V30 2591 H 250.073 5.68732 3.99461 0
M  V30 2592 H 253.264 3.65649 2.92264 0
M  V30 2593 H 253.437 5.21565 3.84544 0
M  V30 2594 N 246.843 -1.10192 1.12674 0
M  V30 2595 C 248.089 -1.82475 0.884915 0
M  V30 2596 C 248.422 -1.85093 -0.58773 0
M  V30 2597 O 247.697 -1.3134 -1.43457 0
M  V30 2598 C 247.98 -3.29018 1.46353 0
M  V30 2599 C 247.833 -3.34718 3.00473 0
M  V30 2600 C 249.152 -4.25473 1.12519 0
M  V30 2601 H 246.271 -0.662492 0.322915 0
M  V30 2602 H 248.913 -1.2913 1.39375 0
M  V30 2603 H 247.063 -3.74576 1.03077 0
M  V30 2604 H 248.735 -2.97622 3.52447 0
M  V30 2605 H 246.978 -2.74541 3.35872 0
M  V30 2606 H 247.649 -4.37918 3.36053 0
M  V30 2607 H 250.125 -3.88161 1.499 0
M  V30 2608 H 249.001 -5.26365 1.55663 0
M  V30 2609 H 249.262 -4.42084 0.0377407 0
M  V30 2610 N 248.321 -0.919034 -1.28029 0
M  V30 2611 C 249.567 -0.555757 -1.95036 0
M  V30 2612 C 249.9 0.899198 -1.72128 0
M  V30 2613 O 249.175 1.64023 -1.04531 0
M  V30 2614 C 249.458 -0.872024 -3.49382 0
M  V30 2615 C 249.311 -2.3801 -3.81669 0
M  V30 2616 C 250.63 -0.37185 -4.38526 0
M  V30 2617 H 247.749 -0.203386 -0.708381 0
M  V30 2618 H 250.391 -1.14924 -1.51303 0
M  V30 2619 H 248.541 -0.366946 -3.86763 0
M  V30 2620 H 250.213 -2.9562 -3.54128 0
M  V30 2621 H 248.456 -2.83289 -3.28526 0
M  V30 2622 H 249.127 -2.55192 -4.8947 0
M  V30 2623 H 251.603 -0.804602 -4.08247 0
M  V30 2624 H 250.479 -0.622173 -5.45362 0
M  V30 2625 H 250.74 0.727934 -4.36066 0
M  V30 2626 N 249.799 1.42003 -0.683588 0
M  V30 2627 C 251.045 2.01712 -0.209825 0
M  V30 2628 C 251.378 1.53968 1.18353 0
M  V30 2629 O 250.653 0.745661 1.79639 0
M  V30 2630 C 250.936 3.59202 -0.254197 0
M  V30 2631 C 250.789 4.17102 -1.68363 0
M  V30 2632 C 252.108 4.38344 0.392709 0
M  V30 2633 H 249.227 0.732891 -0.0777189 0
M  V30 2634 H 251.869 1.68909 -0.87004 0
M  V30 2635 H 250.019 3.87278 0.307954 0
M  V30 2636 H 251.691 3.99946 -2.29871 0
M  V30 2637 H 249.934 3.72597 -2.22157 0
M  V30 2638 H 250.605 5.26249 -1.6663 0
M  V30 2639 H 253.081 4.16011 -0.0859162 0
M  V30 2640 H 251.957 5.47901 0.331063 0
M  V30 2641 H 252.218 4.16887 1.47164 0
M  V30 2642 N 251.277 0.427512 1.51691 0
M  V30 2643 C 252.225 -0.403359 2.29076 0
M  V30 2644 C 253.219 -1.02962 1.34518 0
M  V30 2645 O 254.425 -0.965715 1.51901 0
M  V30 2646 H 250.8 -0.148879 0.737115 0
M  V30 2647 H 252.771 0.270295 2.97173 0
M  V30 2648 C 251.52 -1.49763 3.13794 0
M  V30 2649 H 250.843 -1.02508 3.86435 0
M  V30 2650 H 252.283 -2.05244 3.71014 0
M  V30 2651 C 250.742 -2.47536 2.28533 0
M  V30 2652 O 251.272 -3.51848 1.93819 0
M  V30 2653 N 249.478 -2.18187 1.91945 0
M  V30 2654 H 249.025 -1.33389 2.20375 0
M  V30 2655 H 248.983 -2.83848 1.35195 0
M  V30 2656 N 252.755 -1.56801 0.158532 0
M  V30 2657 C 254.002 -1.9649 -0.489679 0
M  V30 2658 C 254.33 -1.04394 -1.6411 0
M  V30 2659 O 253.585 -0.0754401 -1.95555 0
M  V30 2660 C 253.884 -3.4235 -1.02623 0
M  V30 2661 C 253.55 -4.50899 0.00794526 0
M  V30 2662 C 252.212 -4.80312 0.292207 0
M  V30 2663 C 254.564 -5.16333 0.710584 0
M  V30 2664 C 251.892 -5.72461 1.28472 0
M  V30 2665 C 254.244 -6.09553 1.69199 0
M  V30 2666 C 252.908 -6.37339 1.98383 0
M  V30 2667 H 252.178 -0.719009 -0.179186 0
M  V30 2668 H 254.825 -1.8989 0.247798 0
M  V30 2669 H 253.13 -3.45838 -1.84128 0
M  V30 2670 H 254.827 -3.70393 -1.53656 0
M  V30 2671 H 251.417 -4.28015 -0.22379 0
M  V30 2672 H 255.601 -4.93732 0.504174 0
M  V30 2673 H 250.857 -5.92278 1.51714 0
M  V30 2674 H 255.031 -6.59327 2.24189 0
M  V30 2675 H 252.658 -7.08546 2.7544 0
M  V30 2676 N 254.233 0.115231 -1.57178 0
M  V30 2677 C 255.166 1.17166 -1.95825 0
M  V30 2678 C 256.144 1.39912 -0.828463 0
M  V30 2679 O 257.328 1.54004 -1.08697 0
M  V30 2680 C 254.455 2.52478 -2.25771 0
M  V30 2681 C 253.501 2.46136 -3.48309 0
M  V30 2682 S 254.334 1.89736 -5.0076 0
M  V30 2683 C 255.49 3.26713 -5.33863 0
M  V30 2684 H 255.723 0.842103 -2.85124 0
M  V30 2685 H 253.256 0.322136 -1.51002 0
M  V30 2686 H 255.214 3.30332 -2.43702 0
M  V30 2687 H 253.875 2.82609 -1.37079 0
M  V30 2688 H 253.068 3.45819 -3.66641 0
M  V30 2689 H 252.67 1.76404 -3.29784 0
M  V30 2690 H 254.962 4.22935 -5.29275 0
M  V30 2691 H 255.905 3.13205 -6.35065 0
M  V30 2692 H 256.313 3.25316 -4.61335 0
M  V30 2693 N 255.711 1.52812 0.385517 0
M  V30 2694 C 256.959 1.67694 1.12797 0
M  V30 2695 C 257.28 0.421115 1.90399 0
M  V30 2696 O 256.55 -0.564551 1.87589 0
M  V30 2697 H 255.13 0.618155 0.419396 0
M  V30 2698 H 257.792 1.89938 0.436972 0
M  V30 2699 H 256.888 2.52896 1.82894 0
M  V30 2700 N 257.189 -0.644168 1.43834 0
M  V30 2701 C 258.429 -1.41565 1.47441 0
M  V30 2702 C 258.793 -1.91743 0.0992723 0
M  V30 2703 O 259.994 -2.68798 0.0100192 0
M  V30 2704 C 258.265 -2.55902 2.49498 0
M  V30 2705 S 259.824 -3.44287 2.72051 0
M  V30 2706 H 256.642 -0.483118 0.521649 0
M  V30 2707 H 259.244 -0.747008 1.80666 0
M  V30 2708 H 257.948 -2.17327 3.48134 0
M  V30 2709 H 257.479 -3.27607 2.17801 0
M  V30 2710 H 259.494 -4.52927 2.0266 0
M  V30 2711 N 258.668 -1.30515 -0.883378 0
M  V30 2712 C 259.631 -1.1701 -1.97082 0
M  V30 2713 C 260.631 -0.10089 -1.60483 0
M  V30 2714 O 261.821 -0.349127 -1.70666 0
M  V30 2715 C 258.953 -0.793045 -3.31547 0
M  V30 2716 H 260.146 -2.13622 -2.10489 0
M  V30 2717 H 257.699 -1.13935 -1.06998 0
M  V30 2718 H 258.434 0.172499 -3.23841 0
M  V30 2719 H 258.219 -1.56576 -3.5948 0
M  V30 2720 H 259.709 -0.722073 -4.1131 0
M  V30 2721 N 260.146 1.09593 -1.13257 0
M  V30 2722 C 261.109 2.14359 -0.811358 0
M  V30 2723 C 262.109 1.59808 0.178377 0
M  V30 2724 O 263.299 1.74132 -0.0484911 0
M  V30 2725 C 260.431 3.40269 -0.207276 0
M  V30 2726 H 261.624 2.44284 -1.73969 0
M  V30 2727 H 259.177 1.25102 -0.936973 0
M  V30 2728 H 259.912 3.15969 0.73036 0
M  V30 2729 H 259.697 3.81154 -0.919992 0
M  V30 2730 H 261.187 4.176 0.000667944 0
M  V30 2731 N 261.624 0.925811 1.2754 0
M  V30 2732 C 262.587 0.428129 2.25166 0
M  V30 2733 C 263.587 -0.452261 1.54309 0
M  V30 2734 O 264.777 -0.253608 1.72344 0
M  V30 2735 C 261.909 -0.384749 3.38722 0
M  V30 2736 H 263.102 1.29066 2.70706 0
M  V30 2737 H 260.655 0.706323 1.3943 0
M  V30 2738 H 261.39 -1.26618 2.98561 0
M  V30 2739 H 261.175 0.246454 3.91325 0
M  V30 2740 H 262.665 -0.723389 4.11287 0
M  V30 2741 N 263.102 -1.41638 0.69111 0
M  V30 2742 C 264.035 -2.28183 -0.0274913 0
M  V30 2743 C 265.013 -1.41984 -0.792424 0
M  V30 2744 O 266.197 -1.71415 -0.784169 0
M  V30 2745 C 263.324 -3.22135 -1.04628 0
M  V30 2746 C 262.37 -4.24848 -0.375037 0
M  V30 2747 S 263.203 -5.28231 0.879321 0
M  V30 2748 C 264.359 -6.25748 -0.137983 0
M  V30 2749 H 264.592 -2.88782 0.706553 0
M  V30 2750 H 262.125 -1.46709 0.481222 0
M  V30 2751 H 264.083 -3.76797 -1.62894 0
M  V30 2752 H 262.744 -2.6064 -1.75287 0
M  V30 2753 H 261.937 -4.90837 -1.14433 0
M  V30 2754 H 261.539 -3.73758 0.134434 0
M  V30 2755 H 263.831 -6.70188 -0.992659 0
M  V30 2756 H 264.774 -7.06417 0.487867 0
M  V30 2757 H 265.182 -5.62363 -0.490762 0
M  V30 2758 N 264.58 -0.43555 -1.51462 0
M  V30 2759 C 265.528 0.391205 -2.29287 0
M  V30 2760 C 266.522 1.02247 -1.35062 0
M  V30 2761 O 267.728 0.957646 -1.52411 0
M  V30 2762 H 264.103 0.144968 -0.737895 0
M  V30 2763 H 266.074 -0.286051 -2.97026 0
M  V30 2764 C 264.823 1.48096 -3.14583 0
M  V30 2765 H 264.146 1.00457 -3.86973 0
M  V30 2766 H 265.586 2.03273 -3.72097 0
M  V30 2767 C 264.045 2.46321 -2.29843 0
M  V30 2768 O 264.575 3.50815 -1.95682 0
M  V30 2769 N 262.781 2.17166 -1.931 0
M  V30 2770 H 262.328 1.32218 -2.21079 0
M  V30 2771 H 262.286 2.83127 -1.36698 0
M  V30 2772 N 266.058 1.56714 -0.166846 0
M  V30 2773 C 267.021 2.16539 0.751232 0
M  V30 2774 C 268.021 1.11228 1.16125 0
M  V30 2775 O 269.211 1.36765 1.07894 0
M  V30 2776 C 266.343 2.74462 2.02196 0
M  V30 2777 H 267.536 2.99013 0.230499 0
M  V30 2778 H 265.089 1.56081 0.0826982 0
M  V30 2779 H 265.824 1.95709 2.58589 0
M  V30 2780 H 265.609 3.51527 1.73698 0
M  V30 2781 H 267.099 3.20489 2.67725 0
M  V30 2782 N 267.536 -0.106894 1.57237 0
M  V30 2783 C 268.466 -1.13148 2.04254 0
M  V30 2784 C 269.447 -1.42476 0.929224 0
M  V30 2785 O 270.632 -1.52709 1.19973 0
M  V30 2786 C 267.762 -2.4545 2.45706 0
M  V30 2787 C 266.716 -2.30558 3.60592 0
M  V30 2788 C 266.042 -3.67931 3.87983 0
M  V30 2789 C 267.342 -1.75597 4.91897 0
M  V30 2790 H 269.036 -0.740374 2.90101 0
M  V30 2791 H 266.582 -0.354696 1.39563 0
M  V30 2792 H 268.535 -3.17389 2.77205 0
M  V30 2793 H 267.259 -2.86475 1.56843 0
M  V30 2794 H 265.918 -1.61067 3.29322 0
M  V30 2795 H 265.566 -4.06462 2.96306 0
M  V30 2796 H 265.266 -3.58817 4.65322 0
M  V30 2797 H 266.79 -4.41356 4.21945 0
M  V30 2798 H 268.204 -2.37364 5.21854 0
M  V30 2799 H 266.601 -1.77272 5.73319 0
M  V30 2800 H 267.671 -0.714451 4.79608 0
M  V30 2801 N 269.014 -1.53014 -0.377408 0
M  V30 2802 C 270.262 -1.6829 -1.11906 0
M  V30 2803 C 270.583 -0.431206 -1.90173 0
M  V30 2804 O 269.853 0.554595 -1.87886 0
M  V30 2805 H 268.433 -0.620371 -0.416112 0
M  V30 2806 H 271.095 -1.90167 -0.426893 0
M  V30 2807 H 270.191 -2.53862 -1.8155 0
M  V30 2808 N 270.492 0.636531 -1.44174 0
M  V30 2809 C 271.72 1.42353 -1.50144 0
M  V30 2810 C 272.135 1.88389 -0.124575 0
M  V30 2811 O 271.492 1.6051 0.868489 0
M  V30 2812 C 271.543 2.64744 -2.46156 0
M  V30 2813 O 271.264 2.20629 -3.7849 0
M  V30 2814 C 272.765 3.57929 -2.61537 0
M  V30 2815 H 269.985 0.436752 -0.5094 0
M  V30 2816 H 272.529 0.778933 -1.89084 0
M  V30 2817 H 270.684 3.25307 -2.10366 0
M  V30 2818 H 271.098 2.99938 -4.30276 0
M  V30 2819 H 272.572 4.40428 -3.32757 0
M  V30 2820 H 273.049 4.06382 -1.66585 0
M  V30 2821 H 273.655 3.03238 -2.98206 0
M  V30 2822 N 271.97 1.30982 0.876444 0
M  V30 2823 C 272.933 1.18054 1.96459 0
M  V30 2824 C 273.933 0.109399 1.60427 0
M  V30 2825 O 275.123 0.358173 1.70478 0
M  V30 2826 C 272.255 0.810616 3.31122 0
M  V30 2827 H 273.448 2.14735 2.09354 0
M  V30 2828 H 271.001 1.145 1.06392 0
M  V30 2829 H 271.736 -0.155322 3.23928 0
M  V30 2830 H 271.521 1.58481 3.58645 0
M  V30 2831 H 273.011 0.743876 4.10921 0
M  V30 2832 N 273.449 -1.08991 1.13837 0
M  V30 2833 C 274.677 -1.85011 0.926202 0
M  V30 2834 C 275.092 -1.8135 -0.525127 0
M  V30 2835 O 274.449 -1.21287 -1.36366 0
M  V30 2836 C 274.5 -3.32802 1.41155 0
M  V30 2837 O 274.221 -3.36444 2.80601 0
M  V30 2838 C 275.722 -4.25649 1.23847 0
M  V30 2839 H 272.942 -0.584249 0.32999 0
M  V30 2840 H 275.486 -1.37688 1.51202 0
M  V30 2841 H 273.641 -3.77536 0.868631 0
M  V30 2842 H 274.055 -4.28657 3.02248 0
M  V30 2843 H 275.529 -5.27485 1.62675 0
M  V30 2844 H 276.006 -4.38828 0.18065 0
M  V30 2845 H 276.612 -3.86735 1.76964 0
M  V30 2846 N 274.927 -0.932562 -1.27047 0
M  V30 2847 C 275.875 -0.42603 -2.28665 0
M  V30 2848 C 276.869 0.49219 -1.62092 0
M  V30 2849 O 278.075 0.371355 -1.76128 0
M  V30 2850 H 274.45 -0.119213 -0.742491 0
M  V30 2851 H 276.421 -1.29579 -2.68797 0
M  V30 2852 C 275.17 0.301426 -3.46391 0
M  V30 2853 H 274.493 -0.39595 -3.97834 0
M  V30 2854 H 275.933 0.6202 -4.1944 0
M  V30 2855 C 274.392 1.51616 -3.00856 0
M  V30 2856 O 274.922 2.61476 -3.04948 0
M  V30 2857 N 273.128 1.36969 -2.56296 0
M  V30 2858 H 272.675 0.475873 -2.53166 0
M  V30 2859 H 272.633 2.18368 -2.26192 0
M  V30 2860 N 276.405 1.4127 -0.698611 0
M  V30 2861 C 277.635 2.05205 -0.239644 0
M  V30 2862 C 278.043 1.52684 1.11733 0
M  V30 2863 O 277.386 0.671222 1.70998 0
M  V30 2864 C 277.448 3.59289 -0.123126 0
M  V30 2865 C 277.112 4.34619 -1.41263 0
M  V30 2866 C 278.109 4.63701 -2.35111 0
M  V30 2867 C 275.794 4.73837 -1.66684 0
M  V30 2868 C 277.788 5.30966 -3.52639 0
M  V30 2869 C 275.475 5.40837 -2.84498 0
M  V30 2870 C 276.473 5.69329 -3.77298 0
M  V30 2871 O 276.161 6.34949 -4.93047 0
M  V30 2872 H 275.893 0.66723 -0.108537 0
M  V30 2873 H 278.447 1.81974 -0.952602 0
M  V30 2874 H 276.677 3.81272 0.645628 0
M  V30 2875 H 278.366 4.04797 0.299056 0
M  V30 2876 H 279.132 4.33882 -2.16729 0
M  V30 2877 H 275.011 4.51039 -0.953135 0
M  V30 2878 H 278.555 5.53121 -4.25091 0
M  V30 2879 H 274.452 5.70075 -3.02795 0
M  V30 2880 H 275.22 6.53445 -4.92902 0
M  V30 2881 N 277.883 0.443576 1.51229 0
M  V30 2882 C 279.129 -0.120975 2.02439 0
M  V30 2883 C 279.462 -1.41815 1.32674 0
M  V30 2884 O 278.737 -1.89373 0.443622 0
M  V30 2885 C 279.02 -0.333291 3.58554 0
M  V30 2886 C 278.873 0.982968 4.38928 0
M  V30 2887 C 280.192 -1.10028 4.26124 0
M  V30 2888 H 277.311 -0.0424923 0.735774 0
M  V30 2889 H 279.953 0.583794 1.80809 0
M  V30 2890 H 278.103 -0.933614 3.77115 0
M  V30 2891 H 279.775 1.61775 4.32003 0
M  V30 2892 H 278.018 1.58611 4.03763 0
M  V30 2893 H 278.689 0.788379 5.46341 0
M  V30 2894 H 281.165 -0.591711 4.11871 0
M  V30 2895 H 280.041 -1.21761 5.35225 0
M  V30 2896 H 280.302 -2.12996 3.87408 0
M  V30 2897 N 279.361 -1.56624 0.175154 0
M  V30 2898 C 280.777 -1.58571 -0.180966 0
M  V30 2899 C 280.977 -1.19065 -1.6256 0
M  V30 2900 O 280.033 -0.904044 -2.35761 0
M  V30 2901 C 281.346 -3.00522 0.103326 0
M  V30 2902 C 282.894 -3.12972 0.0418426 0
M  V30 2903 C 283.369 -4.57022 0.299175 0
M  V30 2904 N 284.86 -4.62541 0.247086 0
M  V30 2905 C 285.595 -5.71857 0.420318 0
M  V30 2906 N 285.091 -6.89717 0.652816 0
M  V30 2907 N 286.884 -5.60972 0.355957 0
M  V30 2908 H 279.035 -1.80589 1.11809 0
M  V30 2909 H 281.298 -0.837178 0.444788 0
M  V30 2910 H 281.004 -3.33916 1.10422 0
M  V30 2911 H 280.878 -3.72344 -0.603299 0
M  V30 2912 H 283.265 -2.79403 -0.949636 0
M  V30 2913 H 283.346 -2.43578 0.781238 0
M  V30 2914 H 282.99 -4.913 1.28788 0
M  V30 2915 H 282.92 -5.24579 -0.460876 0
M  V30 2916 H 285.411 -3.77829 0.0731895 0
M  V30 2917 H 285.724 -7.68911 0.774347 0
M  V30 2918 H 284.069 -6.91572 0.689476 0
M  V30 2919 H 287.26 -4.67773 0.174882 0
M  V30 2920 H 287.433 -6.46111 0.494388 0
M  V30 2921 N 280.839 0.0985539 -1.57292 0
M  V30 2922 C 281.802 1.10402 -2.00858 0
M  V30 2923 C 282.802 1.33146 -0.901593 0
M  V30 2924 O 283.992 1.29318 -1.16716 0
M  V30 2925 C 281.124 2.45394 -2.36632 0
M  V30 2926 H 282.317 0.729099 -2.90902 0
M  V30 2927 H 279.87 0.343495 -1.52479 0
M  V30 2928 H 280.605 2.87769 -1.49531 0
M  V30 2929 H 280.39 2.30235 -3.17387 0
M  V30 2930 H 281.88 3.17718 -2.71007 0
M  V30 2931 N 282.317 1.53212 0.369288 0
M  V30 2932 C 283.267 1.75769 1.45222 0
M  V30 2933 C 284.251 0.612136 1.48801 0
M  V30 2934 O 285.443 0.870674 1.54105 0
M  V30 2935 C 282.572 1.94769 2.82701 0
M  V30 2936 C 281.658 3.15315 2.83615 0
M  V30 2937 N 282.049 4.37295 2.54178 0
M  V30 2938 C 280.347 3.15962 3.14776 0
M  V30 2939 C 281.048 5.19015 2.62675 0
M  V30 2940 N 280.024 4.55142 2.97232 0
M  V30 2941 H 283.826 2.67691 1.2132 0
M  V30 2942 H 281.34 1.51787 0.577438 0
M  V30 2943 H 283.337 2.09056 3.60696 0
M  V30 2944 H 281.997 1.04073 3.07569 0
M  V30 2945 H 283.008 4.65091 2.27839 0
M  V30 2946 H 279.685 2.35144 3.44983 0
M  V30 2947 H 281.075 6.26305 2.43294 0
M  V30 2948 N 283.795 -0.628877 1.44509 0
M  V30 2949 C 285.206 -1.21054 1.42137 0
M  V30 2950 C 285.557 -1.95715 0.137881 0
M  V30 2951 O 284.682 -2.02554 -0.761645 0
M  V30 2952 C 285.277 -2.20189 2.57493 0
M  V30 2953 C 283.836 -2.73777 2.58308 0
M  V30 2954 C 282.983 -1.48813 2.33987 0
M  V30 2955 H 285.934 -0.41942 1.53057 0
M  V30 2956 H 285.955 -3.02833 2.30375 0
M  V30 2957 H 285.467 -1.6582 3.50892 0
M  V30 2958 H 283.568 -3.32142 1.68856 0
M  V30 2959 H 283.681 -3.19662 3.56865 0
M  V30 2960 H 282.045 -1.77024 1.83124 0
M  V30 2961 H 282.828 -0.963442 3.29504 0
M  V30 2962 N 285.273 -1.31445 -0.869486 0
M  V30 2963 C 286.236 -1.19094 -1.9583 0
M  V30 2964 C 287.236 -0.117906 -1.60367 0
M  V30 2965 O 288.426 -0.367208 -1.70286 0
M  V30 2966 C 285.558 -0.828165 -3.30688 0
M  V30 2967 H 286.751 -2.15842 -2.08212 0
M  V30 2968 H 284.304 -1.15063 -1.05784 0
M  V30 2969 H 285.039 0.138142 -3.24006 0
M  V30 2970 H 284.824 -1.6038 -3.578 0
M  V30 2971 H 286.314 -0.765658 -4.10521 0
M  V30 2972 N 286.751 1.08385 -1.14413 0
M  V30 2973 C 287.684 2.14642 -0.774871 0
M  V30 2974 C 288.662 1.60761 0.243876 0
M  V30 2975 O 289.846 1.88031 0.132883 0
M  V30 2976 C 286.973 3.38366 -0.150491 0
M  V30 2977 C 286.019 4.10997 -1.13945 0
M  V30 2978 S 286.852 4.63797 -2.67679 0
M  V30 2979 C 288.008 5.90808 -2.06631 0
M  V30 2980 H 288.241 2.45633 -1.67487 0
M  V30 2981 H 285.774 1.20498 -0.96538 0
M  V30 2982 H 287.732 4.09996 0.203334 0
M  V30 2983 H 286.393 3.05572 0.72694 0
M  V30 2984 H 285.586 4.99783 -0.65059 0
M  V30 2985 H 285.188 3.4528 -1.43727 0
M  V30 2986 H 287.48 6.62411 -1.4219 0
M  V30 2987 H 288.423 6.4439 -2.93542 0
M  V30 2988 H 288.831 5.4383 -1.51357 0
M  V30 2989 N 288.23 0.939286 1.26551 0
M  V30 2990 C 289.177 0.446088 2.26448 0
M  V30 2991 C 290.147 -0.493234 1.58608 0
M  V30 2992 O 291.332 -0.409857 1.86346 0
M  V30 2993 C 288.472 -0.284375 3.43926 0
M  V30 2994 C 287.585 0.690399 4.26448 0
M  V30 2995 C 286.72 -0.0610712 5.31165 0
M  V30 2996 C 285.759 0.905649 6.05363 0
M  V30 2997 N 284.896 0.186055 7.01853 0
M  V30 2998 H 289.736 1.30291 2.68008 0
M  V30 2999 H 287.273 0.65371 1.31776 0
M  V30 3000 H 289.231 -0.724313 4.10864 0
M  V30 3001 H 287.861 -1.10535 3.03285 0
M  V30 3002 H 286.913 1.24885 3.59316 0
M  V30 3003 H 288.225 1.42873 4.779 0
M  V30 3004 H 287.379 -0.56038 6.04106 0
M  V30 3005 H 286.118 -0.832297 4.80546 0
M  V30 3006 H 285.123 1.4161 5.3125 0
M  V30 3007 H 286.348 1.67685 6.58072 0
M  V30 3008 H 284.294 -0.566714 6.53548 0
M  V30 3009 H 284.211 0.863752 7.51049 0
M  V30 3010 H 285.479 -0.292221 7.78952 0
M  V30 3011 N 289.708 -1.40897 0.706093 0
M  V30 3012 C 290.671 -2.29131 0.0562841 0
M  V30 3013 C 291.671 -1.44901 -0.697166 0
M  V30 3014 O 292.861 -1.65926 -0.530484 0
M  V30 3015 C 289.993 -3.27957 -0.93043 0
M  V30 3016 H 291.186 -2.88091 0.833284 0
M  V30 3017 H 288.739 -1.4906 0.470192 0
M  V30 3018 H 289.474 -2.73997 -1.73482 0
M  V30 3019 H 289.259 -3.90124 -0.393166 0
M  V30 3020 H 290.749 -3.94049 -1.38256 0
M  V30 3021 N 291.186 -0.45159 -1.50991 0
M  V30 3022 C 292.116 0.342898 -2.30969 0
M  V30 3023 C 293.097 1.00815 -1.37005 0
M  V30 3024 O 294.282 1.00907 -1.65926 0
M  V30 3025 C 291.412 1.43637 -3.16205 0
M  V30 3026 C 290.366 0.893818 -4.18563 0
M  V30 3027 C 289.692 2.08411 -4.92411 0
M  V30 3028 C 290.992 -0.0815568 -5.22236 0
M  V30 3029 H 292.686 -0.324556 -2.97636 0
M  V30 3030 H 290.232 -0.157531 -1.43136 0
M  V30 3031 H 292.185 1.9995 -3.70942 0
M  V30 3032 H 290.909 2.13232 -2.47386 0
M  V30 3033 H 289.568 0.352798 -3.64898 0
M  V30 3034 H 289.216 2.76658 -4.20082 0
M  V30 3035 H 288.916 1.72741 -5.61636 0
M  V30 3036 H 290.44 2.65251 -5.49976 0
M  V30 3037 H 291.854 0.391742 -5.7196 0
M  V30 3038 H 290.251 -0.351551 -5.99069 0
M  V30 3039 H 291.321 -1.01374 -4.74185 0
M  V30 3040 N 292.664 1.56529 -0.183458 0
M  V30 3041 C 293.91 1.97537 0.459036 0
M  V30 3042 C 294.243 1.06989 1.62071 0
M  V30 3043 O 293.518 0.11948 1.94133 0
M  V30 3044 C 293.801 3.47874 0.930368 0
M  V30 3045 C 293.654 4.492 -0.232317 0
M  V30 3046 C 294.973 4.01612 1.79989 0
M  V30 3047 H 292.092 0.718204 0.165383 0
M  V30 3048 H 294.734 1.88042 -0.272038 0
M  V30 3049 H 292.884 3.56095 1.55333 0
M  V30 3050 H 294.556 4.53027 -0.86972 0
M  V30 3051 H 292.799 4.24657 -0.885928 0
M  V30 3052 H 293.47 5.51823 0.139796 0
M  V30 3053 H 295.946 3.96097 1.27461 0
M  V30 3054 H 294.822 5.07195 2.09867 0
M  V30 3055 H 295.083 3.46163 2.74998 0
M  V30 3056 N 294.142 -0.090211 1.57342 0
M  V30 3057 C 295.388 -0.793982 1.86611 0
M  V30 3058 C 295.721 -1.78142 0.773252 0
M  V30 3059 O 294.996 -1.93271 -0.218304 0
M  V30 3060 C 295.279 -1.51839 3.26523 0
M  V30 3061 C 295.132 -0.548609 4.46442 0
M  V30 3062 C 296.451 -2.46779 3.64401 0
M  V30 3063 H 293.57 -0.287186 0.678744 0
M  V30 3064 H 296.212 -0.0575076 1.89913 0
M  V30 3065 H 294.362 -2.14617 3.23839 0
M  V30 3066 H 296.034 0.0725513 4.61243 0
M  V30 3067 H 294.277 0.137614 4.33582 0
M  V30 3068 H 294.948 -1.09271 5.41076 0
M  V30 3069 H 297.424 -1.94089 3.68061 0
M  V30 3070 H 296.3 -2.94479 4.63221 0
M  V30 3071 H 296.561 -3.30758 2.93346 0
M  V30 3072 N 295.62 -1.53406 -0.361157 0
M  V30 3073 C 296.86 -1.71507 -1.11197 0
M  V30 3074 C 297.224 -0.459337 -1.86425 0
M  V30 3075 O 298.425 -0.517102 -2.63779 0
M  V30 3076 C 296.696 -2.93307 -2.0422 0
M  V30 3077 S 298.255 -3.32135 -2.86761 0
M  V30 3078 H 295.073 -0.603448 -0.375995 0
M  V30 3079 H 297.675 -1.91516 -0.392642 0
M  V30 3080 H 296.379 -3.82891 -1.47724 0
M  V30 3081 H 295.91 -2.75712 -2.80618 0
M  V30 3082 H 297.925 -2.84493 -4.06544 0
M  V30 3083 N 297.098 0.621204 -1.44841 0
M  V30 3084 C 298.347 1.37658 -1.47422 0
M  V30 3085 C 298.66 1.95264 -0.114629 0
M  V30 3086 O 299.866 2.71494 -0.0180199 0
M  V30 3087 C 298.322 2.49285 -2.59586 0
M  V30 3088 C 297.93 1.98149 -4.01797 0
M  V30 3089 C 299.674 3.26409 -2.71399 0
M  V30 3090 C 297.581 3.07178 -5.05367 0
M  V30 3091 H 296.511 0.517344 -0.548517 0
M  V30 3092 H 299.162 0.667257 -1.70938 0
M  V30 3093 H 297.544 3.22839 -2.29328 0
M  V30 3094 H 298.718 1.31395 -4.41669 0
M  V30 3095 H 297.033 1.33812 -3.94314 0
M  V30 3096 H 299.63 4.07706 -3.45948 0
M  V30 3097 H 299.973 3.76535 -1.77559 0
M  V30 3098 H 300.506 2.5995 -3.01116 0
M  V30 3099 H 297.245 2.61985 -6.00869 0
M  V30 3100 H 296.765 3.72542 -4.70077 0
M  V30 3101 H 298.444 3.71789 -5.29511 0
M  V30 3102 N 298.576 1.31904 0.862503 0
M  V30 3103 C 299.486 1.22161 2.00285 0
M  V30 3104 C 300.502 0.136785 1.73462 0
M  V30 3105 O 301.678 0.355994 1.98229 0
M  V30 3106 C 298.743 0.937093 3.33796 0
M  V30 3107 C 297.804 2.10957 3.73893 0
M  V30 3108 C 297.037 1.83853 5.01033 0
M  V30 3109 O 297.26 0.777274 5.65079 0
M  V30 3110 O 296.194 2.69741 5.38074 0
M  V30 3111 H 300.02 2.18008 2.11439 0
M  V30 3112 H 297.605 1.11716 0.991957 0
M  V30 3113 H 299.487 0.794583 4.13841 0
M  V30 3114 H 298.162 0.00871894 3.23699 0
M  V30 3115 H 297.069 2.30752 2.94456 0
M  V30 3116 H 298.402 3.02046 3.88625 0
M  V30 3117 N 300.054 -1.07777 1.14986 0
M  V30 3118 C 300.984 -2.16865 0.865557 0
M  V30 3119 C 301.965 -1.69123 -0.182083 0
M  V30 3120 O 303.15 -1.94164 -0.0373815 0
M  V30 3121 C 300.28 -3.45539 0.349313 0
M  V30 3122 C 299.234 -4.06708 1.33313 0
M  V30 3123 C 298.56 -5.30411 0.675918 0
M  V30 3124 C 299.86 -4.47241 2.69764 0
M  V30 3125 H 301.554 -2.40905 1.77778 0
M  V30 3126 H 299.1 -1.15781 0.856203 0
M  V30 3127 H 301.053 -4.21174 0.137983 0
M  V30 3128 H 299.777 -3.21072 -0.598362 0
M  V30 3129 H 298.436 -3.33112 1.53075 0
M  V30 3130 H 298.084 -5.02232 -0.277767 0
M  V30 3131 H 297.784 -5.72293 1.33244 0
M  V30 3132 H 299.308 -6.08755 0.474262 0
M  V30 3133 H 300.722 -5.14025 2.53873 0
M  V30 3134 H 299.119 -5.00062 3.3175 0
M  V30 3135 H 300.189 -3.58818 3.26156 0
M  V30 3136 N 301.532 -0.945985 -1.26051 0
M  V30 3137 C 302.772 -0.603665 -1.95282 0
M  V30 3138 C 303.136 0.842377 -1.72534 0
M  V30 3139 O 304.337 1.29387 -2.35611 0
M  V30 3140 C 302.608 -0.942292 -3.44754 0
M  V30 3141 S 304.167 -0.711242 -4.32997 0
M  V30 3142 H 300.985 -0.222176 -0.675395 0
M  V30 3143 H 303.587 -1.21832 -1.52896 0
M  V30 3144 H 302.291 -1.99203 -3.58812 0
M  V30 3145 H 301.822 -0.317546 -3.92116 0
M  V30 3146 H 303.837 0.422221 -4.944 0
M  V30 3147 N 303.011 1.40521 -0.713556 0
M  V30 3148 C 304.236 2.05759 -0.26035 0
M  V30 3149 C 304.661 1.53403 1.08854 0
M  V30 3150 O 304.019 0.668535 1.68524 0
M  V30 3151 C 304.067 3.59745 -0.248122 0
M  V30 3152 O 303.171 4.05123 0.77131 0
M  V30 3153 H 302.512 0.652564 -0.122703 0
M  V30 3154 H 305.042 1.79958 -0.973467 0
M  V30 3155 H 305.052 4.07911 -0.0851129 0
M  V30 3156 H 303.727 3.97218 -1.2325 0
M  V30 3157 H 302.304 3.68422 0.57619 0
M  V30 3158 N 304.489 0.459591 1.5075 0
M  V30 3159 C 305.735 -0.0994966 2.02556 0
M  V30 3160 C 306.068 -1.40399 1.3417 0
M  V30 3161 O 305.343 -1.88892 0.463683 0
M  V30 3162 C 305.626 -0.295242 3.58888 0
M  V30 3163 C 305.479 1.02947 4.37861 0
M  V30 3164 C 306.798 -1.05502 4.27267 0
M  V30 3165 H 303.917 -0.034686 0.736183 0
M  V30 3166 H 306.559 0.602938 1.8018 0
M  V30 3167 H 304.709 -0.893563 3.78084 0
M  V30 3168 H 306.381 1.66348 4.30263 0
M  V30 3169 H 304.624 1.62885 4.02058 0
M  V30 3170 H 305.295 0.846281 5.45474 0
M  V30 3171 H 307.771 -0.547993 4.12476 0
M  V30 3172 H 306.647 -1.16077 5.36486 0
M  V30 3173 H 306.908 -2.08875 3.89645 0
M  V30 3174 N 305.967 -1.56429 0.191757 0
M  V30 3175 C 306.915 -2.20273 -0.747174 0
M  V30 3176 C 307.909 -1.17288 -1.22229 0
M  V30 3177 O 309.115 -1.35441 -1.18557 0
M  V30 3178 H 305.49 -0.705885 -0.259289 0
M  V30 3179 H 307.461 -2.97826 -0.184963 0
M  V30 3180 C 306.21 -2.87356 -1.95759 0
M  V30 3181 H 305.533 -3.66341 -1.60106 0
M  V30 3182 H 306.973 -3.3547 -2.59299 0
M  V30 3183 C 305.432 -1.88213 -2.79423 0
M  V30 3184 O 305.962 -1.38033 -3.7724 0
M  V30 3185 N 304.168 -1.56516 -2.44849 0
M  V30 3186 H 303.715 -1.97516 -1.65364 0
M  V30 3187 H 303.673 -0.904369 -3.01112 0
M  V30 3188 N 307.445 0.0818655 -1.57387 0
M  V30 3189 C 308.408 1.08265 -2.02018 0
M  V30 3190 C 309.408 1.32183 -0.915664 0
M  V30 3191 O 310.598 1.28073 -1.18081 0
M  V30 3192 C 307.73 2.42871 -2.39221 0
M  V30 3193 H 308.923 0.698204 -2.91659 0
M  V30 3194 H 306.476 0.327303 -1.52835 0
M  V30 3195 H 307.211 2.86167 -1.52575 0
M  V30 3196 H 306.996 2.26855 -3.19811 0
M  V30 3197 H 308.486 3.14826 -2.74362 0
M  V30 3198 N 308.923 1.53595 0.353017 0
M  V30 3199 C 310.169 1.70638 1.09593 0
M  V30 3200 C 310.502 0.463286 1.88593 0
M  V30 3201 O 309.777 -0.539597 1.86865 0
M  V30 3202 C 310.06 2.96406 2.04489 0
M  V30 3203 C 309.913 4.30901 1.29014 0
M  V30 3204 C 311.232 3.17812 3.0444 0
M  V30 3205 H 308.351 0.620913 0.397034 0
M  V30 3206 H 310.993 1.86254 0.375446 0
M  V30 3207 H 309.143 2.83223 2.65927 0
M  V30 3208 H 310.815 4.55917 0.702638 0
M  V30 3209 H 309.058 4.29741 0.592071 0
M  V30 3210 H 309.729 5.1506 1.98537 0
M  V30 3211 H 312.205 3.30263 2.53112 0
M  V30 3212 H 311.081 4.07223 3.6805 0
M  V30 3213 H 311.342 2.33669 3.75301 0
M  V30 3214 N 310.401 -0.613514 1.45168 0
M  V30 3215 C 311.648 -1.37268 1.48875 0
M  V30 3216 C 311.976 -1.94077 0.128161 0
M  V30 3217 O 311.231 -1.75178 -0.872416 0
M  V30 3218 C 311.53 -2.54347 2.51083 0
M  V30 3219 C 311.196 -2.1572 3.95949 0
M  V30 3220 C 309.858 -2.04899 4.35396 0
M  V30 3221 C 312.21 -1.85485 4.87078 0
M  V30 3222 C 309.538 -1.62057 5.63875 0
M  V30 3223 C 311.89 -1.4413 6.15962 0
M  V30 3224 C 310.554 -1.31863 6.54346 0
M  V30 3225 H 309.824 -0.502299 0.544773 0
M  V30 3226 H 312.471 -0.694021 1.78481 0
M  V30 3227 H 310.776 -3.27524 2.15024 0
M  V30 3228 H 312.473 -3.12577 2.51191 0
M  V30 3229 H 309.063 -2.25066 3.64751 0
M  V30 3230 H 313.247 -1.92745 4.57343 0
M  V30 3231 H 308.503 -1.51177 5.92415 0
M  V30 3232 H 312.677 -1.19778 6.86022 0
M  V30 3233 H 310.304 -0.984392 7.538 0
M  V30 3234 N 311.879 -1.3236 -0.855495 0
M  V30 3235 C 312.842 -1.21164 -1.94556 0
M  V30 3236 C 313.842 -0.134908 -1.60233 0
M  V30 3237 O 315.032 -0.385249 -1.69887 0
M  V30 3238 C 312.164 -0.863192 -3.29791 0
M  V30 3239 H 313.357 -2.18038 -2.05911 0
M  V30 3240 H 310.91 -1.16179 -1.04557 0
M  V30 3241 H 311.645 0.103769 -3.24134 0
M  V30 3242 H 311.43 -1.64166 -3.56078 0
M  V30 3243 H 312.92 -0.809156 -4.09686 0
M  V30 3244 N 313.357 1.07166 -1.15556 0
M  V30 3245 C 314.634 1.76546 -0.842069 0
M  V30 3246 C 315.014 2.00453 0.661939 0
M  V30 3247 O 314.362 1.62452 1.60691 0
M  V30 3248 C 314.572 3.07266 -1.65495 0
M  V30 3249 C 315.92 3.81578 -1.86234 0
M  V30 3250 O 316.944 3.17083 -1.62287 0
M  V30 3251 O 315.803 4.97419 -2.26355 0
M  V30 3252 H 312.897 0.766756 -0.309862 0
M  V30 3253 H 315.443 1.13514 -1.26145 0
M  V30 3254 H 314.215 2.85494 -2.67598 0
M  V30 3255 H 313.838 3.7803 -1.23203 0
M  V30 3256 N 314.835 0.952656 1.25548 0
M  V30 3257 C 316.112 0.523818 1.88456 0
M  V30 3258 C 316.492 -0.998871 1.85973 0
M  V30 3259 O 315.84 -1.86381 1.3219 0
M  V30 3260 C 316.05 1.0982 3.31271 0
M  V30 3261 C 317.398 1.17385 4.08051 0
M  V30 3262 O 318.422 1.04961 3.40384 0
M  V30 3263 O 317.281 1.36852 5.29088 0
M  V30 3264 H 314.375 0.172485 0.808813 0
M  V30 3265 H 316.921 1.04596 1.33633 0
M  V30 3266 H 315.693 2.1415 3.27499 0
M  V30 3267 H 315.316 0.559191 3.93648 0
M  V30 3268 N 316.313 -1.40141 0.720998 0
M  V30 3269 C 317.562 -2.0002 0.259804 0
M  V30 3270 C 317.875 -1.57839 -1.15526 0
M  V30 3271 O 319.081 -2.10455 -1.71525 0
M  V30 3272 C 317.537 -3.57516 0.413566 0
M  V30 3273 C 317.145 -4.08667 1.83562 0
M  V30 3274 C 318.889 -4.24498 0.0134387 0
M  V30 3275 C 316.796 -5.58686 1.93968 0
M  V30 3276 H 315.726 -0.748195 0.0933806 0
M  V30 3277 H 318.377 -1.60313 0.892866 0
M  V30 3278 H 316.759 -3.9495 -0.288169 0
M  V30 3279 H 317.933 -3.82598 2.56817 0
M  V30 3280 H 316.248 -3.543 2.1877 0
M  V30 3281 H 318.845 -5.34654 0.0703954 0
M  V30 3282 H 319.188 -4.03375 -1.02927 0
M  V30 3283 H 319.721 -3.92188 0.665815 0
M  V30 3284 H 316.46 -5.8467 2.96379 0
M  V30 3285 H 315.98 -5.86602 1.25131 0
M  V30 3286 H 317.659 -6.23875 1.71431 0
M  V30 3287 N 317.792 -0.46758 -1.50504 0
M  V30 3288 C 318.74 0.342482 -2.30065 0
M  V30 3289 C 319.734 0.993596 -1.37201 0
M  V30 3290 O 320.94 0.925102 -1.54408 0
M  V30 3291 H 317.315 0.129283 -0.740803 0
M  V30 3292 H 319.286 -0.34899 -2.96352 0
M  V30 3293 C 318.035 1.4139 -3.17654 0
M  V30 3294 H 317.358 0.922264 -3.89017 0
M  V30 3295 H 318.798 1.95335 -3.76325 0
M  V30 3296 C 317.257 2.4139 -2.35016 0
M  V30 3297 O 317.787 3.46586 -2.03079 0
M  V30 3298 N 315.993 2.13021 -1.97662 0
M  V30 3299 H 315.54 1.27499 -2.23834 0
M  V30 3300 H 315.498 2.80164 -1.42673 0
M  V30 3301 N 319.27 1.56325 -0.20005 0
M  V30 3302 C 320.547 1.89484 0.48529 0
M  V30 3303 C 320.927 1.1143 1.79294 0
M  V30 3304 O 320.275 0.216919 2.27468 0
M  V30 3305 C 320.485 3.41923 0.699243 0
M  V30 3306 C 321.833 4.12256 1.01638 0
M  V30 3307 O 322.857 3.47402 0.786792 0
M  V30 3308 O 321.716 5.26887 1.45095 0
M  V30 3309 H 318.81 0.787144 0.253639 0
M  V30 3310 H 321.356 1.67985 -0.240633 0
M  V30 3311 H 320.128 3.90658 -0.224008 0
M  V30 3312 H 319.751 3.69131 1.47744 0
M  V30 3313 N 320.748 -0.0735177 1.57428 0
M  V30 3314 C 321.994 -0.774145 1.87443 0
M  V30 3315 C 322.327 -1.77311 0.792103 0
M  V30 3316 O 321.602 -1.93492 -0.197793 0
M  V30 3317 C 321.885 -1.48367 3.28115 0
M  V30 3318 C 321.738 -0.501227 4.46999 0
M  V30 3319 C 323.057 -2.429 3.66998 0
M  V30 3320 H 320.176 -0.279971 0.681752 0
M  V30 3321 H 322.818 -0.0373616 1.89963 0
M  V30 3322 H 320.968 -2.11171 3.26097 0
M  V30 3323 H 322.64 0.121468 4.6114 0
M  V30 3324 H 320.883 0.183593 4.33411 0
M  V30 3325 H 321.554 -1.03526 5.42205 0
M  V30 3326 H 324.03 -1.90175 3.70098 0
M  V30 3327 H 322.906 -2.89549 4.66318 0
M  V30 3328 H 323.167 -3.27628 2.96837 0
M  V30 3329 N 322.226 -1.5378 -0.344866 0
M  V30 3330 C 323.472 -1.71216 -1.08687 0
M  V30 3331 C 323.805 -0.473281 -1.88345 0
M  V30 3332 O 323.08 0.52968 -1.87149 0
M  V30 3333 C 323.363 -2.97486 -2.02914 0
M  V30 3334 C 323.216 -4.31579 -1.26727 0
M  V30 3335 C 324.535 -3.19422 -3.0275 0
M  V30 3336 H 321.654 -0.62301 -0.393735 0
M  V30 3337 H 324.296 -1.8645 -0.365563 0
M  V30 3338 H 322.446 -2.84629 -2.64421 0
M  V30 3339 H 324.118 -4.56284 -0.67845 0
M  V30 3340 H 322.361 -4.30049 -0.569273 0
M  V30 3341 H 323.032 -5.16106 -1.95803 0
M  V30 3342 H 325.508 -3.316 -2.51357 0
M  V30 3343 H 324.384 -4.09169 -3.65885 0
M  V30 3344 H 324.645 -2.35656 -3.74057 0
M  V30 3345 N 323.704 0.605807 -1.45491 0
M  V30 3346 C 324.953 1.36086 -1.48874 0
M  V30 3347 C 325.266 1.95131 -0.135333 0
M  V30 3348 O 326.472 2.7146 -0.0468144 0
M  V30 3349 C 324.928 2.46518 -2.62215 0
M  V30 3350 C 324.536 1.93877 -4.03876 0
M  V30 3351 C 326.28 3.23512 -2.74846 0
M  V30 3352 C 324.187 3.01801 -5.08596 0
M  V30 3353 H 323.117 0.511497 -0.553974 0
M  V30 3354 H 325.768 0.649089 -1.71636 0
M  V30 3355 H 324.15 3.20388 -2.32739 0
M  V30 3356 H 325.324 1.26704 -4.43038 0
M  V30 3357 H 323.639 1.29622 -3.95711 0
M  V30 3358 H 326.236 4.04013 -3.50253 0
M  V30 3359 H 326.579 3.74631 -1.81542 0
M  V30 3360 H 327.112 2.56742 -3.03856 0
M  V30 3361 H 323.851 2.55597 -6.03614 0
M  V30 3362 H 323.371 3.67535 -4.74002 0
M  V30 3363 H 325.05 3.66152 -5.33424 0
M  V30 3364 N 325.182 1.32811 0.848464 0
M  V30 3365 C 326.132 1.18842 1.94578 0
M  V30 3366 C 327.116 0.0937517 1.60627 0
M  V30 3367 O 328.308 0.320887 1.74067 0
M  V30 3368 C 325.437 0.91999 3.30743 0
M  V30 3369 C 324.523 2.05665 3.70894 0
M  V30 3370 N 324.914 3.30579 3.8282 0
M  V30 3371 C 323.212 1.9612 4.00566 0
M  V30 3372 C 323.913 4.05067 4.17487 0
M  V30 3373 N 322.889 3.33419 4.2934 0
M  V30 3374 H 326.691 2.13536 2.0194 0
M  V30 3375 H 324.205 1.2468 1.0406 0
M  V30 3376 H 326.202 0.800859 4.09136 0
M  V30 3377 H 324.862 -0.0185076 3.24695 0
M  V30 3378 H 325.873 3.65441 3.66978 0
M  V30 3379 H 322.55 1.09871 4.02784 0
M  V30 3380 H 323.94 5.12815 4.34131 0
M  V30 3381 N 326.66 -1.06551 1.16123 0
M  V30 3382 C 327.885 -1.83544 0.965735 0
M  V30 3383 C 328.31 -1.81843 -0.481102 0
M  V30 3384 O 327.668 -1.21732 -1.34354 0
M  V30 3385 C 327.716 -3.28169 1.49457 0
M  V30 3386 O 326.82 -4.0643 0.699157 0
M  V30 3387 H 326.161 -0.568026 0.343864 0
M  V30 3388 H 328.691 -1.34362 1.54299 0
M  V30 3389 H 328.701 -3.78992 1.51092 0
M  V30 3390 H 327.376 -3.28722 2.54784 0
M  V30 3391 H 325.953 -3.65216 0.7531 0
M  V30 3392 N 328.138 -0.959301 -1.25041 0
M  V30 3393 C 329.068 -0.501388 -2.28053 0
M  V30 3394 C 330.049 0.454673 -1.63911 0
M  V30 3395 O 331.234 0.352618 -1.90972 0
M  V30 3396 C 328.364 0.217224 -3.4662 0
M  V30 3397 C 327.318 -0.654034 -4.22973 0
M  V30 3398 C 326.644 0.195589 -5.34342 0
M  V30 3399 C 327.944 -1.93447 -4.85155 0
M  V30 3400 H 329.638 -1.36238 -2.66608 0
M  V30 3401 H 327.184 -0.656534 -1.28163 0
M  V30 3402 H 329.137 0.548732 -4.17812 0
M  V30 3403 H 327.861 1.1125 -3.07068 0
M  V30 3404 H 326.52 -0.968693 -3.5357 0
M  V30 3405 H 326.168 1.09076 -4.91031 0
M  V30 3406 H 325.868 -0.384091 -5.86343 0
M  V30 3407 H 327.392 0.521958 -6.08365 0
M  V30 3408 H 328.806 -1.66908 -5.48466 0
M  V30 3409 H 327.203 -2.46018 -5.47353 0
M  V30 3410 H 328.273 -2.63466 -4.07079 0
M  V30 3411 N 329.616 1.39756 -0.72842 0
M  V30 3412 C 330.863 2.00645 -0.273487 0
M  V30 3413 C 331.191 1.57786 1.13727 0
M  V30 3414 O 330.446 0.794886 1.7883 0
M  V30 3415 C 330.745 3.56002 -0.315776 0
M  V30 3416 C 330.411 4.18489 -1.67863 0
M  V30 3417 C 329.073 4.3527 -2.05166 0
M  V30 3418 C 331.425 4.53219 -2.57375 0
M  V30 3419 C 328.753 4.84069 -3.31503 0
M  V30 3420 C 331.105 5.03423 -3.83077 0
M  V30 3421 C 329.769 5.18413 -4.20481 0
M  V30 3422 H 329.039 0.734211 -0.100076 0
M  V30 3423 H 331.686 1.6718 -0.933972 0
M  V30 3424 H 329.991 3.89452 0.428285 0
M  V30 3425 H 331.688 4.00963 0.0542575 0
M  V30 3426 H 328.278 4.05824 -1.37858 0
M  V30 3427 H 332.462 4.39878 -2.29827 0
M  V30 3428 H 327.718 4.93859 -3.60435 0
M  V30 3429 H 331.892 5.2927 -4.52599 0
M  V30 3430 H 329.519 5.55987 -5.18443 0
M  V30 3431 N 331.094 0.475555 1.50254 0
M  V30 3432 C 332.342 -0.077738 2.0195 0
M  V30 3433 C 332.663 -1.39813 1.35931 0
M  V30 3434 O 331.933 -1.89249 0.506123 0
M  V30 3435 H 330.513 -0.031719 0.746326 0
M  V30 3436 H 333.175 0.626995 1.84539 0
M  V30 3437 H 332.271 -0.225995 3.11281 0
M  V30 3438 N 332.573 -1.56217 0.208337 0
M  V30 3439 C 333.85 -1.89739 -0.475234 0
M  V30 3440 C 334.23 -1.1238 -1.78701 0
M  V30 3441 O 333.578 -0.228979 -2.2735 0
M  V30 3442 C 333.788 -3.42289 -0.681101 0
M  V30 3443 C 335.136 -4.12789 -0.994507 0
M  V30 3444 O 336.16 -3.47814 -0.768357 0
M  V30 3445 O 335.019 -5.27649 -1.42299 0
M  V30 3446 H 332.113 -0.788478 -0.249461 0
M  V30 3447 H 334.659 -1.67855 0.249538 0
M  V30 3448 H 333.431 -3.90534 0.244722 0
M  V30 3449 H 333.054 -3.69909 -1.45785 0
M  V30 3450 N 334.051 0.0651679 -1.57465 0
M  V30 3451 C 335.299 0.761555 -1.87202 0
M  V30 3452 C 335.62 1.77778 -0.801243 0
M  V30 3453 O 334.89 1.95166 0.16937 0
M  V30 3454 H 333.47 0.284251 -0.690804 0
M  V30 3455 H 336.132 0.0396827 -1.9486 0
M  V30 3456 H 335.228 1.27365 -2.84929 0
M  V30 3457 N 335.529 1.53961 0.336706 0
M  V30 3458 C 336.769 1.73254 1.08454 0
M  V30 3459 C 337.133 0.488937 1.8567 0
M  V30 3460 O 338.334 0.559001 2.62923 0
M  V30 3461 C 336.605 2.96519 1.99528 0
M  V30 3462 S 338.164 3.36655 2.81441 0
M  V30 3463 H 334.982 0.609353 0.366347 0
M  V30 3464 H 337.584 1.92117 0.362124 0
M  V30 3465 H 336.288 3.85193 1.41614 0
M  V30 3466 H 335.819 2.80142 2.76196 0
M  V30 3467 H 337.834 2.90925 4.01967 0
M  V30 3468 N 337.007 -0.598083 1.45811 0
M  V30 3469 C 337.97 -1.69018 1.54808 0
M  V30 3470 C 338.97 -1.55037 0.426652 0
M  V30 3471 O 340.16 -1.59932 0.690456 0
M  V30 3472 C 337.292 -3.0835 1.45371 0
M  V30 3473 H 338.485 -1.62403 2.52121 0
M  V30 3474 H 336.038 -0.814626 1.33392 0
M  V30 3475 H 336.773 -3.20534 0.492793 0
M  V30 3476 H 336.558 -3.19907 2.26721 0
M  V30 3477 H 338.048 -3.8788 1.54721 0
M  V30 3478 N 338.485 -1.33259 -0.841409 0
M  V30 3479 C 339.448 -1.23221 -1.9326 0
M  V30 3480 C 340.448 -0.151895 -1.60081 0
M  V30 3481 O 341.638 -0.403246 -1.69468 0
M  V30 3482 C 338.77 -0.898123 -3.28856 0
M  V30 3483 H 339.963 -2.2021 -2.03587 0
M  V30 3484 H 337.516 -1.17281 -1.03319 0
M  V30 3485 H 338.251 0.0693841 -3.24226 0
M  V30 3486 H 338.036 -1.67934 -3.54317 0
M  V30 3487 H 339.526 -0.852563 -4.08805 0
M  V30 3488 N 339.963 1.05934 -1.16686 0
M  V30 3489 C 340.893 2.1546 -0.899949 0
M  V30 3490 C 341.874 1.69391 0.155154 0
M  V30 3491 O 343.059 1.94199 0.00648693 0
M  V30 3492 C 340.189 3.44939 -0.404241 0
M  V30 3493 C 339.143 4.04536 -1.39767 0
M  V30 3494 C 338.469 5.29268 -0.760216 0
M  V30 3495 C 339.769 4.42893 -2.76845 0
M  V30 3496 H 341.463 2.38046 -1.81588 0
M  V30 3497 H 339.009 1.14404 -0.874514 0
M  V30 3498 H 340.962 4.20901 -0.204971 0
M  V30 3499 H 339.686 3.21983 0.547206 0
M  V30 3500 H 338.345 3.30635 -1.58355 0
M  V30 3501 H 337.993 5.02611 0.197831 0
M  V30 3502 H 337.693 5.70101 -1.42332 0
M  V30 3503 H 339.217 6.07924 -0.57105 0
M  V30 3504 H 340.631 5.09921 -2.62019 0
M  V30 3505 H 339.028 4.94721 -3.39663 0
M  V30 3506 H 340.098 3.53584 -3.31823 0
M  V30 3507 N 341.441 0.965919 1.2453 0
M  V30 3508 C 342.687 0.62776 1.92839 0
M  V30 3509 C 343.02 -0.834694 1.75347 0
M  V30 3510 O 342.295 -1.60031 1.10546 0
M  V30 3511 C 342.578 1.00109 3.45905 0
M  V30 3512 C 342.431 2.52011 3.72573 0
M  V30 3513 C 343.75 0.53435 4.36844 0
M  V30 3514 H 340.869 0.229537 0.700344 0
M  V30 3515 H 343.511 1.2046 1.46933 0
M  V30 3516 H 341.661 0.510238 3.85135 0
M  V30 3517 H 343.333 3.08559 3.42912 0
M  V30 3518 H 341.576 2.95287 3.17786 0
M  V30 3519 H 342.247 2.73183 4.79661 0
M  V30 3520 H 344.723 0.955565 4.04979 0
M  V30 3521 H 343.599 0.824152 5.42678 0
M  V30 3522 H 343.86 -0.565589 4.38467 0
M  V30 3523 N 342.919 -1.39368 0.735821 0
M  V30 3524 C 344.168 -1.99733 0.281004 0
M  V30 3525 C 344.481 -1.59055 -1.13846 0
M  V30 3526 O 345.687 -2.12262 -1.69284 0
M  V30 3527 C 344.143 -3.57057 0.451462 0
M  V30 3528 C 343.751 -4.06697 1.87886 0
M  V30 3529 C 345.495 -4.2446 0.0584616 0
M  V30 3530 C 343.402 -5.56598 1.99883 0
M  V30 3531 H 342.332 -0.747163 0.101311 0
M  V30 3532 H 344.983 -1.59357 0.909819 0
M  V30 3533 H 343.365 -3.95234 -0.246263 0
M  V30 3534 H 344.539 -3.79853 2.60861 0
M  V30 3535 H 342.854 -3.5196 2.22515 0
M  V30 3536 H 345.451 -5.34549 0.127099 0
M  V30 3537 H 345.794 -4.04444 -0.986433 0
M  V30 3538 H 346.327 -3.9146 0.707374 0
M  V30 3539 H 343.066 -5.81494 3.02564 0
M  V30 3540 H 342.586 -5.85242 1.31346 0
M  V30 3541 H 344.265 -6.22022 1.78039 0
M  V30 3542 N 344.397 -0.483516 -1.5 0
M  V30 3543 C 345.645 0.067027 -2.01989 0
M  V30 3544 C 345.966 1.3909 -1.36671 0
M  V30 3545 O 345.236 1.88978 -0.516152 0
M  V30 3546 H 343.816 0.0277606 -0.746484 0
M  V30 3547 H 346.478 -0.636773 -1.84204 0
M  V30 3548 H 345.574 0.209484 -3.11396 0
M  V30 3549 N 345.875 1.56104 -0.216619 0
M  V30 3550 C 346.838 2.18819 0.681962 0
M  V30 3551 C 347.838 1.14866 1.12528 0
M  V30 3552 O 349.028 1.40128 1.03488 0
M  V30 3553 C 346.16 2.80756 1.93362 0
M  V30 3554 H 347.353 2.99595 0.135254 0
M  V30 3555 H 344.906 1.56265 0.0330003 0
M  V30 3556 H 345.641 2.03837 2.52232 0
M  V30 3557 H 345.426 3.56876 1.62426 0
M  V30 3558 H 346.916 3.28844 2.57393 0
M  V30 3559 N 347.353 -0.0568162 1.57498 0
M  V30 3560 C 348.578 -0.769402 1.92601 0
M  V30 3561 C 349.003 -1.69559 0.814336 0
M  V30 3562 O 348.361 -1.79811 -0.231903 0
M  V30 3563 C 348.409 -1.52634 3.26704 0
M  V30 3564 O 347.513 -2.63797 3.16994 0
M  V30 3565 H 346.854 -0.208909 0.63028 0
M  V30 3566 H 349.384 -0.0205798 2.0459 0
M  V30 3567 H 349.394 -1.90234 3.60936 0
M  V30 3568 H 348.069 -0.846875 4.07186 0
M  V30 3569 H 346.646 -2.28943 2.94346 0
M  V30 3570 N 348.832 -1.54138 -0.328536 0
M  V30 3571 C 349.764 -1.79509 -1.4251 0
M  V30 3572 C 350.777 -0.67688 -1.48061 0
M  V30 3573 O 351.966 -0.953898 -1.50874 0
M  V30 3574 C 349.066 -1.89337 -2.81078 0
M  V30 3575 C 348.239 -3.19443 -2.98789 0
M  V30 3576 C 347.298 -3.20036 -4.17688 0
M  V30 3577 O 346.324 -3.93697 -4.11086 0
M  V30 3578 N 347.526 -2.43467 -5.26976 0
M  V30 3579 H 350.291 -2.74139 -1.21111 0
M  V30 3580 H 347.852 -1.53373 -0.518499 0
M  V30 3581 H 349.844 -1.87167 -3.58818 0
M  V30 3582 H 348.414 -1.01826 -2.95551 0
M  V30 3583 H 347.634 -3.34614 -2.08391 0
M  V30 3584 H 348.922 -4.05354 -3.07515 0
M  V30 3585 H 348.32 -1.83201 -5.35214 0
M  V30 3586 H 346.877 -2.4708 -6.03154 0
M  V30 3587 N 350.31 0.590341 -1.46126 0
M  V30 3588 C 351.556 1.35082 -1.51264 0
M  V30 3589 C 351.889 1.93534 -0.160711 0
M  V30 3590 O 351.164 1.76045 0.826956 0
M  V30 3591 C 351.447 2.48588 -2.6053 0
M  V30 3592 C 351.3 1.95221 -4.05227 0
M  V30 3593 C 352.619 3.50662 -2.6594 0
M  V30 3594 H 349.738 0.489803 -0.550692 0
M  V30 3595 H 352.38 0.663887 -1.78024 0
M  V30 3596 H 350.53 3.07186 -2.37843 0
M  V30 3597 H 352.202 1.41139 -4.39178 0
M  V30 3598 H 350.445 1.26101 -4.15068 0
M  V30 3599 H 351.116 2.77121 -4.77397 0
M  V30 3600 H 353.592 3.01934 -2.86313 0
M  V30 3601 H 352.468 4.27551 -3.44226 0
M  V30 3602 H 352.729 4.07399 -1.71694 0
M  V30 3603 N 351.788 1.33704 0.83433 0
M  V30 3604 C 352.72 1.20172 1.9517 0
M  V30 3605 C 353.733 0.131572 1.62267 0
M  V30 3606 O 354.922 0.382406 1.74356 0
M  V30 3607 C 352.022 0.821716 3.28787 0
M  V30 3608 C 351.195 1.98446 3.89792 0
M  V30 3609 C 350.254 1.58469 5.01771 0
M  V30 3610 O 349.28 2.29968 5.20676 0
M  V30 3611 N 350.482 0.492291 5.78409 0
M  V30 3612 H 353.247 2.16429 2.07313 0
M  V30 3613 H 350.808 1.26509 1.0103 0
M  V30 3614 H 352.8 0.536291 4.01131 0
M  V30 3615 H 351.37 -0.0503058 3.1256 0
M  V30 3616 H 350.59 2.43526 3.09982 0
M  V30 3617 H 351.878 2.76236 4.27283 0
M  V30 3618 H 351.276 -0.102349 5.65607 0
M  V30 3619 H 349.833 0.266555 6.51255 0
M  V30 3620 N 353.266 -1.05314 1.17247 0
M  V30 3621 C 354.176 -2.16538 0.90268 0
M  V30 3622 C 355.192 -1.73523 -0.128707 0
M  V30 3623 O 356.368 -2.01337 0.0502701 0
M  V30 3624 C 353.433 -3.44167 0.418356 0
M  V30 3625 C 352.494 -4.01635 1.51618 0
M  V30 3626 C 351.727 -5.23171 1.05487 0
M  V30 3627 O 351.95 -5.70327 -0.0914715 0
M  V30 3628 O 350.884 -5.72848 1.8474 0
M  V30 3629 H 354.71 -2.42145 1.83302 0
M  V30 3630 H 352.295 -1.15037 0.953246 0
M  V30 3631 H 354.177 -4.21112 0.155726 0
M  V30 3632 H 352.852 -3.20063 -0.48385 0
M  V30 3633 H 351.759 -3.26135 1.83268 0
M  V30 3634 H 353.092 -4.30053 2.39405 0
M  V30 3635 N 354.744 -0.972509 -1.24016 0
M  V30 3636 C 355.691 -0.505969 -2.25186 0
M  V30 3637 C 356.661 0.451009 -1.5986 0
M  V30 3638 O 357.846 0.360307 -1.87367 0
M  V30 3639 C 354.986 0.193089 -3.44559 0
M  V30 3640 C 354.099 -0.803222 -4.24467 0
M  V30 3641 C 353.234 -0.0797793 -5.3114 0
M  V30 3642 C 352.273 -1.06583 -6.02749 0
M  V30 3643 N 351.41 -0.372074 -7.01113 0
M  V30 3644 H 356.25 -1.37351 -2.64459 0
M  V30 3645 H 353.787 -0.688419 -1.29997 0
M  V30 3646 H 355.745 0.615125 -4.1264 0
M  V30 3647 H 354.375 1.02455 -3.06109 0
M  V30 3648 H 353.427 -1.34368 -3.55878 0
M  V30 3649 H 354.739 -1.55494 -4.73944 0
M  V30 3650 H 353.893 0.400015 -6.0538 0
M  V30 3651 H 352.632 0.704597 -4.82583 0
M  V30 3652 H 351.637 -1.55645 -5.27309 0
M  V30 3653 H 352.862 -1.85074 -6.53395 0
M  V30 3654 H 350.808 0.393238 -6.5482 0
M  V30 3655 H 350.725 -1.06258 -7.48495 0
M  V30 3656 H 351.993 0.0855932 -7.79453 0
M  V30 3657 N 356.222 1.38976 -0.743202 0
M  V30 3658 C 357.152 2.33171 -0.123873 0
M  V30 3659 C 358.133 1.54336 0.71516 0
M  V30 3660 O 359.318 1.82696 0.658467 0
M  V30 3661 C 356.448 3.38474 0.777978 0
M  V30 3662 C 355.402 4.27979 0.0424758 0
M  V30 3663 C 354.728 5.2405 1.06189 0
M  V30 3664 C 356.028 5.10155 -1.1198 0
M  V30 3665 H 357.722 2.85213 -0.910709 0
M  V30 3666 H 355.268 1.37133 -0.439388 0
M  V30 3667 H 357.221 4.03328 1.22084 0
M  V30 3668 H 355.945 2.84891 1.59702 0
M  V30 3669 H 354.604 3.64616 -0.380853 0
M  V30 3670 H 354.252 4.66758 1.87472 0
M  V30 3671 H 353.952 5.84785 0.574485 0
M  V30 3672 H 355.476 5.9178 1.50428 0
M  V30 3673 H 356.89 5.68307 -0.75499 0
M  V30 3674 H 355.287 5.80073 -1.53738 0
M  V30 3675 H 356.357 4.44504 -1.93764 0
M  V30 3676 N 357.7 0.491464 1.49741 0
M  V30 3677 C 358.61 -0.296835 2.32715 0
M  V30 3678 C 359.626 -0.976536 1.44013 0
M  V30 3679 O 360.802 -0.960023 1.77047 0
M  V30 3680 C 357.867 -1.35288 3.19215 0
M  V30 3681 C 356.928 -0.687632 4.23757 0
M  V30 3682 C 356.161 -1.69336 5.06123 0
M  V30 3683 O 356.384 -2.92219 4.89861 0
M  V30 3684 O 355.318 -1.25394 5.88693 0
M  V30 3685 H 359.144 0.382048 3.01287 0
M  V30 3686 H 356.729 0.252953 1.47243 0
M  V30 3687 H 358.611 -1.96411 3.72828 0
M  V30 3688 H 357.286 -2.01487 2.53347 0
M  V30 3689 H 356.193 -0.0369159 3.74082 0
M  V30 3690 H 357.526 -0.0682566 4.92153 0
M  V30 3691 N 359.178 -1.55987 0.224894 0
M  V30 3692 C 360.589 -1.84553 -0.282345 0
M  V30 3693 C 360.94 -1.14634 -1.59227 0
M  V30 3694 O 360.065 -0.417155 -2.12341 0
M  V30 3695 C 360.66 -3.348 -0.519062 0
M  V30 3696 C 359.219 -3.63671 -0.970604 0
M  V30 3697 C 358.366 -2.77277 -0.0355261 0
M  V30 3698 H 361.317 -1.52245 0.448006 0
M  V30 3699 H 361.338 -3.55187 -1.36463 0
M  V30 3700 H 360.85 -3.8566 0.43449 0
M  V30 3701 H 358.951 -3.1827 -1.9374 0
M  V30 3702 H 359.064 -4.71631 -0.842698 0
M  V30 3703 H 357.428 -2.48846 -0.542927 0
M  V30 3704 H 358.211 -3.30937 0.913003 0
M  V30 3705 N 360.656 0.0484629 -1.57525 0
M  V30 3706 C 361.904 0.741657 -1.88 0
M  V30 3707 C 362.225 1.76918 -0.820054 0
M  V30 3708 O 361.495 1.95335 0.148661 0
M  V30 3709 H 360.075 0.276908 -0.69378 0
M  V30 3710 H 362.737 0.019013 -1.94891 0
M  V30 3711 H 361.833 1.24336 -2.86264 0
M  V30 3712 N 362.134 1.5431 0.320358 0
M  V30 3713 C 363.081 1.83918 1.39438 0
M  V30 3714 C 364.051 0.686525 1.51248 0
M  V30 3715 O 365.236 0.933269 1.66417 0
M  V30 3716 C 362.376 2.075 2.75749 0
M  V30 3717 C 361.489 3.35177 2.72544 0
M  V30 3718 C 360.624 3.48704 4.00723 0
M  V30 3719 C 359.663 4.70244 3.91838 0
M  V30 3720 N 358.8 4.80679 5.11754 0
M  V30 3721 H 363.64 2.75544 1.13489 0
M  V30 3722 H 361.177 1.36459 0.549309 0
M  V30 3723 H 363.135 2.19166 3.54996 0
M  V30 3724 H 361.765 1.19163 3 0
M  V30 3725 H 360.817 3.32233 1.85271 0
M  V30 3726 H 362.129 4.24534 2.61863 0
M  V30 3727 H 361.283 3.59928 4.88402 0
M  V30 3728 H 360.022 2.57445 4.14214 0
M  V30 3729 H 359.027 4.59072 3.02544 0
M  V30 3730 H 360.252 5.6289 3.7991 0
M  V30 3731 H 358.198 3.92337 5.25745 0
M  V30 3732 H 358.115 5.64007 5.0342 0
M  V30 3733 H 359.383 4.96239 6.01138 0
M  V30 3734 N 363.613 -0.582584 1.46437 0
M  V30 3735 C 364.859 -1.34278 1.51978 0
M  V30 3736 C 365.192 -1.93446 0.170973 0
M  V30 3737 O 364.467 -1.76481 -0.817608 0
M  V30 3738 C 364.75 -2.47203 2.61845 0
M  V30 3739 C 364.603 -1.93069 4.06257 0
M  V30 3740 C 365.922 -3.49247 2.67795 0
M  V30 3741 H 363.041 -0.486876 0.553282 0
M  V30 3742 H 365.683 -0.654437 1.78374 0
M  V30 3743 H 363.833 -3.0592 2.39469 0
M  V30 3744 H 365.505 -1.38808 4.3992 0
M  V30 3745 H 363.748 -1.23898 4.1573 0
M  V30 3746 H 364.419 -2.74586 4.7886 0
M  V30 3747 H 366.895 -3.00411 2.8791 0
M  V30 3748 H 365.771 -4.25719 3.46489 0
M  V30 3749 H 366.032 -4.06482 1.73852 0
M  V30 3750 N 365.091 -1.34144 -0.827227 0
M  V30 3751 C 366.337 -1.26446 -1.58554 0
M  V30 3752 C 366.67 0.1664 -1.93486 0
M  V30 3753 O 365.945 1.1107 -1.59667 0
M  V30 3754 C 366.228 -2.15111 -2.8879 0
M  V30 3755 C 366.081 -3.66712 -2.60465 0
M  V30 3756 C 367.4 -2.03311 -3.90324 0
M  V30 3757 H 364.519 -0.46067 -0.575284 0
M  V30 3758 H 367.161 -1.64356 -0.953269 0
M  V30 3759 H 365.311 -1.8291 -3.42748 0
M  V30 3760 H 366.983 -4.09259 -2.1285 0
M  V30 3761 H 365.226 -3.88014 -1.93978 0
M  V30 3762 H 365.897 -4.24112 -3.53317 0
M  V30 3763 H 368.373 -2.31574 -3.45706 0
M  V30 3764 H 367.249 -2.67582 -4.79261 0
M  V30 3765 H 367.51 -1.00879 -4.30437 0
M  V30 3766 N 366.569 1.04691 -1.17803 0
M  V30 3767 C 367.815 1.78045 -0.970969 0
M  V30 3768 C 368.148 1.87686 0.498751 0
M  V30 3769 O 367.423 1.38035 1.37027 0
M  V30 3770 C 367.706 3.2166 -1.61884 0
M  V30 3771 C 367.559 3.20001 -3.161 0
M  V30 3772 C 368.878 4.1962 -1.3269 0
M  V30 3773 H 365.997 0.64633 -0.354155 0
M  V30 3774 H 368.639 1.22333 -1.45378 0
M  V30 3775 H 366.789 3.69232 -1.20831 0
M  V30 3776 H 368.461 2.80467 -3.66246 0
M  V30 3777 H 366.704 2.58203 -3.48588 0
M  V30 3778 H 367.375 4.21386 -3.56564 0
M  V30 3779 H 369.851 3.80567 -1.68249 0
M  V30 3780 H 368.727 5.18339 -1.80599 0
M  V30 3781 H 368.988 4.414 -0.248622 0
M  V30 3782 N 368.047 0.979072 1.23499 0
M  V30 3783 C 369.463 0.687475 1.44034 0
M  V30 3784 C 369.663 -0.746801 1.8715 0
M  V30 3785 O 368.719 -1.51939 2.0167 0
M  V30 3786 C 370.032 1.68127 2.49307 0
M  V30 3787 C 371.58 1.69516 2.63122 0
M  V30 3788 C 372.055 2.67723 3.71603 0
M  V30 3789 N 373.546 2.66233 3.79044 0
M  V30 3790 C 374.281 3.38891 4.62537 0
M  V30 3791 N 373.777 4.21103 5.50131 0
M  V30 3792 N 375.57 3.27661 4.56721 0
M  V30 3793 H 367.721 1.90559 0.938135 0
M  V30 3794 H 369.984 0.821051 0.473897 0
M  V30 3795 H 369.69 2.70693 2.2454 0
M  V30 3796 H 369.564 1.46306 3.4767 0
M  V30 3797 H 371.951 0.676561 2.8724 0
M  V30 3798 H 372.032 1.95404 1.65079 0
M  V30 3799 H 371.676 3.69724 3.48233 0
M  V30 3800 H 371.606 2.39111 4.69184 0
M  V30 3801 H 374.097 2.06568 3.16446 0
M  V30 3802 H 374.41 4.73403 6.10827 0
M  V30 3803 H 372.755 4.25195 5.49759 0
M  V30 3804 H 375.946 2.62887 3.87309 0
M  V30 3805 H 376.119 3.84547 5.21562 0
M  V30 3806 N 369.525 -1.3858 0.750561 0
M  V30 3807 C 370.75 -2.04997 0.314812 0
M  V30 3808 C 371.175 -1.56235 -1.04749 0
M  V30 3809 O 370.533 -0.712981 -1.66692 0
M  V30 3810 C 370.581 -3.58961 0.343415 0
M  V30 3811 O 369.685 -4.07025 -0.663628 0
M  V30 3812 H 369.026 -0.649081 0.139962 0
M  V30 3813 H 371.556 -1.77313 1.02084 0
M  V30 3814 H 371.566 -4.07542 0.193233 0
M  V30 3815 H 370.241 -3.93811 1.33738 0
M  V30 3816 H 368.818 -3.6982 -0.478307 0
M  V30 3817 N 371.003 -0.499398 -1.49478 0
M  V30 3818 C 372.228 0.044722 -2.07352 0
M  V30 3819 C 372.653 1.30207 -1.35749 0
M  V30 3820 O 372.011 1.76516 -0.413732 0
M  V30 3821 C 372.059 0.283013 -3.59488 0
M  V30 3822 O 371.163 1.35804 -3.89398 0
M  V30 3823 H 370.504 -0.0255147 -0.66351 0
M  V30 3824 H 373.034 -0.698561 -1.92305 0
M  V30 3825 H 373.044 0.515007 -4.04737 0
M  V30 3826 H 371.719 -0.635636 -4.11014 0
M  V30 3827 H 370.296 1.11113 -3.55961 0
M  V30 3828 N 372.481 1.55866 -0.233164 0
M  V30 3829 C 373.728 1.98603 0.395374 0
M  V30 3830 C 374.056 1.12105 1.58942 0
M  V30 3831 O 373.311 0.168656 1.94972 0
M  V30 3832 C 373.61 3.46856 0.861724 0
M  V30 3833 C 373.276 4.50348 -0.223066 0
M  V30 3834 C 371.938 4.78371 -0.521038 0
M  V30 3835 C 374.29 5.12355 -0.956124 0
M  V30 3836 C 371.618 5.6568 -1.55638 0
M  V30 3837 C 373.97 6.00786 -1.98089 0
M  V30 3838 C 372.634 6.27148 -2.28565 0
M  V30 3839 H 371.904 0.726739 0.144677 0
M  V30 3840 H 374.551 1.88491 -0.338114 0
M  V30 3841 H 372.856 3.5423 1.67418 0
M  V30 3842 H 374.553 3.77302 1.35809 0
M  V30 3843 H 371.143 4.28596 0.0193234 0
M  V30 3844 H 375.327 4.90765 -0.739166 0
M  V30 3845 H 370.583 5.84365 -1.798 0
M  V30 3846 H 374.757 6.4788 -2.55391 0
M  V30 3847 H 372.384 6.94597 -3.08932 0
M  V30 3848 N 373.959 -0.0401083 1.57549 0
M  V30 3849 C 375.184 -0.748931 1.93406 0
M  V30 3850 C 375.609 -1.68686 0.832274 0
M  V30 3851 O 374.967 -1.80047 -0.212818 0
M  V30 3852 C 375.015 -1.4916 3.28304 0
M  V30 3853 O 374.119 -2.6042 3.19774 0
M  V30 3854 H 373.46 -0.202212 0.63246 0
M  V30 3855 H 375.99 0.00112086 2.046 0
M  V30 3856 H 376 -1.86395 3.62934 0
M  V30 3857 H 374.675 -0.80364 4.08062 0
M  V30 3858 H 373.252 -2.25808 2.96758 0
M  V30 3859 N 375.437 -1.54477 -0.31217 0
M  V30 3860 C 376.369 -1.81011 -1.40598 0
M  V30 3861 C 377.382 -0.692546 -1.47335 0
M  V30 3862 O 378.571 -0.969847 -1.49854 0
M  V30 3863 C 375.671 -1.92307 -2.79054 0
M  V30 3864 C 374.844 -3.22594 -2.95384 0
M  V30 3865 C 373.903 -3.24448 -4.1427 0
M  V30 3866 O 372.929 -3.98035 -4.06887 0
M  V30 3867 N 374.131 -2.49042 -5.24365 0
M  V30 3868 H 376.896 -2.75408 -1.18196 0
M  V30 3869 H 374.457 -1.53914 -0.502202 0
M  V30 3870 H 376.449 -1.90962 -3.56813 0
M  V30 3871 H 375.019 -1.04955 -2.94454 0
M  V30 3872 H 374.239 -3.36806 -2.04831 0
M  V30 3873 H 375.527 -4.08593 -3.03198 0
M  V30 3874 H 374.925 -1.88867 -5.33241 0
M  V30 3875 H 373.482 -2.53463 -6.005 0
M  V30 3876 N 376.915 0.57481 -1.46744 0
M  V30 3877 C 377.845 1.69337 -1.60771 0
M  V30 3878 C 378.826 1.63825 -0.457736 0
M  V30 3879 O 380.011 1.8172 -0.684947 0
M  V30 3880 C 377.141 3.0798 -1.60517 0
M  V30 3881 C 376.095 3.28327 -2.74564 0
M  V30 3882 C 375.421 4.67578 -2.59373 0
M  V30 3883 C 376.721 3.15398 -4.16319 0
M  V30 3884 H 378.415 1.57853 -2.54407 0
M  V30 3885 H 375.961 0.75799 -1.22436 0
M  V30 3886 H 377.914 3.86061 -1.68923 0
M  V30 3887 H 376.638 3.20381 -0.634305 0
M  V30 3888 H 375.297 2.52649 -2.65639 0
M  V30 3889 H 374.945 4.76755 -1.60353 0
M  V30 3890 H 374.645 4.82144 -3.35873 0
M  V30 3891 H 376.169 5.47817 -2.69682 0
M  V30 3892 H 377.583 3.83315 -4.26313 0
M  V30 3893 H 375.98 3.41482 -4.93468 0
M  V30 3894 H 377.05 2.12372 -4.3592 0
M  V30 3895 N 378.394 1.34581 0.820102 0
M  V30 3896 C 379.324 1.29038 1.94606 0
M  V30 3897 C 380.305 0.1673 1.69275 0
M  V30 3898 O 381.49 0.360112 1.90832 0
M  V30 3899 C 378.62 1.04793 3.31113 0
M  V30 3900 C 377.574 2.13597 3.70891 0
M  V30 3901 C 376.9 1.74537 5.05412 0
M  V30 3902 C 378.2 3.55451 3.8269 0
M  V30 3903 H 379.894 2.23248 1.99501 0
M  V30 3904 H 377.44 1.0747 0.958449 0
M  V30 3905 H 379.393 0.995592 4.0947 0
M  V30 3906 H 378.117 0.0702565 3.26524 0
M  V30 3907 H 376.776 2.17905 2.9481 0
M  V30 3908 H 376.424 0.754226 4.97313 0
M  V30 3909 H 376.124 2.47361 5.32997 0
M  V30 3910 H 377.648 1.70803 5.86224 0
M  V30 3911 H 379.062 3.5354 4.51312 0
M  V30 3912 H 377.459 4.26922 4.21732 0
M  V30 3913 H 378.529 3.92587 2.84611 0
M  V30 3914 N 379.872 -1.04064 1.18357 0
M  V30 3915 C 381.149 -1.74252 0.888581 0
M  V30 3916 C 381.529 -2.02138 -0.60856 0
M  V30 3917 O 380.877 -1.66656 -1.56327 0
M  V30 3918 C 381.087 -3.0277 1.73584 0
M  V30 3919 C 382.435 -3.76506 1.96286 0
M  V30 3920 O 383.459 -3.12668 1.70637 0
M  V30 3921 O 382.318 -4.91243 2.39464 0
M  V30 3922 H 379.412 -0.758271 0.330082 0
M  V30 3923 H 381.958 -1.1013 1.2911 0
M  V30 3924 H 380.73 -2.78299 2.75073 0
M  V30 3925 H 380.353 -3.74631 1.33183 0
M  V30 3926 N 381.35 -0.985608 -1.22978 0
M  V30 3927 C 382.298 -0.522631 -2.26652 0
M  V30 3928 C 383.292 0.422998 -1.64034 0
M  V30 3929 O 384.498 0.296319 -1.77544 0
M  V30 3930 H 380.873 -0.150597 -0.736766 0
M  V30 3931 H 382.844 -1.40863 -2.63059 0
M  V30 3932 C 381.593 0.154238 -3.47358 0
M  V30 3933 H 380.916 -0.564329 -3.95797 0
M  V30 3934 H 382.356 0.441744 -4.21693 0
M  V30 3935 C 380.815 1.38719 -3.07016 0
M  V30 3936 O 381.345 2.48307 -3.15764 0
M  V30 3937 N 379.551 1.25975 -2.61875 0
M  V30 3938 H 379.098 0.368068 -2.54957 0
M  V30 3939 H 379.056 2.08578 -2.3525 0
M  V30 3940 N 382.828 1.3818 -0.7579 0
M  V30 3941 C 384.056 2.04301 -0.326937 0
M  V30 3942 C 384.471 1.57163 1.0462 0
M  V30 3943 O 383.828 0.746626 1.66529 0
M  V30 3944 C 383.879 3.59846 -0.345363 0
M  V30 3945 O 383.6 4.05256 -1.66432 0
M  V30 3946 C 385.101 4.4319 0.098927 0
M  V30 3947 H 382.321 0.656443 -0.139012 0
M  V30 3948 H 384.865 1.76786 -1.02796 0
M  V30 3949 H 383.02 3.86182 0.306955 0
M  V30 3950 H 383.434 4.99709 -1.59345 0
M  V30 3951 H 384.908 5.51989 0.0348745 0
M  V30 3952 H 385.385 4.23947 1.14741 0
M  V30 3953 H 385.991 4.22051 -0.52468 0
M  V30 3954 N 384.306 0.507319 1.49211 0
M  V30 3955 C 385.216 -0.272136 2.33016 0
M  V30 3956 C 386.232 -0.961206 1.45041 0
M  V30 3957 O 387.408 -0.941191 1.78055 0
M  V30 3958 C 384.473 -1.31895 3.20631 0
M  V30 3959 C 383.534 -0.642648 4.24463 0
M  V30 3960 C 382.767 -1.63959 5.07891 0
M  V30 3961 O 382.99 -2.87007 4.92933 0
M  V30 3962 O 381.924 -1.19143 5.8999 0
M  V30 3963 H 385.75 0.413982 3.00865 0
M  V30 3964 H 383.335 0.268556 1.46966 0
M  V30 3965 H 385.217 -1.92446 3.7489 0
M  V30 3966 H 383.892 -1.98788 2.5547 0
M  V30 3967 H 382.799 0.00276252 3.741 0
M  V30 3968 H 384.132 -0.0160534 4.92197 0
M  V30 3969 N 385.784 -1.5574 0.241426 0
M  V30 3970 C 387.061 -1.90704 -0.434881 0
M  V30 3971 C 387.441 -1.16145 -1.76277 0
M  V30 3972 O 386.789 -0.277152 -2.26813 0
M  V30 3973 C 386.999 -3.43657 -0.608343 0
M  V30 3974 C 388.347 -4.14806 -0.906725 0
M  V30 3975 O 389.371 -3.49366 -0.694408 0
M  V30 3976 O 388.23 -5.30548 -1.31075 0
M  V30 3977 H 385.324 -0.793592 -0.23268 0
M  V30 3978 H 387.87 -1.67288 0.285086 0
M  V30 3979 H 386.642 -3.89927 0.327505 0
M  V30 3980 H 386.265 -3.72918 -1.37906 0
M  V30 3981 N 387.262 0.0317525 -1.57568 0
M  V30 3982 C 388.51 0.721676 -1.88776 0
M  V30 3983 C 388.831 1.76039 -0.838772 0
M  V30 3984 O 388.101 1.95482 0.127935 0
M  V30 3985 H 386.681 0.269534 -0.696678 0
M  V30 3986 H 389.343 -0.00165879 -1.949 0
M  V30 3987 H 388.439 1.21293 -2.87566 0
M  V30 3988 N 388.74 1.54641 0.303973 0
M  V30 3989 C 389.989 1.7299 1.03717 0
M  V30 3990 C 390.302 0.521168 1.88529 0
M  V30 3991 O 391.508 0.586408 2.65092 0
M  V30 3992 C 389.964 3.06051 1.89369 0
M  V30 3993 C 389.572 4.34393 1.09574 0
M  V30 3994 C 391.316 3.3376 2.62306 0
M  V30 3995 C 389.223 5.58506 1.94486 0
M  V30 3996 H 388.153 0.64473 0.390947 0
M  V30 3997 H 390.804 1.81124 0.294328 0
M  V30 3998 H 389.186 2.91874 2.67629 0
M  V30 3999 H 390.36 4.59396 0.359485 0
M  V30 4000 H 388.675 4.13597 0.482324 0
M  V30 4001 H 391.272 4.23687 3.26181 0
M  V30 4002 H 391.615 2.52503 3.3098 0
M  V30 4003 H 392.148 3.48894 1.91097 0
M  V30 4004 H 388.887 6.42422 1.30287 0
M  V30 4005 H 388.407 5.37694 2.65792 0
M  V30 4006 H 390.086 5.95651 2.52605 0
M  V30 4007 N 390.218 -0.567019 1.47046 0
M  V30 4008 C 391.464 -1.32658 1.53394 0
M  V30 4009 C 391.797 -1.93254 0.19148 0
M  V30 4010 O 391.072 -1.77338 -0.798844 0
M  V30 4011 C 391.355 -2.44412 2.64452 0
M  V30 4012 C 391.208 -1.88749 4.08282 0
M  V30 4013 C 392.527 -3.46387 2.71485 0
M  V30 4014 H 389.646 -0.48098 0.558415 0
M  V30 4015 H 392.288 -0.635481 1.79058 0
M  V30 4016 H 390.438 -3.03363 2.427 0
M  V30 4017 H 392.11 -1.34134 4.41368 0
M  V30 4018 H 390.353 -1.19481 4.17021 0
M  V30 4019 H 391.024 -2.69491 4.81745 0
M  V30 4020 H 393.5 -2.9734 2.91081 0
M  V30 4021 H 392.376 -4.2202 3.50985 0
M  V30 4022 H 392.637 -4.04616 1.78153 0
M  V30 4023 N 391.696 -1.35014 -0.812953 0
M  V30 4024 C 392.626 -1.30069 -1.93919 0
M  V30 4025 C 393.607 -0.176275 -1.69184 0
M  V30 4026 O 394.792 -0.370227 -1.90638 0
M  V30 4027 C 391.922 -1.06547 -3.30552 0
M  V30 4028 C 390.876 -2.15561 -3.69753 0
M  V30 4029 C 390.202 -1.77214 -5.04479 0
M  V30 4030 C 391.502 -3.57476 -3.808 0
M  V30 4031 H 393.196 -2.24303 -1.98314 0
M  V30 4032 H 390.742 -1.07977 -0.952736 0
M  V30 4033 H 392.695 -1.01729 -4.08937 0
M  V30 4034 H 391.419 -0.0875719 -3.26483 0
M  V30 4035 H 390.078 -2.19466 -2.9365 0
M  V30 4036 H 389.726 -0.780589 -4.96906 0
M  V30 4037 H 389.426 -2.50184 -5.31678 0
M  V30 4038 H 390.95 -1.7391 -5.8531 0
M  V30 4039 H 392.364 -3.55929 -4.4943 0
M  V30 4040 H 390.761 -4.29152 -4.19462 0
M  V30 4041 H 391.831 -3.94091 -2.82525 0
M  V30 4042 N 393.175 1.03435 -1.18907 0
M  V30 4043 C 394.423 1.76394 -0.986382 0
M  V30 4044 C 394.744 1.88883 0.484567 0
M  V30 4045 O 394.014 1.41843 1.3512 0
M  V30 4046 H 392.594 0.65344 -0.361975 0
M  V30 4047 H 395.256 1.248 -1.49703 0
M  V30 4048 H 394.352 2.77424 -1.42978 0
M  V30 4049 N 394.653 0.992116 1.22453 0
M  V30 4050 C 395.899 0.668523 1.91464 0
M  V30 4051 C 396.232 -0.797313 1.77078 0
M  V30 4052 O 395.507 -1.5765 1.13916 0
M  V30 4053 C 395.79 1.07424 3.43703 0
M  V30 4054 C 395.643 2.59857 3.67143 0
M  V30 4055 C 396.962 0.626891 4.35612 0
M  V30 4056 H 394.081 0.244341 0.695318 0
M  V30 4057 H 396.723 1.2355 1.44345 0
M  V30 4058 H 394.873 0.591816 3.83966 0
M  V30 4059 H 396.545 3.15764 3.3629 0
M  V30 4060 H 394.788 3.01961 3.11451 0
M  V30 4061 H 395.459 2.83296 4.73759 0
M  V30 4062 H 397.935 1.04125 4.02861 0
M  V30 4063 H 396.811 0.939076 5.40807 0
M  V30 4064 H 397.072 -0.472457 4.39568 0
M  V30 4065 N 396.131 -1.37776 0.765217 0
M  V30 4066 C 397.079 -2.32209 0.134798 0
M  V30 4067 C 398.073 -1.54607 -0.692315 0
M  V30 4068 O 399.279 -1.70052 -0.590109 0
M  V30 4069 H 395.654 -0.751591 0.0248005 0
M  V30 4070 H 397.625 -2.8297 0.947119 0
M  V30 4071 C 396.374 -3.39841 -0.735063 0
M  V30 4072 H 395.697 -3.99654 -0.107991 0
M  V30 4073 H 397.137 -4.08296 -1.14326 0
M  V30 4074 C 395.596 -2.79378 -1.88281 0
M  V30 4075 O 396.126 -2.69608 -2.97783 0
M  V30 4076 N 394.332 -2.37016 -1.68142 0
M  V30 4077 H 393.879 -2.45162 -0.790772 0
M  V30 4078 H 393.837 -1.96905 -2.45104 0
M  V30 4079 N 397.609 -0.515225 -1.4894 0
M  V30 4080 C 398.559 0.275113 -2.26334 0
M  V30 4081 C 399.543 0.923007 -1.31793 0
M  V30 4082 O 400.735 0.828254 -1.56426 0
M  V30 4083 C 397.864 1.33041 -3.16473 0
M  V30 4084 C 396.95 0.688051 -4.18481 0
M  V30 4085 N 397.341 -0.217638 -5.05332 0
M  V30 4086 C 395.639 0.94699 -4.3583 0
M  V30 4087 C 396.34 -0.58676 -5.78733 0
M  V30 4088 N 395.316 0.0486966 -5.43578 0
M  V30 4089 H 399.118 -0.421876 -2.90856 0
M  V30 4090 H 396.632 -0.332249 -1.58965 0
M  V30 4091 H 398.629 1.9102 -3.70563 0
M  V30 4092 H 397.289 2.02894 -2.53504 0
M  V30 4093 H 398.3 -0.589343 -5.14536 0
M  V30 4094 H 394.977 1.63719 -3.8406 0
M  V30 4095 H 396.367 -1.32855 -6.58634 0
M  V30 4096 N 399.087 1.5561 -0.249682 0
M  V30 4097 C 400.035 2.22894 0.664906 0
M  V30 4098 C 401.029 1.21743 1.17792 0
M  V30 4099 O 402.235 1.39748 1.13449 0
M  V30 4100 H 398.61 0.715022 0.232912 0
M  V30 4101 H 400.581 2.98307 0.0742998 0
M  V30 4102 C 399.33 2.94424 1.84959 0
M  V30 4103 H 398.653 3.72031 1.46399 0
M  V30 4104 H 400.093 3.44862 2.4667 0
M  V30 4105 C 398.552 1.98454 2.72245 0
M  V30 4106 O 399.082 1.51939 3.71857 0
M  V30 4107 N 397.288 1.65496 2.38871 0
M  V30 4108 H 396.835 2.03517 1.57919 0
M  V30 4109 H 396.793 1.0155 2.97548 0
M  V30 4110 N 400.565 -0.0233959 1.57583 0
M  V30 4111 C 401.813 -0.711654 1.89156 0
M  V30 4112 C 402.134 -1.75591 0.848096 0
M  V30 4113 O 401.404 -1.95547 -0.117566 0
M  V30 4114 H 399.984 -0.265835 0.698098 0
M  V30 4115 H 402.646 0.0119948 1.94896 0
M  V30 4116 H 401.742 -1.19766 2.88206 0
M  V30 4117 N 402.043 -1.548 -0.295768 0
M  V30 4118 C 403.292 -1.73538 -1.02798 0
M  V30 4119 C 403.605 -0.531159 -1.8825 0
M  V30 4120 O 404.811 -0.600458 -2.64777 0
M  V30 4121 C 403.267 -3.07051 -1.87744 0
M  V30 4122 C 402.875 -4.34968 -1.07269 0
M  V30 4123 C 404.619 -3.35146 -2.60533 0
M  V30 4124 C 402.526 -5.5953 -1.91521 0
M  V30 4125 H 401.456 -0.646794 -0.387522 0
M  V30 4126 H 404.107 -1.81278 -0.284718 0
M  V30 4127 H 402.489 -2.93289 -2.66078 0
M  V30 4128 H 403.663 -4.5958 -0.335117 0
M  V30 4129 H 401.978 -4.13847 -0.460384 0
M  V30 4130 H 404.575 -4.2541 -3.23929 0
M  V30 4131 H 404.918 -2.54255 -3.29636 0
M  V30 4132 H 405.451 -3.49902 -1.89244 0
M  V30 4133 H 402.19 -6.43103 -1.26878 0
M  V30 4134 H 401.71 -5.39096 -2.62937 0
M  V30 4135 H 403.389 -5.96982 -2.49442 0
M  V30 4136 N 403.521 0.559213 -1.47345 0
M  V30 4137 C 404.749 1.34194 -1.57479 0
M  V30 4138 C 405.164 1.87463 -0.224261 0
M  V30 4139 O 404.521 1.64888 0.782185 0
M  V30 4140 C 404.572 2.51324 -2.59843 0
M  V30 4141 O 404.293 2.00256 -3.89653 0
M  V30 4142 C 405.794 3.43563 -2.80142 0
M  V30 4143 H 403.014 0.409136 -0.531835 0
M  V30 4144 H 405.558 0.677609 -1.92947 0
M  V30 4145 H 403.713 3.13699 -2.27314 0
M  V30 4146 H 404.127 2.76708 -4.4557 0
M  V30 4147 H 405.601 4.2217 -3.55635 0
M  V30 4148 H 406.078 3.9698 -1.87892 0
M  V30 4149 H 406.684 2.87005 -3.1386 0
M  V30 4150 N 404.999 1.35443 0.805782 0
M  V30 4151 C 406.239 1.30127 1.57627 0
M  V30 4152 C 406.603 -0.122567 1.91608 0
M  V30 4153 O 407.804 -0.300107 2.67119 0
M  V30 4154 C 406.075 2.18314 2.82973 0
M  V30 4155 S 407.634 2.30521 3.7337 0
M  V30 4156 H 404.452 0.462439 0.540066 0
M  V30 4157 H 407.054 1.70843 0.95042 0
M  V30 4158 H 405.758 3.20741 2.56034 0
M  V30 4159 H 405.289 1.78558 3.50543 0
M  V30 4160 H 407.304 1.49062 4.73281 0
M  V30 4161 N 406.477 -1.02803 1.19454 0
M  V30 4162 C 407.387 -2.14575 0.948408 0
M  V30 4163 C 408.403 -1.73757 -0.091871 0
M  V30 4164 O 409.579 -2.01185 0.0929654 0
M  V30 4165 C 406.644 -3.43202 0.491265 0
M  V30 4166 C 405.705 -3.98328 1.60103 0
M  V30 4167 C 404.938 -5.20816 1.16561 0
M  V30 4168 O 405.161 -5.70392 0.0295238 0
M  V30 4169 O 404.095 -5.68801 1.96849 0
M  V30 4170 H 407.921 -2.38202 1.88397 0
M  V30 4171 H 405.506 -1.12989 0.977433 0
M  V30 4172 H 407.388 -4.20687 0.245015 0
M  V30 4173 H 406.063 -3.21018 -0.415851 0
M  V30 4174 H 404.97 -3.22174 1.90144 0
M  V30 4175 H 406.303 -4.24879 2.48473 0
M  V30 4176 N 407.956 -0.998596 -1.21925 0
M  V30 4177 C 408.886 -0.573688 -2.26343 0
M  V30 4178 C 409.867 0.402296 -1.65274 0
M  V30 4179 O 411.052 0.291683 -1.91997 0
M  V30 4180 C 408.182 0.106839 -3.47136 0
M  V30 4181 C 407.136 -0.788269 -4.20678 0
M  V30 4182 C 406.462 0.0254927 -5.34694 0
M  V30 4183 C 407.762 -2.08784 -4.78755 0
M  V30 4184 H 409.456 -1.44651 -2.62138 0
M  V30 4185 H 407.002 -0.696975 -1.26009 0
M  V30 4186 H 408.955 0.415531 -4.19346 0
M  V30 4187 H 407.679 1.01424 -3.10452 0
M  V30 4188 H 406.338 -1.08069 -3.50309 0
M  V30 4189 H 405.986 0.933989 -4.94253 0
M  V30 4190 H 405.686 -0.570437 -5.84825 0
M  V30 4191 H 407.21 0.328147 -6.09718 0
M  V30 4192 H 408.624 -1.84272 -5.42878 0
M  V30 4193 H 407.021 -2.63307 -5.39249 0
M  V30 4194 H 408.091 -2.76284 -3.98491 0
M  V30 4195 N 409.434 1.37368 -0.772513 0
M  V30 4196 C 410.659 2.0447 -0.347386 0
M  V30 4197 C 411.084 1.57882 1.0225 0
M  V30 4198 O 410.442 0.73941 1.65537 0
M  V30 4199 C 410.49 3.58369 -0.400479 0
M  V30 4200 O 409.594 4.0803 0.598789 0
M  V30 4201 H 408.935 0.646773 -0.15027 0
M  V30 4202 H 411.465 1.75667 -1.04892 0
M  V30 4203 H 411.475 4.07183 -0.258045 0
M  V30 4204 H 410.15 3.91633 -1.39986 0
M  V30 4205 H 408.727 3.70534 0.419411 0
M  V30 4206 N 410.912 0.523116 1.48665 0
M  V30 4207 C 411.822 -0.247406 2.33292 0
M  V30 4208 C 412.838 -0.945769 1.46052 0
M  V30 4209 O 414.014 -0.922253 1.79043 0
M  V30 4210 C 411.079 -1.28487 3.22012 0
M  V30 4211 C 410.14 -0.597592 4.2512 0
M  V30 4212 C 409.373 -1.58563 5.09601 0
M  V30 4213 O 409.596 -2.81763 4.95949 0
M  V30 4214 O 408.53 -1.12879 5.91221 0
M  V30 4215 H 412.356 0.445869 3.00409 0
M  V30 4216 H 409.941 0.284128 1.46673 0
M  V30 4217 H 411.823 -1.88459 3.7691 0
M  V30 4218 H 410.498 -1.96068 2.57564 0
M  V30 4219 H 409.405 0.0424407 3.74076 0
M  V30 4220 H 410.738 0.0361517 4.92187 0
M  V30 4221 N 412.39 -1.55475 0.257931 0
M  V30 4222 C 413.338 -2.23244 -0.653076 0
M  V30 4223 C 414.332 -1.22366 -1.17144 0
M  V30 4224 O 415.538 -1.40347 -1.12706 0
M  V30 4225 H 411.913 -0.716247 -0.229117 0
M  V30 4226 H 413.884 -2.98343 -0.0584788 0
M  V30 4227 C 412.633 -2.95401 -1.83395 0
M  V30 4228 H 411.956 -3.72802 -1.44424 0
M  V30 4229 H 413.396 -3.46165 -2.44838 0
M  V30 4230 C 411.855 -1.99895 -2.71189 0
M  V30 4231 O 412.385 -1.53909 -3.71046 0
M  V30 4232 N 410.591 -1.6676 -2.3799 0
M  V30 4233 H 410.138 -2.04352 -1.56837 0
M  V30 4234 H 410.096 -1.03127 -2.97005 0
M  V30 4235 N 413.868 0.0150385 -1.57593 0
M  V30 4236 C 414.798 1.01047 -2.10503 0
M  V30 4237 C 415.779 1.36816 -1.01071 0
M  V30 4238 O 416.964 1.45455 -1.28672 0
M  V30 4239 C 414.094 2.30708 -2.59598 0
M  V30 4240 C 413.048 2.09142 -3.73421 0
M  V30 4241 C 412.374 3.44685 -4.08774 0
M  V30 4242 C 413.674 1.46619 -5.01298 0
M  V30 4243 H 415.368 0.569978 -2.93925 0
M  V30 4244 H 412.914 0.272724 -1.41394 0
M  V30 4245 H 414.867 3.00687 -2.95238 0
M  V30 4246 H 413.591 2.76843 -1.73279 0
M  V30 4247 H 412.25 1.41592 -3.38153 0
M  V30 4248 H 411.898 3.88495 -3.195 0
M  V30 4249 H 411.598 3.31077 -4.8545 0
M  V30 4250 H 413.122 4.16004 -4.4696 0
M  V30 4251 H 414.536 2.06535 -5.34805 0
M  V30 4252 H 412.933 1.43544 -5.82679 0
M  V30 4253 H 414.003 0.433611 -4.82957 0
M  V30 4254 N 415.346 1.54954 0.287554 0
M  V30 4255 C 416.757 1.65732 0.859634 0
M  V30 4256 C 417.108 0.574767 1.87592 0
M  V30 4257 O 416.233 -0.286299 2.14498 0
M  V30 4258 C 416.828 3.00438 1.56597 0
M  V30 4259 C 415.387 3.13292 2.08627 0
M  V30 4260 C 414.534 2.61473 0.923416 0
M  V30 4261 H 417.485 1.5857 0.0642338 0
M  V30 4262 H 417.506 2.92613 2.43224 0
M  V30 4263 H 417.018 3.79207 0.826053 0
M  V30 4264 H 415.119 2.39268 2.85625 0
M  V30 4265 H 415.232 4.19647 2.31157 0
M  V30 4266 H 413.596 2.18264 1.31275 0
M  V30 4267 H 414.379 3.42733 0.197241 0
M  V30 4268 N 416.824 -0.551391 1.4764 0
M  V30 4269 C 418.072 -1.30572 1.54258 0
M  V30 4270 C 418.393 -1.93877 0.208963 0
M  V30 4271 O 417.663 -1.80234 -0.767619 0
M  V30 4272 H 416.243 -0.484894 0.568231 0
M  V30 4273 H 418.905 -0.643402 1.83974 0
M  V30 4274 H 418.001 -2.09621 2.31226 0
M  V30 4275 N 418.302 -1.35869 -0.798587 0
M  V30 4276 C 419.532 -1.32529 -1.58491 0
M  V30 4277 C 419.94 0.0975405 -1.88948 0
M  V30 4278 O 419.283 1.06224 -1.49874 0
M  V30 4279 C 419.345 -2.07247 -2.9375 0
M  V30 4280 C 419.009 -3.56391 -2.86068 0
M  V30 4281 C 420.006 -4.50824 -2.58947 0
M  V30 4282 C 417.691 -3.9915 -3.04933 0
M  V30 4283 C 419.685 -5.85993 -2.5078 0
M  V30 4284 C 417.372 -5.34413 -2.96389 0
M  V30 4285 C 418.37 -6.27646 -2.69349 0
M  V30 4286 O 418.058 -7.60426 -2.60782 0
M  V30 4287 H 417.79 -0.456529 -0.498556 0
M  V30 4288 H 420.344 -1.79425 -0.999799 0
M  V30 4289 H 418.574 -1.55001 -3.54276 0
M  V30 4290 H 420.263 -1.96883 -3.54954 0
M  V30 4291 H 421.029 -4.19104 -2.44084 0
M  V30 4292 H 416.908 -3.26961 -3.24989 0
M  V30 4293 H 420.452 -6.58735 -2.29595 0
M  V30 4294 H 416.349 -5.65743 -3.10813 0
M  V30 4295 H 417.117 -7.70444 -2.76331 0
M  V30 4296 N 419.78 1.02168 -1.19998 0
M  V30 4297 C 421.029 1.75091 -1.0013 0
M  V30 4298 C 421.342 1.89923 0.467835 0
M  V30 4299 O 422.548 2.59888 0.785515 0
M  V30 4300 C 421.004 3.14892 -1.74273 0
M  V30 4301 C 420.612 3.0809 -3.25245 0
M  V30 4302 C 422.356 3.9206 -1.62755 0
M  V30 4303 C 420.263 4.42867 -3.91948 0
M  V30 4304 H 419.193 0.656394 -0.37103 0
M  V30 4305 H 421.844 1.14284 -1.43567 0
M  V30 4306 H 420.226 3.7621 -1.2362 0
M  V30 4307 H 421.4 2.5611 -3.83072 0
M  V30 4308 H 419.715 2.44416 -3.3712 0
M  V30 4309 H 422.312 4.91764 -2.09934 0
M  V30 4310 H 422.655 4.12199 -0.582894 0
M  V30 4311 H 423.188 3.37359 -2.10793 0
M  V30 4312 H 419.927 4.27931 -4.96543 0
M  V30 4313 H 419.447 4.94874 -3.3891 0
M  V30 4314 H 421.126 5.11728 -3.95909 0
M  V30 4315 N 421.258 1.00505 1.21394 0
M  V30 4316 C 422.505 0.687774 1.90462 0
M  V30 4317 C 422.833 -0.78147 1.7811 0
M  V30 4318 O 422.088 -1.58208 1.1519 0
M  V30 4319 C 422.387 1.0546 3.41486 0
M  V30 4320 C 422.053 2.51812 3.74034 0
M  V30 4321 C 420.715 2.91804 3.82628 0
M  V30 4322 C 423.067 3.46614 3.8924 0
M  V30 4323 C 420.395 4.2556 4.03876 0
M  V30 4324 C 422.747 4.80044 4.11995 0
M  V30 4325 C 421.411 5.19759 4.18816 0
M  V30 4326 H 420.681 0.251674 0.696951 0
M  V30 4327 H 423.328 1.26349 1.43903 0
M  V30 4328 H 421.633 0.397133 3.89782 0
M  V30 4329 H 423.33 0.786976 3.93202 0
M  V30 4330 H 419.92 2.1982 3.67936 0
M  V30 4331 H 424.104 3.16883 3.81967 0
M  V30 4332 H 419.36 4.55901 4.07387 0
M  V30 4333 H 423.534 5.53439 4.22704 0
M  V30 4334 H 421.161 6.23418 4.35033 0
M  V30 4335 N 422.737 -1.36956 0.779787 0
M  V30 4336 C 423.962 -2.04283 0.358224 0
M  V30 4337 C 424.387 -1.58422 -1.01411 0
M  V30 4338 O 423.745 -0.748179 -1.65142 0
M  V30 4339 C 423.793 -3.58152 0.419479 0
M  V30 4340 O 422.897 -4.08342 -0.577142 0
M  V30 4341 H 422.238 -0.645967 0.153698 0
M  V30 4342 H 424.768 -1.75108 1.05822 0
M  V30 4343 H 424.778 -4.07041 0.279636 0
M  V30 4344 H 423.453 -3.90886 1.42061 0
M  V30 4345 H 422.03 -3.70751 -0.399755 0
M  V30 4346 N 424.215 -0.530993 -1.48385 0
M  V30 4347 C 425.463 0.00273189 -2.021 0
M  V30 4348 C 425.784 1.34672 -1.41027 0
M  V30 4349 O 425.054 1.8724 -0.576012 0
M  V30 4350 H 423.634 0.00399774 -0.746989 0
M  V30 4351 H 426.296 -0.695054 -1.82085 0
M  V30 4352 H 425.392 0.11031 -3.11905 0
M  V30 4353 N 425.693 1.55336 -0.266172 0
M  V30 4354 C 426.939 1.99692 0.353681 0
M  V30 4355 C 427.272 1.1543 1.56172 0
M  V30 4356 O 426.547 0.222218 1.93226 0
M  V30 4357 C 426.83 3.52316 0.74466 0
M  V30 4358 C 426.683 4.47337 -0.470101 0
M  V30 4359 C 428.002 4.10588 1.58447 0
M  V30 4360 H 425.121 0.725961 0.12708 0
M  V30 4361 H 427.763 1.86336 -0.371333 0
M  V30 4362 H 425.913 3.63829 1.36239 0
M  V30 4363 H 427.585 4.4778 -1.10864 0
M  V30 4364 H 425.828 4.19364 -1.10978 0
M  V30 4365 H 426.499 5.51788 -0.15291 0
M  V30 4366 H 428.975 4.02297 1.06286 0
M  V30 4367 H 427.851 5.17607 1.82686 0
M  V30 4368 H 428.112 3.60253 2.56262 0
M  V30 4369 N 427.171 -0.0066808 1.57599 0
M  V30 4370 C 428.134 -0.985035 2.06953 0
M  V30 4371 C 429.134 -1.27663 0.977687 0
M  V30 4372 O 430.324 -1.22293 1.24057 0
M  V30 4373 C 427.456 -2.3118 2.50536 0
M  V30 4374 H 428.649 -0.558255 2.94658 0
M  V30 4375 H 426.202 -0.254011 1.54222 0
M  V30 4376 H 426.937 -2.78561 1.66054 0
M  V30 4377 H 426.722 -2.11338 3.3027 0
M  V30 4378 H 428.212 -3.01377 2.8907 0
M  V30 4379 N 428.649 -1.55105 -0.279332 0
M  V30 4380 C 430.06 -1.66186 -0.850832 0
M  V30 4381 C 430.411 -0.584707 -1.87285 0
M  V30 4382 O 429.536 0.274919 -2.14647 0
M  V30 4383 C 430.131 -3.01264 -1.55001 0
M  V30 4384 C 428.69 -3.14394 -2.06963 0
M  V30 4385 C 427.837 -2.61959 -0.909536 0
M  V30 4386 H 430.788 -1.58602 -0.0558235 0
M  V30 4387 H 430.809 -2.93899 -2.41669 0
M  V30 4388 H 430.321 -3.7964 -0.805931 0
M  V30 4389 H 428.422 -2.4078 -2.84352 0
M  V30 4390 H 428.535 -4.20867 -2.28928 0
M  V30 4391 H 426.899 -2.18957 -1.30116 0
M  V30 4392 H 427.682 -3.42833 -0.179062 0
M  V30 4393 N 430.127 0.543554 -1.4793 0
M  V30 4394 C 431.373 1.30201 -1.55485 0
M  V30 4395 C 431.706 1.92925 -0.222201 0
M  V30 4396 O 430.981 1.78586 0.77053 0
M  V30 4397 C 431.264 2.40174 -2.68307 0
M  V30 4398 C 431.117 1.8223 -4.11233 0
M  V30 4399 C 432.436 3.42024 -2.76961 0
M  V30 4400 H 429.555 0.472036 -0.565996 0
M  V30 4401 H 432.197 0.606914 -1.80046 0
M  V30 4402 H 430.347 2.99463 -2.47495 0
M  V30 4403 H 432.019 1.27096 -4.43446 0
M  V30 4404 H 430.262 1.12832 -4.18869 0
M  V30 4405 H 430.933 2.61793 -4.85972 0
M  V30 4406 H 433.409 2.92672 -2.95774 0
M  V30 4407 H 432.285 4.16383 -3.57654 0
M  V30 4408 H 432.546 4.0173 -1.84568 0
M  V30 4409 N 431.605 1.3629 0.791371 0
M  V30 4410 C 432.851 1.30605 1.55146 0
M  V30 4411 C 433.184 -0.115042 1.93859 0
M  V30 4412 O 432.459 -1.06798 1.62556 0
M  V30 4413 C 432.742 2.22692 2.82985 0
M  V30 4414 C 432.595 3.73489 2.50651 0
M  V30 4415 C 433.914 2.13588 3.84796 0
M  V30 4416 H 431.033 0.475761 0.562868 0
M  V30 4417 H 433.675 1.66825 0.909358 0
M  V30 4418 H 431.825 1.91933 3.37778 0
M  V30 4419 H 433.497 4.14758 2.01924 0
M  V30 4420 H 431.74 3.93021 1.83622 0
M  V30 4421 H 432.411 4.3333 3.41949 0
M  V30 4422 H 434.887 2.40659 3.39445 0
M  V30 4423 H 433.763 2.80195 4.71998 0
M  V30 4424 H 434.024 1.12256 4.27611 0
M  V30 4425 N 433.083 -1.0153 1.20538 0
M  V30 4426 C 434.311 -1.78746 1.04199 0
M  V30 4427 C 434.726 -1.84323 -0.408733 0
M  V30 4428 O 434.083 -1.29714 -1.28377 0
M  V30 4429 C 434.134 -3.23152 1.62035 0
M  V30 4430 O 433.855 -3.17918 3.0143 0
M  V30 4431 C 435.356 -4.16911 1.50666 0
M  V30 4432 H 432.576 -0.56208 0.366479 0
M  V30 4433 H 435.12 -1.27794 1.59653 0
M  V30 4434 H 433.275 -3.71248 1.10697 0
M  V30 4435 H 433.689 -4.08567 3.28897 0
M  V30 4436 H 435.163 -5.16072 1.95892 0
M  V30 4437 H 435.64 -4.36791 0.459363 0
M  V30 4438 H 436.246 -3.74698 2.01201 0
M  V30 4439 N 434.561 -1.01147 -1.20859 0
M  V30 4440 C 435.471 -0.58686 -2.27141 0
M  V30 4441 C 436.487 0.373198 -1.69951 0
M  V30 4442 O 437.663 0.235423 -2.00019 0
M  V30 4443 C 434.728 0.0733602 -3.46622 0
M  V30 4444 C 433.789 -0.931995 -4.19061 0
M  V30 4445 C 433.022 -0.303186 -5.32838 0
M  V30 4446 O 433.245 0.898395 -5.63281 0
M  V30 4447 O 432.179 -1.01735 -5.9324 0
M  V30 4448 H 436.005 -1.47155 -2.65667 0
M  V30 4449 H 433.59 -0.780689 -1.2738 0
M  V30 4450 H 435.472 0.442333 -4.19072 0
M  V30 4451 H 434.147 0.932329 -3.09983 0
M  V30 4452 H 433.054 -1.35224 -3.48805 0
M  V30 4453 H 434.387 -1.76076 -4.59628 0
M  V30 4454 N 436.039 1.36541 -0.78704 0
M  V30 4455 C 436.972 2.27831 -0.129765 0
M  V30 4456 C 437.95 1.47105 0.692732 0
M  V30 4457 O 439.134 1.7641 0.664222 0
M  V30 4458 C 436.261 3.28577 0.821883 0
M  V30 4459 C 435.307 4.26422 0.0814771 0
M  V30 4460 S 436.14 5.20919 -1.24112 0
M  V30 4461 C 437.296 6.25212 -0.293409 0
M  V30 4462 H 437.529 2.83229 -0.903811 0
M  V30 4463 H 435.062 1.43046 -0.581144 0
M  V30 4464 H 437.02 3.87123 1.3655 0
M  V30 4465 H 435.681 2.72096 1.56916 0
M  V30 4466 H 434.874 4.97554 0.803485 0
M  V30 4467 H 434.476 3.71944 -0.391589 0
M  V30 4468 H 436.768 6.75435 0.528622 0
M  V30 4469 H 437.711 7.01378 -0.973344 0
M  V30 4470 H 438.119 5.64407 0.102196 0
M  V30 4471 N 437.518 0.538854 1.48102 0
M  V30 4472 C 438.448 -0.207654 2.32575 0
M  V30 4473 C 439.429 -0.926559 1.4265 0
M  V30 4474 O 440.614 -0.91061 1.71527 0
M  V30 4475 C 437.744 -1.24957 3.24042 0
M  V30 4476 C 436.698 -0.648263 4.23062 0
M  V30 4477 C 436.024 -1.79348 5.03725 0
M  V30 4478 C 437.324 0.385897 5.20872 0
M  V30 4479 H 439.018 0.497534 2.95237 0
M  V30 4480 H 436.564 0.240715 1.41974 0
M  V30 4481 H 438.517 -1.77983 3.81969 0
M  V30 4482 H 437.241 -1.98446 2.59397 0
M  V30 4483 H 435.9 -0.139452 3.66335 0
M  V30 4484 H 435.548 -2.51696 4.35498 0
M  V30 4485 H 435.248 -1.39702 5.70751 0
M  V30 4486 H 436.772 -2.32735 5.64506 0
M  V30 4487 H 438.186 -0.057607 5.73271 0
M  V30 4488 H 436.583 0.700227 5.96001 0
M  V30 4489 H 437.653 1.28848 4.67468 0
M  V30 4490 N 438.996 -1.55193 0.274407 0
M  V30 4491 C 440.242 -2.00604 -0.33608 0
M  V30 4492 C 440.597 -1.15948 -1.53538 0
M  V30 4493 O 439.89 -0.221385 -1.90317 0
M  V30 4494 C 440.084 -3.49019 -0.769458 0
M  V30 4495 C 439.913 -4.48038 0.386301 0
M  V30 4496 C 438.683 -4.97757 0.869854 0
M  V30 4497 C 440.881 -4.99558 1.22254 0
M  V30 4498 N 438.863 -5.80575 1.99515 0
M  V30 4499 C 440.234 -5.79816 2.19575 0
M  V30 4500 C 442.289 -4.81799 1.25597 0
M  V30 4501 C 440.992 -6.44208 3.19981 0
M  V30 4502 C 443.018 -5.46989 2.24848 0
M  V30 4503 C 442.38 -6.27058 3.20901 0
M  V30 4504 H 438.479 -0.777013 -0.088172 0
M  V30 4505 H 441.063 -1.90583 0.398266 0
M  V30 4506 H 439.234 -3.59383 -1.47303 0
M  V30 4507 H 440.966 -3.81263 -1.35722 0
M  V30 4508 H 437.721 -4.71464 0.449281 0
M  V30 4509 H 438.145 -6.26675 2.5614 0
M  V30 4510 H 442.787 -4.19501 0.527158 0
M  V30 4511 H 440.505 -7.05656 3.93796 0
M  V30 4512 H 444.091 -5.35189 2.28174 0
M  V30 4513 H 442.971 -6.7661 3.96445 0
M  V30 4514 N 440.474 -0.00167713 -1.576 0
M  V30 4515 C 441.751 0.719951 -1.81868 0
M  V30 4516 C 442.131 1.91895 -0.879747 0
M  V30 4517 O 441.479 2.28389 0.0711423 0
M  V30 4518 C 441.689 1.12409 -3.30402 0
M  V30 4519 C 443.037 1.52724 -3.96182 0
M  V30 4520 O 444.061 1.21784 -3.34734 0
M  V30 4521 O 442.92 2.10265 -5.04431 0
M  V30 4522 H 440.014 0.350707 -0.748955 0
M  V30 4523 H 442.56 -0.0272597 -1.69678 0
M  V30 4524 H 441.332 0.269532 -3.90371 0
M  V30 4525 H 440.955 1.93035 -3.47596 0
M  V30 4526 N 441.952 1.55251 0.271103 0
M  V30 4527 C 442.9 1.89054 1.35504 0
M  V30 4528 C 443.894 0.767064 1.51038 0
M  V30 4529 O 445.1 0.951429 1.528 0
M  V30 4530 H 441.475 0.600072 0.45323 0
M  V30 4531 H 443.446 2.79598 1.04247 0
M  V30 4532 C 442.195 2.18068 2.70817 0
M  V30 4533 H 441.518 3.04005 2.59656 0
M  V30 4534 H 442.958 2.4564 3.45597 0
M  V30 4535 C 441.417 0.988901 3.2206 0
M  V30 4536 O 441.947 0.224501 4.01072 0
M  V30 4537 N 440.153 0.786085 2.79766 0
M  V30 4538 H 439.7 1.40937 2.15626 0
M  V30 4539 H 439.658 -0.00969349 3.14399 0
M  V30 4540 N 443.43 -0.535701 1.48216 0
M  V30 4541 C 444.678 -1.28928 1.55634 0
M  V30 4542 C 444.999 -1.93645 0.229514 0
M  V30 4543 O 444.269 -1.81038 -0.74846 0
M  V30 4544 H 442.849 -0.47884 0.573342 0
M  V30 4545 H 445.511 -0.623853 1.84646 0
M  V30 4546 H 444.607 -2.07157 2.33436 0
M  V30 4547 N 444.908 -1.36708 -0.784132 0
M  V30 4548 C 445.838 -1.34153 -1.91116 0
M  V30 4549 C 446.819 -0.212121 -1.68772 0
M  V30 4550 O 448.004 -0.410581 -1.8981 0
M  V30 4551 C 445.134 -1.13535 -3.28218 0
M  V30 4552 C 444.088 -2.23356 -3.65097 0
M  V30 4553 C 443.414 -1.87875 -5.00607 0
M  V30 4554 C 444.714 -3.65473 -3.73131 0
M  V30 4555 H 446.408 -2.28459 -1.93512 0
M  V30 4556 H 443.954 -1.09973 -0.929618 0
M  V30 4557 H 445.907 -1.10381 -4.06687 0
M  V30 4558 H 444.631 -0.156804 -3.26223 0
M  V30 4559 H 443.29 -2.25645 -2.88929 0
M  V30 4560 H 442.938 -0.885814 -4.95139 0
M  V30 4561 H 442.638 -2.61406 -5.26252 0
M  V30 4562 H 444.162 -1.86286 -5.81489 0
M  V30 4563 H 445.576 -3.65382 -4.41779 0
M  V30 4564 H 443.973 -4.37953 -4.10265 0
M  V30 4565 H 445.043 -3.99995 -2.74102 0
M  V30 4566 N 446.386 1.0089 -1.21074 0
M  V30 4567 C 447.318 2.09737 -0.924291 0
M  V30 4568 C 448.331 1.62546 0.0909809 0
M  V30 4569 O 449.52 1.77942 -0.141021 0
M  V30 4570 C 446.62 3.36922 -0.36559 0
M  V30 4571 C 445.793 4.13216 -1.43426 0
M  V30 4572 C 444.852 5.18696 -0.885496 0
M  V30 4573 O 443.878 5.47176 -1.56801 0
M  V30 4574 N 445.08 5.79718 0.301227 0
M  V30 4575 H 447.845 2.34895 -1.8613 0
M  V30 4576 H 445.406 1.17341 -1.11546 0
M  V30 4577 H 447.398 4.04697 0.0158407 0
M  V30 4578 H 445.968 3.08952 0.476149 0
M  V30 4579 H 445.188 3.40301 -1.9897 0
M  V30 4580 H 446.476 4.60967 -2.15376 0
M  V30 4581 H 445.874 5.58926 0.872849 0
M  V30 4582 H 444.431 6.48804 0.624211 0
M  V30 4583 N 447.864 1.01787 1.20321 0
M  V30 4584 C 449.113 0.703249 1.89043 0
M  V30 4585 C 449.426 -0.770445 1.79787 0
M  V30 4586 O 450.632 -1.19767 2.43656 0
M  V30 4587 C 449.088 1.20749 3.3904 0
M  V30 4588 C 448.696 2.70817 3.56878 0
M  V30 4589 C 450.44 0.968352 4.13308 0
M  V30 4590 C 448.347 3.14716 5.00708 0
M  V30 4591 H 447.277 0.259354 0.707991 0
M  V30 4592 H 449.928 1.23072 1.36108 0
M  V30 4593 H 448.31 0.607989 3.91305 0
M  V30 4594 H 449.484 3.36327 3.14993 0
M  V30 4595 H 447.799 2.92888 2.95983 0
M  V30 4596 H 450.396 1.27173 5.19356 0
M  V30 4597 H 450.739 -0.095149 4.16191 0
M  V30 4598 H 451.272 1.53129 3.67146 0
M  V30 4599 H 448.011 4.20347 5.02979 0
M  V30 4600 H 447.531 2.53927 5.43398 0
M  V30 4601 H 449.21 3.07426 5.69296 0
M  V30 4602 N 449.342 -1.36122 0.79427 0
M  V30 4603 C 450.567 -2.03891 0.379871 0
M  V30 4604 C 450.992 -1.59488 -0.997251 0
M  V30 4605 O 450.35 -0.765652 -1.64339 0
M  V30 4606 C 450.398 -3.57687 0.457442 0
M  V30 4607 O 449.502 -4.08931 -0.5338 0
M  V30 4608 H 448.843 -0.6443 0.160541 0
M  V30 4609 H 451.373 -1.73976 1.07673 0
M  V30 4610 H 451.383 -4.06721 0.322792 0
M  V30 4611 H 450.058 -3.89357 1.46199 0
M  V30 4612 H 448.635 -3.71154 -0.360409 0
M  V30 4613 N 450.82 -0.546701 -1.47814 0
M  V30 4614 C 452.097 0.0464413 -1.95545 0
M  V30 4615 C 452.477 1.4962 -1.48919 0
M  V30 4616 O 451.825 2.16752 -0.723232 0
M  V30 4617 C 452.035 -0.0881298 -3.48889 0
M  V30 4618 C 453.383 0.0626059 -4.24554 0
M  V30 4619 O 454.407 -0.0151555 -3.56197 0
M  V30 4620 O 453.266 0.228071 -5.46024 0
M  V30 4621 H 450.36 0.0700004 -0.824032 0
M  V30 4622 H 452.906 -0.612482 -1.58262 0
M  V30 4623 H 451.678 -1.09737 -3.75597 0
M  V30 4624 H 451.301 0.608886 -3.9291 0
M  V30 4625 N 452.299 1.55045 -0.282633 0
M  V30 4626 C 453.548 1.98938 0.332667 0
M  V30 4627 C 453.861 1.17455 1.56409 0
M  V30 4628 O 455.067 1.51527 2.25282 0
M  V30 4629 C 453.523 3.54105 0.643226 0
M  V30 4630 C 453.131 4.44374 -0.568814 0
M  V30 4631 C 454.875 4.06569 1.22074 0
M  V30 4632 C 452.782 5.90943 -0.232426 0
M  V30 4633 H 451.712 0.743043 0.128075 0
M  V30 4634 H 454.363 1.79341 -0.388464 0
M  V30 4635 H 452.745 3.69532 1.42346 0
M  V30 4636 H 453.919 4.40718 -1.34551 0
M  V30 4637 H 452.234 4.02585 -1.06369 0
M  V30 4638 H 454.831 5.13626 1.48635 0
M  V30 4639 H 455.174 3.56057 2.15707 0
M  V30 4640 H 455.707 3.94612 0.502621 0
M  V30 4641 H 452.446 6.45567 -1.13683 0
M  V30 4642 H 451.966 5.9765 0.507357 0
M  V30 4643 H 453.645 6.4677 0.172657 0
M  V30 4644 N 453.777 0.010035 1.57597 0
M  V30 4645 C 455.054 -0.710296 1.82248 0
M  V30 4646 C 455.434 -1.91426 0.889911 0
M  V30 4647 O 454.782 -2.28424 -0.0590292 0
M  V30 4648 C 454.992 -1.10655 3.30993 0
M  V30 4649 C 456.34 -1.50621 3.96987 0
M  V30 4650 O 457.364 -1.20007 3.35375 0
M  V30 4651 O 456.223 -2.07587 5.05539 0
M  V30 4652 H 453.317 -0.34673 0.750804 0
M  V30 4653 H 455.863 0.0362578 1.69661 0
M  V30 4654 H 454.635 -0.248826 3.90508 0
M  V30 4655 H 454.258 -1.91189 3.48615 0
M  V30 4656 N 455.255 -1.55392 -0.262866 0
M  V30 4657 C 456.185 -1.91978 -1.32917 0
M  V30 4658 C 457.166 -0.7828 -1.51017 0
M  V30 4659 O 458.351 -1.04178 -1.63892 0
M  V30 4660 C 455.481 -2.20055 -2.68687 0
M  V30 4661 C 454.435 -3.35854 -2.65304 0
M  V30 4662 C 453.761 -3.49435 -4.04721 0
M  V30 4663 C 455.061 -4.71977 -2.23685 0
M  V30 4664 H 456.755 -2.81292 -1.02544 0
M  V30 4665 H 454.301 -1.3534 -0.491846 0
M  V30 4666 H 456.254 -2.44237 -3.43404 0
M  V30 4667 H 454.978 -1.27551 -3.00663 0
M  V30 4668 H 453.637 -3.11655 -1.93045 0
M  V30 4669 H 453.285 -2.54379 -4.33936 0
M  V30 4670 H 452.985 -4.27297 -4.0335 0
M  V30 4671 H 454.509 -3.7592 -4.81161 0
M  V30 4672 H 455.923 -4.95637 -2.88127 0
M  V30 4673 H 454.32 -5.52828 -2.33456 0
M  V30 4674 H 455.39 -4.70115 -1.18827 0
M  V30 4675 N 456.733 0.527833 -1.48498 0
M  V30 4676 C 457.979 1.28295 -1.57836 0
M  V30 4677 C 458.334 1.9077 -0.249943 0
M  V30 4678 O 457.627 1.76421 0.747402 0
M  V30 4679 C 457.821 2.39275 -2.65485 0
M  V30 4680 C 457.65 1.87679 -4.08664 0
M  V30 4681 C 456.42 1.70187 -4.75778 0
M  V30 4682 C 458.618 1.40409 -4.94762 0
M  V30 4683 N 456.6 1.13238 -6.03366 0
M  V30 4684 C 457.971 0.954216 -6.12613 0
M  V30 4685 C 460.026 1.28732 -4.8097 0
M  V30 4686 C 458.729 0.39915 -7.18192 0
M  V30 4687 C 460.755 0.746244 -5.86673 0
M  V30 4688 C 460.117 0.306457 -7.03733 0
M  V30 4689 H 456.216 0.460408 -0.632099 0
M  V30 4690 H 458.8 0.594913 -1.85388 0
M  V30 4691 H 456.971 3.05572 -2.3975 0
M  V30 4692 H 458.703 3.06308 -2.64495 0
M  V30 4693 H 455.458 1.93772 -4.32145 0
M  V30 4694 H 455.882 0.867687 -6.71417 0
M  V30 4695 H 460.524 1.61338 -3.90807 0
M  V30 4696 H 458.242 0.0607678 -8.08077 0
M  V30 4697 H 461.828 0.659041 -5.78055 0
M  V30 4698 H 460.708 -0.105708 -7.84129 0
M  V30 4699 N 458.211 1.37122 0.776871 0
M  V30 4700 C 459.174 1.32301 1.8716 0
M  V30 4701 C 460.174 0.228099 1.59174 0
M  V30 4702 O 461.364 0.483642 1.67352 0
M  V30 4703 C 458.496 1.054 3.24197 0
M  V30 4704 H 459.689 2.29673 1.92848 0
M  V30 4705 H 457.242 1.22077 0.97606 0
M  V30 4706 H 457.977 0.0853872 3.24188 0
M  V30 4707 H 457.762 1.84648 3.45901 0
M  V30 4708 H 459.252 1.04664 4.04271 0
M  V30 4709 N 459.689 -1.00246 1.21608 0
M  V30 4710 C 460.938 -1.73476 1.02902 0
M  V30 4711 C 461.251 -1.90643 -0.437561 0
M  V30 4712 O 462.457 -2.61105 -0.74407 0
M  V30 4713 C 460.913 -3.12079 1.79261 0
M  V30 4714 C 460.521 -3.02877 3.30106 0
M  V30 4715 C 462.265 -3.89421 1.68972 0
M  V30 4716 C 460.172 -4.36575 3.98944 0
M  V30 4717 H 459.102 -0.650408 0.381425 0
M  V30 4718 H 461.753 -1.11985 1.45367 0
M  V30 4719 H 460.135 -3.74196 1.2959 0
M  V30 4720 H 461.309 -2.49983 3.87098 0
M  V30 4721 H 459.624 -2.39022 3.40965 0
M  V30 4722 H 462.221 -4.88362 2.17731 0
M  V30 4723 H 462.564 -4.1122 0.648397 0
M  V30 4724 H 463.097 -3.33963 2.16133 0
M  V30 4725 H 459.836 -4.19978 5.03288 0
M  V30 4726 H 459.356 -4.8942 3.4674 0
M  V30 4727 H 461.035 -5.05364 4.04 0
M  V30 4728 N 461.167 -1.02423 -1.1978 0
M  V30 4729 C 462.117 -0.571689 -2.20716 0
M  V30 4730 C 463.101 0.377077 -1.56419 0
M  V30 4731 O 464.293 0.198801 -1.7588 0
M  V30 4732 C 461.422 0.0808555 -3.43205 0
M  V30 4733 C 460.508 -0.890073 -4.14655 0
M  V30 4734 N 460.899 -2.05065 -4.62366 0
M  V30 4735 C 459.197 -0.71252 -4.40272 0
M  V30 4736 C 459.898 -2.66264 -5.17183 0
M  V30 4737 N 458.874 -1.94264 -5.07703 0
M  V30 4738 H 462.676 -1.45636 -2.55279 0
M  V30 4739 H 460.19 -0.890596 -1.35802 0
M  V30 4740 H 462.187 0.422654 -4.14752 0
M  V30 4741 H 460.847 0.961274 -3.10144 0
M  V30 4742 H 461.858 -2.43026 -4.57339 0
M  V30 4743 H 458.535 0.119199 -4.1733 0
M  V30 4744 H 459.925 -3.64526 -5.64421 0
M  V30 4745 N 462.645 1.35699 -0.801477 0
M  V30 4746 C 464.056 1.81415 -0.441073 0
M  V30 4747 C 464.407 1.66595 1.03636 0
M  V30 4748 O 463.532 1.19369 1.80499 0
M  V30 4749 C 464.127 3.29369 -0.793819 0
M  V30 4750 C 462.686 3.73248 -0.486083 0
M  V30 4751 C 461.833 2.57775 -1.02213 0
M  V30 4752 H 464.784 1.23749 -0.993572 0
M  V30 4753 H 464.805 3.80395 -0.0894158 0
M  V30 4754 H 464.317 3.40123 -1.86917 0
M  V30 4755 H 462.418 3.68046 0.580735 0
M  V30 4756 H 462.531 4.68222 -1.01513 0
M  V30 4757 H 460.895 2.50788 -0.444712 0
M  V30 4758 H 461.678 2.71309 -2.10348 0
M  V30 4759 N 464.123 0.554532 1.47522 0
M  V30 4760 C 465.371 0.0294208 2.02079 0
M  V30 4761 C 465.692 -1.32411 1.43151 0
M  V30 4762 O 464.962 -1.863 0.605728 0
M  V30 4763 H 463.542 0.00788672 0.746958 0
M  V30 4764 H 466.204 0.723934 1.80956 0
M  V30 4765 H 465.3 -0.0606745 3.12041 0
M  V30 4766 N 465.601 -1.54893 0.290851 0
M  V30 4767 C 466.849 -1.99538 -0.320756 0
M  V30 4768 C 467.17 -1.18075 -1.55188 0
M  V30 4769 O 466.44 -0.274162 -1.93972 0
M  V30 4770 H 465.02 -0.737052 -0.121507 0
M  V30 4771 H 467.682 -1.90755 0.399832 0
M  V30 4772 H 466.778 -3.06282 -0.599802 0
M  V30 4773 N 467.08 -0.0183926 -1.57589 0
M  V30 4774 C 468.491 0.521927 -1.79256 0
M  V30 4775 C 468.842 1.72885 -0.927636 0
M  V30 4776 O 467.967 2.15978 -0.135091 0
M  V30 4777 C 468.562 0.953632 -3.25102 0
M  V30 4778 C 467.121 1.43913 -3.47801 0
M  V30 4779 C 466.268 0.398837 -2.74417 0
M  V30 4780 H 469.219 -0.244485 -1.56805 0
M  V30 4781 H 469.24 1.81863 -3.34224 0
M  V30 4782 H 468.752 0.0750123 -3.88028 0
M  V30 4783 H 466.853 2.33804 -2.90115 0
M  V30 4784 H 466.966 1.45391 -4.56507 0
M  V30 4785 H 465.33 0.864572 -2.39577 0
M  V30 4786 H 466.113 -0.471132 -3.40052 0
M  V30 4787 N 468.558 1.5553 0.254621 0
M  V30 4788 C 469.505 1.89666 1.31512 0
M  V30 4789 C 470.475 0.750057 1.482 0
M  V30 4790 O 471.66 1.00301 1.62309 0
M  V30 4791 C 468.8 2.19009 2.667 0
M  V30 4792 C 467.913 3.46435 2.58083 0
M  V30 4793 C 467.048 3.65386 3.85573 0
M  V30 4794 C 466.087 4.8644 3.71541 0
M  V30 4795 N 465.224 5.01952 4.90906 0
M  V30 4796 H 470.064 2.80109 1.017 0
M  V30 4797 H 467.601 1.38666 0.490938 0
M  V30 4798 H 469.559 2.34025 3.45381 0
M  V30 4799 H 468.189 1.31779 2.94676 0
M  V30 4800 H 467.241 3.39792 1.71013 0
M  V30 4801 H 468.553 4.35258 2.43622 0
M  V30 4802 H 467.707 3.80319 4.72697 0
M  V30 4803 H 466.446 2.74781 4.02922 0
M  V30 4804 H 465.451 4.71491 2.82801 0
M  V30 4805 H 466.676 5.78497 3.55694 0
M  V30 4806 H 464.622 4.14283 5.08631 0
M  V30 4807 H 464.539 5.84851 4.79046 0
M  V30 4808 H 465.807 5.21289 5.7955 0
M  V30 4809 N 470.036 -0.519951 1.48776 0
M  V30 4810 C 471.285 -1.27175 1.56555 0
M  V30 4811 C 471.598 -1.9401 0.248869 0
M  V30 4812 O 472.804 -2.70725 0.205004 0
M  V30 4813 C 471.26 -2.30811 2.76142 0
M  V30 4814 C 470.868 -1.7 4.14493 0
M  V30 4815 C 472.612 -3.06937 2.9324 0
M  V30 4816 C 470.519 -2.71635 5.25327 0
M  V30 4817 H 469.449 -0.478329 0.582853 0
M  V30 4818 H 472.1 -0.547916 1.75129 0
M  V30 4819 H 470.482 -3.06274 2.51023 0
M  V30 4820 H 471.656 -1.00658 4.49672 0
M  V30 4821 H 469.971 -1.06331 4.02595 0
M  V30 4822 H 472.568 -3.82905 3.73213 0
M  V30 4823 H 472.911 -3.63409 2.03075 0
M  V30 4824 H 473.444 -2.38589 3.18308 0
M  V30 4825 H 470.183 -2.1997 6.1749 0
M  V30 4826 H 469.703 -3.39275 4.94624 0
M  V30 4827 H 471.382 -3.34429 5.53865 0
M  V30 4828 N 471.514 -1.37532 -0.769588 0
M  V30 4829 C 472.763 -1.32183 -1.5235 0
M  V30 4830 C 473.076 0.0906555 -1.9539 0
M  V30 4831 O 474.282 0.266628 -2.70188 0
M  V30 4832 C 472.738 -2.32029 -2.75119 0
M  V30 4833 C 472.346 -3.78816 -2.3917 0
M  V30 4834 C 474.09 -2.35694 -3.53056 0
M  V30 4835 C 471.997 -4.70388 -3.58453 0
M  V30 4836 H 470.927 -0.491275 -0.571984 0
M  V30 4837 H 473.578 -1.63004 -0.842739 0
M  V30 4838 H 471.96 -1.94229 -3.45096 0
M  V30 4839 H 473.134 -4.25466 -1.76962 0
M  V30 4840 H 471.449 -3.78117 -1.74402 0
M  V30 4841 H 474.046 -3.01312 -4.41718 0
M  V30 4842 H 474.389 -1.37117 -3.93071 0
M  V30 4843 H 474.922 -2.72212 -2.90078 0
M  V30 4844 H 471.661 -5.70102 -3.23518 0
M  V30 4845 H 471.181 -4.28442 -4.19758 0
M  V30 4846 H 472.86 -4.87628 -4.25239 0
M  V30 4847 N 472.992 0.995999 -1.22138 0
M  V30 4848 C 473.902 2.11985 -1.00496 0
M  V30 4849 C 474.918 1.7394 0.0457701 0
M  V30 4850 O 476.094 2.00868 -0.146273 0
M  V30 4851 C 473.159 3.41779 -0.582086 0
M  V30 4852 C 472.22 3.93943 -1.70608 0
M  V30 4853 C 471.453 5.17542 -1.30328 0
M  V30 4854 O 471.676 5.70114 -0.180743 0
M  V30 4855 O 470.61 5.63382 -2.11861 0
M  V30 4856 H 474.436 2.33123 -1.94647 0
M  V30 4857 H 472.021 1.10358 -1.00705 0
M  V30 4858 H 473.903 4.1989 -0.356467 0
M  V30 4859 H 472.578 3.22007 0.330592 0
M  V30 4860 H 471.485 3.17019 -1.98619 0
M  V30 4861 H 472.818 4.18141 -2.59651 0
M  V30 4862 N 474.47 1.03057 1.19235 0
M  V30 4863 C 475.402 0.570932 2.21975 0
M  V30 4864 C 476.415 -0.354088 1.58903 0
M  V30 4865 O 477.604 -0.150211 1.77867 0
M  V30 4866 C 474.704 -0.187152 3.38383 0
M  V30 4867 C 473.877 0.743231 4.31039 0
M  V30 4868 C 472.936 0.0302493 5.26191 0
M  V30 4869 O 471.962 0.657371 5.65391 0
M  V30 4870 N 473.164 -1.23991 5.67104 0
M  V30 4871 H 475.929 1.45456 2.62036 0
M  V30 4872 H 473.49 0.909807 1.33918 0
M  V30 4873 H 475.482 -0.673715 3.99053 0
M  V30 4874 H 474.052 -0.972205 2.97098 0
M  V30 4875 H 473.272 1.40985 3.68126 0
M  V30 4876 H 474.56 1.3755 4.89854 0
M  V30 4877 H 473.958 -1.77011 5.37293 0
M  V30 4878 H 472.515 -1.67093 6.30018 0
M  V30 4879 N 475.948 -1.35272 0.808662 0
M  V30 4880 C 477.173 -2.03477 0.401475 0
M  V30 4881 C 477.598 -1.60537 -0.980279 0
M  V30 4882 O 476.956 -0.78304 -1.63518 0
M  V30 4883 C 477.004 -3.57181 0.495354 0
M  V30 4884 O 476.108 -4.09474 -0.490397 0
M  V30 4885 H 475.449 -0.642561 0.167366 0
M  V30 4886 H 477.979 -1.72824 1.09512 0
M  V30 4887 H 477.989 -4.06356 0.365912 0
M  V30 4888 H 476.664 -3.87784 1.5032 0
M  V30 4889 H 475.241 -3.71516 -0.321023 0
M  V30 4890 N 477.426 -0.562348 -1.47226 0
M  V30 4891 C 478.672 -0.0402761 -2.0276 0
M  V30 4892 C 479.005 1.30823 -1.43523 0
M  V30 4893 O 478.28 1.85249 -0.592705 0
M  V30 4894 C 478.563 0.047311 -3.60069 0
M  V30 4895 C 478.416 -1.32865 -4.29729 0
M  V30 4896 C 479.735 0.758182 -4.3352 0
M  V30 4897 H 476.854 -0.0161105 -0.736824 0
M  V30 4898 H 479.496 -0.725628 -1.75598 0
M  V30 4899 H 477.646 0.630986 -3.83342 0
M  V30 4900 H 479.318 -1.95593 -4.17781 0
M  V30 4901 H 477.561 -1.90195 -3.89882 0
M  V30 4902 H 478.232 -1.22004 -5.38349 0
M  V30 4903 H 480.708 0.262546 -4.15271 0
M  V30 4904 H 479.584 0.78844 -5.43208 0
M  V30 4905 H 479.845 1.81537 -4.03109 0
M  V30 4906 N 478.904 1.54736 -0.299062 0
M  V30 4907 C 480.32 1.59507 0.0543849 0
M  V30 4908 C 480.52 1.31606 1.52585 0
M  V30 4909 O 479.576 1.08853 2.27832 0
M  V30 4910 C 480.889 2.98751 -0.34181 0
M  V30 4911 C 482.437 3.1165 -0.290414 0
M  V30 4912 C 482.912 4.53199 -0.661402 0
M  V30 4913 N 484.403 4.59114 -0.613863 0
M  V30 4914 C 485.138 5.66709 -0.873417 0
M  V30 4915 N 484.634 6.82349 -1.19884 0
M  V30 4916 N 486.427 5.56369 -0.800608 0
M  V30 4917 H 478.578 1.71133 -1.25806 0
M  V30 4918 H 480.841 0.799186 -0.509908 0
M  V30 4919 H 480.547 3.24085 -1.36608 0
M  V30 4920 H 480.421 3.75961 0.305508 0
M  V30 4921 H 482.808 2.86066 0.724605 0
M  V30 4922 H 482.889 2.366 -0.972327 0
M  V30 4923 H 482.533 4.79513 -1.67422 0
M  V30 4924 H 482.463 5.26583 0.0425612 0
M  V30 4925 H 484.954 3.76053 -0.3732 0
M  V30 4926 H 485.267 7.60326 -1.38291 0
M  V30 4927 H 483.612 6.83906 -1.23685 0
M  V30 4928 H 486.803 4.64904 -0.546045 0
M  V30 4929 H 486.976 6.40139 -1.00626 0
M  V30 4930 N 480.382 0.0267497 1.57577 0
M  V30 4931 C 481.607 -0.666227 1.96408 0
M  V30 4932 C 482.032 -1.65004 0.903071 0
M  V30 4933 O 481.39 -1.80787 -0.136263 0
M  V30 4934 C 481.438 -1.35101 3.34335 0
M  V30 4935 O 480.542 -2.46623 3.30531 0
M  V30 4936 H 479.883 -0.175206 0.640468 0
M  V30 4937 H 482.413 0.0878977 2.04411 0
M  V30 4938 H 482.423 -1.70834 3.70513 0
M  V30 4939 H 481.098 -0.629844 4.11103 0
M  V30 4940 H 479.675 -2.13019 3.06068 0
M  V30 4941 N 481.861 -1.55662 -0.24637 0
M  V30 4942 C 482.791 -1.93377 -1.30873 0
M  V30 4943 C 483.772 -0.798773 -1.50179 0
M  V30 4944 O 484.957 -1.0591 -1.62778 0
M  V30 4945 C 482.087 -2.22893 -2.66338 0
M  V30 4946 C 481.041 -3.38649 -2.61727 0
M  V30 4947 C 480.367 -3.53708 -4.00992 0
M  V30 4948 C 481.667 -4.74323 -2.18666 0
M  V30 4949 H 483.361 -2.82363 -0.995552 0
M  V30 4950 H 480.907 -1.35854 -0.477464 0
M  V30 4951 H 482.86 -2.47866 -3.40794 0
M  V30 4952 H 481.584 -1.30733 -2.99293 0
M  V30 4953 H 480.243 -3.13685 -1.89729 0
M  V30 4954 H 479.891 -2.58967 -4.31214 0
M  V30 4955 H 479.591 -4.31551 -3.98795 0
M  V30 4956 H 481.115 -3.81003 -4.77147 0
M  V30 4957 H 482.529 -4.98665 -2.82854 0
M  V30 4958 H 480.926 -5.55273 -2.27579 0
M  V30 4959 H 481.996 -4.71349 -1.13834 0
M  V30 4960 N 483.339 0.512053 -1.4905 0
M  V30 4961 C 484.587 1.26436 -1.57665 0
M  V30 4962 C 484.908 1.93255 -0.260293 0
M  V30 4963 O 484.178 1.82206 0.719564 0
M  V30 4964 H 482.758 0.469658 -0.580888 0
M  V30 4965 H 485.42 0.594398 -1.85615 0
M  V30 4966 H 484.516 2.03417 -2.36702 0
M  V30 4967 N 484.817 1.37938 0.762283 0
M  V30 4968 C 486.066 1.32989 1.51647 0
M  V30 4969 C 486.379 -0.0802922 1.95435 0
M  V30 4970 O 487.585 -0.252295 2.70325 0
M  V30 4971 C 486.041 2.33485 2.73885 0
M  V30 4972 C 485.649 3.80079 2.37157 0
M  V30 4973 C 487.393 2.37563 3.51801 0
M  V30 4974 C 485.3 4.72283 3.55954 0
M  V30 4975 H 484.23 0.494301 0.56937 0
M  V30 4976 H 486.881 1.63448 0.834083 0
M  V30 4977 H 485.263 1.96056 3.44061 0
M  V30 4978 H 486.437 4.26398 1.74704 0
M  V30 4979 H 484.752 3.79037 1.72395 0
M  V30 4980 H 487.349 3.0365 4.40114 0
M  V30 4981 H 487.692 1.39199 3.92338 0
M  V30 4982 H 488.225 2.73747 2.8863 0
M  V30 4983 H 484.964 5.7181 3.2049 0
M  V30 4984 H 484.484 4.30663 4.1748 0
M  V30 4985 H 486.163 4.89876 4.22647 0
M  V30 4986 N 486.295 -0.989507 1.22664 0
M  V30 4987 C 487.52 -1.77031 1.08051 0
M  V30 4988 C 487.945 -1.84535 -0.364483 0
M  V30 4989 O 487.303 -1.3003 -1.2634 0
M  V30 4990 C 487.351 -3.18 1.70024 0
M  V30 4991 O 486.455 -4.01161 0.956216 0
M  V30 4992 H 485.796 -0.545008 0.379292 0
M  V30 4993 H 488.326 -1.24277 1.62531 0
M  V30 4994 H 488.336 -3.68616 1.74888 0
M  V30 4995 H 487.011 -3.11853 2.75174 0
M  V30 4996 H 485.588 -3.59687 0.98384 0
M  V30 4997 N 487.773 -1.03688 -1.18687 0
M  V30 4998 C 488.736 -0.629115 -2.20397 0
M  V30 4999 C 489.736 0.311495 -1.57754 0
M  V30 5000 O 490.926 0.0974107 -1.73927 0
M  V30 5001 C 488.058 0.0782231 -3.4081 0
M  V30 5002 H 489.251 -1.52915 -2.57987 0
M  V30 5003 H 486.804 -0.828988 -1.32505 0
M  V30 5004 H 487.539 0.992233 -3.08748 0
M  V30 5005 H 487.324 -0.597776 -3.87517 0
M  V30 5006 H 488.814 0.350156 -4.16129 0
M  V30 5007 N 489.251 1.34841 -0.815825 0
M  V30 5008 C 490.161 2.33425 -0.234462 0
M  V30 5009 C 491.177 1.62295 0.627413 0
M  V30 5010 O 492.353 1.94109 0.536987 0
M  V30 5011 C 489.418 3.41471 0.599849 0
M  V30 5012 C 488.479 4.28362 -0.283596 0
M  V30 5013 C 487.712 5.31248 0.51099 0
M  V30 5014 O 487.935 5.43056 1.7449 0
M  V30 5015 O 486.869 6.01812 -0.10297 0
M  V30 5016 H 490.695 2.84962 -1.05024 0
M  V30 5017 H 488.28 1.37774 -0.577809 0
M  V30 5018 H 490.162 4.07464 1.07475 0
M  V30 5019 H 488.837 2.9219 1.39308 0
M  V30 5020 H 487.744 3.65318 -0.805836 0
M  V30 5021 H 489.077 4.81066 -1.041 0
M  V30 5022 N 490.729 0.570148 1.46925 0
M  V30 5023 C 491.659 -0.158274 2.32963 0
M  V30 5024 C 492.64 -0.896093 1.44583 0
M  V30 5025 O 493.825 -0.874022 1.7342 0
M  V30 5026 C 490.955 -1.18055 3.26619 0
M  V30 5027 C 489.909 -0.558379 4.24342 0
M  V30 5028 C 489.235 -1.68623 5.07415 0
M  V30 5029 C 490.535 0.496295 5.19937 0
M  V30 5030 H 492.229 0.560046 2.94115 0
M  V30 5031 H 489.775 0.270775 1.41431 0
M  V30 5032 H 491.728 -1.69841 3.85658 0
M  V30 5033 H 490.452 -1.92899 2.63548 0
M  V30 5034 H 489.111 -0.0617157 3.66548 0
M  V30 5035 H 488.759 -2.42402 4.40738 0
M  V30 5036 H 488.459 -1.27564 5.73586 0
M  V30 5037 H 489.983 -2.20709 5.69315 0
M  V30 5038 H 491.397 0.0640052 5.73264 0
M  V30 5039 H 489.794 0.82649 5.94381 0
M  V30 5040 H 490.864 1.38735 4.6463 0
M  V30 5041 N 492.207 -1.54576 0.307264 0
M  V30 5042 C 493.17 -2.22423 -0.553224 0
M  V30 5043 C 494.17 -1.21231 -1.05639 0
M  V30 5044 O 495.36 -1.45923 -0.951419 0
M  V30 5045 C 492.492 -2.91552 -1.76664 0
M  V30 5046 H 493.685 -2.99874 0.0396484 0
M  V30 5047 H 491.238 -1.56192 0.0581629 0
M  V30 5048 H 491.973 -2.18196 -2.39918 0
M  V30 5049 H 491.758 -3.65738 -1.41343 0
M  V30 5050 H 493.248 -3.43292 -2.37783 0
M  V30 5051 N 493.685 -0.035106 -1.57561 0
M  V30 5052 C 494.648 0.929819 -2.09492 0
M  V30 5053 C 495.648 1.25026 -1.01119 0
M  V30 5054 O 496.838 1.18961 -1.27255 0
M  V30 5055 C 493.97 2.24457 -2.56577 0
M  V30 5056 H 495.163 0.479935 -2.96035 0
M  V30 5057 H 492.716 0.213033 -1.54841 0
M  V30 5058 H 493.451 2.74061 -1.73382 0
M  V30 5059 H 493.236 2.02508 -3.35757 0
M  V30 5060 H 494.726 2.93607 -2.96959 0
M  V30 5061 N 495.163 1.55791 0.238111 0
M  V30 5062 C 496.095 1.87513 1.31802 0
M  V30 5063 C 497.108 0.762053 1.43863 0
M  V30 5064 O 498.297 1.04024 1.45056 0
M  V30 5065 C 495.397 2.05402 2.69561 0
M  V30 5066 C 494.57 3.3632 2.79656 0
M  V30 5067 C 493.629 3.43844 3.98319 0
M  V30 5068 O 492.655 4.16994 3.87433 0
M  V30 5069 N 493.857 2.73777 5.11885 0
M  V30 5070 H 496.622 2.80734 1.04922 0
M  V30 5071 H 494.183 1.56135 0.428196 0
M  V30 5072 H 496.175 2.07769 3.47296 0
M  V30 5073 H 494.745 1.18884 2.89111 0
M  V30 5074 H 493.965 3.46195 1.88528 0
M  V30 5075 H 495.253 4.22594 2.83358 0
M  V30 5076 H 494.651 2.14094 5.23622 0
M  V30 5077 H 493.208 2.81825 5.87723 0
M  V30 5078 N 496.642 -0.504142 1.49319 0
M  V30 5079 C 497.867 -1.28729 1.62615 0
M  V30 5080 C 498.292 -1.85752 0.296309 0
M  V30 5081 O 497.65 -1.65704 -0.735649 0
M  V30 5082 C 497.698 -2.39561 2.69524 0
M  V30 5083 O 496.802 -3.43324 2.28478 0
M  V30 5084 H 496.143 -0.380172 0.544395 0
M  V30 5085 H 498.673 -0.603872 1.95485 0
M  V30 5086 H 498.683 -2.8537 2.91595 0
M  V30 5087 H 497.358 -1.97423 3.66056 0
M  V30 5088 H 495.935 -3.03455 2.16725 0
M  V30 5089 N 498.12 -1.38341 -0.754957 0
M  V30 5090 C 499.366 -1.35678 -1.51536 0
M  V30 5091 C 499.721 0.0533985 -1.92326 0
M  V30 5092 O 499.014 1.01573 -1.6246 0
M  V30 5093 C 499.208 -2.2452 -2.78075 0
M  V30 5094 C 499.037 -3.74035 -2.49655 0
M  V30 5095 C 497.807 -4.43066 -2.42942 0
M  V30 5096 C 500.005 -4.665 -2.16523 0
M  V30 5097 N 497.987 -5.78026 -2.06783 0
M  V30 5098 C 499.358 -5.89962 -1.90644 0
M  V30 5099 C 501.413 -4.54718 -2.02821 0
M  V30 5100 C 500.116 -7.0296 -1.52444 0
M  V30 5101 C 502.142 -5.67618 -1.66023 0
M  V30 5102 C 501.504 -6.90141 -1.41015 0
M  V30 5103 H 497.603 -0.551764 -0.554148 0
M  V30 5104 H 500.187 -1.73716 -0.879258 0
M  V30 5105 H 498.358 -1.88673 -3.39496 0
M  V30 5106 H 500.09 -2.12993 -3.44116 0
M  V30 5107 H 496.845 -3.96264 -2.59367 0
M  V30 5108 H 497.269 -6.49394 -1.91353 0
M  V30 5109 H 501.911 -3.60546 -2.20831 0
M  V30 5110 H 499.629 -7.97051 -1.33174 0
M  V30 5111 H 503.215 -5.6048 -1.56055 0
M  V30 5112 H 502.095 -7.76021 -1.12965 0
M  V30 5113 N 499.598 0.982988 -1.23187 0
M  V30 5114 C 500.875 1.69814 -0.970707 0
M  V30 5115 C 501.255 2.04811 0.511424 0
M  V30 5116 O 500.603 1.73924 1.48198 0
M  V30 5117 C 500.813 2.94143 -1.87831 0
M  V30 5118 C 502.161 3.66712 -2.14026 0
M  V30 5119 O 503.185 3.04171 -1.8536 0
M  V30 5120 O 502.044 4.79258 -2.62629 0
M  V30 5121 H 499.138 0.741659 -0.365884 0
M  V30 5122 H 501.684 1.03844 -1.34218 0
M  V30 5123 H 500.456 2.64858 -2.88038 0
M  V30 5124 H 500.079 3.6785 -1.50905 0
M  V30 5125 N 501.076 1.04316 1.18135 0
M  V30 5126 C 502.322 0.749128 1.88457 0
M  V30 5127 C 502.655 -0.72149 1.803 0
M  V30 5128 O 501.93 -1.52676 1.205 0
M  V30 5129 C 502.213 1.21905 3.38838 0
M  V30 5130 C 502.066 2.75195 3.55792 0
M  V30 5131 C 503.385 0.811085 4.32561 0
M  V30 5132 H 500.504 0.273611 0.684329 0
M  V30 5133 H 503.146 1.29561 1.38975 0
M  V30 5134 H 501.296 0.754137 3.8111 0
M  V30 5135 H 502.968 3.29743 3.22595 0
M  V30 5136 H 501.211 3.14899 2.98364 0
M  V30 5137 H 501.882 3.03135 4.61317 0
M  V30 5138 H 504.358 1.21118 3.98082 0
M  V30 5139 H 503.234 1.16761 5.36338 0
M  V30 5140 H 503.495 -0.285596 4.41177 0
M  V30 5141 N 502.554 -1.34406 0.822964 0
M  V30 5142 C 503.484 -2.32052 0.259608 0
M  V30 5143 C 504.465 -1.58243 -0.623961 0
M  V30 5144 O 505.65 -1.86224 -0.55083 0
M  V30 5145 C 502.78 -3.42434 -0.579314 0
M  V30 5146 C 501.734 -4.27499 0.20712 0
M  V30 5147 C 501.06 -5.29349 -0.754547 0
M  V30 5148 C 502.36 -5.02758 1.41533 0
M  V30 5149 H 504.054 -2.79418 1.07545 0
M  V30 5150 H 501.6 -1.34338 0.518593 0
M  V30 5151 H 503.553 -4.0976 -0.983612 0
M  V30 5152 H 502.277 -2.93717 -1.4282 0
M  V30 5153 H 500.936 -3.61776 0.592787 0
M  V30 5154 H 500.584 -4.76895 -1.59939 0
M  V30 5155 H 500.284 -5.8714 -0.232561 0
M  V30 5156 H 501.808 -5.99544 -1.1567 0
M  V30 5157 H 503.222 -5.62938 1.08504 0
M  V30 5158 H 501.619 -5.70123 1.87296 0
M  V30 5159 H 502.689 -4.32451 2.1935 0
M  V30 5160 N 504.032 -0.577932 -1.46621 0
M  V30 5161 C 504.995 0.147805 -2.28723 0
M  V30 5162 C 505.995 0.823325 -1.38123 0
M  V30 5163 O 507.185 0.676011 -1.60548 0
M  V30 5164 C 504.317 1.21853 -3.18378 0
M  V30 5165 H 505.51 -0.573654 -2.94362 0
M  V30 5166 H 503.063 -0.335703 -1.52652 0
M  V30 5167 H 503.798 1.97173 -2.57475 0
M  V30 5168 H 503.583 0.738714 -3.85078 0
M  V30 5169 H 505.073 1.72768 -3.80186 0
M  V30 5170 N 505.51 1.54411 -0.315457 0
M  V30 5171 C 506.926 1.59556 0.037464 0
M  V30 5172 C 507.126 1.33217 1.5118 0
M  V30 5173 O 506.182 1.11264 2.26664 0
M  V30 5174 C 507.495 2.98372 -0.373477 0
M  V30 5175 C 509.043 3.11324 -0.323452 0
M  V30 5176 C 509.518 4.52472 -0.709433 0
M  V30 5177 N 511.009 4.58437 -0.662524 0
M  V30 5178 C 511.744 5.65751 -0.933474 0
M  V30 5179 N 511.24 6.81039 -1.27114 0
M  V30 5180 N 513.033 5.55489 -0.859573 0
M  V30 5181 H 505.184 1.6979 -1.27614 0
M  V30 5182 H 507.447 0.793732 -0.518356 0
M  V30 5183 H 507.153 3.22618 -1.40037 0
M  V30 5184 H 507.027 3.76264 0.265615 0
M  V30 5185 H 509.414 2.86818 0.694223 0
M  V30 5186 H 509.495 2.35555 -0.997367 0
M  V30 5187 H 509.139 4.7771 -1.72498 0
M  V30 5188 H 509.069 5.26598 -0.0132923 0
M  V30 5189 H 511.56 3.75636 -0.413065 0
M  V30 5190 H 511.873 7.58816 -1.46348 0
M  V30 5191 H 510.218 6.82555 -1.30932 0
M  V30 5192 H 513.409 4.64299 -0.595324 0
M  V30 5193 H 513.582 6.39036 -1.0741 0
M  V30 5194 N 506.988 0.0434614 1.5754 0
M  V30 5195 C 508.235 -0.632035 1.92384 0
M  V30 5196 C 508.563 -1.71304 0.921157 0
M  V30 5197 O 507.818 -1.95583 -0.067744 0
M  V30 5198 C 508.117 -1.2738 3.3393 0
M  V30 5199 C 507.783 -0.321757 4.49751 0
M  V30 5200 C 506.445 -0.0597611 4.81163 0
M  V30 5201 C 508.797 0.331158 5.20147 0
M  V30 5202 C 506.125 0.862715 5.80322 0
M  V30 5203 C 508.477 1.24178 6.20292 0
M  V30 5204 C 507.141 1.51252 6.50138 0
M  V30 5205 H 506.411 -0.231278 0.703983 0
M  V30 5206 H 509.058 0.108294 1.91194 0
M  V30 5207 H 507.363 -2.08921 3.3145 0
M  V30 5208 H 509.06 -1.80326 3.58167 0
M  V30 5209 H 505.65 -0.53614 4.25233 0
M  V30 5210 H 509.834 0.141826 4.96097 0
M  V30 5211 H 505.09 1.08003 6.01785 0
M  V30 5212 H 509.264 1.75381 6.73954 0
M  V30 5213 H 506.891 2.22897 7.26788 0
M  V30 5214 N 508.466 -1.55915 -0.229846 0
M  V30 5215 C 509.714 -1.7819 -0.953565 0
M  V30 5216 C 510.035 -0.610504 -1.85197 0
M  V30 5217 O 509.305 0.372988 -1.92316 0
M  V30 5218 H 507.885 -0.657208 -0.355087 0
M  V30 5219 H 510.547 -1.9337 -0.243693 0
M  V30 5220 H 509.643 -2.70011 -1.56527 0
M  V30 5221 N 509.944 0.496216 -1.49584 0
M  V30 5222 C 510.892 1.61805 -1.67098 0
M  V30 5223 C 511.886 1.60667 -0.536877 0
M  V30 5224 O 513.092 1.65118 -0.716654 0
M  V30 5225 H 509.467 0.53646 -0.526986 0
M  V30 5226 H 511.438 1.44187 -2.61252 0
M  V30 5227 C 510.187 2.99912 -1.75921 0
M  V30 5228 H 509.51 3.01496 -2.62565 0
M  V30 5229 H 510.95 3.77931 -1.92209 0
M  V30 5230 C 509.409 3.33092 -0.505088 0
M  V30 5231 O 509.939 4.00019 0.367085 0
M  V30 5232 N 508.145 2.88278 -0.366599 0
M  V30 5233 H 507.692 2.33989 -1.07735 0
M  V30 5234 H 507.65 3.10846 0.47142 0
M  V30 5235 N 511.423 1.38739 0.74761 0
M  V30 5236 C 512.356 1.3083 1.86972 0
M  V30 5237 C 513.334 0.184229 1.61553 0
M  V30 5238 O 514.518 0.36256 1.8498 0
M  V30 5239 C 511.645 1.02854 3.22705 0
M  V30 5240 C 510.691 2.17281 3.67003 0
M  V30 5241 S 511.524 3.79468 3.77842 0
M  V30 5242 C 512.68 3.53692 5.16385 0
M  V30 5243 H 512.913 2.258 1.93395 0
M  V30 5244 H 510.446 1.24646 0.911199 0
M  V30 5245 H 512.404 0.87397 4.01089 0
M  V30 5246 H 511.065 0.0959295 3.13953 0
M  V30 5247 H 510.258 1.93267 4.65472 0
M  V30 5248 H 509.86 2.28876 2.9579 0
M  V30 5249 H 512.152 3.10176 6.02327 0
M  V30 5250 H 513.095 4.51576 5.45422 0
M  V30 5251 H 513.503 2.8807 4.85464 0
M  V30 5252 N 512.901 -0.976442 1.23707 0
M  V30 5253 C 513.831 -2.08749 1.04624 0
M  V30 5254 C 514.812 -1.70057 -0.0380956 0
M  V30 5255 O 515.997 -1.93782 0.127308 0
M  V30 5256 C 513.127 -3.41335 0.640902 0
M  V30 5257 C 512.081 -3.93947 1.67302 0
M  V30 5258 C 511.407 -5.22774 1.12301 0
M  V30 5259 C 512.707 -4.22769 3.06697 0
M  V30 5260 H 514.401 -2.24972 1.97555 0
M  V30 5261 H 511.947 -1.08108 0.951247 0
M  V30 5262 H 513.9 -4.18489 0.494434 0
M  V30 5263 H 512.624 -3.24988 -0.324099 0
M  V30 5264 H 511.283 -3.18941 1.80755 0
M  V30 5265 H 510.931 -5.0278 0.148877 0
M  V30 5266 H 510.631 -5.58942 1.81267 0
M  V30 5267 H 512.155 -6.02546 0.988479 0
M  V30 5268 H 513.569 -4.90659 2.96524 0
M  V30 5269 H 511.966 -4.70147 3.72937 0
M  V30 5270 H 513.036 -3.29885 3.55392 0
M  V30 5271 N 514.379 -1.04941 -1.1758 0
M  V30 5272 C 515.604 -0.778253 -1.92245 0
M  V30 5273 C 516.029 0.659707 -1.76152 0
M  V30 5274 O 515.387 1.45803 -1.07755 0
M  V30 5275 C 515.435 -1.16051 -3.41416 0
M  V30 5276 O 514.539 -0.291153 -4.11371 0
M  V30 5277 H 513.88 -0.285619 -0.599431 0
M  V30 5278 H 516.41 -1.40159 -1.49052 0
M  V30 5279 H 516.42 -1.12619 -3.92149 0
M  V30 5280 H 515.095 -2.208 -3.52449 0
M  V30 5281 H 513.672 -0.385851 -3.70898 0
M  V30 5282 N 515.857 1.33968 -0.830081 0
M  V30 5283 C 517.103 1.98357 -0.422191 0
M  V30 5284 C 517.436 1.65633 1.01387 0
M  V30 5285 O 516.711 0.931648 1.70735 0
M  V30 5286 C 516.994 3.54492 -0.633043 0
M  V30 5287 C 516.847 3.96934 -2.11574 0
M  V30 5288 C 518.166 4.40039 -0.0735584 0
M  V30 5289 H 515.285 0.720544 -0.154871 0
M  V30 5290 H 517.927 1.58749 -1.04397 0
M  V30 5291 H 516.077 3.88361 -0.103775 0
M  V30 5292 H 517.749 3.73363 -2.7092 0
M  V30 5293 H 515.992 3.46984 -2.60354 0
M  V30 5294 H 516.663 5.05651 -2.21406 0
M  V30 5295 H 519.139 4.12764 -0.52585 0
M  V30 5296 H 518.015 5.48327 -0.250841 0
M  V30 5297 H 518.276 4.30124 1.02202 0
M  V30 5298 N 517.335 0.585699 1.46312 0
M  V30 5299 C 518.56 0.0762461 2.0726 0
M  V30 5300 C 518.985 -1.22071 1.43109 0
M  V30 5301 O 518.343 -1.73804 0.515942 0
M  V30 5302 C 518.391 -0.0729404 3.60526 0
M  V30 5303 O 517.495 -1.1287 3.96654 0
M  V30 5304 H 516.836 0.0641558 0.660893 0
M  V30 5305 H 519.366 0.809492 1.87905 0
M  V30 5306 H 519.376 -0.278158 4.07051 0
M  V30 5307 H 518.051 0.874188 4.06609 0
M  V30 5308 H 516.628 -0.901703 3.61834 0
M  V30 5309 N 518.813 -1.54241 0.323641 0
M  V30 5310 C 519.743 -2.27289 -0.534993 0
M  V30 5311 C 520.724 -1.28087 -1.11927 0
M  V30 5312 O 521.909 -1.56899 -1.14439 0
M  V30 5313 C 519.039 -3.03075 -1.69596 0
M  V30 5314 C 517.993 -4.09614 -1.24098 0
M  V30 5315 C 517.319 -4.73242 -2.4889 0
M  V30 5316 C 518.619 -5.21087 -0.355789 0
M  V30 5317 H 520.313 -2.99308 0.0743257 0
M  V30 5318 H 517.859 -1.43952 0.0371874 0
M  V30 5319 H 519.812 -3.52907 -2.30293 0
M  V30 5320 H 518.536 -2.28673 -2.33187 0
M  V30 5321 H 517.195 -3.60666 -0.656945 0
M  V30 5322 H 516.843 -3.95455 -3.10845 0
M  V30 5323 H 516.543 -5.45209 -2.19138 0
M  V30 5324 H 518.067 -5.25848 -3.10348 0
M  V30 5325 H 519.481 -5.66675 -0.869042 0
M  V30 5326 H 517.878 -5.9991 -0.151045 0
M  V30 5327 H 518.948 -4.81005 0.613339 0
M  V30 5328 N 520.291 -0.0518155 -1.57515 0
M  V30 5329 C 521.54 0.621286 -1.91893 0
M  V30 5330 C 521.853 1.71966 -0.932052 0
M  V30 5331 O 523.059 2.45096 -1.16791 0
M  V30 5332 C 521.515 1.15641 -3.40816 0
M  V30 5333 C 521.123 0.0901146 -4.47909 0
M  V30 5334 C 522.867 1.80472 -3.84227 0
M  V30 5335 C 520.774 0.638154 -5.87947 0
M  V30 5336 H 519.704 0.235835 -0.716169 0
M  V30 5337 H 522.355 -0.120809 -1.83102 0
M  V30 5338 H 520.737 1.95084 -3.44613 0
M  V30 5339 H 521.911 -0.683525 -4.55702 0
M  V30 5340 H 520.226 -0.460774 -4.13843 0
M  V30 5341 H 522.823 2.22471 -4.86221 0
M  V30 5342 H 523.166 2.65669 -3.20508 0
M  V30 5343 H 523.699 1.07683 -3.82948 0
M  V30 5344 H 520.438 -0.176202 -6.55263 0
M  V30 5345 H 519.958 1.37976 -5.83714 0
M  V30 5346 H 521.637 1.12085 -6.37217 0
M  V30 5347 N 521.769 1.56035 0.221574 0
M  V30 5348 C 523.016 1.79047 0.94597 0
M  V30 5349 C 523.344 0.62057 1.84334 0
M  V30 5350 O 522.599 -0.395053 1.91671 0
M  V30 5351 C 522.898 3.07813 1.8162 0
M  V30 5352 C 522.564 4.3797 1.07206 0
M  V30 5353 C 521.226 4.73334 0.866508 0
M  V30 5354 C 523.578 5.18326 0.546565 0
M  V30 5355 C 520.906 5.8657 0.123549 0
M  V30 5356 C 523.258 6.32335 -0.18305 0
M  V30 5357 C 521.922 6.66301 -0.399861 0
M  V30 5358 H 521.192 0.655178 0.346155 0
M  V30 5359 H 523.839 1.90299 0.214146 0
M  V30 5360 H 522.144 2.91682 2.61589 0
M  V30 5361 H 523.841 3.2282 2.37884 0
M  V30 5362 H 520.431 4.10202 1.24226 0
M  V30 5363 H 524.615 4.9144 0.692847 0
M  V30 5364 H 519.871 6.11376 -0.0546591 0
M  V30 5365 H 524.045 6.9383 -0.59775 0
M  V30 5366 H 521.672 7.53889 -0.977489 0
M  V30 5367 N 523.247 -0.488276 1.49845 0
M  V30 5368 C 524.493 -1.24341 1.6021 0
M  V30 5369 C 524.826 -1.91967 0.293651 0
M  V30 5370 O 524.101 -1.81323 -0.703718 0
M  V30 5371 C 524.384 -2.3005 2.77036 0
M  V30 5372 C 524.237 -1.66842 4.17713 0
M  V30 5373 C 525.556 -3.31509 2.89464 0
M  V30 5374 H 522.675 -0.450704 0.583125 0
M  V30 5375 H 525.317 -0.539673 1.82174 0
M  V30 5376 H 523.467 -2.90071 2.58439 0
M  V30 5377 H 525.139 -1.1055 4.47858 0
M  V30 5378 H 523.382 -0.972079 4.22768 0
M  V30 5379 H 524.053 -2.43576 4.95353 0
M  V30 5380 H 526.529 -2.81493 3.06433 0
M  V30 5381 H 525.405 -4.02822 3.72861 0
M  V30 5382 H 525.666 -3.94603 1.99351 0
M  V30 5383 N 524.725 -1.39134 -0.740242 0
M  V30 5384 C 525.655 -1.40165 -1.86751 0
M  V30 5385 C 526.636 -0.265708 -1.68012 0
M  V30 5386 O 527.821 -0.47076 -1.88408 0
M  V30 5387 C 524.951 -1.2392 -3.2444 0
M  V30 5388 C 523.905 -2.34858 -3.57807 0
M  V30 5389 C 523.231 -2.03707 -4.94376 0
M  V30 5390 C 524.531 -3.77159 -3.61315 0
M  V30 5391 H 526.225 -2.345 -1.86145 0
M  V30 5392 H 523.771 -1.12875 -0.89416 0
M  V30 5393 H 525.724 -1.23263 -4.02969 0
M  V30 5394 H 524.448 -0.26051 -3.25559 0
M  V30 5395 H 523.107 -2.34723 -2.81604 0
M  V30 5396 H 522.755 -1.04289 -4.9207 0
M  V30 5397 H 522.455 -2.78016 -5.17669 0
M  V30 5398 H 523.979 -2.04691 -5.75268 0
M  V30 5399 H 525.393 -3.79252 -4.29931 0
M  V30 5400 H 523.79 -4.50784 -3.96124 0
M  V30 5401 H 524.86 -4.08513 -2.61238 0
M  V30 5402 N 526.204 0.969867 -1.24223 0
M  V30 5403 C 527.114 2.09806 -1.0497 0
M  V30 5404 C 528.13 1.73998 0.00886455 0
M  V30 5405 O 529.306 2.00513 -0.188848 0
M  V30 5406 C 526.371 3.40467 -0.654452 0
M  V30 5407 C 525.432 3.90236 -1.78926 0
M  V30 5408 C 524.665 5.14662 -1.41277 0
M  V30 5409 O 524.888 5.69602 -0.301632 0
M  V30 5410 O 523.822 5.58761 -2.23763 0
M  V30 5411 H 527.648 2.28942 -1.99548 0
M  V30 5412 H 525.233 1.08197 -1.03023 0
M  V30 5413 H 527.115 4.19039 -0.445452 0
M  V30 5414 H 525.79 3.22636 0.262216 0
M  V30 5415 H 524.697 3.12735 -2.05299 0
M  V30 5416 H 526.03 4.1254 -2.68462 0
M  V30 5417 N 527.682 1.05563 1.17022 0
M  V30 5418 C 528.91 0.78845 1.91288 0
M  V30 5419 C 529.325 -0.656318 1.77025 0
M  V30 5420 O 528.682 -1.44869 1.10992 0
M  V30 5421 C 528.733 1.16444 3.42232 0
M  V30 5422 O 528.454 2.5525 3.5606 0
M  V30 5423 C 529.955 0.923937 4.33565 0
M  V30 5424 H 527.175 0.286389 0.606813 0
M  V30 5425 H 529.719 1.4073 1.48375 0
M  V30 5426 H 527.874 0.590266 3.82877 0
M  V30 5427 H 528.288 2.70097 4.49609 0
M  V30 5428 H 529.762 1.23672 5.37968 0
M  V30 5429 H 530.239 -0.140688 4.38975 0
M  V30 5430 H 530.845 1.48214 3.98639 0
M  V30 5431 N 529.16 -1.33526 0.837174 0
M  V30 5432 C 530.093 -2.27192 0.214233 0
M  V30 5433 C 531.071 -1.49575 -0.637657 0
M  V30 5434 O 532.255 -1.78753 -0.598291 0
M  V30 5435 C 529.382 -3.31401 -0.699367 0
M  V30 5436 C 528.428 -4.26431 0.0768429 0
M  V30 5437 S 529.261 -5.15954 1.4336 0
M  V30 5438 C 530.417 -6.23692 0.525251 0
M  V30 5439 H 530.65 -2.79679 1.00831 0
M  V30 5440 H 528.183 -1.4079 0.633834 0
M  V30 5441 H 530.141 -3.91924 -1.22088 0
M  V30 5442 H 528.802 -2.77732 -1.46709 0
M  V30 5443 H 527.995 -5.00193 -0.618268 0
M  V30 5444 H 527.597 -3.70235 0.529364 0
M  V30 5445 H 529.889 -6.76931 -0.277575 0
M  V30 5446 H 530.832 -6.97283 1.23299 0
M  V30 5447 H 531.24 -5.64398 0.107351 0
M  V30 5448 N 530.638 -0.59345 -1.46 0
M  V30 5449 C 531.884 -0.0832754 -2.02629 0
M  V30 5450 C 532.217 1.27749 -1.46266 0
M  V30 5451 O 531.492 1.8395 -0.631866 0
M  V30 5452 C 531.775 -0.0290756 -3.60088 0
M  V30 5453 C 531.628 -1.41951 -4.26814 0
M  V30 5454 C 532.947 0.666055 -4.35031 0
M  V30 5455 H 530.066 -0.031736 -0.736316 0
M  V30 5456 H 532.708 -0.762711 -1.74019 0
M  V30 5457 H 530.858 0.549532 -3.84594 0
M  V30 5458 H 532.53 -2.04411 -4.13538 0
M  V30 5459 H 530.773 -1.98422 -3.8576 0
M  V30 5460 H 531.444 -1.33395 -5.3564 0
M  V30 5461 H 533.92 0.174401 -4.15734 0
M  V30 5462 H 532.796 0.673041 -5.44758 0
M  V30 5463 H 533.057 1.72946 -4.06869 0
M  V30 5464 N 532.116 1.54067 -0.331816 0
M  V30 5465 C 533.048 2.22139 0.564538 0
M  V30 5466 C 534.061 1.22408 1.07332 0
M  V30 5467 O 535.25 1.4883 0.985481 0
M  V30 5468 C 532.35 2.87876 1.78831 0
M  V30 5469 C 531.523 4.13817 1.41682 0
M  V30 5470 C 530.582 4.63072 2.49901 0
M  V30 5471 O 529.608 5.27562 2.13699 0
M  V30 5472 N 530.81 4.38001 3.80967 0
M  V30 5473 H 533.575 2.99694 -0.0183736 0
M  V30 5474 H 531.136 1.61153 -0.155396 0
M  V30 5475 H 533.128 3.17747 2.50637 0
M  V30 5476 H 531.698 2.13977 2.27887 0
M  V30 5477 H 530.918 3.9062 0.530044 0
M  V30 5478 H 532.206 4.95762 1.14443 0
M  V30 5479 H 531.604 3.864 4.13173 0
M  V30 5480 H 530.161 4.72507 4.48977 0
M  V30 5481 N 533.594 0.0601682 1.57485 0
M  V30 5482 C 534.526 -0.94047 2.09016 0
M  V30 5483 C 535.539 -1.26897 1.01985 0
M  V30 5484 O 536.728 -1.22819 1.29529 0
M  V30 5485 C 533.828 -2.25955 2.52582 0
M  V30 5486 C 533.001 -2.11163 3.83052 0
M  V30 5487 C 532.06 -3.26273 4.12835 0
M  V30 5488 O 531.086 -3.01779 4.82616 0
M  V30 5489 N 532.288 -4.51022 3.65458 0
M  V30 5490 H 535.053 -0.500578 2.9549 0
M  V30 5491 H 532.614 -0.125852 1.6141 0
M  V30 5492 H 534.606 -3.01846 2.69575 0
M  V30 5493 H 533.176 -2.61481 1.71308 0
M  V30 5494 H 532.396 -1.19808 3.75552 0
M  V30 5495 H 533.684 -1.98517 4.68475 0
M  V30 5496 H 533.082 -4.73811 3.09062 0
M  V30 5497 H 531.639 -5.23978 3.87673 0
M  V30 5498 N 535.072 -1.5615 -0.213296 0
M  V30 5499 C 536.035 -1.92249 -1.24792 0
M  V30 5500 C 537.035 -0.801828 -1.39382 0
M  V30 5501 O 538.225 -1.06948 -1.37506 0
M  V30 5502 C 535.357 -2.18056 -2.62039 0
M  V30 5503 H 536.55 -2.84793 -0.939845 0
M  V30 5504 H 534.103 -1.49559 -0.454062 0
M  V30 5505 H 534.838 -1.2809 -2.97932 0
M  V30 5506 H 534.623 -2.99703 -2.52825 0
M  V30 5507 H 536.113 -2.47051 -3.36683 0
M  V30 5508 N 536.55 0.480323 -1.50102 0
M  V30 5509 C 537.46 1.60547 -1.71061 0
M  V30 5510 C 538.476 1.63564 -0.593529 0
M  V30 5511 O 539.652 1.81604 -0.870751 0
M  V30 5512 C 536.717 2.96814 -1.79171 0
M  V30 5513 C 535.778 3.04259 -3.02861 0
M  V30 5514 C 535.011 4.34027 -3.10574 0
M  V30 5515 O 535.234 5.24009 -2.25323 0
M  V30 5516 O 534.168 4.46873 -4.03223 0
M  V30 5517 H 537.994 1.45788 -2.6642 0
M  V30 5518 H 535.579 0.658838 -1.34088 0
M  V30 5519 H 537.461 3.77765 -1.86738 0
M  V30 5520 H 536.136 3.11791 -0.869947 0
M  V30 5521 H 535.043 2.22419 -3.008 0
M  V30 5522 H 536.376 2.94216 -3.94586 0
M  V30 5523 N 538.028 1.39524 0.732853 0
M  V30 5524 C 539.253 1.40329 1.52717 0
M  V30 5525 C 539.678 0.000286574 1.881 0
M  V30 5526 O 539.036 -0.987262 1.52062 0
M  V30 5527 C 539.084 2.28464 2.78992 0
M  V30 5528 O 538.188 1.716 3.75003 0
M  V30 5529 H 537.529 0.47778 0.461109 0
M  V30 5530 H 540.059 1.83546 0.903996 0
M  V30 5531 H 540.069 2.43051 3.27705 0
M  V30 5532 H 538.744 3.30425 2.52572 0
M  V30 5533 H 537.321 1.66267 3.33781 0
M  V30 5534 N 539.506 -0.963266 1.24736 0
M  V30 5535 C 540.469 -2.04013 1.04457 0
M  V30 5536 C 541.469 -1.608 0.000335555 0
M  V30 5537 O 542.659 -1.72515 0.241719 0
M  V30 5538 C 539.791 -3.35858 0.584162 0
M  V30 5539 H 540.984 -2.23436 2.00041 0
M  V30 5540 H 538.537 -1.13914 1.07021 0
M  V30 5541 H 539.272 -3.22128 -0.374673 0
M  V30 5542 H 539.057 -3.68568 1.3379 0
M  V30 5543 H 540.547 -4.1502 0.463451 0
M  V30 5544 N 540.985 -1.06182 -1.16461 0
M  V30 5545 C 541.932 -0.671613 -2.20812 0
M  V30 5546 C 542.902 0.331186 -1.62765 0
M  V30 5547 O 544.087 0.22033 -1.89524 0
M  V30 5548 C 541.227 -0.063029 -3.45042 0
M  V30 5549 C 540.34 -1.11587 -4.1734 0
M  V30 5550 C 539.475 -0.473546 -5.29085 0
M  V30 5551 C 538.514 -1.51 -5.93182 0
M  V30 5552 N 537.651 -0.891118 -6.96422 0
M  V30 5553 H 542.491 -1.56589 -2.53542 0
M  V30 5554 H 540.028 -0.782951 -1.24532 0
M  V30 5555 H 541.986 0.307344 -4.16066 0
M  V30 5556 H 540.616 0.794663 -3.12866 0
M  V30 5557 H 539.668 -1.60396 -3.44931 0
M  V30 5558 H 540.98 -1.90221 -4.61104 0
M  V30 5559 H 540.134 -0.0501432 -6.06679 0
M  V30 5560 H 538.873 0.344687 -4.8648 0
M  V30 5561 H 537.878 -1.94331 -5.14311 0
M  V30 5562 H 539.103 -2.33031 -6.37866 0
M  V30 5563 H 537.049 -0.0935753 -6.55933 0
M  V30 5564 H 536.966 -1.61486 -7.38551 0
M  V30 5565 H 538.234 -0.492822 -7.77941 0
M  V30 5566 N 542.463 1.3308 -0.844243 0
M  V30 5567 C 543.426 2.27403 -0.286485 0
M  V30 5568 C 544.426 1.51179 0.547872 0
M  V30 5569 O 545.616 1.70421 0.360886 0
M  V30 5570 C 542.748 3.35653 0.595813 0
M  V30 5571 H 543.941 2.78248 -1.11885 0
M  V30 5572 H 541.494 1.43574 -0.617749 0
M  V30 5573 H 542.229 2.90058 1.4504 0
M  V30 5574 H 542.014 3.921 -0.00125994 0
M  V30 5575 H 543.504 4.05958 0.979168 0
M  V30 5576 N 543.941 0.601185 1.45683 0
M  V30 5577 C 545.19 0.0914953 2.01492 0
M  V30 5578 C 545.503 -1.28331 1.47616 0
M  V30 5579 O 546.709 -1.88537 1.95362 0
M  V30 5580 C 545.165 0.11291 3.59723 0
M  V30 5581 C 544.773 1.48717 4.22596 0
M  V30 5582 C 546.517 -0.341871 4.23121 0
M  V30 5583 C 544.424 1.46531 5.7296 0
M  V30 5584 H 543.354 0.0304365 0.753385 0
M  V30 5585 H 546.005 0.755568 1.67223 0
M  V30 5586 H 544.387 -0.617692 3.91153 0
M  V30 5587 H 545.561 2.23897 4.02749 0
M  V30 5588 H 543.876 1.88351 3.71366 0
M  V30 5589 H 546.473 -0.377304 5.33367 0
M  V30 5590 H 546.816 -1.36325 3.93346 0
M  V30 5591 H 547.349 0.335256 3.96385 0
M  V30 5592 H 544.088 2.46408 6.07423 0
M  V30 5593 H 543.608 0.755997 5.95017 0
M  V30 5594 H 545.287 1.18618 6.36034 0
M  V30 5595 N 545.419 -1.53889 0.339982 0
M  V30 5596 C 546.644 -2.05741 -0.261798 0
M  V30 5597 C 547.069 -1.21354 -1.43718 0
M  V30 5598 O 546.427 -0.22645 -1.7988 0
M  V30 5599 C 546.475 -3.54542 -0.658228 0
M  V30 5600 O 545.579 -3.7302 -1.75869 0
M  V30 5601 H 544.92 -0.662529 -0.0441672 0
M  V30 5602 H 547.45 -1.98568 0.493161 0
M  V30 5603 H 547.46 -3.9711 -0.936368 0
M  V30 5604 H 546.135 -4.15412 0.201358 0
M  V30 5605 H 544.712 -3.42355 -1.47809 0
M  V30 5606 N 546.897 -0.0685191 -1.57451 0
M  V30 5607 C 548.125 0.610462 -1.97689 0
M  V30 5608 C 548.54 1.63346 -0.946758 0
M  V30 5609 O 547.897 1.82377 0.0669868 0
M  V30 5610 C 547.948 1.28196 -3.38006 0
M  V30 5611 O 547.669 0.299906 -4.37072 0
M  V30 5612 C 549.17 2.04907 -3.931 0
M  V30 5613 H 546.39 0.165689 -0.650222 0
M  V30 5614 H 548.934 -0.139953 -2.04021 0
M  V30 5615 H 547.089 1.98348 -3.32771 0
M  V30 5616 H 547.503 0.78126 -5.18649 0
M  V30 5617 H 548.977 2.47287 -4.93511 0
M  V30 5618 H 549.454 2.9043 -3.29465 0
M  V30 5619 H 550.06 1.39629 -4.01726 0
M  V30 5620 N 548.375 1.56261 0.205012 0
M  V30 5621 C 549.623 1.79684 0.925096 0
M  V30 5622 C 549.944 0.63989 1.84202 0
M  V30 5623 O 549.214 -0.342345 1.92885 0
M  V30 5624 H 547.794 0.662774 0.344587 0
M  V30 5625 H 550.456 1.93734 0.212899 0
M  V30 5626 H 549.552 2.72467 1.52211 0
M  V30 5627 N 549.853 -0.472356 1.50355 0
M  V30 5628 C 551.099 -1.22634 1.6152 0
M  V30 5629 C 551.432 -1.91645 0.313995 0
M  V30 5630 O 550.707 -1.82059 -0.684446 0
M  V30 5631 C 550.99 -2.27099 2.7946 0
M  V30 5632 C 550.843 -1.62402 4.19459 0
M  V30 5633 C 552.162 -3.28421 2.92964 0
M  V30 5634 H 549.281 -0.444494 0.587873 0
M  V30 5635 H 551.923 -0.520321 1.82737 0
M  V30 5636 H 550.073 -2.87314 2.61501 0
M  V30 5637 H 551.745 -1.05793 4.49005 0
M  V30 5638 H 549.988 -0.927184 4.23776 0
M  V30 5639 H 550.659 -2.38309 4.97909 0
M  V30 5640 H 553.135 -2.78227 3.09401 0
M  V30 5641 H 552.011 -3.98845 3.77113 0
M  V30 5642 H 552.272 -3.92467 2.03525 0
M  V30 5643 N 551.331 -1.39911 -0.725443 0
M  V30 5644 C 552.294 -1.39156 -1.82121 0
M  V30 5645 C 553.294 -0.287018 -1.58218 0
M  V30 5646 O 554.484 -0.545421 -1.65441 0
M  V30 5647 C 551.616 -1.1736 -3.20062 0
M  V30 5648 H 552.809 -2.36672 -1.84191 0
M  V30 5649 H 550.362 -1.25615 -0.930079 0
M  V30 5650 H 551.097 -0.205648 -3.23647 0
M  V30 5651 H 550.882 -1.97358 -3.3881 0
M  V30 5652 H 552.372 -1.19596 -4.00108 0
M  V30 5653 N 552.809 0.956637 -1.25245 0
M  V30 5654 C 554.056 1.701 -1.09874 0
M  V30 5655 C 554.384 1.91128 0.36062 0
M  V30 5656 O 553.639 1.47837 1.28229 0
M  V30 5657 C 553.938 3.08996 -1.79601 0
M  V30 5658 C 553.604 3.07774 -3.29523 0
M  V30 5659 C 552.266 3.07149 -3.70423 0
M  V30 5660 C 554.618 3.01257 -4.25316 0
M  V30 5661 C 551.946 2.97752 -5.0553 0
M  V30 5662 C 554.298 2.93403 -5.60444 0
M  V30 5663 C 552.962 2.91111 -6.00675 0
M  V30 5664 H 552.232 0.62244 -0.402056 0
M  V30 5665 H 554.879 1.1178 -1.55491 0
M  V30 5666 H 553.184 3.70848 -1.26408 0
M  V30 5667 H 554.881 3.65407 -1.65162 0
M  V30 5668 H 551.471 3.09032 -2.9698 0
M  V30 5669 H 555.655 3.00861 -3.9471 0
M  V30 5670 H 550.911 2.94346 -5.35883 0
M  V30 5671 H 555.085 2.87321 -6.34366 0
M  V30 5672 H 552.712 2.83586 -7.05325 0
M  V30 5673 N 554.287 1.06798 1.15896 0
M  V30 5674 C 555.25 0.687328 2.18651 0
M  V30 5675 C 556.25 -0.269559 1.58524 0
M  V30 5676 O 557.44 -0.0512627 1.74125 0
M  V30 5677 C 554.572 0.0121642 3.40898 0
M  V30 5678 H 555.765 1.59701 2.53842 0
M  V30 5679 H 553.318 0.863828 1.3026 0
M  V30 5680 H 554.053 -0.910025 3.1127 0
M  V30 5681 H 553.838 0.700309 3.85795 0
M  V30 5682 H 555.328 -0.239703 4.16911 0
M  V30 5683 N 555.766 -1.3263 0.851289 0
M  V30 5684 C 557.013 -1.97368 0.453023 0
M  V30 5685 C 557.341 -1.67384 -0.990596 0
M  V30 5686 O 556.596 -0.952665 -1.70947 0
M  V30 5687 C 556.895 -3.51713 0.635015 0
M  V30 5688 C 556.561 -4.01676 2.04859 0
M  V30 5689 C 555.223 -4.15031 2.43522 0
M  V30 5690 C 557.575 -4.28206 2.97135 0
M  V30 5691 C 554.903 -4.52257 3.73739 0
M  V30 5692 C 557.255 -4.66889 4.26846 0
M  V30 5693 C 555.919 -4.7845 4.65448 0
M  V30 5694 H 555.189 -0.722219 0.165773 0
M  V30 5695 H 557.836 -1.58092 1.0807 0
M  V30 5696 H 556.141 -3.91726 -0.0759081 0
M  V30 5697 H 557.838 -3.99823 0.306964 0
M  V30 5698 H 554.428 -3.91764 1.73836 0
M  V30 5699 H 558.612 -4.174 2.68498 0
M  V30 5700 H 553.868 -4.59402 4.03435 0
M  V30 5701 H 558.042 -4.86372 4.98413 0
M  V30 5702 H 555.669 -5.07052 5.66395 0
M  V30 5703 N 557.244 -0.608902 -1.45362 0
M  V30 5704 C 558.492 -0.104401 -2.0183 0
M  V30 5705 C 558.813 1.27007 -1.47967 0
M  V30 5706 O 558.083 1.83924 -0.674455 0
M  V30 5707 H 556.663 -0.0356042 -0.746151 0
M  V30 5708 H 559.325 -0.790596 -1.78145 0
M  V30 5709 H 558.421 -0.0551793 -3.12051 0
M  V30 5710 N 558.722 1.53707 -0.348139 0
M  V30 5711 C 560.133 1.86213 0.134797 0
M  V30 5712 C 560.484 1.26925 1.49614 0
M  V30 5713 O 559.609 0.584573 2.08355 0
M  V30 5714 C 560.204 3.37866 0.251371 0
M  V30 5715 C 558.763 3.70233 0.678543 0
M  V30 5716 C 557.91 2.76683 -0.184925 0
M  V30 5717 H 560.861 1.48204 -0.567571 0
M  V30 5718 H 560.882 3.64908 1.07806 0
M  V30 5719 H 560.394 3.80988 -0.739581 0
M  V30 5720 H 558.495 3.32659 1.67835 0
M  V30 5721 H 558.608 4.76836 0.465251 0
M  V30 5722 H 556.972 2.52374 0.343465 0
M  V30 5723 H 557.755 3.22635 -1.1731 0
M  V30 5724 N 560.2 0.0768682 1.57412 0
M  V30 5725 C 561.448 -0.589918 1.93299 0
M  V30 5726 C 561.769 -1.69842 0.958049 0
M  V30 5727 O 561.039 -1.95899 0.00703261 0
M  V30 5728 H 559.619 -0.220901 0.713591 0
M  V30 5729 H 562.281 0.135917 1.94425 0
M  V30 5730 H 561.377 -1.01195 2.95239 0
M  V30 5731 N 561.678 -1.56367 -0.196722 0
M  V30 5732 C 562.924 -1.80796 -0.918725 0
M  V30 5733 C 563.257 -0.650645 -1.82976 0
M  V30 5734 O 562.532 0.348889 -1.91345 0
M  V30 5735 C 562.815 -3.15472 -1.73636 0
M  V30 5736 C 562.668 -4.41693 -0.85015 0
M  V30 5737 C 563.987 -3.46824 -2.70927 0
M  V30 5738 H 561.106 -0.657702 -0.332561 0
M  V30 5739 H 563.748 -1.89086 -0.186186 0
M  V30 5740 H 561.898 -3.08536 -2.36088 0
M  V30 5741 H 563.57 -4.60673 -0.240459 0
M  V30 5742 H 561.813 -4.33517 -0.156785 0
M  V30 5743 H 562.484 -5.32419 -1.45719 0
M  V30 5744 H 564.96 -3.54049 -2.18607 0
M  V30 5745 H 563.836 -4.4218 -3.25219 0
M  V30 5746 H 564.097 -2.70236 -3.49893 0
M  V30 5747 N 563.156 0.464375 -1.50603 0
M  V30 5748 C 564.384 1.23907 -1.65695 0
M  V30 5749 C 564.799 1.85658 -0.343027 0
M  V30 5750 O 564.156 1.69529 0.675739 0
M  V30 5751 C 564.207 2.3429 -2.75301 0
M  V30 5752 O 563.928 1.7507 -4.01599 0
M  V30 5753 C 565.429 3.25051 -3.01424 0
M  V30 5754 H 562.649 0.374485 -0.556778 0
M  V30 5755 H 565.193 0.55353 -1.96866 0
M  V30 5756 H 563.348 2.98607 -2.46804 0
M  V30 5757 H 563.762 2.47812 -4.62266 0
M  V30 5758 H 565.236 3.98699 -3.81763 0
M  V30 5759 H 565.713 3.84227 -2.12758 0
M  V30 5760 H 566.319 2.66463 -3.31477 0
M  V30 5761 N 564.634 1.40294 0.718013 0
M  V30 5762 C 565.88 1.38645 1.48005 0
M  V30 5763 C 566.213 -0.0121202 1.94196 0
M  V30 5764 O 565.488 -0.980309 1.67989 0
M  V30 5765 C 565.771 2.37379 2.70782 0
M  V30 5766 C 565.624 3.8625 2.30501 0
M  V30 5767 C 566.943 2.33685 3.72933 0
M  V30 5768 H 564.062 0.504928 0.536858 0
M  V30 5769 H 566.704 1.71411 0.819649 0
M  V30 5770 H 564.854 2.09568 3.27129 0
M  V30 5771 H 566.526 4.24879 1.79655 0
M  V30 5772 H 564.769 4.02202 1.6253 0
M  V30 5773 H 565.44 4.50847 3.18498 0
M  V30 5774 H 567.916 2.58314 3.2621 0
M  V30 5775 H 566.792 3.0482 4.56482 0
M  V30 5776 H 567.053 1.34765 4.21059 0
M  V30 5777 N 566.112 -0.949982 1.2575 0
M  V30 5778 C 567.022 -2.08109 1.08295 0
M  V30 5779 C 568.038 -1.7399 0.0188181 0
M  V30 5780 O 569.214 -2.00187 0.220724 0
M  V30 5781 C 566.279 -3.39383 0.708534 0
M  V30 5782 C 565.34 -3.8734 1.85111 0
M  V30 5783 C 564.573 -5.12349 1.49447 0
M  V30 5784 O 564.796 -5.6905 0.392212 0
M  V30 5785 O 563.73 -5.5513 2.32624 0
M  V30 5786 H 567.556 -2.25738 2.03165 0
M  V30 5787 H 565.141 -1.06545 1.04731 0
M  V30 5788 H 567.023 -4.18277 0.512061 0
M  V30 5789 H 565.698 -3.23013 -0.210854 0
M  V30 5790 H 564.605 -3.09429 2.10248 0
M  V30 5791 H 565.938 -4.08216 2.74991 0
M  V30 5792 N 567.59 -1.07411 -1.15328 0
M  V30 5793 C 568.838 -0.796073 -1.85761 0
M  V30 5794 C 569.159 0.679864 -1.82764 0
M  V30 5795 O 568.429 1.49242 -1.269 0
M  V30 5796 H 567.009 -0.291495 -0.687779 0
M  V30 5797 H 569.671 -1.35799 -1.39802 0
M  V30 5798 H 568.767 -1.13114 -2.90881 0
M  V30 5799 N 569.068 1.32177 -0.85831 0
M  V30 5800 C 570.001 2.26823 -0.25035 0
M  V30 5801 C 570.979 1.50571 0.61378 0
M  V30 5802 O 572.163 1.79682 0.569777 0
M  V30 5803 C 569.29 3.32472 0.646556 0
M  V30 5804 C 568.336 4.26255 -0.144675 0
M  V30 5805 S 569.169 5.13608 -1.5155 0
M  V30 5806 C 570.325 6.22778 -0.624408 0
M  V30 5807 H 570.558 2.7804 -1.05267 0
M  V30 5808 H 568.091 1.39764 -0.656152 0
M  V30 5809 H 570.049 3.93817 1.15837 0
M  V30 5810 H 568.71 2.80031 1.42272 0
M  V30 5811 H 567.903 5.01114 0.538613 0
M  V30 5812 H 567.505 3.69346 -0.588198 0
M  V30 5813 H 569.797 6.77287 0.169846 0
M  V30 5814 H 570.74 6.95233 -1.34376 0
M  V30 5815 H 571.148 5.64156 -0.197128 0
M  V30 5816 N 570.547 0.616602 1.45037 0
M  V30 5817 C 571.477 -0.0840787 2.33349 0
M  V30 5818 C 572.458 -0.849641 1.4736 0
M  V30 5819 O 573.643 -0.818407 1.76113 0
M  V30 5820 C 570.773 -1.07604 3.3021 0
M  V30 5821 C 569.727 -0.423096 4.25904 0
M  V30 5822 C 569.053 -1.52394 5.12523 0
M  V30 5823 C 570.353 0.661457 5.18095 0
M  V30 5824 H 572.047 0.653333 2.92185 0
M  V30 5825 H 569.593 0.315634 1.40498 0
M  V30 5826 H 571.546 -1.57485 3.90866 0
M  V30 5827 H 570.27 -1.84416 2.69552 0
M  V30 5828 H 568.929 0.05493 3.66559 0
M  V30 5829 H 568.577 -2.28257 4.48227 0
M  V30 5830 H 568.277 -1.09251 5.77354 0
M  V30 5831 H 569.801 -2.02485 5.76049 0
M  V30 5832 H 571.215 0.246353 5.7277 0
M  V30 5833 H 569.612 1.01517 5.91451 0
M  V30 5834 H 570.682 1.53446 4.59981 0
M  V30 5835 N 572.025 -1.5352 0.356285 0
M  V30 5836 C 573.272 -2.01117 -0.236303 0
M  V30 5837 C 573.6 -1.24381 -1.49531 0
M  V30 5838 O 572.855 -0.323057 -1.93015 0
M  V30 5839 C 573.154 -3.52607 -0.583369 0
M  V30 5840 C 572.82 -4.47151 0.58023 0
M  V30 5841 C 571.482 -4.72718 0.899528 0
M  V30 5842 C 573.834 -5.03137 1.36024 0
M  V30 5843 C 571.162 -5.51523 2.00098 0
M  V30 5844 C 573.514 -5.83145 2.45204 0
M  V30 5845 C 572.178 -6.07001 2.77679 0
M  V30 5846 H 571.448 -0.735938 -0.0864695 0
M  V30 5847 H 574.095 -1.85209 0.48683 0
M  V30 5848 H 572.4 -3.66413 -1.38739 0
M  V30 5849 H 574.097 -3.86901 -1.05397 0
M  V30 5850 H 570.687 -4.27394 0.321322 0
M  V30 5851 H 574.871 -4.83339 1.12682 0
M  V30 5852 H 570.127 -5.68229 2.25668 0
M  V30 5853 H 574.301 -6.25537 3.06067 0
M  V30 5854 H 571.928 -6.67851 3.63151 0
M  V30 5855 N 573.503 -0.0852151 -1.57369 0
M  V30 5856 C 574.78 0.622534 -1.85429 0
M  V30 5857 C 575.16 1.86962 -0.980229 0
M  V30 5858 O 574.508 2.28445 -0.0500219 0
M  V30 5859 C 574.718 0.947374 -3.35896 0
M  V30 5860 C 576.066 1.31509 -4.03721 0
M  V30 5861 O 577.09 1.03869 -3.40719 0
M  V30 5862 O 575.949 1.83231 -5.14868 0
M  V30 5863 H 573.043 0.310513 -0.766492 0
M  V30 5864 H 575.589 -0.117164 -1.69295 0
M  V30 5865 H 574.361 0.0622264 -3.91251 0
M  V30 5866 H 573.984 1.74338 -3.5734 0
M  V30 5867 N 574.981 1.5647 0.188427 0
M  V30 5868 C 576.23 1.80207 0.905995 0
M  V30 5869 C 576.543 0.659579 1.84144 0
M  V30 5870 O 577.749 0.781431 2.60011 0
M  V30 5871 C 576.205 3.19255 1.66145 0
M  V30 5872 C 575.813 4.41324 0.770504 0
M  V30 5873 C 577.557 3.52298 2.36826 0
M  V30 5874 C 575.464 5.71394 1.52521 0
M  V30 5875 H 574.394 0.671953 0.342045 0
M  V30 5876 H 577.045 1.82808 0.159164 0
M  V30 5877 H 575.427 3.10922 2.45242 0
M  V30 5878 H 576.601 4.60797 0.0177261 0
M  V30 5879 H 574.916 4.16035 0.174199 0
M  V30 5880 H 577.513 4.46715 2.93854 0
M  V30 5881 H 577.856 2.76359 3.11338 0
M  V30 5882 H 578.389 3.62108 1.6469 0
M  V30 5883 H 575.128 6.50316 0.82275 0
M  V30 5884 H 574.648 5.55928 2.25175 0
M  V30 5885 H 576.327 6.12747 2.07725 0
M  V30 5886 N 576.459 -0.456382 1.50847 0
M  V30 5887 C 577.708 -1.2042 1.61808 0
M  V30 5888 C 578.021 -1.9278 0.330932 0
M  V30 5889 O 579.227 -2.69612 0.319643 0
M  V30 5890 C 577.683 -2.18891 2.85683 0
M  V30 5891 C 577.291 -1.52267 4.2133 0
M  V30 5892 C 579.035 -2.94224 3.05994 0
M  V30 5893 C 576.942 -2.4911 5.36375 0
M  V30 5894 H 575.872 -0.453177 0.602616 0
M  V30 5895 H 578.523 -0.473144 1.77295 0
M  V30 5896 H 576.905 -2.95351 2.63787 0
M  V30 5897 H 578.079 -0.814949 4.53536 0
M  V30 5898 H 576.394 -0.891594 4.06743 0
M  V30 5899 H 578.991 -3.66732 3.89117 0
M  V30 5900 H 579.334 -3.54469 2.18306 0
M  V30 5901 H 579.867 -2.24874 3.28141 0
M  V30 5902 H 576.606 -1.93582 6.26264 0
M  V30 5903 H 576.126 -3.17991 5.08569 0
M  V30 5904 H 577.805 -3.10637 5.67551 0
M  V30 5905 N 577.937 -1.40673 -0.710563 0
M  V30 5906 C 579.353 -1.22813 -1.01928 0
M  V30 5907 C 579.553 -0.10687 -2.01216 0
M  V30 5908 O 578.609 0.533614 -2.46797 0
M  V30 5909 C 579.922 -2.57178 -1.5582 0
M  V30 5910 C 581.47 -2.64233 -1.67779 0
M  V30 5911 C 581.945 -3.98879 -2.25076 0
M  V30 5912 N 583.436 -4.00647 -2.32456 0
M  V30 5913 C 584.171 -5.01621 -2.77784 0
M  V30 5914 N 583.667 -6.12989 -3.22826 0
M  V30 5915 N 585.46 -4.88988 -2.77213 0
M  V30 5916 H 577.611 -2.12335 -0.05253 0
M  V30 5917 H 579.874 -0.9441 -0.085898 0
M  V30 5918 H 579.58 -3.39903 -0.903249 0
M  V30 5919 H 579.454 -2.78618 -2.54267 0
M  V30 5920 H 581.841 -1.81876 -2.3239 0
M  V30 5921 H 581.922 -2.46619 -0.679178 0
M  V30 5922 H 581.566 -4.81678 -1.61086 0
M  V30 5923 H 581.496 -4.13826 -3.25661 0
M  V30 5924 H 583.987 -3.20231 -2.0065 0
M  V30 5925 H 584.3 -6.85921 -3.55995 0
M  V30 5926 H 582.645 -6.16547 -3.20773 0
M  V30 5927 H 585.836 -4.01075 -2.41363 0
M  V30 5928 H 586.009 -5.67822 -3.12221 0
M  V30 5929 N 579.415 0.9433 -1.26252 0
M  V30 5930 C 580.831 1.21644 -1.03319 0
M  V30 5931 C 581.031 2.0003 0.242983 0
M  V30 5932 O 580.087 2.33838 0.952688 0
M  V30 5933 C 581.4 1.97978 -2.2633 0
M  V30 5934 C 582.948 2.10978 -2.31209 0
M  V30 5935 C 583.423 2.90713 -3.53907 0
M  V30 5936 N 584.914 2.98287 -3.54371 0
M  V30 5937 C 585.649 3.60406 -4.45976 0
M  V30 5938 N 585.145 4.24043 -5.47868 0
M  V30 5939 N 586.938 3.57658 -4.33633 0
M  V30 5940 H 579.089 0.419221 -2.08222 0
M  V30 5941 H 581.352 0.247995 -0.914988 0
M  V30 5942 H 581.058 1.47788 -3.19142 0
M  V30 5943 H 580.932 2.9865 -2.30408 0
M  V30 5944 H 583.319 2.6036 -1.38913 0
M  V30 5945 H 583.4 1.09575 -2.31143 0
M  V30 5946 H 583.044 2.42018 -4.46531 0
M  V30 5947 H 582.974 3.92367 -3.5122 0
M  V30 5948 H 585.465 2.53044 -2.80673 0
M  V30 5949 H 585.778 4.69334 -6.13959 0
M  V30 5950 H 584.123 4.22637 -5.51728 0
M  V30 5951 H 587.314 3.07134 -3.53251 0
M  V30 5952 H 587.487 4.05782 -5.05218 0
M  V30 5953 O 580.932 1.20358 1.07685 0
M  V30 5954 H 581.623 0.957266 1.68393 0
M  V30 END ATOM
M  V30 BEGIN BOND
M  V30 END BOND
M  V30 END CTAB
M  END
$$$$
