drugbank_target|P9WPS1 ATP synthase subunit c (DB08903)
 OpenBabel12092120583D

  0  0  0     0  0            999 V3000
M  V30 BEGIN CTAB
M  V30 COUNTS 1153 1164 0 0 0
M  V30 BEGIN ATOM
M  V30 1 H -0.908 1.98254 -0.117106 0
M  V30 2 N 0 1.576 0 0
M  V30 3 C 0.933 2.03868 1.02534 0
M  V30 4 C 1.911 0.928543 1.3348 0
M  V30 5 O 3.095 1.19667 1.45644 0
M  V30 6 C 0.222 2.43627 2.35294 0
M  V30 7 C -0.732 3.65373 2.2001 0
M  V30 8 S 0.101 5.13292 1.52614 0
M  V30 9 C 1.257 5.56322 2.86805 0
M  V30 10 H 1.49 2.90518 0.631377 0
M  V30 11 H -0.977 1.52953 0.210867 0
M  V30 12 H 0.981 2.67203 3.11629 0
M  V30 13 H -0.358 1.57376 2.7183 0
M  V30 14 H -1.165 3.90944 3.18086 0
M  V30 15 H -1.563 3.418 1.51819 0
M  V30 16 H 0.729 5.58782 3.83104 0
M  V30 17 H 1.672 6.56266 2.65933 0
M  V30 18 H 2.08 4.83886 2.90714 0
M  V30 19 N 1.4781 -0.272755 1.55222 0
M  V30 20 C 2.7551 -1.02562 1.66555 0
M  V30 21 C 3.1351 -2.04282 0.532189 0
M  V30 22 O 2.4831 -2.23662 -0.467717 0
M  V30 23 C 2.6931 -1.6822 3.05782 0
M  V30 24 C 4.0411 -2.19373 3.63539 0
M  V30 25 O 5.0651 -1.78206 3.08417 0
M  V30 26 O 3.9241 -2.94883 4.60115 0
M  V30 27 H 1.0181 -0.475755 0.676451 0
M  V30 28 H 3.5641 -0.268593 1.67561 0
M  V30 29 H 2.3361 -0.945112 3.79715 0
M  V30 30 H 1.9591 -2.50609 3.08676 0
M  V30 31 N 2.9562 -1.48159 -0.537278 0
M  V30 32 C 4.3672 -1.49429 -1.11928 0
M  V30 33 C 4.7182 -0.26 -1.9447 0
M  V30 34 O 3.8432 0.633489 -2.0692 0
M  V30 35 C 4.4382 -2.70758 -2.03656 0
M  V30 36 C 2.9972 -2.74923 -2.57088 0
M  V30 37 C 2.1442 -2.42835 -1.3389 0
M  V30 38 H 5.0952 -1.55381 -0.322886 0
M  V30 39 H 5.1162 -2.48861 -2.87834 0
M  V30 40 H 4.6282 -3.60575 -1.43553 0
M  V30 41 H 2.7292 -1.89296 -3.20933 0
M  V30 42 H 2.8422 -3.76157 -2.9672 0
M  V30 43 H 1.2062 -1.93836 -1.65226 0
M  V30 44 H 1.9892 -3.34884 -0.755504 0
M  V30 45 N 4.4343 0.785586 -1.36625 0
M  V30 46 C 5.6623 1.57448 -1.3423 0
M  V30 47 C 6.0773 1.88649 0.0755653 0
M  V30 48 O 5.4343 1.50414 1.03354 0
M  V30 49 C 5.4853 2.89316 -2.16745 0
M  V30 50 O 5.2063 2.59459 -3.53005 0
M  V30 51 C 6.7073 3.83606 -2.22174 0
M  V30 52 H 3.9273 0.488226 -0.4603 0
M  V30 53 H 6.4713 0.974733 -1.79775 0
M  V30 54 H 4.6263 3.4575 -1.74745 0
M  V30 55 H 5.0403 3.43804 -3.96105 0
M  V30 56 H 6.5143 4.73181 -2.8426 0
M  V30 57 H 6.9913 4.21734 -1.22627 0
M  V30 58 H 7.5973 3.33104 -2.64427 0
M  V30 59 N 5.9124 1.20967 1.01018 0
M  V30 60 C 7.1614 1.01796 1.74128 0
M  V30 61 C 7.4744 -0.449691 1.90361 0
M  V30 62 O 8.6804 -0.76068 2.60626 0
M  V30 63 C 7.1364 1.7727 3.13215 0
M  V30 64 C 6.7444 3.28171 3.04972 0
M  V30 65 C 8.4884 1.66489 3.90489 0
M  V30 66 C 6.3954 3.96156 4.39107 0
M  V30 67 H 5.3254 0.377276 0.652824 0
M  V30 68 H 7.9764 1.44651 1.12909 0
M  V30 69 H 6.3584 1.27205 3.75013 0
M  V30 70 H 7.5324 3.85499 2.52443 0
M  V30 71 H 5.8474 3.39437 2.41188 0
M  V30 72 H 8.4444 2.14617 4.89738 0
M  V30 73 H 8.7874 0.6222 4.11624 0
M  V30 74 H 9.3204 2.14003 3.35332 0
M  V30 75 H 6.0594 5.00604 4.23174 0
M  V30 76 H 5.5794 3.43617 4.91617 0
M  V30 77 H 7.2584 4.00774 5.07926 0
M  V30 78 N 7.3905 -1.2043 1.01659 0
M  V30 79 C 8.3535 -2.21433 0.591616 0
M  V30 80 C 9.3535 -1.57203 -0.338226 0
M  V30 81 O 10.5435 -1.73737 -0.126918 0
M  V30 82 C 7.6755 -3.40628 -0.136058 0
M  V30 83 H 8.8685 -2.60545 1.48514 0
M  V30 84 H 6.4215 -1.33893 0.806379 0
M  V30 85 H 7.1565 -3.07019 -1.04449 0
M  V30 86 H 6.9415 -3.88475 0.531917 0
M  V30 87 H 8.4315 -4.15475 -0.420735 0
M  V30 88 N 8.8686 -0.792821 -1.36206 0
M  V30 89 C 9.8316 -0.199459 -2.2833 0
M  V30 90 C 10.8316 0.605189 -1.48977 0
M  V30 91 O 12.0216 0.425685 -1.68919 0
M  V30 92 C 9.1536 0.723523 -3.33134 0
M  V30 93 H 10.3466 -1.01181 -2.82316 0
M  V30 94 H 7.8996 -0.562485 -1.45828 0
M  V30 95 H 8.6346 1.56008 -2.84309 0
M  V30 96 H 8.4196 0.148436 -3.91819 0
M  V30 97 H 9.9096 1.13344 -4.01924 0
M  V30 98 N 10.3467 1.47872 -0.545128 0
M  V30 99 C 11.5947 2.02093 -0.016553 0
M  V30 100 C 11.9157 1.42305 1.3332 0
M  V30 101 O 11.1857 0.593853 1.86682 0
M  V30 102 H 9.7657 0.746993 -0.00313038 0
M  V30 103 H 12.4277 1.81414 -0.712397 0
M  V30 104 H 11.5237 3.11996 0.0805422 0
M  V30 105 N 11.8248 0.280983 1.55075 0
M  V30 106 C 12.7878 -0.590896 2.21452 0
M  V30 107 C 13.7878 -1.07682 1.19421 0
M  V30 108 O 14.9778 -0.97605 1.44288 0
M  V30 109 C 12.1098 -1.81587 2.88511 0
M  V30 110 H 13.3028 -0.0112554 2.99898 0
M  V30 111 H 10.8558 0.0316438 1.56268 0
M  V30 112 H 11.5908 -2.43587 2.14093 0
M  V30 113 H 11.3758 -1.4753 3.63287 0
M  V30 114 H 12.8658 -2.43575 3.39206 0
M  V30 115 N 13.3029 -1.57598 0.00835791 0
M  V30 116 C 14.2329 -2.1198 -0.979113 0
M  V30 117 C 15.2139 -1.03091 -1.35301 0
M  V30 118 O 16.3989 -1.30818 -1.43528 0
M  V30 119 C 13.5289 -2.62995 -2.26828 0
M  V30 120 C 12.4829 -3.76485 -2.03576 0
M  V30 121 C 11.8089 -4.13846 -3.38579 0
M  V30 122 C 13.1089 -5.0342 -1.39161 0
M  V30 123 H 14.8029 -2.94738 -0.526281 0
M  V30 124 H 12.3489 -1.41783 -0.251704 0
M  V30 125 H 14.3019 -2.99669 -2.96271 0
M  V30 126 H 13.0259 -1.7737 -2.7424 0
M  V30 127 H 11.6849 -3.40217 -1.36557 0
M  V30 128 H 11.3329 -3.25232 -3.83709 0
M  V30 129 H 11.0329 -4.90312 -3.23834 0
M  V30 130 H 12.5569 -4.53086 -4.09323 0
M  V30 131 H 13.9709 -5.37812 -1.98573 0
M  V30 132 H 12.3679 -5.84746 -1.34878 0
M  V30 133 H 13.4379 -4.83548 -0.361868 0
M  V30 134 N 14.781 0.264519 -1.55364 0
M  V30 135 C 16.03 0.992812 -1.75574 0
M  V30 136 C 16.343 1.87142 -0.568979 0
M  V30 137 O 17.549 2.63513 -0.653682 0
M  V30 138 C 16.005 1.81519 -3.10771 0
M  V30 139 C 15.613 0.984839 -4.37041 0
M  V30 140 C 17.357 2.53727 -3.40327 0
M  V30 141 C 15.264 1.80209 -5.63275 0
M  V30 142 H 14.194 0.374412 -0.65447 0
M  V30 143 H 16.845 0.248138 -1.81815 0
M  V30 144 H 15.227 2.60115 -2.98591 0
M  V30 145 H 16.401 0.242455 -4.60162 0
M  V30 146 H 14.716 0.37691 -4.14691 0
M  V30 147 H 17.313 3.15292 -4.3185 0
M  V30 148 H 17.656 3.24447 -2.60845 0
M  V30 149 H 18.189 1.82156 -3.53644 0
M  V30 150 H 14.928 1.13896 -6.45529 0
M  V30 151 H 14.448 2.52022 -5.44284 0
M  V30 152 H 16.127 2.37364 -6.01887 0
M  V30 153 N 16.2591 1.48442 0.529413 0
M  V30 154 C 17.5071 1.56179 1.28267 0
M  V30 155 C 17.8281 0.237721 1.93546 0
M  V30 156 O 17.0981 -0.740779 1.81354 0
M  V30 157 H 15.6781 0.575367 0.476405 0
M  V30 158 H 18.3401 1.84909 0.61602 0
M  V30 159 H 17.4361 2.34312 2.06165 0
M  V30 160 N 17.7372 -0.778329 1.37039 0
M  V30 161 C 18.9852 -1.53361 1.31623 0
M  V30 162 C 19.3062 -1.94739 -0.100831 0
M  V30 163 O 18.5762 -1.65797 -1.04347 0
M  V30 164 H 17.1562 -0.568794 0.484234 0
M  V30 165 H 19.8182 -0.926742 1.71457 0
M  V30 166 H 18.9142 -2.43606 1.95096 0
M  V30 167 N 19.2153 -1.21501 -1.00376 0
M  V30 168 C 20.4633 -1.03095 -1.73827 0
M  V30 169 C 20.7843 0.436341 -1.90055 0
M  V30 170 O 20.0543 1.31466 -1.45236 0
M  V30 171 H 18.6343 -0.378487 -0.644016 0
M  V30 172 H 21.2963 -1.52831 -1.20949 0
M  V30 173 H 20.3923 -1.49991 -2.73695 0
M  V30 174 N 20.6934 1.19889 -1.02296 0
M  V30 175 C 21.6234 2.25141 -0.619174 0
M  V30 176 C 22.6044 1.66051 0.368915 0
M  V30 177 O 23.7894 1.92546 0.252941 0
M  V30 178 C 20.9194 3.4728 0.0368783 0
M  V30 179 C 19.8734 4.19005 -0.872865 0
M  V30 180 C 19.1994 5.34637 -0.0822402 0
M  V30 181 C 20.4994 4.74452 -2.18387 0
M  V30 182 H 22.1934 2.59171 -1.49903 0
M  V30 183 H 19.7394 1.24579 -0.722222 0
M  V30 184 H 21.6924 4.20098 0.330958 0
M  V30 185 H 20.4164 3.12433 0.95149 0
M  V30 186 H 19.0754 3.48061 -1.15105 0
M  V30 187 H 18.7234 4.96034 0.83422 0
M  V30 188 H 18.4234 5.83557 -0.688149 0
M  V30 189 H 19.9474 6.10255 0.205238 0
M  V30 190 H 21.3614 5.39055 -1.95172 0
M  V30 191 H 19.7584 5.33834 -2.74119 0
M  V30 192 H 20.8284 3.92844 -2.84257 0
M  V30 193 N 22.1715 0.800033 1.35784 0
M  V30 194 C 23.4205 0.37387 1.98205 0
M  V30 195 C 23.7335 -1.06302 1.64193 0
M  V30 196 O 24.9395 -1.59198 2.19928 0
M  V30 197 C 23.3955 0.617532 3.54562 0
M  V30 198 C 23.0035 2.06654 3.9749 0
M  V30 199 C 24.7475 0.256401 4.23725 0
M  V30 200 C 22.6545 2.2563 5.46667 0
M  V30 201 H 21.5845 0.136055 0.741623 0
M  V30 202 H 24.2355 0.983166 1.54939 0
M  V30 203 H 22.6175 -0.0616248 3.95952 0
M  V30 204 H 23.7915 2.78296 3.67271 0
M  V30 205 H 22.1065 2.38691 3.41197 0
M  V30 206 H 24.7035 0.376318 5.33374 0
M  V30 207 H 25.0465 -0.796692 4.08606 0
M  V30 208 H 25.5795 0.889214 3.87734 0
M  V30 209 H 22.3185 3.2936 5.66747 0
M  V30 210 H 21.8385 1.58504 5.78478 0
M  V30 211 H 23.5175 2.06861 6.1304 0
M  V30 212 N 23.6496 -1.47581 0.552962 0
M  V30 213 C 24.5826 -2.26883 -0.244857 0
M  V30 214 C 25.5606 -1.33784 -0.924147 0
M  V30 215 O 26.7446 -1.6316 -0.943981 0
M  V30 216 C 23.8716 -3.10695 -1.34856 0
M  V30 217 C 22.9176 -4.19339 -0.778268 0
M  V30 218 S 23.7506 -5.34207 0.37184 0
M  V30 219 C 24.9066 -6.21584 -0.733779 0
M  V30 220 H 25.1396 -2.94202 0.428087 0
M  V30 221 H 22.6726 -1.50628 0.339197 0
M  V30 222 H 24.6306 -3.59555 -1.98066 0
M  V30 223 H 23.2916 -2.42746 -1.99332 0
M  V30 224 H 22.4846 -4.77695 -1.60696 0
M  V30 225 H 22.0866 -3.73338 -0.222422 0
M  V30 226 H 24.3786 -6.57676 -1.62692 0
M  V30 227 H 25.3216 -7.07851 -0.187668 0
M  V30 228 H 25.7296 -5.55125 -1.02454 0
M  V30 229 N 25.1277 -0.289203 -1.54924 0
M  V30 230 C 26.0907 0.579144 -2.21762 0
M  V30 231 C 27.0907 1.07047 -1.1999 0
M  V30 232 O 28.2807 0.968384 -1.44803 0
M  V30 233 C 25.4127 1.80055 -2.8947 0
M  V30 234 H 26.6057 -0.00464908 -2.999 0
M  V30 235 H 24.1587 -0.0399306 -1.56249 0
M  V30 236 H 24.8937 2.42449 -2.15381 0
M  V30 237 H 24.6787 1.45602 -3.64064 0
M  V30 238 H 26.1687 2.41773 -3.40493 0
M  V30 239 N 26.6058 1.57591 -0.0167156 0
M  V30 240 C 27.8538 1.90906 0.663285 0
M  V30 241 C 28.1748 0.892509 1.73376 0
M  V30 242 O 27.4448 -0.0677623 1.95783 0
M  V30 243 H 26.0248 0.704637 0.247983 0
M  V30 244 H 28.6868 1.94803 -0.0615909 0
M  V30 245 H 27.7828 2.9116 1.12393 0
M  V30 246 N 28.0839 -0.256276 1.55502 0
M  V30 247 C 29.3319 -0.983672 1.76545 0
M  V30 248 C 29.6529 -1.86206 0.578982 0
M  V30 249 O 28.9229 -1.91656 -0.405577 0
M  V30 250 H 27.5029 -0.366191 0.651086 0
M  V30 251 H 30.1649 -0.276479 1.92929 0
M  V30 252 H 29.2609 -1.61087 2.67315 0
M  V30 253 N 29.562 -1.4872 -0.521534 0
M  V30 254 C 30.525 -1.63379 -1.60748 0
M  V30 255 C 31.525 -0.50661 -1.52611 0
M  V30 256 O 32.715 -0.772601 -1.5613 0
M  V30 257 C 29.847 -1.61192 -3.00383 0
M  V30 258 H 31.04 -2.60217 -1.49087 0
M  V30 259 H 28.593 -1.37444 -0.744235 0
M  V30 260 H 29.328 -0.65863 -3.17541 0
M  V30 261 H 29.113 -2.43032 -3.07698 0
M  V30 262 H 30.603 -1.7466 -3.7932 0
M  V30 263 N 31.0401 0.771051 -1.3745 0
M  V30 264 C 32.2891 1.52491 -1.3202 0
M  V30 265 C 32.6021 1.9538 0.0927347 0
M  V30 266 O 33.8081 2.70159 0.269503 0
M  V30 267 C 32.2641 2.75366 -2.31736 0
M  V30 268 C 31.8721 2.39573 -3.78562 0
M  V30 269 C 33.6161 3.53307 -2.35318 0
M  V30 270 C 31.5231 3.58954 -4.70007 0
M  V30 271 H 30.4531 0.572506 -0.490666 0
M  V30 272 H 33.1041 0.844474 -1.62914 0
M  V30 273 H 31.4861 3.45303 -1.93861 0
M  V30 274 H 32.6601 1.77415 -4.25277 0
M  V30 275 H 30.9751 1.74805 -3.77932 0
M  V30 276 H 33.5721 4.42039 -3.00842 0
M  V30 277 H 33.9151 3.93217 -1.36698 0
M  V30 278 H 34.4481 2.90367 -2.71904 0
M  V30 279 H 31.1871 3.24125 -5.69757 0
M  V30 280 H 30.7071 4.20214 -4.27996 0
M  V30 281 H 32.3861 4.25758 -4.87175 0
M  V30 282 N 32.5182 1.22032 0.997298 0
M  V30 283 C 33.7662 1.04016 1.73278 0
M  V30 284 C 34.0872 -0.426255 1.90284 0
M  V30 285 O 33.3572 -1.30694 1.45931 0
M  V30 286 H 31.9372 0.381897 0.642 0
M  V30 287 H 34.5992 1.5347 1.20137 0
M  V30 288 H 33.6952 1.51441 2.72896 0
M  V30 289 N 33.9963 -1.19345 1.0293 0
M  V30 290 C 34.9593 -2.20793 0.615069 0
M  V30 291 C 35.9593 -1.57553 -0.321533 0
M  V30 292 O 37.1493 -1.73862 -0.108483 0
M  V30 293 C 34.2813 -3.40754 -0.0999222 0
M  V30 294 H 35.4743 -2.58955 1.51269 0
M  V30 295 H 33.0273 -1.3303 0.820534 0
M  V30 296 H 33.7623 -3.0811 -1.01187 0
M  V30 297 H 33.5473 -3.87889 0.57309 0
M  V30 298 H 35.0373 -4.15898 -0.376645 0
M  V30 299 N 35.4744 -0.807222 -1.35358 0
M  V30 300 C 36.7224 -0.387122 -1.98358 0
M  V30 301 C 37.0434 1.04942 -1.64354 0
M  V30 302 O 36.3134 1.72615 -0.926339 0
M  V30 303 H 34.8934 -0.140154 -0.733734 0
M  V30 304 H 37.5554 -1.0332 -1.6526 0
M  V30 305 H 36.6514 -0.493352 -3.08176 0
M  V30 306 N 36.9525 1.47285 -0.560781 0
M  V30 307 C 38.2015 2.01668 -0.035895 0
M  V30 308 C 38.5145 1.44021 1.32353 0
M  V30 309 O 39.7205 1.90088 1.93853 0
M  V30 310 C 38.1765 3.59897 -0.0136659 0
M  V30 311 C 37.7845 4.26536 -1.37006 0
M  V30 312 C 39.5285 4.22017 0.458425 0
M  V30 313 C 37.4355 5.76782 -1.30675 0
M  V30 314 H 36.3655 0.753938 -0.00964879 0
M  V30 315 H 39.0165 1.69243 -0.709166 0
M  V30 316 H 37.3985 3.89301 0.725325 0
M  V30 317 H 38.5725 4.0877 -2.12705 0
M  V30 318 H 36.8875 3.76419 -1.78038 0
M  V30 319 H 39.4845 5.32124 0.524247 0
M  V30 320 H 39.8275 3.89437 1.4712 0
M  V30 321 H 40.3605 3.97159 -0.225818 0
M  V30 322 H 37.0995 6.13988 -2.29564 0
M  V30 323 H 36.6195 5.96875 -0.591622 0
M  V30 324 H 38.2985 6.39063 -1.01033 0
M  V30 325 N 38.4306 0.297415 1.54768 0
M  V30 326 C 39.6786 -0.312295 1.99673 0
M  V30 327 C 39.9996 -1.54686 1.18732 0
M  V30 328 O 39.2696 -1.93854 0.282382 0
M  V30 329 H 37.8496 -0.118381 0.73756 0
M  V30 330 H 40.5116 0.407915 1.90583 0
M  V30 331 H 39.6076 -0.586813 3.06534 0
M  V30 332 N 39.9087 -1.5758 0.0250728 0
M  V30 333 C 41.1857 -1.82917 -0.692873 0
M  V30 334 C 41.5657 -0.908137 -1.90568 0
M  V30 335 O 40.9137 0.0372298 -2.2847 0
M  V30 336 C 41.1237 -3.32034 -1.07492 0
M  V30 337 C 42.4717 -3.98406 -1.46826 0
M  V30 338 O 43.4957 -3.36505 -1.16801 0
M  V30 339 O 42.3547 -5.07497 -2.02754 0
M  V30 340 H 39.4487 -0.754079 -0.33955 0
M  V30 341 H 41.9947 -1.69619 0.0524456 0
M  V30 342 H 40.7667 -3.90728 -0.211552 0
M  V30 343 H 40.3897 -3.50424 -1.87854 0
M  V30 344 N 41.3868 0.248026 -1.55636 0
M  V30 345 C 42.6348 0.974295 -1.77065 0
M  V30 346 C 42.9558 1.85897 -0.588849 0
M  V30 347 O 42.2258 1.91868 0.395407 0
M  V30 348 H 40.8058 0.362733 -0.653019 0
M  V30 349 H 43.4678 0.266244 -1.93073 0
M  V30 350 H 42.5638 1.59667 -2.68166 0
M  V30 351 N 42.8649 1.48995 0.513639 0
M  V30 352 C 44.1109 1.58076 1.27042 0
M  V30 353 C 44.4439 0.261026 1.92438 0
M  V30 354 O 43.7189 -0.734393 1.80103 0
M  V30 355 C 44.0019 2.73091 2.34719 0
M  V30 356 C 43.8549 4.14821 1.73907 0
M  V30 357 C 45.1739 2.83796 3.36375 0
M  V30 358 H 42.2929 0.575391 0.460536 0
M  V30 359 H 44.9349 1.81232 0.570516 0
M  V30 360 H 43.0849 2.53479 2.94416 0
M  V30 361 H 44.7569 4.45917 1.18135 0
M  V30 362 H 42.9999 4.21058 1.0437 0
M  V30 363 H 43.6709 4.91147 2.51949 0
M  V30 364 H 46.1469 3.01611 2.86653 0
M  V30 365 H 45.0229 3.65971 4.09093 0
M  V30 366 H 45.2839 1.92624 3.9793 0
M  V30 367 N 44.343 -0.763751 1.37857 0
M  V30 368 C 45.306 -1.85889 1.34081 0
M  V30 369 C 46.306 -1.58949 0.243277 0
M  V30 370 O 47.496 -1.66882 0.499589 0
M  V30 371 C 44.628 -3.23176 1.08489 0
M  V30 372 H 45.821 -1.90648 2.31502 0
M  V30 373 H 43.374 -0.964367 1.23003 0
M  V30 374 H 44.109 -3.24091 0.116318 0
M  V30 375 H 43.894 -3.44124 1.8794 0
M  V30 376 H 45.384 -4.03254 1.08517 0
M  V30 377 N 45.8211 -1.22559 -0.990812 0
M  V30 378 C 47.0691 -1.04933 -1.72724 0
M  V30 379 C 47.3901 0.416158 -1.90508 0
M  V30 380 O 46.6601 1.29918 -1.46622 0
M  V30 381 H 45.2401 -0.385296 -0.639965 0
M  V30 382 H 47.9021 -1.54105 -1.19322 0
M  V30 383 H 46.9981 -1.52886 -2.72089 0
M  V30 384 N 47.2992 1.18797 -1.03562 0
M  V30 385 C 48.2472 2.24297 -0.615905 0
M  V30 386 C 49.2412 1.65643 0.354808 0
M  V30 387 O 50.4472 1.78618 0.22265 0
M  V30 388 H 46.8222 0.729909 -0.180934 0
M  V30 389 H 48.7932 2.5701 -1.5162 0
M  V30 390 C 47.5422 3.47698 0.0104735 0
M  V30 391 H 46.8652 3.93125 -0.727509 0
M  V30 392 H 48.3052 4.23159 0.266995 0
M  V30 393 C 46.7642 3.12489 1.25905 0
M  V30 394 O 47.2942 3.25761 2.35038 0
M  V30 395 N 45.5002 2.6686 1.15039 0
M  V30 396 H 45.0472 2.56261 0.262328 0
M  V30 397 H 45.0052 2.43674 1.98672 0
M  V30 398 N 48.7773 0.814389 1.34928 0
M  V30 399 C 49.7403 0.235759 2.27984 0
M  V30 400 C 50.7403 -0.581412 1.49921 0
M  V30 401 O 51.9303 -0.398758 1.69575 0
M  V30 402 C 49.0623 -0.670433 3.34242 0
M  V30 403 H 50.2553 1.05659 2.80671 0
M  V30 404 H 47.8083 0.585614 1.44915 0
M  V30 405 H 48.5433 -1.51466 2.86755 0
M  V30 406 H 48.3283 -0.0860822 3.92005 0
M  V30 407 H 49.8183 -1.06935 4.03676 0
M  V30 408 N 50.2554 -1.46986 0.568584 0
M  V30 409 C 51.1854 -2.32946 -0.160753 0
M  V30 410 C 52.1664 -1.44487 -0.897631 0
M  V30 411 O 53.3514 -1.73327 -0.875867 0
M  V30 412 C 50.4814 -3.26494 -1.18403 0
M  V30 413 C 49.4354 -4.24282 -0.562895 0
M  V30 414 C 48.7614 -5.07236 -1.69163 0
M  V30 415 C 50.0614 -5.19989 0.490761 0
M  V30 416 H 51.7554 -2.94175 0.556916 0
M  V30 417 H 49.3014 -1.4146 0.26927 0
M  V30 418 H 51.2544 -3.85477 -1.70251 0
M  V30 419 H 49.9784 -2.63343 -1.93179 0
M  V30 420 H 48.6374 -3.66541 -0.0656164 0
M  V30 421 H 48.2854 -4.4048 -2.42871 0
M  V30 422 H 47.9854 -5.7345 -1.28174 0
M  V30 423 H 49.5094 -5.6908 -2.21314 0
M  V30 424 H 50.9234 -5.73271 0.0579047 0
M  V30 425 H 49.3204 -5.94469 0.820165 0
M  V30 426 H 50.3904 -4.64777 1.3824 0
M  V30 427 N 51.7335 -0.305618 -1.54608 0
M  V30 428 C 52.9825 0.303098 -1.9941 0
M  V30 429 C 53.2955 1.54648 -1.19764 0
M  V30 430 O 54.5015 2.23007 -1.54855 0
M  V30 431 C 52.9575 0.590588 -3.55021 0
M  V30 432 C 52.5655 -0.634719 -4.43481 0
M  V30 433 C 54.3095 1.16025 -4.08336 0
M  V30 434 C 52.2165 -0.320126 -5.90533 0
M  V30 435 H 51.1465 0.117031 -0.744862 0
M  V30 436 H 53.7975 -0.415045 -1.78745 0
M  V30 437 H 52.1795 1.36845 -3.71604 0
M  V30 438 H 53.3535 -1.41079 -4.38672 0
M  V30 439 H 51.6685 -1.12333 -4.00962 0
M  V30 440 H 54.2655 1.40994 -5.15776 0
M  V30 441 H 54.6085 2.10397 -3.5922 0
M  V30 442 H 55.1415 0.443985 -3.95315 0
M  V30 443 H 51.8805 -1.23254 -6.43808 0
M  V30 444 H 51.4005 0.418579 -5.98338 0
M  V30 445 H 53.0795 0.0766241 -6.46955 0
M  V30 446 N 53.2116 1.57565 -0.0334293 0
M  V30 447 C 54.4366 1.96689 0.657895 0
M  V30 448 C 54.8616 0.910057 1.64619 0
M  V30 449 O 54.2196 -0.128598 1.80843 0
M  V30 450 C 54.2676 3.34905 1.33683 0
M  V30 451 O 53.3716 3.31574 2.45219 0
M  V30 452 H 52.7126 0.641205 0.172489 0
M  V30 453 H 55.2426 2.04372 -0.0965621 0
M  V30 454 H 55.2526 3.71234 1.69262 0
M  V30 455 H 53.9276 4.11366 0.612411 0
M  V30 456 H 52.5046 3.06968 2.11719 0
M  V30 457 N 54.6897 -0.239769 1.55765 0
M  V30 458 C 55.9377 -0.964892 1.77579 0
M  V30 459 C 56.2587 -1.85582 0.598699 0
M  V30 460 O 55.5287 -1.92075 -0.385226 0
M  V30 461 H 54.1087 -0.359265 0.654933 0
M  V30 462 H 56.7707 -0.256001 1.93211 0
M  V30 463 H 55.8667 -1.58243 2.69009 0
M  V30 464 N 56.1678 -1.49265 -0.50573 0
M  V30 465 C 57.4138 -1.58748 -1.26202 0
M  V30 466 C 57.7468 -0.271227 -1.92297 0
M  V30 467 O 57.0218 0.724831 -1.80489 0
M  V30 468 C 57.3048 -2.74332 -2.33268 0
M  V30 469 C 57.1578 -4.15737 -1.71705 0
M  V30 470 C 58.4768 -2.85576 -3.34865 0
M  V30 471 H 55.5958 -0.577826 -0.457478 0
M  V30 472 H 58.2378 -1.81532 -0.560897 0
M  V30 473 H 56.3878 -2.55036 -2.93068 0
M  V30 474 H 58.0598 -4.46537 -1.15769 0
M  V30 475 H 56.3028 -4.21605 -1.02135 0
M  V30 476 H 56.9738 -4.92477 -2.49341 0
M  V30 477 H 59.4498 -3.03127 -2.8505 0
M  V30 478 H 58.3258 -3.68135 -4.07146 0
M  V30 479 H 58.5868 -1.94732 -3.96903 0
M  V30 480 N 57.6459 0.756429 -1.3826 0
M  V30 481 C 58.6089 1.85176 -1.35065 0
M  V30 482 C 59.6089 1.58818 -0.251703 0
M  V30 483 O 60.7989 1.66615 -0.508433 0
M  V30 484 C 57.9309 3.22596 -1.10201 0
M  V30 485 H 59.1239 1.89417 -2.3251 0
M  V30 486 H 56.6769 0.95783 -1.23512 0
M  V30 487 H 57.4119 3.24025 -0.133504 0
M  V30 488 H 57.1969 3.43122 -1.89762 0
M  V30 489 H 58.6869 4.02673 -1.10654 0
M  V30 490 N 59.124 1.23083 0.984299 0
M  V30 491 C 60.54 0.992637 1.24975 0
M  V30 492 C 60.74 -0.308618 1.99123 0
M  V30 493 O 59.796 -1.02905 2.30579 0
M  V30 494 C 61.109 2.19698 2.05312 0
M  V30 495 C 62.657 2.24147 2.18465 0
M  V30 496 C 63.132 3.44157 3.02192 0
M  V30 497 N 64.623 3.44372 3.09777 0
M  V30 498 C 65.358 4.33886 3.74874 0
M  V30 499 N 64.854 5.3363 4.41827 0
M  V30 500 N 66.647 4.21639 3.71721 0
M  V30 501 H 58.798 2.06731 0.487453 0
M  V30 502 H 61.061 0.906339 0.277944 0
M  V30 503 H 60.767 3.1411 1.58201 0
M  V30 504 H 60.641 2.20465 3.06064 0
M  V30 505 H 63.028 1.30277 2.64786 0
M  V30 506 H 63.109 2.27415 1.17115 0
M  V30 507 H 62.753 4.38332 2.56568 0
M  V30 508 H 62.683 3.3813 4.03702 0
M  V30 509 H 65.174 2.72201 2.62135 0
M  V30 510 H 65.487 5.98196 4.89266 0
M  V30 511 H 63.832 5.37534 4.40548 0
M  V30 512 H 67.023 3.42962 3.18582 0
M  V30 513 H 67.196 4.91604 4.22173 0
M  V30 514 N 60.6021 -1.18246 1.0419 0
M  V30 515 C 61.5341 -2.2142 0.592088 0
M  V30 516 C 62.5471 -1.59233 -0.338909 0
M  V30 517 O 63.7361 -1.78002 -0.133231 0
M  V30 518 C 60.8361 -3.38546 -0.154854 0
M  V30 519 C 60.0091 -4.3031 0.784328 0
M  V30 520 C 59.0681 -5.26138 0.0804583 0
M  V30 521 O 58.0941 -5.64738 0.711292 0
M  V30 522 N 59.2961 -5.68261 -1.18574 0
M  V30 523 H 62.0611 -2.60636 1.47949 0
M  V30 524 H 59.6221 -1.33044 0.922544 0
M  V30 525 H 61.6141 -3.99678 -0.635606 0
M  V30 526 H 60.1841 -2.98012 -0.943811 0
M  V30 527 H 59.4041 -3.66764 1.44491 0
M  V30 528 H 60.6921 -4.8852 1.42218 0
M  V30 529 H 60.0901 -5.38957 -1.71876 0
M  V30 530 H 58.6471 -6.31584 -1.61074 0
M  V30 531 N 62.0802 -0.821533 -1.34494 0
M  V30 532 C 63.4912 -0.467956 -1.8074 0
M  V30 533 C 63.8422 1.01151 -1.68116 0
M  V30 534 O 62.9672 1.78707 -1.22036 0
M  V30 535 C 63.5622 -0.842627 -3.28154 0
M  V30 536 C 62.1212 -0.541439 -3.72485 0
M  V30 537 C 61.2682 -1.06028 -2.56229 0
M  V30 538 H 64.2192 -1.01183 -1.22261 0
M  V30 539 H 64.2402 -0.145876 -3.8022 0
M  V30 540 H 63.7522 -1.91945 -3.37311 0
M  V30 541 H 61.8532 0.526034 -3.68868 0
M  V30 542 H 61.9662 -1.08453 -4.66663 0
M  V30 543 H 60.3302 -0.481892 -2.501 0
M  V30 544 H 61.1132 -2.14352 -2.68157 0
M  V30 545 N 63.5583 1.46682 -0.576371 0
M  V30 546 C 64.4683 2.34032 0.163141 0
M  V30 547 C 65.4843 1.49367 0.892501 0
M  V30 548 O 66.6603 1.82252 0.857106 0
M  V30 549 C 63.7253 3.26435 1.16795 0
M  V30 550 C 62.7863 4.26998 0.443944 0
M  V30 551 C 62.0193 5.14986 1.40088 0
M  V30 552 O 62.2423 5.05785 2.637 0
M  V30 553 O 61.1763 5.94906 0.914917 0
M  V30 554 H 65.0023 2.98607 -0.55388 0
M  V30 555 H 62.5873 1.45554 -0.336821 0
M  V30 556 H 64.4693 3.83459 1.74748 0
M  V30 557 H 63.1443 2.64465 1.86655 0
M  V30 558 H 62.0513 3.7368 -0.177271 0
M  V30 559 H 63.3843 4.91736 -0.213566 0
M  V30 560 N 65.0364 0.313813 1.54444 0
M  V30 561 C 65.9994 -0.54379 2.22656 0
M  V30 562 C 66.9994 -1.05124 1.21678 0
M  V30 563 O 68.1894 -0.945225 1.46325 0
M  V30 564 C 65.3214 -1.75427 2.92298 0
M  V30 565 H 66.5144 0.0523599 2.99854 0
M  V30 566 H 64.0674 0.0647834 1.56166 0
M  V30 567 H 64.8024 -2.38991 2.19211 0
M  V30 568 H 64.5874 -1.39791 3.66334 0
M  V30 569 H 66.0774 -2.36325 3.44297 0
M  V30 570 N 66.5145 -1.57545 0.0417849 0
M  V30 571 C 67.4465 -2.07904 -0.964799 0
M  V30 572 C 68.4595 -1.00497 -1.28079 0
M  V30 573 O 69.6485 -1.28087 -1.24322 0
M  V30 574 C 66.7485 -2.49928 -2.28887 0
M  V30 575 C 65.9215 -3.80562 -2.15619 0
M  V30 576 C 64.9805 -4.08999 -3.31069 0
M  V30 577 O 64.0065 -4.79061 -3.0739 0
M  V30 578 N 65.2085 -3.6017 -4.55256 0
M  V30 579 H 67.9735 -2.94886 -0.535029 0
M  V30 580 H 65.5345 -1.61252 -0.144681 0
M  V30 581 H 67.5265 -2.66034 -3.04972 0
M  V30 582 H 66.0965 -1.68245 -2.63463 0
M  V30 583 H 65.3165 -3.74129 -1.24183 0
M  V30 584 H 66.6045 -4.66126 -2.03971 0
M  V30 585 H 66.0025 -3.03512 -4.77386 0
M  V30 586 H 64.5595 -3.81532 -5.28466 0
M  V30 587 N 67.9926 0.231505 -1.5589 0
M  V30 588 C 69.2406 0.955461 -1.78088 0
M  V30 589 C 69.5616 1.85262 -0.608533 0
M  V30 590 O 68.8316 1.92277 0.375035 0
M  V30 591 H 67.4116 0.355787 -0.656829 0
M  V30 592 H 70.0736 0.245751 -1.93344 0
M  V30 593 H 69.1696 1.56814 -2.69844 0
M  V30 594 N 69.4707 1.49531 0.497807 0
M  V30 595 C 70.8867 1.36365 0.829266 0
M  V30 596 C 71.0867 0.399184 1.97506 0
M  V30 597 O 70.1427 -0.167977 2.51941 0
M  V30 598 C 71.4557 2.77153 1.16647 0
M  V30 599 C 73.0037 2.85877 1.27449 0
M  V30 600 C 73.4787 4.2744 1.64497 0
M  V30 601 N 74.9697 4.30265 1.7154 0
M  V30 602 C 75.7047 5.3677 2.01656 0
M  V30 603 N 75.2007 6.53516 2.29976 0
M  V30 604 N 76.9937 5.24189 2.02934 0
M  V30 605 H 69.1447 2.10831 -0.257703 0
M  V30 606 H 71.4077 0.946534 -0.0527091 0
M  V30 607 H 71.1137 3.49442 0.397872 0
M  V30 608 H 70.9877 3.12722 2.10915 0
M  V30 609 H 73.3747 2.13824 2.0338 0
M  V30 610 H 73.4557 2.53887 0.312244 0
M  V30 611 H 73.0997 5.00021 0.891151 0
M  V30 612 H 73.0297 4.56896 2.61827 0
M  V30 613 H 75.5207 3.4607 1.51802 0
M  V30 614 H 75.8337 7.30506 2.52153 0
M  V30 615 H 74.1787 6.56737 2.27425 0
M  V30 616 H 77.3697 4.31988 1.80289 0
M  V30 617 H 77.5427 6.07286 2.26071 0
M  V30 618 N 70.9488 -0.749086 1.3866 0
M  V30 619 C 71.8788 -1.8764 1.38973 0
M  V30 620 C 72.8598 -1.68178 0.255004 0
M  V30 621 O 74.0448 -1.88704 0.458754 0
M  V30 622 C 71.1748 -3.25222 1.21851 0
M  V30 623 C 70.1288 -3.59295 2.32575 0
M  V30 624 C 69.4548 -4.95663 2.00555 0
M  V30 625 C 70.7548 -3.63709 3.7485 0
M  V30 626 H 72.4488 -1.87635 2.3331 0
M  V30 627 H 69.9948 -0.901329 1.12303 0
M  V30 628 H 71.9478 -4.03746 1.20695 0
M  V30 629 H 70.6718 -3.25719 0.239775 0
M  V30 630 H 69.3308 -2.83093 2.32925 0
M  V30 631 H 68.9788 -4.92724 1.01154 0
M  V30 632 H 68.6788 -5.19429 2.74714 0
M  V30 633 H 70.2028 -5.7656 2.01024 0
M  V30 634 H 71.6168 -4.32338 3.76506 0
M  V30 635 H 70.0138 -3.98986 4.48252 0
M  V30 636 H 71.0838 -2.63834 4.06841 0
M  V30 637 N 72.4269 -1.23603 -0.977757 0
M  V30 638 C 73.6739 -1.06971 -1.71941 0
M  V30 639 C 74.0019 0.393009 -1.90488 0
M  V30 640 O 73.2569 1.30719 -1.4564 0
M  V30 641 C 73.5559 -1.7433 -3.11999 0
M  V30 642 C 73.2219 -3.24252 -3.13323 0
M  V30 643 C 71.8839 -3.65156 -3.13392 0
M  V30 644 C 74.2359 -4.20141 -3.08433 0
M  V30 645 C 71.5639 -5.00403 -3.0629 0
M  V30 646 C 73.9159 -5.55384 -3.02873 0
M  V30 647 C 72.5799 -5.95647 -3.01265 0
M  V30 648 H 71.8499 -0.391433 -0.629175 0
M  V30 649 H 74.4969 -1.53572 -1.14403 0
M  V30 650 H 72.8019 -1.20096 -3.7294 0
M  V30 651 H 74.4989 -1.58936 -3.68158 0
M  V30 652 H 71.0889 -2.91692 -3.14029 0
M  V30 653 H 75.2729 -3.89547 -3.07517 0
M  V30 654 H 70.5289 -5.3081 -3.03399 0
M  V30 655 H 74.7029 -6.29398 -2.98046 0
M  V30 656 H 72.3299 -7.0041 -2.95516 0
M  V30 657 N 73.905 1.17692 -1.04816 0
M  V30 658 C 75.133 1.91786 -0.776254 0
M  V30 659 C 75.548 1.76604 0.667577 0
M  V30 660 O 74.905 1.10067 1.45573 0
M  V30 661 C 74.956 3.42967 -1.14263 0
M  V30 662 O 74.677 3.57678 -2.52978 0
M  V30 663 C 76.178 4.34144 -0.896311 0
M  V30 664 H 73.398 0.608624 -0.282519 0
M  V30 665 H 75.942 1.49268 -1.39783 0
M  V30 666 H 74.097 3.83245 -0.565874 0
M  V30 667 H 74.511 4.51319 -2.67229 0
M  V30 668 H 75.985 5.38744 -1.20244 0
M  V30 669 H 76.462 4.38876 0.168636 0
M  V30 670 H 77.068 3.99574 -1.45672 0
M  V30 671 N 75.3831 0.828654 1.34056 0
M  V30 672 C 76.7941 0.477534 1.8049 0
M  V30 673 C 77.1451 -1.00258 1.6865 0
M  V30 674 O 76.2701 -1.78057 1.22982 0
M  V30 675 C 76.8651 0.860018 3.27703 0
M  V30 676 C 75.4241 0.561185 3.72193 0
M  V30 677 C 74.5711 1.07385 2.55663 0
M  V30 678 H 77.5221 1.0183 1.21722 0
M  V30 679 H 77.5431 0.166038 3.80138 0
M  V30 680 H 77.0551 1.93731 3.36288 0
M  V30 681 H 75.1561 -0.506465 3.69142 0
M  V30 682 H 75.2691 1.10926 4.66082 0
M  V30 683 H 73.6331 0.495149 2.49841 0
M  V30 684 H 74.4161 2.15771 2.67016 0
M  V30 685 N 76.8612 -1.46375 0.584142 0
M  V30 686 C 78.1082 -2.02378 0.0702675 0
M  V30 687 C 78.4362 -1.45545 -1.29023 0
M  V30 688 O 77.6912 -0.610967 -1.85918 0
M  V30 689 C 77.9902 -3.57373 -0.0439342 0
M  V30 690 C 77.6562 -4.33252 1.24915 0
M  V30 691 C 76.3182 -4.53701 1.60341 0
M  V30 692 C 78.6702 -4.7681 2.1048 0
M  V30 693 C 75.9982 -5.1496 2.81128 0
M  V30 694 C 78.3502 -5.39404 3.30494 0
M  V30 695 C 77.0142 -5.5808 3.66201 0
M  V30 696 H 76.2842 -0.740554 0.0257127 0
M  V30 697 H 78.9312 -1.75727 0.761065 0
M  V30 698 H 77.2362 -3.83169 -0.817869 0
M  V30 699 H 78.9332 -3.98384 -0.457318 0
M  V30 700 H 75.5232 -4.17633 0.963364 0
M  V30 701 H 79.7072 -4.60766 1.84414 0
M  V30 702 H 74.9632 -5.27611 3.08928 0
M  V30 703 H 79.1372 -5.72114 3.97063 0
M  V30 704 H 76.7642 -6.05318 4.59885 0
M  V30 705 N 78.3393 -0.321999 -1.54275 0
M  V30 706 C 79.5863 0.281044 -2.0054 0
M  V30 707 C 79.9143 1.52265 -1.21019 0
M  V30 708 O 79.1693 1.93687 -0.279982 0
M  V30 709 C 79.4683 0.661769 -3.5122 0
M  V30 710 C 79.1343 -0.480482 -4.48333 0
M  V30 711 C 77.7963 -0.794005 -4.74604 0
M  V30 712 C 80.1483 -1.24783 -5.06042 0
M  V30 713 C 77.4763 -1.87763 -5.55844 0
M  V30 714 C 79.8283 -2.32153 -5.88462 0
M  V30 715 C 78.4923 -2.64089 -6.13036 0
M  V30 716 H 77.7623 0.102841 -0.733829 0
M  V30 717 H 80.4093 -0.445453 -1.86247 0
M  V30 718 H 78.7143 1.46867 -3.63232 0
M  V30 719 H 80.4113 1.13989 -3.84457 0
M  V30 720 H 77.0013 -0.226039 -4.28004 0
M  V30 721 H 81.1853 -1.01887 -4.85729 0
M  V30 722 H 76.4413 -2.12954 -5.73115 0
M  V30 723 H 80.6153 -2.92057 -6.32199 0
M  V30 724 H 78.2423 -3.48185 -6.75775 0
M  V30 725 N 79.8174 1.5752 -0.0501392 0
M  V30 726 C 81.0664 1.91827 0.623328 0
M  V30 727 C 81.3794 0.930222 1.72065 0
M  V30 728 O 82.5854 1.1653 2.4522 0
M  V30 729 C 81.0414 3.40692 1.16003 0
M  V30 730 C 80.6494 4.479 0.0948811 0
M  V30 731 C 82.3934 3.84034 1.80881 0
M  V30 732 C 80.3004 5.87879 0.644411 0
M  V30 733 H 79.2304 0.715918 0.236596 0
M  V30 734 H 81.8814 1.83115 -0.118861 0
M  V30 735 H 80.2634 3.44405 1.9545 0
M  V30 736 H 81.4374 4.55775 -0.678675 0
M  V30 737 H 79.7524 4.13892 -0.45637 0
M  V30 738 H 82.3494 4.85984 2.22988 0
M  V30 739 H 82.6924 3.20225 2.6601 0
M  V30 740 H 83.2254 3.82833 1.0809 0
M  V30 741 H 79.9644 6.55282 -0.169229 0
M  V30 742 H 79.4844 5.83567 1.38598 0
M  V30 743 H 81.1634 6.37098 1.12763 0
M  V30 744 N 81.2955 -0.223234 1.56011 0
M  V30 745 C 82.5235 -0.964812 1.83027 0
M  V30 746 C 82.9385 -1.78013 0.62904 0
M  V30 747 O 82.2955 -1.78008 -0.402414 0
M  V30 748 C 82.3465 -1.88373 3.08542 0
M  V30 749 O 82.0675 -1.10137 4.2403 0
M  V30 750 C 83.5685 -2.73934 3.48533 0
M  V30 751 H 80.7885 -0.282842 0.608475 0
M  V30 752 H 83.3325 -0.238971 2.03099 0
M  V30 753 H 81.4875 -2.56354 2.9045 0
M  V30 754 H 81.9015 -1.72501 4.95322 0
M  V30 755 H 83.3755 -3.34117 4.39397 0
M  V30 756 H 83.8525 -3.46244 2.70207 0
M  V30 757 H 84.4585 -2.11369 3.69057 0
M  V30 758 N 82.7736 -1.49793 -0.48987 0
M  V30 759 C 84.0196 -1.60078 -1.24511 0
M  V30 760 C 84.3526 -0.291608 -1.91998 0
M  V30 761 O 83.6276 0.705647 -1.81248 0
M  V30 762 C 83.9106 -2.76791 -2.30345 0
M  V30 763 C 83.7636 -4.17535 -1.67286 0
M  V30 764 C 85.0826 -2.89111 -3.31817 0
M  V30 765 H 82.2016 -0.582645 -0.451324 0
M  V30 766 H 84.8436 -1.82117 -0.541612 0
M  V30 767 H 82.9936 -2.5813 -2.90346 0
M  V30 768 H 84.6656 -4.4774 -1.11026 0
M  V30 769 H 82.9086 -4.22665 -0.976577 0
M  V30 770 H 83.5796 -4.95094 -2.44103 0
M  V30 771 H 86.0556 -3.06133 -2.81819 0
M  V30 772 H 84.9316 -3.72433 -4.03219 0
M  V30 773 H 85.1926 -1.9893 -3.94815 0
M  V30 774 N 84.2517 0.741722 -1.39055 0
M  V30 775 C 85.4997 1.49818 -1.35643 0
M  V30 776 C 85.8207 1.94938 0.0491642 0
M  V30 777 O 85.0907 1.68505 0.999141 0
M  V30 778 H 83.6707 0.555755 -0.499144 0
M  V30 779 H 86.3327 0.880957 -1.73854 0
M  V30 780 H 85.4287 2.38348 -2.01486 0
M  V30 781 N 85.7298 1.2412 0.971189 0
M  V30 782 C 86.6598 1.05508 2.08304 0
M  V30 783 C 87.6408 -0.0308864 1.70072 0
M  V30 784 O 88.8258 0.135521 1.93727 0
M  V30 785 C 85.9558 0.655365 3.4106 0
M  V30 786 C 84.9098 1.68971 3.93234 0
M  V30 787 C 84.2358 1.14516 5.22293 0
M  V30 788 C 85.5358 3.08487 4.21465 0
M  V30 789 H 87.2298 1.98507 2.24132 0
M  V30 790 H 84.7758 0.955821 1.07704 0
M  V30 791 H 86.7288 0.51217 4.18276 0
M  V30 792 H 85.4528 -0.31032 3.25122 0
M  V30 793 H 84.1118 1.82106 3.18171 0
M  V30 794 H 83.7598 0.170189 5.02712 0
M  V30 795 H 83.4598 1.83635 5.58168 0
M  V30 796 H 84.9838 1.01401 6.02121 0
M  V30 797 H 86.3978 2.98601 4.89398 0
M  V30 798 H 84.7948 3.74926 4.68562 0
M  V30 799 H 85.8648 3.56787 3.28376 0
M  V30 800 N 87.2079 -1.17134 1.05439 0
M  V30 801 C 88.4539 -1.87733 0.767077 0
M  V30 802 C 88.7869 -1.8098 -0.704253 0
M  V30 803 O 88.0619 -1.21951 -1.5152 0
M  V30 804 C 88.3449 -3.37659 1.25133 0
M  V30 805 C 88.1979 -3.53149 2.78578 0
M  V30 806 C 89.5169 -4.31768 0.852324 0
M  V30 807 H 86.6359 -0.681687 0.280129 0
M  V30 808 H 89.2779 -1.37732 1.30881 0
M  V30 809 H 87.4279 -3.80373 0.790469 0
M  V30 810 H 89.0999 -3.19434 3.32806 0
M  V30 811 H 87.3429 -2.95345 3.17732 0
M  V30 812 H 88.0139 -4.58403 3.07523 0
M  V30 813 H 90.4899 -3.96909 1.24911 0
M  V30 814 H 89.3659 -5.35199 1.21873 0
M  V30 815 H 89.6269 -4.41429 -0.243485 0
M  V30 816 N 88.686 -0.835752 -1.33615 0
M  V30 817 C 89.596 -0.269088 -2.33052 0
M  V30 818 C 90.612 0.603251 -1.63208 0
M  V30 819 O 91.788 0.508112 -1.94885 0
M  V30 820 C 88.853 0.549091 -3.42324 0
M  V30 821 C 87.914 -0.347156 -4.27894 0
M  V30 822 C 87.147 0.43207 -5.31948 0
M  V30 823 O 87.37 1.66409 -5.45586 0
M  V30 824 O 86.304 -0.192298 -6.01593 0
M  V30 825 H 90.13 -1.09243 -2.83372 0
M  V30 826 H 87.715 -0.598198 -1.36901 0
M  V30 827 H 89.597 1.01414 -4.09015 0
M  V30 828 H 88.272 1.34955 -2.94226 0
M  V30 829 H 87.179 -0.859979 -3.64081 0
M  V30 830 H 88.512 -1.1123 -4.79467 0
M  V30 831 N 90.1641 1.46063 -0.591896 0
M  V30 832 C 91.1271 2.28854 0.125973 0
M  V30 833 C 92.1271 1.38903 0.810107 0
M  V30 834 O 93.3171 1.61186 0.66066 0
M  V30 835 C 90.4491 3.19526 1.1881 0
M  V30 836 H 91.6421 2.93802 -0.601717 0
M  V30 837 H 89.1951 1.52325 -0.350254 0
M  V30 838 H 89.9301 2.59345 1.94707 0
M  V30 839 H 89.7151 3.85766 0.701936 0
M  V30 840 H 91.2051 3.81817 1.69132 0
M  V30 841 N 91.6422 0.330177 1.54103 0
M  V30 842 C 92.6052 -0.520144 2.2322 0
M  V30 843 C 93.6052 -1.03828 1.22786 0
M  V30 844 O 94.7952 -0.929652 1.4732 0
M  V30 845 C 91.9272 -1.72317 2.94142 0
M  V30 846 H 93.1202 0.0841605 2.99782 0
M  V30 847 H 90.6732 0.0813433 1.56088 0
M  V30 848 H 91.4082 -2.36653 2.21734 0
M  V30 849 H 91.1932 -1.35898 3.67796 0
M  V30 850 H 92.6832 -2.3266 3.46784 0
M  V30 851 N 93.1203 -1.57491 0.0584922 0
M  V30 852 C 94.3503 -1.9701 -0.622134 0
M  V30 853 C 94.7583 -0.935034 -1.6448 0
M  V30 854 O 94.1013 0.0882904 -1.83488 0
M  V30 855 C 94.1633 -3.32794 -1.35972 0
M  V30 856 C 93.8273 -4.54343 -0.492043 0
M  V30 857 C 94.8243 -5.19323 0.244901 0
M  V30 858 C 92.5093 -5.00534 -0.420821 0
M  V30 859 C 94.5033 -6.28835 1.04143 0
M  V30 860 C 92.1903 -6.09921 0.379389 0
M  V30 861 C 93.1883 -6.73933 1.10919 0
M  V30 862 O 92.8763 -7.81216 1.89623 0
M  V30 863 H 92.6083 -0.653127 -0.174359 0
M  V30 864 H 95.1623 -2.05029 0.123418 0
M  V30 865 H 93.3923 -3.21351 -2.15105 0
M  V30 866 H 95.0813 -3.5701 -1.93129 0
M  V30 867 H 95.8473 -4.8459 0.19939 0
M  V30 868 H 91.7263 -4.50496 -0.978474 0
M  V30 869 H 95.2703 -6.7873 1.61157 0
M  V30 870 H 91.1673 -6.44089 0.426512 0
M  V30 871 H 91.9353 -7.98029 1.81913 0
M  V30 872 N 94.5984 0.214957 -1.56127 0
M  V30 873 C 95.8454 0.938372 -1.79446 0
M  V30 874 C 96.1734 1.8407 -0.628378 0
M  V30 875 O 95.4284 1.91837 0.386925 0
M  V30 876 C 95.7274 1.80314 -3.0858 0
M  V30 877 C 95.3934 1.05349 -4.3842 0
M  V30 878 C 94.0554 0.846435 -4.73697 0
M  V30 879 C 96.4074 0.524588 -5.18553 0
M  V30 880 C 93.7354 0.098683 -5.86617 0
M  V30 881 C 96.0874 -0.209853 -6.32252 0
M  V30 882 C 94.7514 -0.428102 -6.66126 0
M  V30 883 H 94.0214 0.343375 -0.656639 0
M  V30 884 H 96.6684 0.206077 -1.90388 0
M  V30 885 H 94.9734 2.6035 -2.92789 0
M  V30 886 H 96.6704 2.36513 -3.23825 0
M  V30 887 H 93.2604 1.22486 -4.10725 0
M  V30 888 H 97.4444 0.672008 -4.91729 0
M  V30 889 H 92.7004 -0.0805753 -6.11347 0
M  V30 890 H 96.8744 -0.627157 -6.9357 0
M  V30 891 H 94.5014 -1.00944 -7.53468 0
M  V30 892 N 96.0765 1.50051 0.48192 0
M  V30 893 C 97.3255 1.59741 1.23149 0
M  V30 894 C 97.6385 0.298163 1.93314 0
M  V30 895 O 98.8445 0.273835 2.70116 0
M  V30 896 C 97.3005 2.81926 2.23708 0
M  V30 897 C 96.9085 4.18685 1.59396 0
M  V30 898 C 98.6525 3.00956 2.99375 0
M  V30 899 C 96.5595 5.3207 2.58178 0
M  V30 900 H 95.4895 0.594838 0.46334 0
M  V30 901 H 98.1405 1.76467 0.503169 0
M  V30 902 H 96.5225 2.58736 2.99786 0
M  V30 903 H 97.6965 4.52088 0.891811 0
M  V30 904 H 96.0115 4.05171 0.960503 0
M  V30 905 H 98.6085 3.82836 3.73283 0
M  V30 906 H 98.9515 2.12258 3.58123 0
M  V30 907 H 99.4845 3.24277 2.30411 0
M  V30 908 H 96.2235 6.22888 2.04184 0
M  V30 909 H 95.7435 5.03098 3.26577 0
M  V30 910 H 97.4225 5.62196 3.20225 0
M  V30 911 N 97.5546 -0.734337 1.39446 0
M  V30 912 C 98.5026 -1.86971 1.38364 0
M  V30 913 C 99.4966 -1.67288 0.266687 0
M  V30 914 O 100.703 -1.74621 0.436755 0
M  V30 915 H 97.0776 -0.615474 0.432082 0
M  V30 916 H 99.0486 -1.85 2.34132 0
M  V30 917 C 97.7976 -3.2466 1.24465 0
M  V30 918 H 97.1206 -3.40402 2.09682 0
M  V30 919 H 98.5606 -4.04292 1.27764 0
M  V30 920 C 97.0196 -3.36867 -0.0468674 0
M  V30 921 O 97.5496 -3.88618 -1.01681 0
M  V30 922 N 95.7556 -2.90391 -0.110145 0
M  V30 923 H 95.3026 -2.48466 0.679868 0
M  V30 924 H 95.2606 -2.98939 -0.973799 0
M  V30 925 N 99.0327 -1.24633 -0.964593 0
M  V30 926 C 99.9627 -1.06611 -2.07741 0
M  V30 927 C 100.944 0.0218666 -1.70086 0
M  V30 928 O 102.129 -0.145793 -1.93652 0
M  V30 929 C 99.2587 -0.673444 -3.40708 0
M  V30 930 C 98.2127 -1.71054 -3.92332 0
M  V30 931 C 97.5387 -1.17285 -5.21678 0
M  V30 932 C 98.8387 -3.10718 -4.19824 0
M  V30 933 H 100.533 -1.99693 -2.23076 0
M  V30 934 H 98.0787 -0.96152 -1.07195 0
M  V30 935 H 100.032 -0.534345 -4.17998 0
M  V30 936 H 98.7557 0.293073 -3.25282 0
M  V30 937 H 97.4147 -1.83791 -3.17201 0
M  V30 938 H 97.0627 -0.196847 -5.02615 0
M  V30 939 H 96.7627 -1.86592 -5.57187 0
M  V30 940 H 98.2867 -1.04593 -6.01575 0
M  V30 941 H 99.7007 -3.01192 -4.87808 0
M  V30 942 H 98.0977 -3.77406 -4.66567 0
M  V30 943 H 99.1677 -3.58524 -3.26479 0
M  V30 944 N 100.511 1.16574 -1.06058 0
M  V30 945 C 101.474 2.19085 -0.673392 0
M  V30 946 C 102.474 1.5835 0.279648 0
M  V30 947 O 103.664 1.74088 0.0623488 0
M  V30 948 C 100.796 3.40899 0.00954234 0
M  V30 949 H 101.989 2.54853 -1.58081 0
M  V30 950 H 99.5418 1.30808 -0.855516 0
M  V30 951 H 100.277 3.10684 0.929826 0
M  V30 952 H 100.062 3.86233 -0.67573 0
M  V30 953 H 101.552 4.1675 0.266245 0
M  V30 954 N 101.989 0.842826 1.3317 0
M  V30 955 C 103.236 0.440447 1.97652 0
M  V30 956 C 103.564 -1.00123 1.6675 0
M  V30 957 O 102.819 -1.7155 0.941761 0
M  V30 958 C 103.118 0.612607 3.52111 0
M  V30 959 C 102.784 2.02297 4.02972 0
M  V30 960 C 101.446 2.40874 4.16573 0
M  V30 961 C 103.798 2.94402 4.30089 0
M  V30 962 C 101.126 3.70852 4.54627 0
M  V30 963 C 103.478 4.23865 4.69597 0
M  V30 964 C 102.142 4.62392 4.81404 0
M  V30 965 H 101.412 0.161171 0.72326 0
M  V30 966 H 104.059 1.07061 1.58777 0
M  V30 967 H 102.364 -0.100849 3.9167 0
M  V30 968 H 104.061 0.2815 4.00011 0
M  V30 969 H 100.651 1.71338 3.92863 0
M  V30 970 H 104.835 2.65835 4.19101 0
M  V30 971 H 100.091 4.00501 4.61962 0
M  V30 972 H 104.265 4.95306 4.89536 0
M  V30 973 H 101.892 5.63154 5.10648 0
M  V30 974 N 103.467 -1.45747 0.599634 0
M  V30 975 C 104.4 -2.27547 -0.172552 0
M  V30 976 C 105.378 -1.36657 -0.881116 0
M  V30 977 O 106.562 -1.66081 -0.891595 0
M  V30 978 C 103.689 -3.14829 -1.24903 0
M  V30 979 C 102.735 -4.21603 -0.644465 0
M  V30 980 S 103.568 -5.32754 0.541606 0
M  V30 981 C 104.724 -6.23604 -0.535656 0
M  V30 982 H 104.957 -2.92691 0.521468 0
M  V30 983 H 102.49 -1.49473 0.386947 0
M  V30 984 H 104.448 -3.65675 -1.86527 0
M  V30 985 H 103.109 -2.48965 -1.91508 0
M  V30 986 H 102.302 -4.82566 -1.45417 0
M  V30 987 H 101.904 -3.73857 -0.103534 0
M  V30 988 H 104.196 -6.62519 -1.41686 0
M  V30 989 H 105.139 -7.0809 0.0376246 0
M  V30 990 H 105.547 -5.58103 -0.84741 0
M  V30 991 N 104.945 -0.338344 -1.53925 0
M  V30 992 C 105.908 0.508299 -2.23493 0
M  V30 993 C 106.908 1.03175 -1.23335 0
M  V30 994 O 108.098 0.921826 -1.47811 0
M  V30 995 C 105.23 1.70754 -2.95052 0
M  V30 996 H 106.423 -0.100058 -2.99733 0
M  V30 997 H 103.976 -0.0896198 -1.56043 0
M  V30 998 H 104.711 2.35474 -2.22986 0
M  V30 999 H 104.496 1.33946 -3.68512 0
M  V30 1000 H 105.986 2.30818 -3.48013 0
M  V30 1001 N 106.423 1.57458 -0.0668435 0
M  V30 1002 C 107.353 2.15468 0.899764 0
M  V30 1003 C 108.334 1.08042 1.31381 0
M  V30 1004 O 109.519 1.36054 1.38574 0
M  V30 1005 C 106.649 2.71232 2.16911 0
M  V30 1006 C 105.603 3.83781 1.89463 0
M  V30 1007 C 104.929 4.26127 3.22986 0
M  V30 1008 C 106.229 5.08238 1.20381 0
M  V30 1009 H 107.923 2.96488 0.416529 0
M  V30 1010 H 105.469 1.4262 0.198908 0
M  V30 1011 H 107.422 3.10458 2.84945 0
M  V30 1012 H 106.146 1.87426 2.67468 0
M  V30 1013 H 104.805 3.45051 1.23836 0
M  V30 1014 H 104.453 3.39249 3.71374 0
M  V30 1015 H 104.153 5.01993 3.05413 0
M  V30 1016 H 105.677 4.67966 3.92225 0
M  V30 1017 H 107.091 5.44811 1.78475 0
M  V30 1018 H 105.488 5.89349 1.13083 0
M  V30 1019 H 106.558 4.84558 0.182153 0
M  V30 1020 N 107.901 -0.206675 1.56239 0
M  V30 1021 C 109.148 -0.928842 1.79941 0
M  V30 1022 C 109.476 -1.83734 0.638131 0
M  V30 1023 O 108.731 -1.92039 -0.376746 0
M  V30 1024 C 109.03 -1.78675 3.09532 0
M  V30 1025 C 108.696 -1.03022 4.38973 0
M  V30 1026 C 107.358 -0.821302 4.74139 0
M  V30 1027 C 109.71 -0.497081 5.18824 0
M  V30 1028 C 107.038 -0.0675719 5.86661 0
M  V30 1029 C 109.39 0.24338 6.32132 0
M  V30 1030 C 108.054 0.463422 6.65889 0
M  V30 1031 H 107.324 -0.339887 0.658451 0
M  V30 1032 H 109.971 -0.195977 1.90495 0
M  V30 1033 H 108.276 -2.58794 2.94165 0
M  V30 1034 H 109.973 -2.34792 3.25075 0
M  V30 1035 H 106.563 -1.20306 4.11369 0
M  V30 1036 H 110.747 -0.645921 4.92079 0
M  V30 1037 H 106.003 0.112995 6.11296 0
M  V30 1038 H 110.177 0.66393 6.93228 0
M  V30 1039 H 107.804 1.04938 7.52922 0
M  V30 1040 N 109.379 -1.50304 -0.473955 0
M  V30 1041 C 110.625 -1.61389 -1.22806 0
M  V30 1042 C 110.958 -0.311955 -1.91678 0
M  V30 1043 O 110.233 0.686384 -1.81986 0
M  V30 1044 C 110.516 -2.79219 -2.27396 0
M  V30 1045 C 110.369 -4.19286 -1.62848 0
M  V30 1046 C 111.688 -2.92614 -3.28732 0
M  V30 1047 H 108.807 -0.587399 -0.445119 0
M  V30 1048 H 111.449 -1.82681 -0.522265 0
M  V30 1049 H 109.599 -2.61195 -2.87592 0
M  V30 1050 H 111.271 -4.48892 -1.06271 0
M  V30 1051 H 109.514 -4.23677 -0.931693 0
M  V30 1052 H 110.185 -4.97655 -2.38838 0
M  V30 1053 H 112.661 -3.09105 -2.78556 0
M  V30 1054 H 111.537 -3.76688 -3.99246 0
M  V30 1055 H 111.798 -2.03107 -3.92683 0
M  V30 1056 N 110.857 0.726932 -1.39834 0
M  V30 1057 C 112.104 1.48664 -1.37496 0
M  V30 1058 C 112.432 1.94482 0.0264678 0
M  V30 1059 O 111.687 1.67692 1.00886 0
M  V30 1060 C 111.986 2.73495 -2.30077 0
M  V30 1061 C 111.652 2.46502 -3.77555 0
M  V30 1062 C 110.314 2.3885 -4.17737 0
M  V30 1063 C 112.666 2.23604 -4.70798 0
M  V30 1064 C 109.994 2.06352 -5.49214 0
M  V30 1065 C 112.346 1.92622 -6.02561 0
M  V30 1066 C 111.01 1.83444 -6.41798 0
M  V30 1067 H 110.28 0.544001 -0.503135 0
M  V30 1068 H 112.927 0.833657 -1.72402 0
M  V30 1069 H 111.232 3.43575 -1.88317 0
M  V30 1070 H 112.929 3.31549 -2.25558 0
M  V30 1071 H 109.519 2.5334 -3.45712 0
M  V30 1072 H 113.703 2.28479 -4.40581 0
M  V30 1073 H 108.959 1.97776 -5.78528 0
M  V30 1074 H 113.133 1.73914 -6.74334 0
M  V30 1075 H 110.76 1.58029 -7.43593 0
M  V30 1076 N 112.336 1.25143 0.95797 0
M  V30 1077 C 113.299 1.05321 2.03569 0
M  V30 1078 C 114.299 0.007152 1.60798 0
M  V30 1079 O 115.489 0.24903 1.72411 0
M  V30 1080 C 112.621 0.598394 3.35607 0
M  V30 1081 H 113.814 2.00986 2.22586 0
M  V30 1082 H 111.367 1.07502 1.13459 0
M  V30 1083 H 112.102 -0.361014 3.22284 0
M  V30 1084 H 111.887 1.35351 3.67998 0
M  V30 1085 H 113.377 0.48104 4.1482 0
M  V30 1086 N 113.814 -1.1601 1.06675 0
M  V30 1087 C 115.042 -1.90527 0.806667 0
M  V30 1088 C 115.457 -1.77643 -0.639396 0
M  V30 1089 O 114.814 -1.12369 -1.43803 0
M  V30 1090 C 114.865 -3.41106 1.19705 0
M  V30 1091 O 114.586 -3.53608 2.58636 0
M  V30 1092 C 116.087 -4.32663 0.965266 0
M  V30 1093 H 113.307 -0.604053 0.292166 0
M  V30 1094 H 115.851 -1.47026 1.4214 0
M  V30 1095 H 114.006 -3.82296 0.626774 0
M  V30 1096 H 114.42 -4.47011 2.74375 0
M  V30 1097 H 115.894 -5.36763 1.288 0
M  V30 1098 H 116.371 -4.39089 -0.0987936 0
M  V30 1099 H 116.977 -3.97206 1.52011 0
M  V30 1100 N 115.292 -0.849877 -1.32721 0
M  V30 1101 C 116.703 -0.506188 -1.79707 0
M  V30 1102 C 117.054 0.975627 -1.70223 0
M  V30 1103 O 116.179 1.76078 -1.25799 0
M  V30 1104 C 116.774 -0.912044 -3.26293 0
M  V30 1105 C 115.333 -0.620326 -3.71253 0
M  V30 1106 C 114.48 -1.11439 -2.53922 0
M  V30 1107 H 117.431 -1.03754 -1.20087 0
M  V30 1108 H 117.452 -0.226493 -3.79825 0
M  V30 1109 H 116.964 -1.99057 -3.33164 0
M  V30 1110 H 115.065 0.447674 -3.69901 0
M  V30 1111 H 115.178 -1.18327 -4.64258 0
M  V30 1112 H 113.542 -0.534834 -2.49021 0
M  V30 1113 H 114.325 -2.19992 -2.6355 0
M  V30 1114 N 116.77 1.45427 -0.607355 0
M  V30 1115 C 118.016 2.0254 -0.102607 0
M  V30 1116 C 118.349 1.47478 1.26348 0
M  V30 1117 O 117.624 0.64939 1.83339 0
M  V30 1118 C 117.907 3.60044 -0.0634347 0
M  V30 1119 C 117.76 4.2544 -1.46017 0
M  V30 1120 C 119.079 4.35646 0.624514 0
M  V30 1121 H 116.198 0.73598 -0.0387607 0
M  V30 1122 H 118.84 1.73284 -0.779282 0
M  V30 1123 H 116.99 3.85101 0.512808 0
M  V30 1124 H 118.662 4.11569 -2.08347 0
M  V30 1125 H 116.905 3.83849 -2.02094 0
M  V30 1126 H 117.576 5.34342 -1.385 0
M  V30 1127 H 120.052 4.15882 0.134723 0
M  V30 1128 H 118.928 5.45376 0.621028 0
M  V30 1129 H 119.189 4.08501 1.69055 0
M  V30 1130 N 118.248 0.346503 1.53744 0
M  V30 1131 C 119.195 -0.508914 2.25119 0
M  V30 1132 C 120.165 -1.09315 1.25058 0
M  V30 1133 O 121.35 -1.12921 1.53797 0
M  V30 1134 C 118.49 -1.65246 3.02965 0
M  V30 1135 C 117.603 -1.09525 4.17886 0
M  V30 1136 C 116.738 -2.20634 4.83212 0
M  V30 1137 C 115.777 -1.62279 5.90196 0
M  V30 1138 N 114.914 -2.67143 6.49291 0
M  V30 1139 H 119.754 0.106283 2.9781 0
M  V30 1140 H 117.291 0.0642227 1.4696 0
M  V30 1141 H 119.249 -2.32574 3.4636 0
M  V30 1142 H 117.879 -2.2386 2.32565 0
M  V30 1143 H 116.931 -0.312818 3.79112 0
M  V30 1144 H 118.243 -0.628444 4.94825 0
M  V30 1145 H 117.397 -2.95821 5.29693 0
M  V30 1146 H 116.136 -2.70659 4.05703 0
M  V30 1147 H 115.141 -0.855989 5.43096 0
M  V30 1148 H 116.366 -1.13102 6.69615 0
M  V30 1149 H 114.312 -3.16417 5.74645 0
M  V30 1150 H 114.229 -2.25093 7.21713 0
M  V30 1151 H 115.497 -3.4209 7.00425 0
M  V30 1152 O 119.765 -1.60064 0.214914 0
M  V30 1153 H 120.456 -1.90195 -0.366829 0
M  V30 END ATOM
M  V30 BEGIN BOND
M  V30 END BOND
M  V30 END CTAB
M  END
$$$$
