drugbank_target|P9WPB7 Cyclopropane mycolic acid synthase 1 (DB01718)
 OpenBabel12092120383D

  0  0  0     0  0            999 V3000
M  V30 BEGIN CTAB
M  V30 COUNTS 4530 4585 0 0 0
M  V30 BEGIN ATOM
M  V30 1 H -0.908 1.98254 -0.117106 0
M  V30 2 N 0 1.576 0 0
M  V30 3 C 0.933 2.03868 1.02534 0
M  V30 4 C 1.911 0.928543 1.3348 0
M  V30 5 O 3.095 1.19667 1.45644 0
M  V30 6 C 0.222 2.43627 2.35294 0
M  V30 7 C -0.732 3.65373 2.2001 0
M  V30 8 S 0.101 5.13292 1.52614 0
M  V30 9 C 1.257 5.56322 2.86805 0
M  V30 10 H 1.49 2.90518 0.631377 0
M  V30 11 H -0.977 1.52953 0.210867 0
M  V30 12 H 0.981 2.67203 3.11629 0
M  V30 13 H -0.358 1.57376 2.7183 0
M  V30 14 H -1.165 3.90944 3.18086 0
M  V30 15 H -1.563 3.418 1.51819 0
M  V30 16 H 0.729 5.58782 3.83104 0
M  V30 17 H 1.672 6.56266 2.65933 0
M  V30 18 H 2.08 4.83886 2.90714 0
M  V30 19 N 1.4781 -0.272755 1.55222 0
M  V30 20 C 2.8891 -0.84378 1.66545 0
M  V30 21 C 3.2401 -1.87035 0.592641 0
M  V30 22 O 2.3651 -2.14761 -0.265818 0
M  V30 23 C 2.9601 -1.53723 3.01918 0
M  V30 24 C 1.5191 -2.05628 3.15268 0
M  V30 25 C 0.6661 -0.898424 2.62343 0
M  V30 26 H 3.6171 -0.0490998 1.58624 0
M  V30 27 H 3.6381 -2.40421 2.94921 0
M  V30 28 H 3.1501 -0.78983 3.79978 0
M  V30 29 H 1.2511 -2.83329 2.41983 0
M  V30 30 H 1.3641 -2.27142 4.21833 0
M  V30 31 H -0.2719 -1.29186 2.19506 0
M  V30 32 H 0.5111 -0.164528 3.42906 0
M  V30 33 N 2.9562 -1.48159 -0.537278 0
M  V30 34 C 4.2332 -1.46291 -1.29839 0
M  V30 35 C 4.6132 -0.170613 -2.10409 0
M  V30 36 O 3.9612 0.847746 -2.12192 0
M  V30 37 C 4.1712 -2.72055 -2.18603 0
M  V30 38 C 5.5192 -3.20087 -2.7898 0
M  V30 39 O 6.5432 -2.72921 -2.28894 0
M  V30 40 O 5.4022 -4.02138 -3.70064 0
M  V30 41 H 2.4962 -0.583906 -0.585647 0
M  V30 42 H 5.0422 -1.60384 -0.554534 0
M  V30 43 H 3.8142 -3.57628 -1.58801 0
M  V30 44 H 3.4372 -2.60646 -3.00249 0
M  V30 45 N 4.4343 0.785586 -1.36625 0
M  V30 46 C 5.3443 1.92964 -1.33425 0
M  V30 47 C 6.3603 1.72394 -0.235851 0
M  V30 48 O 7.5363 1.95866 -0.468878 0
M  V30 49 C 4.6013 3.27884 -1.12662 0
M  V30 50 C 3.6623 3.61204 -2.32013 0
M  V30 51 C 2.8953 4.89687 -2.12231 0
M  V30 52 O 3.1183 5.59704 -1.09945 0
M  V30 53 O 2.0523 5.21752 -3.00098 0
M  V30 54 H 5.8783 1.98613 -2.29753 0
M  V30 55 H 3.4633 0.926384 -1.17211 0
M  V30 56 H 5.3453 4.08614 -1.03016 0
M  V30 57 H 4.0203 3.23118 -0.193991 0
M  V30 58 H 2.9273 2.80765 -2.47228 0
M  V30 59 H 4.2603 3.70698 -3.23796 0
M  V30 60 N 5.9124 1.20967 1.01018 0
M  V30 61 C 6.8424 0.988272 2.11555 0
M  V30 62 C 7.8234 -0.0849778 1.69888 0
M  V30 63 O 9.0084 0.0738202 1.9406 0
M  V30 64 C 6.1384 0.546528 3.42973 0
M  V30 65 C 5.0924 1.56375 3.9841 0
M  V30 66 C 4.4184 0.97842 5.25672 0
M  V30 67 C 5.7184 2.94922 4.31066 0
M  V30 68 H 7.4124 1.91276 2.30334 0
M  V30 69 H 4.9584 0.921073 1.1069 0
M  V30 70 H 6.9114 0.378839 4.19694 0
M  V30 71 H 5.6354 -0.413598 3.23971 0
M  V30 72 H 4.2944 1.71891 3.23804 0
M  V30 73 H 3.9424 0.0101688 5.02999 0
M  V30 74 H 3.6424 1.65784 5.63728 0
M  V30 75 H 5.1664 0.821939 6.05043 0
M  V30 76 H 6.5804 2.8288 4.9865 0
M  V30 77 H 4.9774 3.5983 4.80253 0
M  V30 78 H 6.0474 3.4616 3.39561 0
M  V30 79 N 7.3905 -1.2043 1.01659 0
M  V30 80 C 8.3375 -2.23215 0.586822 0
M  V30 81 C 9.3075 -1.61382 -0.393085 0
M  V30 82 O 10.4925 -1.88544 -0.292525 0
M  V30 83 C 7.6325 -3.45032 -0.0687464 0
M  V30 84 C 6.7455 -4.21296 0.955724 0
M  V30 85 C 5.8805 -5.30507 0.271208 0
M  V30 86 C 4.9195 -5.98515 1.28244 0
M  V30 87 N 4.0565 -6.99316 0.62459 0
M  V30 88 H 8.8965 -2.59336 1.46796 0
M  V30 89 H 6.4335 -1.27431 0.734836 0
M  V30 90 H 8.3915 -4.1459 -0.465965 0
M  V30 91 H 7.0215 -3.09604 -0.913529 0
M  V30 92 H 6.0735 -3.50803 1.4711 0
M  V30 93 H 7.3855 -4.6803 1.72479 0
M  V30 94 H 6.5395 -6.06428 -0.18151 0
M  V30 95 H 5.2785 -4.8481 -0.530163 0
M  V30 96 H 4.2835 -5.21355 1.74554 0
M  V30 97 H 5.5085 -6.46298 2.08509 0
M  V30 98 H 3.4545 -6.55812 -0.156914 0
M  V30 99 H 3.3715 -7.44178 1.33172 0
M  V30 100 H 4.6395 -7.79255 0.195462 0
M  V30 101 N 8.8686 -0.792821 -1.36206 0
M  V30 102 C 10.2796 -0.429513 -1.81692 0
M  V30 103 C 10.6306 1.04695 -1.65932 0
M  V30 104 O 9.7556 1.81256 -1.18218 0
M  V30 105 C 10.3506 -0.772831 -3.29868 0
M  V30 106 C 8.9096 -0.462307 -3.7355 0
M  V30 107 C 8.0566 -1.00569 -2.5842 0
M  V30 108 H 11.0076 -0.985672 -1.24379 0
M  V30 109 H 11.0286 -0.0651928 -3.80444 0
M  V30 110 H 10.5406 -1.84747 -3.41307 0
M  V30 111 H 8.6416 0.604158 -3.67669 0
M  V30 112 H 8.7546 -0.985299 -4.68859 0
M  V30 113 H 7.1186 -0.428734 -2.51066 0
M  V30 114 H 7.9016 -2.08616 -2.72643 0
M  V30 115 N 10.3467 1.47872 -0.545128 0
M  V30 116 C 11.2967 2.26842 0.229456 0
M  V30 117 C 12.2807 1.33626 0.896267 0
M  V30 118 O 13.4727 1.58063 0.79657 0
M  V30 119 C 10.6017 3.19089 1.26638 0
M  V30 120 C 9.6877 4.19783 0.603598 0
M  V30 121 N 10.0787 5.0479 -0.319405 0
M  V30 122 C 8.3767 4.3765 0.858989 0
M  V30 123 C 9.0777 5.77433 -0.703241 0
M  V30 124 N 8.0537 5.43566 -0.0608309 0
M  V30 125 H 11.8557 2.89947 -0.480391 0
M  V30 126 H 9.3697 1.58263 -0.364209 0
M  V30 127 H 11.3667 3.74337 1.83515 0
M  V30 128 H 10.0267 2.5754 1.97745 0
M  V30 129 H 11.0377 5.13244 -0.692889 0
M  V30 130 H 7.7147 3.87281 1.55948 0
M  V30 131 H 9.1047 6.55824 -1.46098 0
M  V30 132 N 11.8248 0.280983 1.55075 0
M  V30 133 C 13.0718 -0.334115 1.99725 0
M  V30 134 C 13.3998 -1.5542 1.1694 0
M  V30 135 O 12.6548 -1.94361 0.228531 0
M  V30 136 C 12.9538 -0.754656 3.49342 0
M  V30 137 C 12.6198 0.361445 4.49449 0
M  V30 138 C 11.2818 0.667893 4.76542 0
M  V30 139 C 13.6338 1.11322 5.09173 0
M  V30 140 C 10.9618 1.7296 5.60626 0
M  V30 141 C 13.3138 2.1647 5.9441 0
M  V30 142 C 11.9778 2.47742 6.19822 0
M  V30 143 H 11.2478 -0.122261 0.730844 0
M  V30 144 H 13.8948 0.395917 1.87363 0
M  V30 145 H 12.1998 -1.56446 3.5921 0
M  V30 146 H 13.8968 -1.24142 3.813 0
M  V30 147 H 10.4868 0.112481 4.28452 0
M  V30 148 H 14.6708 0.88973 4.8826 0
M  V30 149 H 9.9268 1.97684 5.78559 0
M  V30 150 H 14.1008 2.75193 6.3972 0
M  V30 151 H 11.7278 3.30145 6.84769 0
M  V30 152 N 13.3029 -1.57598 0.00835791 0
M  V30 153 C 14.2659 -2.07884 -0.965242 0
M  V30 154 C 15.2659 -0.989825 -1.26725 0
M  V30 155 O 16.4559 -1.25218 -1.21104 0
M  V30 156 C 13.5879 -2.52731 -2.28779 0
M  V30 157 H 14.7809 -2.95178 -0.530112 0
M  V30 158 H 12.3339 -1.54458 -0.239283 0
M  V30 159 H 13.0689 -1.68705 -2.76964 0
M  V30 160 H 12.8539 -3.32272 -2.08177 0
M  V30 161 H 14.3439 -2.91933 -2.98605 0
M  V30 162 N 14.781 0.264519 -1.55364 0
M  V30 163 C 15.729 1.34702 -1.89626 0
M  V30 164 C 16.723 1.50712 -0.773459 0
M  V30 165 O 17.929 1.52395 -0.957897 0
M  V30 166 H 14.304 0.450682 -0.601988 0
M  V30 167 H 16.275 1.0306 -2.80038 0
M  V30 168 C 15.024 2.6989 -2.19214 0
M  V30 169 H 14.347 2.58365 -3.05103 0
M  V30 170 H 15.787 3.44553 -2.47102 0
M  V30 171 C 14.246 3.21637 -1.00254 0
M  V30 172 O 14.776 4.00973 -0.241501 0
M  V30 173 N 12.982 2.7943 -0.797938 0
M  V30 174 H 12.529 2.15026 -1.4185 0
M  V30 175 H 12.487 3.144 -0.00363422 0
M  V30 176 N 16.2591 1.48442 0.529413 0
M  V30 177 C 17.5051 1.5672 1.28711 0
M  V30 178 C 17.8381 0.2406 1.92704 0
M  V30 179 O 17.1131 -0.753454 1.79313 0
M  V30 180 C 17.3961 2.70587 2.37603 0
M  V30 181 C 17.2491 4.12953 1.78297 0
M  V30 182 C 18.5681 2.80212 3.39366 0
M  V30 183 H 15.6871 0.570474 0.466613 0
M  V30 184 H 18.3291 1.80617 0.589706 0
M  V30 185 H 16.4791 2.50342 2.97088 0
M  V30 186 H 18.1511 4.44639 1.22858 0
M  V30 187 H 16.3941 4.19927 1.0883 0
M  V30 188 H 17.0651 4.88448 2.57144 0
M  V30 189 H 19.5411 2.98553 2.89836 0
M  V30 190 H 18.4171 3.61611 4.12951 0
M  V30 191 H 18.6781 1.88393 3.99951 0
M  V30 192 N 17.7372 -0.778329 1.37039 0
M  V30 193 C 18.6692 -1.90034 1.2814 0
M  V30 194 C 19.6822 -1.61585 0.198558 0
M  V30 195 O 20.8712 -1.72625 0.454175 0
M  V30 196 C 17.9712 -3.25108 0.956968 0
M  V30 197 C 17.1442 -3.81253 2.14394 0
M  V30 198 C 16.2032 -4.94789 1.79082 0
M  V30 199 O 15.2292 -5.10721 2.51301 0
M  V30 200 N 16.4312 -5.75878 0.731043 0
M  V30 201 H 19.1962 -1.98186 2.24816 0
M  V30 202 H 16.7572 -0.957129 1.30578 0
M  V30 203 H 18.7492 -3.9857 0.701701 0
M  V30 204 H 17.3192 -3.125 0.0789812 0
M  V30 205 H 16.5392 -2.99647 2.56135 0
M  V30 206 H 17.8272 -4.15495 2.93668 0
M  V30 207 H 17.2252 -5.65547 0.131618 0
M  V30 208 H 15.7822 -6.49596 0.535622 0
M  V30 209 N 19.2153 -1.21501 -1.00376 0
M  V30 210 C 20.1783 -0.976927 -2.07337 0
M  V30 211 C 21.1783 0.0525322 -1.60714 0
M  V30 212 O 22.3683 -0.184869 -1.73216 0
M  V30 213 C 19.5003 -0.473423 -3.37597 0
M  V30 214 H 20.6933 -1.92587 -2.29892 0
M  V30 215 H 18.2463 -1.03217 -1.17371 0
M  V30 216 H 18.9813 0.480379 -3.20722 0
M  V30 217 H 18.7663 -1.216 -3.72768 0
M  V30 218 H 20.2563 -0.32675 -4.1632 0
M  V30 219 N 20.6934 1.19889 -1.02296 0
M  V30 220 C 21.6434 2.20777 -0.56934 0
M  V30 221 C 22.6274 1.56379 0.378741 0
M  V30 222 O 23.8194 1.75859 0.200673 0
M  V30 223 C 20.9484 3.43196 0.0845077 0
M  V30 224 C 20.0344 4.14749 -0.88566 0
M  V30 225 N 20.4254 4.62584 -2.04573 0
M  V30 226 C 18.7234 4.40347 -0.707835 0
M  V30 227 C 19.4244 5.17466 -2.65714 0
M  V30 228 N 18.4004 5.0791 -1.93723 0
M  V30 229 H 22.2024 2.55434 -1.45365 0
M  V30 230 H 19.7164 1.35897 -0.88915 0
M  V30 231 H 21.7134 4.14707 0.427067 0
M  V30 232 H 20.3734 3.10042 0.964574 0
M  V30 233 H 21.3844 4.57597 -2.4254 0
M  V30 234 H 18.0614 4.17317 0.12364 0
M  V30 235 H 19.4514 5.64808 -3.63925 0
M  V30 236 N 22.1715 0.800033 1.35784 0
M  V30 237 C 23.4015 0.389041 2.02904 0
M  V30 238 C 23.8095 -1.0027 1.60445 0
M  V30 239 O 23.1525 -1.65633 0.794453 0
M  V30 240 C 23.2145 0.385495 3.57427 0
M  V30 241 C 22.8785 1.72662 4.23127 0
M  V30 242 C 23.8755 2.68385 4.4527 0
M  V30 243 C 21.5605 2.00883 4.60381 0
M  V30 244 C 23.5545 3.90517 5.03761 0
M  V30 245 C 21.2415 3.2328 5.18588 0
M  V30 246 C 22.2395 4.17915 5.40218 0
M  V30 247 O 21.9275 5.38153 5.97199 0
M  V30 248 H 21.6595 0.157032 0.657508 0
M  V30 249 H 24.2135 1.08311 1.74522 0
M  V30 250 H 22.4435 -0.365128 3.84972 0
M  V30 251 H 24.1325 -0.00228296 4.059 0
M  V30 252 H 24.8985 2.47872 4.16874 0
M  V30 253 H 20.7775 1.28037 4.42863 0
M  V30 254 H 24.3215 4.64395 5.2056 0
M  V30 255 H 20.2185 3.43667 5.4641 0
M  V30 256 H 20.9865 5.3936 6.15656 0
M  V30 257 N 23.6496 -1.47581 0.552962 0
M  V30 258 C 24.9266 -1.95563 -0.0381515 0
M  V30 259 C 25.3066 -1.49552 -1.48988 0
M  V30 260 O 24.6546 -0.732414 -2.16444 0
M  V30 261 C 24.8646 -3.48848 0.102919 0
M  V30 262 C 26.2126 -4.24577 -0.0446082 0
M  V30 263 O 27.2366 -3.56187 0.0302548 0
M  V30 264 O 26.0956 -5.46116 -0.204923 0
M  V30 265 H 23.1896 -0.824321 -0.0665067 0
M  V30 266 H 25.7356 -1.58001 0.619186 0
M  V30 267 H 24.5076 -3.75129 1.11328 0
M  V30 268 H 24.1306 -3.93165 -0.592224 0
M  V30 269 N 25.1277 -0.289203 -1.54924 0
M  V30 270 C 26.0577 0.58549 -2.2604 0
M  V30 271 C 27.0387 1.14753 -1.25562 0
M  V30 272 O 28.2237 1.17906 -1.54311 0
M  V30 273 C 25.3537 1.76305 -2.99222 0
M  V30 274 C 24.3077 1.33191 -4.06748 0
M  V30 275 C 23.6337 2.5937 -4.6758 0
M  V30 276 C 24.9337 0.471775 -5.20165 0
M  V30 277 H 26.6277 -0.00763532 -2.99399 0
M  V30 278 H 24.1737 -0.00511229 -1.43999 0
M  V30 279 H 26.1267 2.38097 -3.47689 0
M  V30 280 H 24.8507 2.38223 -2.23422 0
M  V30 281 H 23.5097 0.737121 -3.59113 0
M  V30 282 H 23.1577 3.19576 -3.88433 0
M  V30 283 H 22.8577 2.31228 -5.40192 0
M  V30 284 H 24.3817 3.21985 -5.18804 0
M  V30 285 H 25.7957 0.995056 -5.64599 0
M  V30 286 H 24.1927 0.284639 -5.99425 0
M  V30 287 H 25.2627 -0.506041 -4.82252 0
M  V30 288 N 26.6058 1.57591 -0.0167156 0
M  V30 289 C 27.8308 1.9598 0.67872 0
M  V30 290 C 28.2558 0.892546 1.65575 0
M  V30 291 O 27.6138 -0.147772 1.80697 0
M  V30 292 C 27.6618 3.33468 1.37227 0
M  V30 293 O 26.7658 3.28954 2.48722 0
M  V30 294 H 26.1068 0.639339 0.17928 0
M  V30 295 H 28.6368 2.04463 -0.0748802 0
M  V30 296 H 28.6468 3.69417 1.7319 0
M  V30 297 H 27.3218 4.10694 0.656007 0
M  V30 298 H 25.8988 3.04705 2.14963 0
M  V30 299 N 28.0839 -0.256276 1.55502 0
M  V30 300 C 29.3609 -1.00789 1.67633 0
M  V30 301 C 29.7409 -2.03706 0.553826 0
M  V30 302 O 29.0889 -2.24145 -0.443969 0
M  V30 303 C 29.2989 -1.64968 3.07549 0
M  V30 304 C 30.6469 -2.15505 3.65845 0
M  V30 305 O 31.6709 -1.74925 3.1029 0
M  V30 306 O 30.5299 -2.89986 4.63217 0
M  V30 307 H 27.6239 -0.468553 0.681459 0
M  V30 308 H 30.1699 -0.250806 1.67836 0
M  V30 309 H 28.9419 -0.904785 3.80696 0
M  V30 310 H 28.5649 -2.47321 3.11317 0
M  V30 311 N 29.562 -1.4872 -0.521534 0
M  V30 312 C 30.839 -1.4766 -1.2828 0
M  V30 313 C 31.219 -0.19292 -2.10217 0
M  V30 314 O 30.567 0.825193 -2.13079 0
M  V30 315 C 30.777 -2.74358 -2.15705 0
M  V30 316 C 32.125 -3.23028 -2.75569 0
M  V30 317 O 33.149 -2.75333 -2.25987 0
M  V30 318 O 32.008 -4.0604 -3.65778 0
M  V30 319 H 29.102 -0.590085 -0.579421 0
M  V30 320 H 31.648 -1.60963 -0.537492 0
M  V30 321 H 30.42 -3.59292 -1.54999 0
M  V30 322 H 30.043 -2.63816 -2.97467 0
M  V30 323 N 31.0401 0.771051 -1.3745 0
M  V30 324 C 32.2871 1.52963 -1.32697 0
M  V30 325 C 32.6151 1.94299 0.0883274 0
M  V30 326 O 31.8701 1.64397 1.0617 0
M  V30 327 C 32.1691 2.80676 -2.2126 0
M  V30 328 C 31.8351 2.58389 -3.69521 0
M  V30 329 C 30.4971 2.52019 -4.09927 0
M  V30 330 C 32.8491 2.38469 -4.63446 0
M  V30 331 C 30.1771 2.23721 -5.42371 0
M  V30 332 C 32.5291 2.11694 -5.96128 0
M  V30 333 C 31.1931 2.03769 -6.35637 0
M  V30 334 H 30.4631 0.559732 -0.485573 0
M  V30 335 H 33.1101 0.888083 -1.69662 0
M  V30 336 H 31.4151 3.49392 -1.77291 0
M  V30 337 H 33.1121 3.38557 -2.14895 0
M  V30 338 H 29.7021 2.6421 -3.37478 0
M  V30 339 H 33.8861 2.4238 -4.33089 0
M  V30 340 H 29.1421 2.16081 -5.71943 0
M  V30 341 H 33.3161 1.9528 -6.6846 0
M  V30 342 H 30.9431 1.81606 -7.38189 0
M  V30 343 N 32.5182 1.22032 0.997298 0
M  V30 344 C 33.7652 1.04222 1.73621 0
M  V30 345 C 34.0932 -0.423264 1.89839 0
M  V30 346 O 33.3482 -1.3302 1.43542 0
M  V30 347 C 33.6472 1.69345 3.14733 0
M  V30 348 C 33.3132 3.19226 3.18442 0
M  V30 349 C 31.9752 3.60124 3.19161 0
M  V30 350 C 34.3272 4.15181 3.15078 0
M  V30 351 C 31.6552 4.95467 3.14212 0
M  V30 352 C 34.0072 5.50495 3.1167 0
M  V30 353 C 32.6712 5.90779 3.10703 0
M  V30 354 H 31.9412 0.381374 0.635323 0
M  V30 355 H 34.5882 1.51732 1.16831 0
M  V30 356 H 32.8932 1.14147 3.74803 0
M  V30 357 H 34.5902 1.53059 3.7064 0
M  V30 358 H 31.1802 2.86659 3.18629 0
M  V30 359 H 35.3642 3.84605 3.13676 0
M  V30 360 H 30.6202 5.25916 3.11805 0
M  V30 361 H 34.7942 6.24576 3.08022 0
M  V30 362 H 32.4212 6.9562 3.06622 0
M  V30 363 N 33.9963 -1.19345 1.0293 0
M  V30 364 C 35.4123 -1.41069 0.746446 0
M  V30 365 C 35.6123 -1.90078 -0.668776 0
M  V30 366 O 34.6683 -2.0778 -1.4347 0
M  V30 367 C 35.9813 -2.42141 1.78292 0
M  V30 368 C 37.5293 -2.55887 1.80252 0
M  V30 369 C 38.0043 -3.60214 2.8286 0
M  V30 370 N 39.4953 -3.67711 2.81679 0
M  V30 371 C 40.2303 -4.48128 3.57727 0
M  V30 372 N 39.7263 -5.32248 4.43491 0
M  V30 373 N 41.5193 -4.42782 3.46267 0
M  V30 374 H 33.6703 -0.858536 1.94275 0
M  V30 375 H 35.9333 -0.439541 0.839945 0
M  V30 376 H 35.6393 -2.13155 2.79746 0
M  V30 377 H 35.5133 -3.41323 1.60557 0
M  V30 378 H 37.9003 -2.84196 0.794757 0
M  V30 379 H 37.9813 -1.56858 2.02062 0
M  V30 380 H 37.6253 -3.32647 3.83807 0
M  V30 381 H 37.5553 -4.58895 2.58307 0
M  V30 382 H 40.0463 -3.07634 2.19476 0
M  V30 383 H 40.3593 -5.90729 4.98256 0
M  V30 384 H 38.7043 -5.31707 4.47564 0
M  V30 385 H 41.8953 -3.76107 2.78677 0
M  V30 386 H 42.0683 -5.05215 4.05785 0
M  V30 387 N 35.4744 -0.807222 -1.35358 0
M  V30 388 C 36.4044 -0.232509 -2.3234 0
M  V30 389 C 37.3854 0.642386 -1.57504 0
M  V30 390 O 38.5704 0.572526 -1.85569 0
M  V30 391 C 35.7004 0.619238 -3.41735 0
M  V30 392 C 34.6544 -0.157215 -4.27711 0
M  V30 393 C 33.9804 0.816273 -5.28433 0
M  V30 394 C 35.2804 -1.35656 -5.04376 0
M  V30 395 H 36.9744 -1.04276 -2.80654 0
M  V30 396 H 34.5204 -0.50288 -1.34934 0
M  V30 397 H 36.4734 1.03137 -4.08584 0
M  V30 398 H 35.1974 1.46239 -2.92031 0
M  V30 399 H 33.8564 -0.550525 -3.62443 0
M  V30 400 H 33.5044 1.65494 -4.74996 0
M  V30 401 H 33.2044 0.301067 -5.86828 0
M  V30 402 H 34.7284 1.22659 -5.98153 0
M  V30 403 H 36.1424 -1.01927 -5.64166 0
M  V30 404 H 34.5394 -1.8063 -5.7227 0
M  V30 405 H 35.6094 -2.14288 -4.34981 0
M  V30 406 N 36.9525 1.47285 -0.560781 0
M  V30 407 C 38.1995 2.02464 -0.038062 0
M  V30 408 C 38.5275 1.43474 1.31322 0
M  V30 409 O 37.7825 0.581311 1.86867 0
M  V30 410 C 38.0815 3.57258 0.100784 0
M  V30 411 C 37.7475 4.35184 -1.18007 0
M  V30 412 C 36.4095 4.56194 -1.53103 0
M  V30 413 C 38.7615 4.80098 -2.02867 0
M  V30 414 C 36.0895 5.19367 -2.729 0
M  V30 415 C 38.4415 5.44593 -3.21871 0
M  V30 416 C 37.1055 5.63835 -3.57276 0
M  V30 417 H 36.3755 0.740869 -0.0139279 0
M  V30 418 H 39.0225 1.76916 -0.733012 0
M  V30 419 H 37.3275 3.81819 0.878724 0
M  V30 420 H 39.0245 3.97606 0.520639 0
M  V30 421 H 35.6145 4.19113 -0.8968 0
M  V30 422 H 39.7985 4.63642 -1.7706 0
M  V30 423 H 35.0545 5.32459 -3.00496 0
M  V30 424 H 39.2285 5.78358 -3.87911 0
M  V30 425 H 36.8555 6.12557 -4.50197 0
M  V30 426 N 38.4306 0.297415 1.54768 0
M  V30 427 C 39.3606 -0.573494 2.26348 0
M  V30 428 C 40.3416 -1.14085 1.26169 0
M  V30 429 O 41.5266 -1.17086 1.54934 0
M  V30 430 C 38.6566 -1.74716 3.00153 0
M  V30 431 C 37.6106 -1.31032 4.07449 0
M  V30 432 C 36.9366 -2.56887 4.68949 0
M  V30 433 C 38.2366 -0.444183 5.20408 0
M  V30 434 H 39.9306 0.0235131 2.99391 0
M  V30 435 H 37.4766 0.0127488 1.43994 0
M  V30 436 H 39.4296 -2.3625 3.48947 0
M  V30 437 H 38.1536 -2.37035 2.24682 0
M  V30 438 H 36.8126 -0.718066 3.59499 0
M  V30 439 H 36.4606 -3.17512 3.90122 0
M  V30 440 H 36.1606 -2.2836 5.41411 0
M  V30 441 H 37.6846 -3.19229 5.20505 0
M  V30 442 H 39.0986 -0.9651 5.65118 0
M  V30 443 H 37.4956 -0.252846 5.99567 0
M  V30 444 H 38.5656 0.531609 4.81977 0
M  V30 445 N 39.9087 -1.5758 0.0250728 0
M  V30 446 C 41.1857 -1.82917 -0.692873 0
M  V30 447 C 41.5657 -0.908137 -1.90568 0
M  V30 448 O 40.9137 0.0372298 -2.2847 0
M  V30 449 C 41.1237 -3.32034 -1.07492 0
M  V30 450 C 42.4717 -3.98406 -1.46826 0
M  V30 451 O 43.4957 -3.36505 -1.16801 0
M  V30 452 O 42.3547 -5.07497 -2.02754 0
M  V30 453 H 39.4487 -0.754079 -0.33955 0
M  V30 454 H 41.9947 -1.69619 0.0524456 0
M  V30 455 H 40.7667 -3.90728 -0.211552 0
M  V30 456 H 40.3897 -3.50424 -1.87854 0
M  V30 457 N 41.3868 0.248026 -1.55636 0
M  V30 458 C 42.7978 0.817177 -1.67866 0
M  V30 459 C 43.1488 1.86069 -0.622322 0
M  V30 460 O 42.2738 2.15157 0.231618 0
M  V30 461 C 42.8688 1.489 -3.04326 0
M  V30 462 C 41.4278 2.00587 -3.185 0
M  V30 463 C 40.5748 0.856573 -2.63739 0
M  V30 464 H 43.5258 0.0238579 -1.58682 0
M  V30 465 H 43.5468 2.35698 -2.98708 0
M  V30 466 H 43.0588 0.729279 -3.81186 0
M  V30 467 H 41.1598 2.79443 -2.4646 0
M  V30 468 H 41.2728 2.20402 -4.25393 0
M  V30 469 H 39.6368 1.25678 -2.21534 0
M  V30 470 H 40.4198 0.109953 -3.43124 0
M  V30 471 N 42.8649 1.48995 0.513639 0
M  V30 472 C 44.0929 1.61531 1.29288 0
M  V30 473 C 44.5079 0.281801 1.86685 0
M  V30 474 O 43.8649 -0.731111 1.67215 0
M  V30 475 C 43.9159 2.67449 2.43215 0
M  V30 476 O 43.6369 3.95626 1.88179 0
M  V30 477 C 45.1379 2.90575 3.34785 0
M  V30 478 H 42.3579 0.544165 0.392588 0
M  V30 479 H 44.9019 1.9494 0.617956 0
M  V30 480 H 43.0569 2.36853 3.0656 0
M  V30 481 H 43.4709 4.53868 2.62876 0
M  V30 482 H 44.9449 3.68449 4.11035 0
M  V30 483 H 45.4219 2.00011 3.91015 0
M  V30 484 H 46.0279 3.22538 2.77218 0
M  V30 485 N 44.343 -0.763751 1.37857 0
M  V30 486 C 45.275 -1.88664 1.30148 0
M  V30 487 C 46.288 -1.61365 0.215685 0
M  V30 488 O 47.477 -1.72134 0.472459 0
M  V30 489 C 44.577 -3.24075 0.991396 0
M  V30 490 C 43.75 -3.78958 2.18426 0
M  V30 491 C 42.809 -4.92862 1.8432 0
M  V30 492 O 41.835 -5.08027 2.56704 0
M  V30 493 N 43.037 -5.75071 0.792081 0
M  V30 494 H 45.802 -1.95791 2.26905 0
M  V30 495 H 43.363 -0.943226 1.31586 0
M  V30 496 H 45.355 -3.97804 0.743935 0
M  V30 497 H 43.925 -3.12399 0.112122 0
M  V30 498 H 43.145 -2.96913 2.59299 0
M  V30 499 H 44.433 -4.12357 2.98058 0
M  V30 500 H 43.831 -5.65375 0.191595 0
M  V30 501 H 42.388 -6.48991 0.60449 0
M  V30 502 N 45.8211 -1.22559 -0.990812 0
M  V30 503 C 47.0491 -1.07779 -1.76611 0
M  V30 504 C 47.4641 0.371513 -1.85109 0
M  V30 505 O 46.8211 1.25737 -1.32274 0
M  V30 506 C 46.8721 -1.68512 -3.19822 0
M  V30 507 O 46.5931 -3.07774 -3.1178 0
M  V30 508 C 48.0941 -1.59035 -4.13791 0
M  V30 509 H 45.3141 -0.377729 -0.554583 0
M  V30 510 H 47.8581 -1.62195 -1.24551 0
M  V30 511 H 46.0131 -1.18154 -3.68942 0
M  V30 512 H 46.4271 -3.37062 -4.01858 0
M  V30 513 H 47.9011 -2.0625 -5.1202 0
M  V30 514 H 48.3781 -0.547273 -4.35777 0
M  V30 515 H 48.9841 -2.08709 -3.70568 0
M  V30 516 N 47.2992 1.18797 -1.03562 0
M  V30 517 C 48.5292 1.92319 -0.754773 0
M  V30 518 C 48.9372 1.7612 0.691248 0
M  V30 519 O 48.2802 1.08491 1.48241 0
M  V30 520 C 48.3422 3.44284 -1.03484 0
M  V30 521 C 48.0062 3.84258 -2.47376 0
M  V30 522 C 49.0032 3.88459 -3.45537 0
M  V30 523 C 46.6882 4.15701 -2.81954 0
M  V30 524 C 48.6822 4.23545 -4.76328 0
M  V30 525 C 46.3692 4.50458 -4.12954 0
M  V30 526 C 47.3672 4.54356 -5.09951 0
M  V30 527 O 47.0552 4.88305 -6.38603 0
M  V30 528 H 46.7872 0.617527 -0.275021 0
M  V30 529 H 49.3412 1.51683 -1.38497 0
M  V30 530 H 47.5712 3.85135 -0.347513 0
M  V30 531 H 49.2602 3.99049 -0.7426 0
M  V30 532 H 50.0262 3.6431 -3.20162 0
M  V30 533 H 45.9052 4.11847 -2.0713 0
M  V30 534 H 49.4492 4.26502 -5.52035 0
M  V30 535 H 45.3462 4.74067 -4.38099 0
M  V30 536 H 46.1142 5.06227 -6.43177 0
M  V30 537 N 48.7773 0.814389 1.34928 0
M  V30 538 C 50.0023 0.410097 2.03305 0
M  V30 539 C 50.4273 -0.973464 1.60951 0
M  V30 540 O 49.7853 -1.63185 0.789964 0
M  V30 541 C 49.8333 0.51049 3.56968 0
M  V30 542 O 48.9373 -0.473035 4.09678 0
M  V30 543 H 48.2783 0.170088 0.641846 0
M  V30 544 H 50.8083 1.10244 1.72358 0
M  V30 545 H 50.8183 0.383135 4.06197 0
M  V30 546 H 49.4933 1.51963 3.87144 0
M  V30 547 H 48.0703 -0.305272 3.71648 0
M  V30 548 N 50.2554 -1.46986 0.568584 0
M  V30 549 C 51.4954 -2.04336 0.0512999 0
M  V30 550 C 51.8594 -1.43214 -1.27881 0
M  V30 551 O 53.0604 -1.91679 -1.88448 0
M  V30 552 C 51.3314 -3.57389 -0.0282328 0
M  V30 553 S 52.8904 -4.36056 -0.489991 0
M  V30 554 H 49.7084 -0.71034 0.0306349 0
M  V30 555 H 52.3104 -1.80212 0.757891 0
M  V30 556 H 51.0144 -3.99395 0.944011 0
M  V30 557 H 50.5454 -3.86028 -0.75803 0
M  V30 558 H 52.5604 -4.6441 -1.74752 0
M  V30 559 N 51.7335 -0.305618 -1.54608 0
M  V30 560 C 52.6965 0.555591 -2.22364 0
M  V30 561 C 53.6965 1.05768 -1.21119 0
M  V30 562 O 54.8865 0.952972 -1.45822 0
M  V30 563 C 52.0185 1.76974 -2.91364 0
M  V30 564 H 53.2115 -0.0364572 -2.99878 0
M  V30 565 H 50.7645 -0.0565007 -1.56198 0
M  V30 566 H 51.4995 2.40151 -2.17941 0
M  V30 567 H 51.2845 1.41732 -3.65588 0
M  V30 568 H 52.7745 2.38148 -3.43038 0
M  V30 569 N 53.2116 1.57565 -0.0334293 0
M  V30 570 C 54.4416 1.95996 0.653398 0
M  V30 571 C 54.8496 0.908749 1.65947 0
M  V30 572 O 54.1926 -0.117471 1.83324 0
M  V30 573 C 54.2546 3.30589 1.41249 0
M  V30 574 C 53.9186 4.53503 0.564263 0
M  V30 575 C 54.9156 5.19647 -0.16225 0
M  V30 576 C 52.6006 4.99801 0.500398 0
M  V30 577 C 54.5946 6.30412 -0.941255 0
M  V30 578 C 52.2816 6.10448 -0.282308 0
M  V30 579 C 53.2796 6.75612 -1.00184 0
M  V30 580 O 52.9676 7.84134 -1.77171 0
M  V30 581 H 52.6996 0.65027 0.184728 0
M  V30 582 H 55.2536 2.05199 -0.0907841 0
M  V30 583 H 53.4836 3.17888 2.20191 0
M  V30 584 H 55.1726 3.53892 1.98784 0
M  V30 585 H 55.9386 4.84846 -0.12227 0
M  V30 586 H 51.8176 4.48883 1.05002 0
M  V30 587 H 55.3616 6.81208 -1.50339 0
M  V30 588 H 51.2586 6.44686 -0.323989 0
M  V30 589 H 52.0266 8.00822 -1.69194 0
M  V30 590 N 54.6897 -0.239769 1.55765 0
M  V30 591 C 55.9367 -0.966801 1.7793 0
M  V30 592 C 56.2647 -1.85046 0.599015 0
M  V30 593 O 55.5197 -1.91197 -0.417395 0
M  V30 594 C 55.8187 -1.852 3.05672 0
M  V30 595 C 55.4847 -1.1231 4.36689 0
M  V30 596 C 54.1467 -0.921689 4.72291 0
M  V30 597 C 56.4987 -0.607019 5.17653 0
M  V30 598 C 53.8267 -0.191996 5.86386 0
M  V30 599 C 56.1787 0.109241 6.32506 0
M  V30 600 C 54.8427 0.322073 6.66723 0
M  V30 601 H 54.1127 -0.353778 0.651093 0
M  V30 602 H 56.7597 -0.23634 1.90036 0
M  V30 603 H 55.0647 -2.64975 2.8861 0
M  V30 604 H 56.7617 -2.41635 3.20021 0
M  V30 605 H 53.3517 -1.29004 4.08725 0
M  V30 606 H 57.5357 -0.750153 4.90598 0
M  V30 607 H 52.7917 -0.0166949 6.11398 0
M  V30 608 H 56.9657 0.516737 6.9448 0
M  V30 609 H 54.5927 0.88944 7.54979 0
M  V30 610 N 56.1678 -1.49265 -0.50573 0
M  V30 611 C 57.0778 -1.68312 -1.63427 0
M  V30 612 C 58.0938 -0.565682 -1.64548 0
M  V30 613 O 59.2698 -0.839801 -1.83055 0
M  V30 614 C 56.3348 -1.74107 -2.99813 0
M  V30 615 C 55.3958 -2.97653 -3.09356 0
M  V30 616 C 54.6288 -3.03163 -4.39236 0
M  V30 617 O 54.8518 -2.16396 -5.27758 0
M  V30 618 O 53.7858 -3.9558 -4.53652 0
M  V30 619 H 57.6118 -2.63907 -1.50289 0
M  V30 620 H 55.1968 -1.32951 -0.681502 0
M  V30 621 H 57.0788 -1.803 -3.80881 0
M  V30 622 H 55.7538 -0.816901 -3.13223 0
M  V30 623 H 54.6608 -2.96981 -2.27493 0
M  V30 624 H 55.9938 -3.89535 -3.00871 0
M  V30 625 N 57.6459 0.756429 -1.3826 0
M  V30 626 C 59.0619 1.0591 -1.19395 0
M  V30 627 C 59.2619 2.01459 -0.0406567 0
M  V30 628 O 58.3179 2.44909 0.614467 0
M  V30 629 C 59.6309 1.64191 -2.51916 0
M  V30 630 C 61.1789 1.76376 -2.58574 0
M  V30 631 C 61.6539 2.38069 -3.91264 0
M  V30 632 N 63.1449 2.45503 -3.92788 0
M  V30 633 C 63.8799 2.94126 -4.92217 0
M  V30 634 N 63.3759 3.42805 -6.02043 0
M  V30 635 N 65.1689 2.9314 -4.7961 0
M  V30 636 H 57.3199 0.122313 -2.12048 0
M  V30 637 H 59.5829 0.116892 -0.940766 0
M  V30 638 H 59.2889 1.01451 -3.3675 0
M  V30 639 H 59.1629 2.6329 -2.70108 0
M  V30 640 H 61.5499 2.38244 -1.74137 0
M  V30 641 H 61.6309 0.759894 -2.44252 0
M  V30 642 H 61.2749 1.76835 -4.76121 0
M  V30 643 H 61.2049 3.39091 -4.02895 0
M  V30 644 H 63.6959 2.1107 -3.13461 0
M  V30 645 H 64.0089 3.78354 -6.73846 0
M  V30 646 H 62.3539 3.4087 -6.05667 0
M  V30 647 H 65.5449 2.54419 -3.92923 0
M  V30 648 H 65.7179 3.30721 -5.5725 0
M  V30 649 N 59.124 1.23083 0.984299 0
M  V30 650 C 60.401 0.9689 1.69917 0
M  V30 651 C 60.781 -0.513604 2.04757 0
M  V30 652 O 60.129 -1.48383 1.73767 0
M  V30 653 C 60.339 1.87518 2.94343 0
M  V30 654 C 61.687 2.13636 3.6694 0
M  V30 655 O 62.711 1.85036 3.04368 0
M  V30 656 O 61.57 2.62119 4.79537 0
M  V30 657 H 58.664 0.365095 0.742048 0
M  V30 658 H 61.21 1.34107 1.03987 0
M  V30 659 H 59.982 2.87756 2.65164 0
M  V30 660 H 59.605 1.50514 3.6801 0
M  V30 661 N 60.6021 -1.18246 1.0419 0
M  V30 662 C 61.8791 -1.84121 0.660208 0
M  V30 663 C 62.2591 -1.92778 -0.860221 0
M  V30 664 O 61.6071 -1.45464 -1.76217 0
M  V30 665 C 61.8171 -3.22355 1.33747 0
M  V30 666 C 63.1651 -3.98376 1.46906 0
M  V30 667 O 64.1891 -3.31799 1.29568 0
M  V30 668 O 63.0481 -5.17665 1.75171 0
M  V30 669 H 60.1421 -0.794036 0.231161 0
M  V30 670 H 62.6881 -1.25628 1.14087 0
M  V30 671 H 61.4601 -3.10964 2.37522 0
M  V30 672 H 61.0831 -3.88506 0.845515 0
M  V30 673 N 62.0802 -0.821533 -1.34494 0
M  V30 674 C 63.0132 -0.187704 -2.27427 0
M  V30 675 C 63.9912 0.65507 -1.48821 0
M  V30 676 O 65.1752 0.619111 -1.78043 0
M  V30 677 C 62.3022 0.737996 -3.30562 0
M  V30 678 C 61.3482 -0.0270713 -4.26491 0
M  V30 679 S 62.1812 -1.37329 -5.17592 0
M  V30 680 C 63.3372 -0.452427 -6.24263 0
M  V30 681 H 63.5702 -0.975598 -2.80837 0
M  V30 682 H 61.1032 -0.61736 -1.4152 0
M  V30 683 H 63.0612 1.26654 -3.90473 0
M  V30 684 H 61.7222 1.4994 -2.76001 0
M  V30 685 H 60.9152 0.6766 -4.99438 0
M  V30 686 H 60.5172 -0.48612 -3.70827 0
M  V30 687 H 62.8092 0.356557 -6.76561 0
M  V30 688 H 63.7522 -1.15153 -6.98674 0
M  V30 689 H 64.1602 -0.0414755 -5.64485 0
M  V30 690 N 63.5583 1.46682 -0.576371 0
M  V30 691 C 64.7863 2.06798 -0.0649635 0
M  V30 692 C 65.2013 1.42612 1.23723 0
M  V30 693 O 64.5583 0.529203 1.74659 0
M  V30 694 C 64.6093 3.6132 0.114202 0
M  V30 695 O 64.3303 4.23104 -1.13644 0
M  V30 696 C 65.8313 4.38349 0.66069 0
M  V30 697 H 63.0513 0.668778 -0.0545616 0
M  V30 698 H 65.5953 1.88404 -0.795237 0
M  V30 699 H 63.7503 3.79162 0.794673 0
M  V30 700 H 64.1643 5.15894 -0.946253 0
M  V30 701 H 65.6383 5.47081 0.73526 0
M  V30 702 H 66.1153 4.05953 1.67627 0
M  V30 703 H 66.7213 4.25297 0.0152951 0
M  V30 704 N 65.0364 0.313813 1.54444 0
M  V30 705 C 65.9664 -0.549454 2.26943 0
M  V30 706 C 66.9474 -1.12741 1.27372 0
M  V30 707 O 68.1324 -1.15436 1.56167 0
M  V30 708 C 65.2624 -1.71523 3.01989 0
M  V30 709 C 64.2164 -1.26703 4.08816 0
M  V30 710 C 63.5424 -2.51898 4.71647 0
M  V30 711 C 64.8424 -0.388962 5.2085 0
M  V30 712 H 66.5364 0.0552661 2.99349 0
M  V30 713 H 64.0824 0.0280207 1.43973 0
M  V30 714 H 66.0354 -2.32535 3.51433 0
M  V30 715 H 64.7594 -2.34639 2.27183 0
M  V30 716 H 63.4184 -0.679896 3.6024 0
M  V30 717 H 63.0664 -3.13356 3.93468 0
M  V30 718 H 62.7664 -2.22605 5.43802 0
M  V30 719 H 64.2904 -3.1369 5.23861 0
M  V30 720 H 65.7044 -0.905107 5.6611 0
M  V30 721 H 64.1014 -0.18924 5.99802 0
M  V30 722 H 65.1714 0.582699 4.81386 0
M  V30 723 N 66.5145 -1.57545 0.0417849 0
M  V30 724 C 67.4465 -2.07904 -0.964799 0
M  V30 725 C 68.4595 -1.00497 -1.28079 0
M  V30 726 O 69.6485 -1.28087 -1.24322 0
M  V30 727 C 66.7485 -2.49928 -2.28887 0
M  V30 728 C 65.9215 -3.80562 -2.15619 0
M  V30 729 C 64.9805 -4.08999 -3.31069 0
M  V30 730 O 64.0065 -4.79061 -3.0739 0
M  V30 731 N 65.2085 -3.6017 -4.55256 0
M  V30 732 H 67.9735 -2.94886 -0.535029 0
M  V30 733 H 65.5345 -1.61252 -0.144681 0
M  V30 734 H 67.5265 -2.66034 -3.04972 0
M  V30 735 H 66.0965 -1.68245 -2.63463 0
M  V30 736 H 65.3165 -3.74129 -1.24183 0
M  V30 737 H 66.6045 -4.66126 -2.03971 0
M  V30 738 H 66.0025 -3.03512 -4.77386 0
M  V30 739 H 64.5595 -3.81532 -5.28466 0
M  V30 740 N 67.9926 0.231505 -1.5589 0
M  V30 741 C 68.9026 1.308 -1.94752 0
M  V30 742 C 69.9186 1.51826 -0.849989 0
M  V30 743 O 71.0946 1.6515 -1.15271 0
M  V30 744 C 68.1596 2.63968 -2.24771 0
M  V30 745 C 67.2206 2.51331 -3.48039 0
M  V30 746 C 66.4536 3.78148 -3.76616 0
M  V30 747 O 66.6766 4.80722 -3.07022 0
M  V30 748 O 65.6106 3.75857 -4.70123 0
M  V30 749 H 69.4366 1.0083 -2.86474 0
M  V30 750 H 67.0216 0.433547 -1.42971 0
M  V30 751 H 68.9036 3.42633 -2.45318 0
M  V30 752 H 67.5786 2.9364 -1.36225 0
M  V30 753 H 66.4856 1.709 -3.32782 0
M  V30 754 H 67.8186 2.26601 -4.36936 0
M  V30 755 N 69.4707 1.49531 0.497807 0
M  V30 756 C 70.4337 1.65916 1.58128 0
M  V30 757 C 71.4337 0.530825 1.51786 0
M  V30 758 O 72.6237 0.797342 1.54881 0
M  V30 759 C 69.7557 1.65951 2.9778 0
M  V30 760 H 70.9487 2.62556 1.44929 0
M  V30 761 H 68.5017 1.38611 0.722275 0
M  V30 762 H 69.2367 0.709065 3.16453 0
M  V30 763 H 69.0217 2.47897 3.03792 0
M  V30 764 H 70.5117 1.80673 3.76493 0
M  V30 765 N 70.9488 -0.749086 1.3866 0
M  V30 766 C 71.8808 -1.87273 1.32142 0
M  V30 767 C 72.8938 -1.61127 0.232787 0
M  V30 768 O 74.0828 -1.71623 0.49069 0
M  V30 769 C 71.1828 -3.23005 1.02571 0
M  V30 770 C 70.3558 -3.7662 2.22433 0
M  V30 771 C 69.4148 -4.90879 1.89537 0
M  V30 772 O 68.4408 -5.05276 2.62078 0
M  V30 773 N 69.6428 -5.74198 0.853031 0
M  V30 774 H 72.4078 -1.93373 2.28969 0
M  V30 775 H 69.9688 -0.929216 1.32579 0
M  V30 776 H 71.9608 -3.96992 0.786085 0
M  V30 777 H 70.5308 -3.12262 0.145249 0
M  V30 778 H 69.7508 -2.94147 2.62434 0
M  V30 779 H 71.0388 -4.09173 3.02415 0
M  V30 780 H 70.4368 -5.6514 0.25155 0
M  V30 781 H 68.9938 -6.48313 0.67329 0
M  V30 782 N 72.4269 -1.23603 -0.977757 0
M  V30 783 C 73.6759 -1.06377 -1.71368 0
M  V30 784 C 73.9889 0.399062 -1.91486 0
M  V30 785 O 75.1949 0.691312 -2.62551 0
M  V30 786 C 73.6509 -1.85512 -3.08404 0
M  V30 787 C 73.2589 -3.36141 -2.96164 0
M  V30 788 C 75.0029 -1.76783 -3.85938 0
M  V30 789 C 72.9099 -4.07659 -4.28449 0
M  V30 790 H 71.8399 -0.394452 -0.642591 0
M  V30 791 H 74.4909 -1.47594 -1.09034 0
M  V30 792 H 72.8729 -1.37103 -3.71509 0
M  V30 793 H 74.0469 -3.92056 -2.42133 0
M  V30 794 H 72.3619 -3.45712 -2.32104 0
M  V30 795 H 74.9589 -2.27526 -4.83876 0
M  V30 796 H 75.3019 -0.731116 -4.0983 0
M  V30 797 H 75.8349 -2.22818 -3.2954 0
M  V30 798 H 72.5739 -5.11648 -4.09752 0
M  V30 799 H 72.0939 -3.5653 -4.82334 0
M  V30 800 H 73.7729 -4.141 -4.97122 0
M  V30 801 N 73.905 1.17692 -1.04816 0
M  V30 802 C 74.868 2.19787 -0.650117 0
M  V30 803 C 75.868 1.58044 0.296427 0
M  V30 804 O 77.058 1.74012 0.0808097 0
M  V30 805 C 74.19 3.40869 0.0456987 0
M  V30 806 H 75.383 2.56516 -1.5537 0
M  V30 807 H 72.936 1.31708 -0.841594 0
M  V30 808 H 73.671 3.09681 0.962726 0
M  V30 809 H 73.456 3.86928 -0.634727 0
M  V30 810 H 74.946 4.16445 0.310432 0
M  V30 811 N 75.3831 0.828654 1.34056 0
M  V30 812 C 76.3301 0.252567 2.29414 0
M  V30 813 C 77.3001 -0.62588 1.53857 0
M  V30 814 O 78.4851 -0.566312 1.82202 0
M  V30 815 C 75.6251 -0.574831 3.40279 0
M  V30 816 C 74.7381 0.326499 4.30764 0
M  V30 817 C 73.8731 -0.511016 5.28736 0
M  V30 818 C 72.9121 0.389342 6.1086 0
M  V30 819 N 72.0491 -0.409439 7.00905 0
M  V30 820 H 76.8891 1.07108 2.78086 0
M  V30 821 H 74.4261 0.539677 1.36843 0
M  V30 822 H 76.3841 -1.06992 4.03248 0
M  V30 823 H 75.0141 -1.35841 2.92826 0
M  V30 824 H 74.0661 0.939837 3.68607 0
M  V30 825 H 75.3781 1.01857 4.88289 0
M  V30 826 H 74.5321 -1.07035 5.97184 0
M  V30 827 H 73.2711 -1.23657 4.71763 0
M  V30 828 H 72.2761 0.960769 5.4134 0
M  V30 829 H 73.5011 1.1131 6.69916 0
M  V30 830 H 71.4471 -1.11856 6.46393 0
M  V30 831 H 71.3641 0.224126 7.55668 0
M  V30 832 H 72.6321 -0.951336 7.73673 0
M  V30 833 N 76.8612 -1.46375 0.584142 0
M  V30 834 C 78.1102 -2.01585 0.0679741 0
M  V30 835 C 78.4232 -1.46109 -1.30045 0
M  V30 836 O 79.6292 -1.93148 -1.90804 0
M  V30 837 C 78.0852 -3.5983 0.0709207 0
M  V30 838 C 77.6932 -4.24303 1.43775 0
M  V30 839 C 79.4372 -4.22693 -0.391228 0
M  V30 840 C 77.3442 -5.74631 1.39834 0
M  V30 841 H 76.2742 -0.753689 0.0216421 0
M  V30 842 H 78.9252 -1.68093 0.736001 0
M  V30 843 H 77.3072 -3.90405 -0.663299 0
M  V30 844 H 78.4812 -4.05335 2.19181 0
M  V30 845 H 76.7962 -3.73539 1.84004 0
M  V30 846 H 79.3932 -5.3289 -0.439524 0
M  V30 847 H 79.7362 -3.91728 -1.40906 0
M  V30 848 H 80.2692 -3.96749 0.288974 0
M  V30 849 H 77.0082 -6.10258 2.39303 0
M  V30 850 H 76.5282 -5.95858 0.686505 0
M  V30 851 H 78.2072 -6.37375 1.11187 0
M  V30 852 N 78.3393 -0.321999 -1.54275 0
M  V30 853 C 79.6163 0.335232 -1.92706 0
M  V30 854 C 79.9963 1.70006 -1.25145 0
M  V30 855 O 79.3443 2.25067 -0.394596 0
M  V30 856 C 79.5543 0.429008 -3.46353 0
M  V30 857 C 80.9023 0.690029 -4.18956 0
M  V30 858 O 81.9263 0.511992 -3.52501 0
M  V30 859 O 80.7853 1.03338 -5.36641 0
M  V30 860 H 77.8793 0.191143 -0.804608 0
M  V30 861 H 80.4253 -0.3716 -1.65581 0
M  V30 862 H 79.1973 -0.529611 -3.87699 0
M  V30 863 H 78.8203 1.18348 -3.79578 0
M  V30 864 N 79.8174 1.5752 -0.0501392 0
M  V30 865 C 80.7474 2.14502 0.922566 0
M  V30 866 C 81.7284 1.06642 1.3252 0
M  V30 867 O 82.9134 1.34577 1.4001 0
M  V30 868 C 80.0434 2.68916 2.19776 0
M  V30 869 C 78.9974 3.8175 1.93523 0
M  V30 870 C 78.3234 4.22677 3.27487 0
M  V30 871 C 79.6234 5.06932 1.25765 0
M  V30 872 H 81.3174 2.9603 0.447952 0
M  V30 873 H 78.8634 1.42401 0.214024 0
M  V30 874 H 80.8164 3.07419 2.88222 0
M  V30 875 H 79.5404 1.84578 2.69441 0
M  V30 876 H 78.1994 3.43718 1.27489 0
M  V30 877 H 77.8474 3.35291 3.74952 0
M  V30 878 H 77.5474 4.98725 3.1072 0
M  V30 879 H 79.0714 4.63779 3.97166 0
M  V30 880 H 80.4854 5.42888 1.84244 0
M  V30 881 H 78.8824 5.88116 1.19328 0
M  V30 882 H 79.9524 4.84337 0.233536 0
M  V30 883 N 81.2955 -0.223234 1.56011 0
M  V30 884 C 82.2585 -1.26014 1.9145 0
M  V30 885 C 83.2585 -1.3989 0.792937 0
M  V30 886 O 84.4485 -1.38184 1.0607 0
M  V30 887 C 81.5805 -2.63422 2.16383 0
M  V30 888 H 82.7735 -0.95796 2.84189 0
M  V30 889 H 80.3265 -0.463576 1.49267 0
M  V30 890 H 81.0615 -2.98741 1.2619 0
M  V30 891 H 80.8465 -2.54728 2.98088 0
M  V30 892 H 82.3365 -3.38249 2.44903 0
M  V30 893 N 82.7736 -1.49793 -0.48987 0
M  V30 894 C 83.7036 -1.70201 -1.59856 0
M  V30 895 C 84.6846 -0.55076 -1.60937 0
M  V30 896 O 85.8696 -0.787841 -1.77501 0
M  V30 897 C 82.9996 -1.77882 -2.98287 0
M  V30 898 C 81.9536 -2.92907 -3.12073 0
M  V30 899 C 81.2796 -2.85712 -4.51965 0
M  V30 900 C 82.5796 -4.3369 -2.91051 0
M  V30 901 H 84.2736 -2.63025 -1.43032 0
M  V30 902 H 81.8196 -1.26574 -0.686664 0
M  V30 903 H 83.7726 -1.90744 -3.75759 0
M  V30 904 H 82.4966 -0.816653 -3.16225 0
M  V30 905 H 81.1556 -2.79665 -2.37029 0
M  V30 906 H 80.8036 -1.8738 -4.66795 0
M  V30 907 H 80.5036 -3.62921 -4.62128 0
M  V30 908 H 82.0276 -3.00598 -5.31482 0
M  V30 909 H 83.4416 -4.47555 -3.58284 0
M  V30 910 H 81.8386 -5.12205 -3.12675 0
M  V30 911 H 82.9086 -4.47362 -1.87071 0
M  V30 912 N 84.2517 0.741722 -1.39055 0
M  V30 913 C 85.4997 1.49818 -1.35643 0
M  V30 914 C 85.8207 1.94938 0.0491642 0
M  V30 915 O 85.0907 1.68505 0.999141 0
M  V30 916 H 83.6707 0.555755 -0.499144 0
M  V30 917 H 86.3327 0.880957 -1.73854 0
M  V30 918 H 85.4287 2.38348 -2.01486 0
M  V30 919 N 85.7298 1.2412 0.971189 0
M  V30 920 C 86.6768 1.0305 2.06517 0
M  V30 921 C 87.6468 -0.0550666 1.66009 0
M  V30 922 O 88.8318 0.0988688 1.90544 0
M  V30 923 C 85.9718 0.637653 3.39158 0
M  V30 924 C 85.0848 1.79633 3.92882 0
M  V30 925 C 84.2198 1.34939 5.13775 0
M  V30 926 C 83.2588 2.47823 5.59687 0
M  V30 927 N 82.3958 2.04022 6.71803 0
M  V30 928 H 87.2358 1.96685 2.23873 0
M  V30 929 H 84.7728 0.979694 1.09729 0
M  V30 930 H 86.7308 0.390931 4.15364 0
M  V30 931 H 85.3608 -0.261693 3.21737 0
M  V30 932 H 84.4128 2.15681 3.13346 0
M  V30 933 H 85.7248 2.64466 4.22918 0
M  V30 934 H 84.8788 1.06134 5.97345 0
M  V30 935 H 83.6178 0.471557 4.85415 0
M  V30 936 H 82.6228 2.77392 4.74693 0
M  V30 937 H 83.8478 3.36158 5.90063 0
M  V30 938 H 81.7938 1.18632 6.45184 0
M  V30 939 H 81.7108 2.82409 7.01271 0
M  V30 940 H 82.9788 1.78347 7.58823 0
M  V30 941 N 87.2079 -1.17134 1.05439 0
M  V30 942 C 88.1379 -2.2342 0.678649 0
M  V30 943 C 89.1189 -1.66971 -0.32476 0
M  V30 944 O 90.3039 -1.93149 -0.201802 0
M  V30 945 C 87.4339 -3.47256 0.0552099 0
M  V30 946 C 86.3879 -4.16543 0.98365 0
M  V30 947 C 85.7139 -5.34231 0.223961 0
M  V30 948 C 87.0139 -4.68495 2.3089 0
M  V30 949 H 88.7079 -2.55105 1.56722 0
M  V30 950 H 86.2539 -1.2262 0.754998 0
M  V30 951 H 88.2069 -4.20828 -0.21946 0
M  V30 952 H 86.9309 -3.14846 -0.868319 0
M  V30 953 H 85.5899 -3.44887 1.24293 0
M  V30 954 H 85.2379 -4.98071 -0.702412 0
M  V30 955 H 84.9379 -5.81527 0.842627 0
M  V30 956 H 86.4619 -6.10585 -0.0433671 0
M  V30 957 H 87.8759 -5.33691 2.09396 0
M  V30 958 H 86.2729 -5.26379 2.88176 0
M  V30 959 H 87.3429 -3.85169 2.94572 0
M  V30 960 N 88.686 -0.835752 -1.33615 0
M  V30 961 C 89.934 -0.429109 -1.97492 0
M  V30 962 C 90.255 1.01433 -1.66543 0
M  V30 963 O 89.525 1.70611 -0.962744 0
M  V30 964 H 88.105 -0.155686 -0.730596 0
M  V30 965 H 90.767 -1.06802 -1.63031 0
M  V30 966 H 89.863 -0.55861 -3.0706 0
M  V30 967 N 90.1641 1.46063 -0.591896 0
M  V30 968 C 91.0941 2.33172 0.123673 0
M  V30 969 C 92.0751 1.45897 0.87453 0
M  V30 970 O 93.2601 1.74698 0.848181 0
M  V30 971 C 90.3901 3.28336 1.13194 0
M  V30 972 C 89.3441 4.25124 0.495324 0
M  V30 973 C 88.6701 5.09863 1.61071 0
M  V30 974 C 89.9701 5.19143 -0.573425 0
M  V30 975 H 91.6641 2.93252 -0.603646 0
M  V30 976 H 89.2101 1.41014 -0.291741 0
M  V30 977 H 91.1631 3.88137 1.64097 0
M  V30 978 H 89.8871 2.66383 1.88965 0
M  V30 979 H 88.5461 3.66599 0.00729452 0
M  V30 980 H 88.1941 4.44288 2.35832 0
M  V30 981 H 87.8941 5.75417 1.19035 0
M  V30 982 H 89.4181 5.72529 2.12233 0
M  V30 983 H 90.8321 5.73106 -0.1491 0
M  V30 984 H 89.2291 5.93089 -0.914636 0
M  V30 985 H 90.2991 4.62519 -1.45617 0
M  V30 986 N 91.6422 0.330177 1.54103 0
M  V30 987 C 92.5742 -0.566902 2.22079 0
M  V30 988 C 93.5872 -1.07462 1.22294 0
M  V30 989 O 94.7762 -0.987065 1.48726 0
M  V30 990 C 91.8762 -1.79138 2.87685 0
M  V30 991 C 91.0492 -1.42123 4.13666 0
M  V30 992 C 90.1082 -2.50394 4.62806 0
M  V30 993 O 89.1342 -2.14261 5.27334 0
M  V30 994 N 90.3362 -3.81433 4.37595 0
M  V30 995 H 93.1012 0.0151844 2.99696 0
M  V30 996 H 90.6622 0.153681 1.61169 0
M  V30 997 H 92.6542 -2.50975 3.1748 0
M  V30 998 H 91.2242 -2.28115 2.13734 0
M  V30 999 H 90.4442 -0.534201 3.90564 0
M  V30 1000 H 91.7322 -1.14971 4.9564 0
M  V30 1001 H 91.1302 -4.13584 3.8596 0
M  V30 1002 H 89.6872 -4.4948 4.72029 0
M  V30 1003 N 93.1203 -1.57491 0.0584922 0
M  V30 1004 C 94.5313 -1.80526 -0.476138 0
M  V30 1005 C 94.8823 -0.971334 -1.70469 0
M  V30 1006 O 94.0073 -0.190012 -2.15564 0
M  V30 1007 C 94.6023 -3.27424 -0.870587 0
M  V30 1008 C 93.1613 -3.51351 -1.35015 0
M  V30 1009 C 92.3083 -2.75343 -0.32887 0
M  V30 1010 H 95.2593 -1.56133 0.284312 0
M  V30 1011 H 95.2803 -3.38745 -1.73299 0
M  V30 1012 H 94.7923 -3.88093 0.0237627 0
M  V30 1013 H 92.8933 -2.95971 -2.26345 0
M  V30 1014 H 93.0063 -4.60059 -1.33726 0
M  V30 1015 H 91.3703 -2.417 -0.803321 0
M  V30 1016 H 92.1533 -3.38743 0.557521 0
M  V30 1017 N 94.5984 0.214957 -1.56127 0
M  V30 1018 C 95.8464 0.936518 -1.79091 0
M  V30 1019 C 96.1674 1.84606 -0.628148 0
M  V30 1020 O 95.4374 1.92664 0.35462 0
M  V30 1021 H 94.0174 0.3488 -0.660566 0
M  V30 1022 H 96.6794 0.22523 -1.93594 0
M  V30 1023 H 95.7754 1.53943 -2.71492 0
M  V30 1024 N 96.0765 1.50051 0.48192 0
M  V30 1025 C 97.0095 1.62749 1.59963 0
M  V30 1026 C 97.9875 0.475903 1.5548 0
M  V30 1027 O 99.1715 0.693986 1.7526 0
M  V30 1028 C 96.2985 1.60008 2.98522 0
M  V30 1029 C 95.3445 2.80596 3.21198 0
M  V30 1030 S 96.1775 4.42038 3.02262 0
M  V30 1031 C 97.3335 4.41973 4.43182 0
M  V30 1032 H 97.5665 2.57296 1.4895 0
M  V30 1033 H 95.0995 1.39179 0.668477 0
M  V30 1034 H 97.0575 1.59112 3.78409 0
M  V30 1035 H 95.7185 0.667153 3.06933 0
M  V30 1036 H 94.9115 2.74952 4.22395 0
M  V30 1037 H 94.5135 2.79003 2.49065 0
M  V30 1038 H 96.8055 4.14868 5.35622 0
M  V30 1039 H 97.7485 5.43512 4.53873 0
M  V30 1040 H 98.1565 3.71812 4.24755 0
M  V30 1041 N 97.5546 -0.734337 1.39446 0
M  V30 1042 C 98.7826 -1.52358 1.39981 0
M  V30 1043 C 99.1976 -1.88799 -0.0054975 0
M  V30 1044 O 98.5546 -1.54146 -0.976998 0
M  V30 1045 C 98.6056 -2.81072 2.27333 0
M  V30 1046 O 98.3266 -2.46178 3.62392 0
M  V30 1047 C 99.8276 -3.75096 2.36259 0
M  V30 1048 H 97.0476 -0.470806 0.478103 0
M  V30 1049 H 99.5916 -0.907339 1.83269 0
M  V30 1050 H 97.7466 -3.39026 1.87457 0
M  V30 1051 H 98.1606 -3.28866 4.08592 0
M  V30 1052 H 99.6346 -4.62305 3.01626 0
M  V30 1053 H 100.112 -4.16892 1.38194 0
M  V30 1054 H 100.718 -3.23061 2.76608 0
M  V30 1055 N 99.0327 -1.24633 -0.964593 0
M  V30 1056 C 99.9627 -1.06611 -2.07741 0
M  V30 1057 C 100.944 0.0218666 -1.70086 0
M  V30 1058 O 102.129 -0.145793 -1.93652 0
M  V30 1059 C 99.2587 -0.673444 -3.40708 0
M  V30 1060 C 98.2127 -1.71054 -3.92332 0
M  V30 1061 C 97.5387 -1.17285 -5.21678 0
M  V30 1062 C 98.8387 -3.10718 -4.19824 0
M  V30 1063 H 100.533 -1.99693 -2.23076 0
M  V30 1064 H 98.0787 -0.96152 -1.07195 0
M  V30 1065 H 100.032 -0.534345 -4.17998 0
M  V30 1066 H 98.7557 0.293073 -3.25282 0
M  V30 1067 H 97.4147 -1.83791 -3.17201 0
M  V30 1068 H 97.0627 -0.196847 -5.02615 0
M  V30 1069 H 96.7627 -1.86592 -5.57187 0
M  V30 1070 H 98.2867 -1.04593 -6.01575 0
M  V30 1071 H 99.7007 -3.01192 -4.87808 0
M  V30 1072 H 98.0977 -3.77406 -4.66567 0
M  V30 1073 H 99.1677 -3.58524 -3.26479 0
M  V30 1074 N 100.511 1.16574 -1.06058 0
M  V30 1075 C 101.441 2.23057 -0.690488 0
M  V30 1076 C 102.422 1.67141 0.315901 0
M  V30 1077 O 103.607 1.93253 0.191556 0
M  V30 1078 C 100.737 3.47222 -0.073625 0
M  V30 1079 C 99.6908 4.16016 -1.00573 0
M  V30 1080 C 99.0168 5.34104 -0.252289 0
M  V30 1081 C 100.317 4.67264 -2.33371 0
M  V30 1082 H 102.011 2.54271 -1.58072 0
M  V30 1083 H 99.5568 1.22218 -0.76149 0
M  V30 1084 H 101.51 4.20939 0.19714 0
M  V30 1085 H 100.234 3.15302 0.85161 0
M  V30 1086 H 98.8928 3.44223 -1.2612 0
M  V30 1087 H 98.5408 4.98437 0.675988 0
M  V30 1088 H 98.2408 5.81072 -0.873455 0
M  V30 1089 H 99.7648 6.10599 0.0109857 0
M  V30 1090 H 101.179 5.32573 -2.12223 0
M  V30 1091 H 99.5758 5.24843 -2.90963 0
M  V30 1092 H 100.646 3.83602 -2.96611 0
M  V30 1093 N 101.989 0.842826 1.3317 0
M  V30 1094 C 103.266 0.362216 1.92217 0
M  V30 1095 C 103.646 -1.15289 1.76838 0
M  V30 1096 O 102.994 -1.96914 1.15919 0
M  V30 1097 C 103.204 0.813495 3.39387 0
M  V30 1098 C 104.552 0.823804 4.16532 0
M  V30 1099 O 105.576 0.757358 3.48055 0
M  V30 1100 O 104.435 0.915193 5.38782 0
M  V30 1101 H 101.529 0.103317 0.820521 0
M  V30 1102 H 104.075 0.928942 1.42017 0
M  V30 1103 H 102.847 1.85624 3.4447 0
M  V30 1104 H 102.47 0.223561 3.96971 0
M  V30 1105 N 103.467 -1.45747 0.599634 0
M  V30 1106 C 104.713 -2.02592 0.0918643 0
M  V30 1107 C 105.046 -1.46806 -1.27128 0
M  V30 1108 O 104.321 -0.639658 -1.83681 0
M  V30 1109 C 104.604 -3.60073 0.0443398 0
M  V30 1110 C 104.457 -4.26208 1.43759 0
M  V30 1111 C 105.776 -4.35309 -0.647608 0
M  V30 1112 H 102.895 -0.736175 0.034857 0
M  V30 1113 H 105.537 -1.73694 0.770081 0
M  V30 1114 H 103.687 -3.84823 -0.533224 0
M  V30 1115 H 105.359 -4.12668 2.06162 0
M  V30 1116 H 103.602 -3.84916 2.00056 0
M  V30 1117 H 104.273 -5.35069 1.35665 0
M  V30 1118 H 106.749 -4.15805 -0.156776 0
M  V30 1119 H 105.625 -5.45038 -0.649942 0
M  V30 1120 H 105.886 -4.07598 -1.71219 0
M  V30 1121 N 104.945 -0.338344 -1.53925 0
M  V30 1122 C 106.193 0.259245 -2.0043 0
M  V30 1123 C 106.514 1.51484 -1.22791 0
M  V30 1124 O 105.784 1.93037 -0.33368 0
M  V30 1125 H 104.364 0.0987845 -0.740439 0
M  V30 1126 H 107.026 -0.458302 -1.89435 0
M  V30 1127 H 106.122 0.505334 -3.07982 0
M  V30 1128 N 106.423 1.57458 -0.0668435 0
M  V30 1129 C 107.663 1.95175 0.607116 0
M  V30 1130 C 108.027 0.946039 1.67075 0
M  V30 1131 O 109.228 1.2107 2.39991 0
M  V30 1132 C 107.499 3.37582 1.17358 0
M  V30 1133 S 109.058 3.97271 1.86336 0
M  V30 1134 H 105.876 0.682604 0.19893 0
M  V30 1135 H 108.478 1.95002 -0.139519 0
M  V30 1136 H 107.182 4.08566 0.387553 0
M  V30 1137 H 106.713 3.41288 1.95669 0
M  V30 1138 H 108.728 3.83772 3.14537 0
M  V30 1139 N 107.901 -0.206675 1.56239 0
M  V30 1140 C 109.149 -0.927007 1.79586 0
M  V30 1141 C 109.47 -1.8427 0.637929 0
M  V30 1142 O 108.74 -1.92849 -0.344398 0
M  V30 1143 H 107.32 -0.345292 0.662407 0
M  V30 1144 H 109.982 -0.21496 1.93711 0
M  V30 1145 H 109.078 -1.52501 2.72305 0
M  V30 1146 N 109.379 -1.50304 -0.473955 0
M  V30 1147 C 110.625 -1.62358 -1.22521 0
M  V30 1148 C 110.98 -0.318555 -1.89745 0
M  V30 1149 O 110.273 0.683315 -1.79001 0
M  V30 1150 C 110.467 -2.73938 -2.29549 0
M  V30 1151 C 110.296 -4.15165 -1.72825 0
M  V30 1152 C 109.066 -4.81604 -1.52924 0
M  V30 1153 C 111.264 -4.99503 -1.22481 0
M  V30 1154 N 109.246 -6.07056 -0.91413 0
M  V30 1155 C 110.617 -6.15655 -0.732743 0
M  V30 1156 C 112.672 -4.85299 -1.11308 0
M  V30 1157 C 111.375 -7.19164 -0.139976 0
M  V30 1158 C 113.401 -5.88982 -0.534258 0
M  V30 1159 C 112.763 -7.0438 -0.0525562 0
M  V30 1160 H 108.862 -0.648286 -0.437321 0
M  V30 1161 H 111.446 -1.87413 -0.527692 0
M  V30 1162 H 109.617 -2.50611 -2.9673 0
M  V30 1163 H 111.349 -2.75366 -2.96573 0
M  V30 1164 H 108.104 -4.3885 -1.78067 0
M  V30 1165 H 108.528 -6.74108 -0.625071 0
M  V30 1166 H 113.17 -3.96369 -1.47144 0
M  V30 1167 H 110.888 -8.07771 0.230591 0
M  V30 1168 H 114.474 -5.80055 -0.450219 0
M  V30 1169 H 113.354 -7.83238 0.388324 0
M  V30 1170 N 110.857 0.726932 -1.39834 0
M  V30 1171 C 112.105 1.4837 -1.37225 0
M  V30 1172 C 112.426 1.94979 0.0284857 0
M  V30 1173 O 111.696 1.69555 0.981213 0
M  V30 1174 H 110.276 0.55043 -0.505011 0
M  V30 1175 H 112.938 0.862468 -1.74778 0
M  V30 1176 H 112.034 2.36198 -2.04003 0
M  V30 1177 N 112.336 1.25143 0.95797 0
M  V30 1178 C 113.299 1.05321 2.03569 0
M  V30 1179 C 114.299 0.007152 1.60798 0
M  V30 1180 O 115.489 0.24903 1.72411 0
M  V30 1181 C 112.621 0.598394 3.35607 0
M  V30 1182 H 113.814 2.00986 2.22586 0
M  V30 1183 H 111.367 1.07502 1.13459 0
M  V30 1184 H 112.102 -0.361014 3.22284 0
M  V30 1185 H 111.887 1.35351 3.67998 0
M  V30 1186 H 113.377 0.48104 4.1482 0
M  V30 1187 N 113.814 -1.1601 1.06675 0
M  V30 1188 C 115.042 -1.90527 0.806667 0
M  V30 1189 C 115.457 -1.77643 -0.639396 0
M  V30 1190 O 114.814 -1.12369 -1.43803 0
M  V30 1191 C 114.865 -3.41106 1.19705 0
M  V30 1192 O 114.586 -3.53608 2.58636 0
M  V30 1193 C 116.087 -4.32663 0.965266 0
M  V30 1194 H 113.307 -0.604053 0.292166 0
M  V30 1195 H 115.851 -1.47026 1.4214 0
M  V30 1196 H 114.006 -3.82296 0.626774 0
M  V30 1197 H 114.42 -4.47011 2.74375 0
M  V30 1198 H 115.894 -5.36763 1.288 0
M  V30 1199 H 116.371 -4.39089 -0.0987936 0
M  V30 1200 H 116.977 -3.97206 1.52011 0
M  V30 1201 N 115.292 -0.849877 -1.32721 0
M  V30 1202 C 116.225 -0.235903 -2.26977 0
M  V30 1203 C 117.203 0.623355 -1.50177 0
M  V30 1204 O 118.387 0.581207 -1.79316 0
M  V30 1205 C 115.514 0.667712 -3.32053 0
M  V30 1206 C 114.56 -0.11753 -4.26338 0
M  V30 1207 S 115.393 -1.48277 -5.14562 0
M  V30 1208 C 116.549 -0.584741 -6.23163 0
M  V30 1209 H 116.782 -1.03495 -2.78704 0
M  V30 1210 H 114.315 -0.64724 -1.40179 0
M  V30 1211 H 116.273 1.18343 -3.93072 0
M  V30 1212 H 114.934 1.44052 -2.7912 0
M  V30 1213 H 114.127 0.57051 -5.00761 0
M  V30 1214 H 113.729 -0.564668 -3.69713 0
M  V30 1215 H 116.021 0.212968 -6.77165 0
M  V30 1216 H 116.964 -1.29947 -6.96074 0
M  V30 1217 H 117.372 -0.161202 -5.6427 0
M  V30 1218 N 116.77 1.45427 -0.607355 0
M  V30 1219 C 117.703 2.27635 0.160482 0
M  V30 1220 C 118.681 1.37122 0.873857 0
M  V30 1221 O 119.865 1.66551 0.882775 0
M  V30 1222 C 116.992 3.15486 1.23231 0
M  V30 1223 C 116.038 4.21939 0.622097 0
M  V30 1224 S 116.871 5.32459 -0.569852 0
M  V30 1225 C 118.027 6.23879 0.502577 0
M  V30 1226 H 118.26 2.9241 -0.536983 0
M  V30 1227 H 115.793 1.49265 -0.394868 0
M  V30 1228 H 117.751 3.66659 1.84585 0
M  V30 1229 H 116.412 2.49977 1.90185 0
M  V30 1230 H 115.605 4.8333 1.42856 0
M  V30 1231 H 115.207 3.73906 0.0837063 0
M  V30 1232 H 117.499 6.63261 1.38171 0
M  V30 1233 H 118.442 7.0806 -0.0751759 0
M  V30 1234 H 118.85 5.58545 0.8178 0
M  V30 1235 N 118.248 0.346503 1.53744 0
M  V30 1236 C 119.664 -0.00530975 1.59599 0
M  V30 1237 C 119.864 -1.48465 1.36236 0
M  V30 1238 O 118.92 -2.24376 1.15808 0
M  V30 1239 C 120.233 0.433516 2.97559 0
M  V30 1240 C 121.781 0.386111 3.10609 0
M  V30 1241 C 122.256 0.800451 4.50951 0
M  V30 1242 N 123.747 0.754753 4.5701 0
M  V30 1243 C 124.482 1.04727 5.63755 0
M  V30 1244 N 123.978 1.4081 6.7834 0
M  V30 1245 N 125.771 0.971316 5.53644 0
M  V30 1246 H 117.922 1.31009 1.67184 0
M  V30 1247 H 120.185 0.534242 0.783128 0
M  V30 1248 H 119.891 1.46509 3.19731 0
M  V30 1249 H 119.765 -0.189753 3.76722 0
M  V30 1250 H 122.152 -0.636295 2.88158 0
M  V30 1251 H 122.233 1.04462 2.33498 0
M  V30 1252 H 121.877 1.82088 4.74137 0
M  V30 1253 H 121.807 0.119386 5.26465 0
M  V30 1254 H 124.298 0.488662 3.74727 0
M  V30 1255 H 124.611 1.61607 7.55714 0
M  V30 1256 H 122.956 1.44657 6.79779 0
M  V30 1257 H 126.147 0.688748 4.63005 0
M  V30 1258 H 126.32 1.20263 6.36742 0
M  V30 1259 N 119.726 -1.57421 0.075193 0
M  V30 1260 C 120.689 -2.11791 -0.876203 0
M  V30 1261 C 121.689 -1.04268 -1.22412 0
M  V30 1262 O 122.879 -1.30242 -1.15684 0
M  V30 1263 C 120.011 -2.62207 -2.17854 0
M  V30 1264 H 121.204 -2.9716 -0.40444 0
M  V30 1265 H 118.757 -1.55333 -0.173557 0
M  V30 1266 H 119.492 -1.803 -2.6956 0
M  V30 1267 H 119.277 -3.40802 -1.93897 0
M  V30 1268 H 120.767 -3.04335 -2.85955 0
M  V30 1269 N 121.204 0.198386 -1.56346 0
M  V30 1270 C 122.45 0.920648 -1.80698 0
M  V30 1271 C 122.783 1.83045 -0.648697 0
M  V30 1272 O 122.058 1.91308 0.350925 0
M  V30 1273 C 122.341 1.73971 -3.15287 0
M  V30 1274 C 122.194 0.85485 -4.41602 0
M  V30 1275 C 123.513 2.71296 -3.46535 0
M  V30 1276 H 120.632 0.333261 -0.657348 0
M  V30 1277 H 123.274 0.188198 -1.89066 0
M  V30 1278 H 121.424 2.36416 -3.08285 0
M  V30 1279 H 123.096 0.245362 -4.60647 0
M  V30 1280 H 121.339 0.161398 -4.335 0
M  V30 1281 H 122.01 1.46286 -5.32264 0
M  V30 1282 H 124.486 2.18983 -3.53816 0
M  V30 1283 H 123.362 3.2569 -4.41834 0
M  V30 1284 H 123.623 3.5018 -2.69864 0
M  V30 1285 N 122.682 1.50554 0.465978 0
M  V30 1286 C 123.592 1.72585 1.58907 0
M  V30 1287 C 124.608 0.60911 1.6299 0
M  V30 1288 O 125.784 0.88804 1.80765 0
M  V30 1289 C 122.849 1.81995 2.95091 0
M  V30 1290 C 121.91 3.05751 3.01355 0
M  V30 1291 C 121.143 3.14702 4.31043 0
M  V30 1292 O 121.366 2.30313 5.21835 0
M  V30 1293 O 120.3 4.07468 4.43005 0
M  V30 1294 H 124.126 2.67799 1.43239 0
M  V30 1295 H 121.711 1.34711 0.646013 0
M  V30 1296 H 123.593 1.90335 3.75966 0
M  V30 1297 H 122.268 0.899659 3.10947 0
M  V30 1298 H 121.175 3.02908 2.19539 0
M  V30 1299 H 122.508 3.97375 2.90437 0
M  V30 1300 N 124.16 -0.719506 1.40217 0
M  V30 1301 C 125.107 -1.83359 1.40172 0
M  V30 1302 C 126.077 -1.64065 0.259206 0
M  V30 1303 O 127.262 -1.85254 0.456677 0
M  V30 1304 C 124.402 -3.2103 1.26624 0
M  V30 1305 C 123.515 -3.51923 2.50548 0
M  V30 1306 C 122.65 -4.79079 2.29471 0
M  V30 1307 C 121.689 -5.02863 3.48992 0
M  V30 1308 N 120.826 -6.2123 3.27135 0
M  V30 1309 H 125.666 -1.82733 2.35399 0
M  V30 1310 H 123.203 -0.892688 1.16917 0
M  V30 1311 H 125.161 -4.00524 1.16776 0
M  V30 1312 H 123.791 -3.20895 0.350176 0
M  V30 1313 H 122.843 -2.67014 2.70939 0
M  V30 1314 H 124.155 -3.6541 3.39525 0
M  V30 1315 H 123.309 -5.66582 2.16955 0
M  V30 1316 H 122.048 -4.67794 1.37913 0
M  V30 1317 H 121.053 -4.13816 3.6199 0
M  V30 1318 H 122.278 -5.16023 4.41472 0
M  V30 1319 H 120.224 -6.11204 2.38256 0
M  V30 1320 H 120.141 -6.35375 4.09675 0
M  V30 1321 H 121.409 -7.11532 3.18344 0
M  V30 1322 N 125.638 -1.25649 -0.95132 0
M  V30 1323 C 126.868 -1.13179 -1.72841 0
M  V30 1324 C 127.276 0.316827 -1.86528 0
M  V30 1325 O 126.619 1.22948 -1.3649 0
M  V30 1326 C 126.681 -1.71644 -3.15878 0
M  V30 1327 C 126.345 -3.20667 -3.25609 0
M  V30 1328 C 127.342 -4.17616 -3.09666 0
M  V30 1329 C 125.027 -3.6094 -3.49324 0
M  V30 1330 C 127.021 -5.52817 -3.17289 0
M  V30 1331 C 124.708 -4.96278 -3.56584 0
M  V30 1332 C 125.706 -5.92025 -3.40581 0
M  V30 1333 O 125.394 -7.24899 -3.47528 0
M  V30 1334 H 125.126 -0.395389 -0.54831 0
M  V30 1335 H 127.68 -1.66566 -1.20187 0
M  V30 1336 H 125.91 -1.12707 -3.69911 0
M  V30 1337 H 127.599 -1.54225 -3.75459 0
M  V30 1338 H 128.365 -3.87842 -2.91211 0
M  V30 1339 H 124.244 -2.86907 -3.6084 0
M  V30 1340 H 127.788 -6.2753 -3.04716 0
M  V30 1341 H 123.685 -5.25716 -3.74556 0
M  V30 1342 H 124.453 -7.33039 -3.64138 0
M  V30 1343 N 127.117 1.15442 -1.07289 0
M  V30 1344 C 128.394 1.82306 -0.708792 0
M  V30 1345 C 128.774 1.94991 0.808807 0
M  V30 1346 O 128.122 1.50085 1.72298 0
M  V30 1347 C 128.332 3.18695 -1.42247 0
M  V30 1348 C 129.68 3.94341 -1.57417 0
M  V30 1349 O 130.704 3.28247 -1.38319 0
M  V30 1350 O 129.563 5.12839 -1.88834 0
M  V30 1351 H 126.657 0.787628 -0.252132 0
M  V30 1352 H 129.203 1.22559 -1.17377 0
M  V30 1353 H 127.975 3.04557 -2.45684 0
M  V30 1354 H 127.598 3.86128 -0.948223 0
M  V30 1355 N 128.595 0.856903 1.32268 0
M  V30 1356 C 129.841 0.462069 1.97466 0
M  V30 1357 C 130.174 -0.980298 1.67642 0
M  V30 1358 O 129.449 -1.68824 0.965858 0
M  V30 1359 C 129.732 0.704336 3.53145 0
M  V30 1360 C 129.585 2.19529 3.9259 0
M  V30 1361 C 130.904 0.1622 4.39801 0
M  V30 1362 H 128.023 0.169357 0.717278 0
M  V30 1363 H 130.665 1.07574 1.56614 0
M  V30 1364 H 128.815 0.181999 3.88073 0
M  V30 1365 H 130.487 2.78387 3.67829 0
M  V30 1366 H 128.73 2.67292 3.41668 0
M  V30 1367 H 129.401 2.31549 5.01088 0
M  V30 1368 H 131.877 0.608905 4.11621 0
M  V30 1369 H 130.753 0.361265 5.4771 0
M  V30 1370 H 131.014 -0.935158 4.32096 0
M  V30 1371 N 130.073 -1.45103 0.615059 0
M  V30 1372 C 131.021 -2.32331 -0.111791 0
M  V30 1373 C 132.015 -1.46409 -0.852102 0
M  V30 1374 O 133.221 -1.62849 -0.766821 0
M  V30 1375 H 129.596 -0.749993 -0.0549072 0
M  V30 1376 H 131.567 -2.91407 0.642225 0
M  V30 1377 C 130.316 -3.3015 -1.09071 0
M  V30 1378 H 129.639 -3.96265 -0.530485 0
M  V30 1379 H 131.079 -3.93898 -1.56908 0
M  V30 1380 C 129.538 -2.57875 -2.168 0
M  V30 1381 O 130.068 -2.36567 -3.24652 0
M  V30 1382 N 128.274 -2.17884 -1.92289 0
M  V30 1383 H 127.821 -2.35413 -1.04587 0
M  V30 1384 H 127.779 -1.6985 -2.64572 0
M  V30 1385 N 131.551 -0.354651 -1.53558 0
M  V30 1386 C 132.797 0.238797 -2.01389 0
M  V30 1387 C 133.13 1.49309 -1.2418 0
M  V30 1388 O 132.405 1.91638 -0.332457 0
M  V30 1389 C 132.688 0.541771 -3.56001 0
M  V30 1390 C 132.541 -0.725388 -4.43912 0
M  V30 1391 C 133.86 1.34685 -4.18984 0
M  V30 1392 H 130.979 0.0853177 -0.732045 0
M  V30 1393 H 133.621 -0.477384 -1.83905 0
M  V30 1394 H 131.771 1.15189 -3.71031 0
M  V30 1395 H 133.443 -1.36313 -4.407 0
M  V30 1396 H 131.686 -1.34801 -4.12324 0
M  V30 1397 H 132.357 -0.468505 -5.50008 0
M  V30 1398 H 134.833 0.830837 -4.07721 0
M  V30 1399 H 133.709 1.52759 -5.27215 0
M  V30 1400 H 133.97 2.35221 -3.74331 0
M  V30 1401 N 133.029 1.57378 -0.0835403 0
M  V30 1402 C 134.275 1.94217 0.583733 0
M  V30 1403 C 134.608 0.964653 1.68547 0
M  V30 1404 O 133.883 -0.00422258 1.945 0
M  V30 1405 C 134.166 3.41253 1.14972 0
M  V30 1406 C 134.019 4.49768 0.0538277 0
M  V30 1407 C 135.338 3.89352 2.05166 0
M  V30 1408 H 132.457 0.706233 0.210724 0
M  V30 1409 H 135.099 1.89392 -0.1519 0
M  V30 1410 H 133.249 3.45496 1.77665 0
M  V30 1411 H 134.921 4.57641 -0.579851 0
M  V30 1412 H 133.164 4.29432 -0.614068 0
M  V30 1413 H 133.835 5.49817 0.490452 0
M  V30 1414 H 136.311 3.87189 1.52393 0
M  V30 1415 H 135.187 4.92822 2.41698 0
M  V30 1416 H 135.448 3.27973 2.96456 0
M  V30 1417 N 134.507 -0.190092 1.56449 0
M  V30 1418 C 135.755 -0.907908 1.80559 0
M  V30 1419 C 136.076 -1.83583 0.657438 0
M  V30 1420 O 135.346 -1.93203 -0.323924 0
M  V30 1421 H 133.926 -0.338247 0.666032 0
M  V30 1422 H 136.588 -0.194403 1.93928 0
M  V30 1423 H 135.684 -1.49604 2.73907 0
M  V30 1424 N 135.985 -1.50799 -0.457987 0
M  V30 1425 C 136.915 -1.73553 -1.5621 0
M  V30 1426 C 137.896 -0.584774 -1.59732 0
M  V30 1427 O 139.081 -0.825314 -1.7579 0
M  V30 1428 C 136.211 -1.84169 -2.94447 0
M  V30 1429 C 135.165 -2.99461 -3.0579 0
M  V30 1430 C 134.491 -2.95235 -4.45803 0
M  V30 1431 C 135.791 -4.39766 -2.81786 0
M  V30 1432 H 137.485 -2.66 -1.37421 0
M  V30 1433 H 135.031 -1.28002 -0.659662 0
M  V30 1434 H 136.984 -1.98672 -3.71628 0
M  V30 1435 H 135.708 -0.883545 -3.14422 0
M  V30 1436 H 134.367 -2.8463 -2.31044 0
M  V30 1437 H 134.015 -1.97239 -4.62715 0
M  V30 1438 H 133.715 -3.72642 -4.54326 0
M  V30 1439 H 135.239 -3.11803 -5.24987 0
M  V30 1440 H 136.653 -4.55054 -3.4871 0
M  V30 1441 H 135.05 -5.18722 -3.0174 0
M  V30 1442 H 136.12 -4.51229 -1.7754 0
M  V30 1443 N 137.463 0.71206 -1.40597 0
M  V30 1444 C 138.691 1.50111 -1.42388 0
M  V30 1445 C 139.106 1.88784 -0.0245395 0
M  V30 1446 O 138.463 1.55681 0.952351 0
M  V30 1447 C 138.514 2.7742 -2.31776 0
M  V30 1448 O 138.235 2.40382 -3.66262 0
M  V30 1449 C 139.736 3.7129 -2.42196 0
M  V30 1450 H 136.956 0.46314 -0.485533 0
M  V30 1451 H 139.5 0.878068 -1.8469 0
M  V30 1452 H 137.655 3.36001 -1.92827 0
M  V30 1453 H 138.069 3.22324 -4.13772 0
M  V30 1454 H 139.543 4.57448 -3.08943 0
M  V30 1455 H 140.02 4.14641 -1.44809 0
M  V30 1456 H 140.626 3.18619 -2.81712 0
M  V30 1457 N 138.941 1.26152 0.944643 0
M  V30 1458 C 139.871 1.09902 2.06019 0
M  V30 1459 C 140.852 0.00519538 1.70099 0
M  V30 1460 O 142.037 0.176583 1.93396 0
M  V30 1461 C 139.167 0.727562 3.39594 0
M  V30 1462 C 138.121 1.77274 3.89561 0
M  V30 1463 C 137.447 1.25569 5.19747 0
M  V30 1464 C 138.747 3.17357 4.14827 0
M  V30 1465 H 140.441 2.03217 2.19871 0
M  V30 1466 H 137.987 0.978452 1.05652 0
M  V30 1467 H 139.94 0.600777 4.17095 0
M  V30 1468 H 138.664 -0.241287 3.25707 0
M  V30 1469 H 137.323 1.88814 3.14237 0
M  V30 1470 H 136.971 0.276783 5.02238 0
M  V30 1471 H 136.671 1.95433 5.54148 0
M  V30 1472 H 138.195 1.1415 5.99835 0
M  V30 1473 H 139.609 3.08914 4.82954 0
M  V30 1474 H 138.006 3.84781 4.60504 0
M  V30 1475 H 139.076 3.63673 3.20734 0
M  V30 1476 N 140.419 -1.14872 1.07899 0
M  V30 1477 C 141.644 -1.90202 0.826926 0
M  V30 1478 C 142.069 -1.77774 -0.614664 0
M  V30 1479 O 141.427 -1.11431 -1.43013 0
M  V30 1480 C 141.475 -3.38352 1.24702 0
M  V30 1481 O 140.579 -4.10497 0.39575 0
M  V30 1482 H 139.92 -0.591968 0.300782 0
M  V30 1483 H 142.45 -1.45437 1.43907 0
M  V30 1484 H 142.46 -3.89156 1.22563 0
M  V30 1485 H 141.135 -3.46715 2.29698 0
M  V30 1486 H 139.712 -3.69796 0.480117 0
M  V30 1487 N 141.898 -0.863906 -1.31812 0
M  V30 1488 C 142.845 -0.313303 -2.28664 0
M  V30 1489 C 143.815 0.584868 -1.55462 0
M  V30 1490 O 145 0.517805 -1.83639 0
M  V30 1491 C 142.14 0.48441 -3.41683 0
M  V30 1492 C 141.253 -0.440594 -4.29747 0
M  V30 1493 C 140.388 0.370652 -5.29905 0
M  V30 1494 C 139.427 -0.551164 -6.09613 0
M  V30 1495 N 138.564 0.223462 -7.01744 0
M  V30 1496 H 143.404 -1.14444 -2.75148 0
M  V30 1497 H 140.941 -0.575769 -1.35364 0
M  V30 1498 H 142.899 0.962627 -4.05943 0
M  V30 1499 H 141.529 1.28029 -2.96325 0
M  V30 1500 H 140.581 -1.03724 -3.65986 0
M  V30 1501 H 141.893 -1.14767 -4.85417 0
M  V30 1502 H 141.047 0.911638 -5.99812 0
M  V30 1503 H 139.786 1.11105 -4.74876 0
M  V30 1504 H 138.791 -1.10396 -5.38603 0
M  V30 1505 H 140.016 -1.29032 -6.66729 0
M  V30 1506 H 137.962 0.946787 -6.49132 0
M  V30 1507 H 137.879 -0.424399 -7.54808 0
M  V30 1508 H 139.147 0.745876 -7.75923 0
M  V30 1509 N 143.376 1.44774 -0.622745 0
M  V30 1510 C 144.324 2.32387 0.0994683 0
M  V30 1511 C 145.318 1.46859 0.844326 0
M  V30 1512 O 146.524 1.63254 0.758174 0
M  V30 1513 H 142.899 0.750273 0.0509291 0
M  V30 1514 H 144.87 2.91062 -0.65767 0
M  V30 1515 C 143.619 3.30723 1.07319 0
M  V30 1516 H 142.942 3.96541 0.509462 0
M  V30 1517 H 144.382 3.94725 1.54817 0
M  V30 1518 C 142.841 2.59021 2.15429 0
M  V30 1519 O 143.371 2.38286 3.23393 0
M  V30 1520 N 141.577 2.189 1.91131 0
M  V30 1521 H 141.124 2.35964 1.03337 0
M  V30 1522 H 141.082 1.71251 2.63668 0
M  V30 1523 N 144.854 0.36279 1.53368 0
M  V30 1524 C 145.786 -0.519668 2.23231 0
M  V30 1525 C 146.799 -1.04844 1.24546 0
M  V30 1526 O 147.988 -0.955296 1.50786 0
M  V30 1527 C 145.088 -1.72995 2.9142 0
M  V30 1528 C 144.261 -1.33316 4.16588 0
M  V30 1529 C 143.32 -2.40521 4.68013 0
M  V30 1530 O 142.346 -2.03027 5.3176 0
M  V30 1531 N 143.548 -3.72065 4.45587 0
M  V30 1532 H 146.313 0.078751 2.99597 0
M  V30 1533 H 143.874 0.187833 1.60807 0
M  V30 1534 H 145.866 -2.44184 3.22733 0
M  V30 1535 H 144.436 -2.2353 2.18525 0
M  V30 1536 H 143.656 -0.451236 3.91609 0
M  V30 1537 H 144.944 -1.04432 4.97967 0
M  V30 1538 H 144.342 -4.05304 3.94646 0
M  V30 1539 H 142.899 -4.39366 4.81457 0
M  V30 1540 N 146.332 -1.57332 0.0918853 0
M  V30 1541 C 147.295 -2.12708 -0.85369 0
M  V30 1542 C 148.295 -1.05561 -1.213 0
M  V30 1543 O 149.485 -1.31461 -1.14296 0
M  V30 1544 C 146.617 -2.64503 -2.15061 0
M  V30 1545 H 147.81 -2.97573 -0.3729 0
M  V30 1546 H 145.363 -1.55509 -0.157072 0
M  V30 1547 H 146.098 -1.83149 -2.67632 0
M  V30 1548 H 145.883 -3.4284 -1.90272 0
M  V30 1549 H 147.373 -3.07351 -2.82711 0
M  V30 1550 N 147.81 0.181792 -1.56548 0
M  V30 1551 C 148.758 1.24461 -1.965 0
M  V30 1552 C 149.752 1.464 -0.852261 0
M  V30 1553 O 150.958 1.47103 -1.03733 0
M  V30 1554 H 147.333 0.418138 -0.625031 0
M  V30 1555 H 149.304 0.880714 -2.85107 0
M  V30 1556 C 148.053 2.57891 -2.33212 0
M  V30 1557 H 147.376 2.41829 -3.18369 0
M  V30 1558 H 148.816 3.3097 -2.65019 0
M  V30 1559 C 147.275 3.15871 -1.17163 0
M  V30 1560 O 147.805 3.9913 -0.453708 0
M  V30 1561 N 146.011 2.74808 -0.944936 0
M  V30 1562 H 145.558 2.07205 -1.53049 0
M  V30 1563 H 145.516 3.13939 -0.170286 0
M  V30 1564 N 149.288 1.51039 0.449983 0
M  V30 1565 C 150.238 1.67824 1.54335 0
M  V30 1566 C 151.222 0.5324 1.51836 0
M  V30 1567 O 152.414 0.787762 1.58503 0
M  V30 1568 C 149.543 1.7951 2.92628 0
M  V30 1569 C 148.629 2.99838 2.9993 0
M  V30 1570 N 149.02 4.23207 2.77001 0
M  V30 1571 C 147.318 2.98832 3.31082 0
M  V30 1572 C 148.019 5.04361 2.89818 0
M  V30 1573 N 146.995 4.38746 3.2094 0
M  V30 1574 H 150.797 2.60884 1.35339 0
M  V30 1575 H 148.311 1.48513 0.657085 0
M  V30 1576 H 150.308 1.89642 3.7127 0
M  V30 1577 H 148.968 0.876227 3.12654 0
M  V30 1578 H 149.979 4.5236 2.52172 0
M  V30 1579 H 146.656 2.16527 3.56963 0
M  V30 1580 H 148.046 6.12528 2.76151 0
M  V30 1581 N 150.766 -0.704594 1.40972 0
M  V30 1582 C 152.012 -1.46675 1.40051 0
M  V30 1583 C 152.345 -1.94199 0.00641102 0
M  V30 1584 O 151.62 -1.68916 -0.964235 0
M  V30 1585 C 151.903 -2.68505 2.39952 0
M  V30 1586 C 151.756 -2.26805 3.88432 0
M  V30 1587 C 153.075 -3.70686 2.37233 0
M  V30 1588 H 150.194 -0.532015 0.510028 0
M  V30 1589 H 152.836 -0.803255 1.72185 0
M  V30 1590 H 150.986 -3.25114 2.1268 0
M  V30 1591 H 152.658 -1.75592 4.26574 0
M  V30 1592 H 150.901 -1.58685 4.03734 0
M  V30 1593 H 151.572 -3.14181 4.53866 0
M  V30 1594 H 154.048 -3.23731 2.61415 0
M  V30 1595 H 152.924 -4.53553 3.09162 0
M  V30 1596 H 153.185 -4.19754 1.38777 0
M  V30 1597 N 152.244 -1.26651 -0.937939 0
M  V30 1598 C 153.176 -1.04283 -2.04102 0
M  V30 1599 C 154.189 -0.00221014 -1.628 0
M  V30 1600 O 155.378 -0.242645 -1.76843 0
M  V30 1601 C 152.478 -0.557846 -3.34277 0
M  V30 1602 C 151.651 -1.66843 -4.04329 0
M  V30 1603 C 150.71 -1.18095 -5.12777 0
M  V30 1604 O 149.736 -1.87865 -5.37304 0
M  V30 1605 N 150.938 -0.0311006 -5.80492 0
M  V30 1606 H 153.703 -1.9927 -2.23856 0
M  V30 1607 H 151.264 -1.1808 -1.10764 0
M  V30 1608 H 153.256 -0.215836 -4.04124 0
M  V30 1609 H 151.826 0.298523 -3.11171 0
M  V30 1610 H 151.046 -2.18123 -3.28353 0
M  V30 1611 H 152.334 -2.41408 -4.47883 0
M  V30 1612 H 151.732 0.551486 -5.63005 0
M  V30 1613 H 150.289 0.251809 -6.51313 0
M  V30 1614 N 153.722 1.14298 -1.08507 0
M  V30 1615 C 154.654 2.1907 -0.673859 0
M  V30 1616 C 155.667 1.60381 0.279577 0
M  V30 1617 O 156.856 1.78374 0.0670754 0
M  V30 1618 C 153.956 3.38888 0.0290979 0
M  V30 1619 C 153.129 4.27103 -0.943494 0
M  V30 1620 C 152.188 5.25477 -0.275676 0
M  V30 1621 O 151.214 5.61709 -0.920401 0
M  V30 1622 N 152.416 5.7227 0.974013 0
M  V30 1623 H 155.181 2.54965 -1.57521 0
M  V30 1624 H 152.742 1.29528 -0.971287 0
M  V30 1625 H 154.734 4.01761 0.48683 0
M  V30 1626 H 153.304 3.01309 0.832555 0
M  V30 1627 H 152.524 3.61149 -1.58004 0
M  V30 1628 H 153.812 4.82905 -1.60251 0
M  V30 1629 H 153.21 5.44965 1.51755 0
M  V30 1630 H 151.767 6.37127 1.37522 0
M  V30 1631 N 155.201 0.870884 1.31352 0
M  V30 1632 C 156.131 0.343096 2.30966 0
M  V30 1633 C 157.112 -0.566507 1.60389 0
M  V30 1634 O 158.297 -0.483336 1.88089 0
M  V30 1635 C 155.427 -0.455487 3.443 0
M  V30 1636 C 154.381 0.361103 4.26474 0
M  V30 1637 C 153.707 -0.563221 5.31725 0
M  V30 1638 C 155.007 1.59566 4.97329 0
M  V30 1639 H 156.701 1.17548 2.75359 0
M  V30 1640 H 154.247 0.566686 1.32381 0
M  V30 1641 H 156.2 -0.83525 4.13039 0
M  V30 1642 H 154.924 -1.32139 2.98675 0
M  V30 1643 H 153.583 0.722825 3.59403 0
M  V30 1644 H 153.231 -1.42643 4.82351 0
M  V30 1645 H 152.931 -0.0207409 5.87596 0
M  V30 1646 H 154.455 -0.939808 6.03324 0
M  V30 1647 H 155.869 1.28728 5.58661 0
M  V30 1648 H 154.266 2.07728 5.63 0
M  V30 1649 H 155.336 2.34798 4.24262 0
M  V30 1650 N 156.679 -1.44442 0.630414 0
M  V30 1651 C 157.925 -2.02351 0.134816 0
M  V30 1652 C 158.258 -1.4947 -1.23986 0
M  V30 1653 O 157.533 -0.678475 -1.82283 0
M  V30 1654 C 157.816 -3.59898 0.120707 0
M  V30 1655 C 157.669 -4.23063 1.52767 0
M  V30 1656 C 158.988 -4.36585 -0.555127 0
M  V30 1657 H 156.107 -0.73527 0.0504646 0
M  V30 1658 H 158.749 -1.72022 0.806751 0
M  V30 1659 H 156.899 -3.85868 -0.451477 0
M  V30 1660 H 158.571 -4.08202 2.14869 0
M  V30 1661 H 156.814 -3.80586 2.08175 0
M  V30 1662 H 157.485 -5.32071 1.46984 0
M  V30 1663 H 159.961 -4.16044 -0.0685429 0
M  V30 1664 H 158.837 -5.46294 -0.534185 0
M  V30 1665 H 159.098 -4.11138 -1.62535 0
M  V30 1666 N 158.157 -0.370918 -1.53173 0
M  V30 1667 C 159.12 0.460778 -2.24521 0
M  V30 1668 C 160.12 1.00536 -1.25496 0
M  V30 1669 O 161.31 0.890266 -1.49733 0
M  V30 1670 C 158.442 1.64457 -2.98608 0
M  V30 1671 H 159.635 -0.163613 -2.99453 0
M  V30 1672 H 157.188 -0.122699 -1.55818 0
M  V30 1673 H 157.923 2.30691 -2.2793 0
M  V30 1674 H 157.708 1.26099 -3.7127 0
M  V30 1675 H 159.198 2.23384 -3.5283 0
M  V30 1676 N 159.635 1.57281 -0.100228 0
M  V30 1677 C 160.583 2.15542 0.874328 0
M  V30 1678 C 161.577 1.09962 1.28859 0
M  V30 1679 O 162.783 1.28298 1.26252 0
M  V30 1680 H 159.158 0.689567 0.300003 0
M  V30 1681 H 161.129 2.96241 0.35829 0
M  V30 1682 C 159.878 2.75454 2.1218 0
M  V30 1683 H 159.201 3.56384 1.81193 0
M  V30 1684 H 160.641 3.19781 2.78417 0
M  V30 1685 C 159.1 1.71602 2.89921 0
M  V30 1686 O 159.63 1.15804 3.84646 0
M  V30 1687 N 157.836 1.41975 2.53558 0
M  V30 1688 H 157.383 1.87539 1.76598 0
M  V30 1689 H 157.341 0.727274 3.05873 0
M  V30 1690 N 161.113 -0.173488 1.56642 0
M  V30 1691 C 162.338 -0.910149 1.86363 0
M  V30 1692 C 162.763 -1.75132 0.686318 0
M  V30 1693 O 162.121 -1.77595 -0.364643 0
M  V30 1694 C 162.169 -1.76447 3.14482 0
M  V30 1695 O 161.273 -2.86584 2.96553 0
M  V30 1696 H 160.614 -0.255086 0.613047 0
M  V30 1697 H 163.144 -0.172283 2.03873 0
M  V30 1698 H 163.154 -2.16483 3.45831 0
M  V30 1699 H 161.829 -1.14658 3.99783 0
M  V30 1700 H 160.406 -2.50146 2.76553 0
M  V30 1701 N 162.591 -1.51276 -0.441967 0
M  V30 1702 C 163.501 -1.75092 -1.56141 0
M  V30 1703 C 164.517 -0.634963 -1.62001 0
M  V30 1704 O 165.693 -0.916686 -1.79329 0
M  V30 1705 C 162.758 -1.86666 -2.92158 0
M  V30 1706 C 161.819 -3.10506 -2.96453 0
M  V30 1707 C 161.052 -3.21519 -4.25982 0
M  V30 1708 O 161.275 -2.38586 -5.18105 0
M  V30 1709 O 160.209 -4.14465 -4.36466 0
M  V30 1710 H 164.035 -2.70044 -1.38961 0
M  V30 1711 H 161.62 -1.35722 -0.624499 0
M  V30 1712 H 163.502 -1.96292 -3.72891 0
M  V30 1713 H 162.177 -0.949014 -3.09476 0
M  V30 1714 H 161.084 -3.06363 -2.14692 0
M  V30 1715 H 162.417 -4.01945 -2.84079 0
M  V30 1716 N 164.069 0.697108 -1.41344 0
M  V30 1717 C 165.017 1.83237 -1.43272 0
M  V30 1718 C 166.011 1.66522 -0.310947 0
M  V30 1719 O 167.217 1.73402 -0.482899 0
M  V30 1720 H 163.592 0.603802 -0.448249 0
M  V30 1721 H 165.563 1.78727 -2.38954 0
M  V30 1722 C 164.312 3.21245 -1.33029 0
M  V30 1723 H 163.635 3.34723 -2.18633 0
M  V30 1724 H 165.075 4.00763 -1.38439 0
M  V30 1725 C 163.534 3.36873 -0.0424635 0
M  V30 1726 O 164.064 3.91177 0.913421 0
M  V30 1727 N 162.27 2.90581 0.0331145 0
M  V30 1728 H 161.817 2.46577 -0.745506 0
M  V30 1729 H 161.775 3.01416 0.894199 0
M  V30 1730 N 165.547 1.27147 0.931209 0
M  V30 1731 C 166.477 1.12081 2.04842 0
M  V30 1732 C 167.458 0.0232364 1.70084 0
M  V30 1733 O 168.643 0.197085 1.93197 0
M  V30 1734 C 165.773 0.76354 3.38803 0
M  V30 1735 C 164.727 1.81396 3.87659 0
M  V30 1736 C 164.053 1.31075 5.18385 0
M  V30 1737 C 165.353 3.21739 4.11438 0
M  V30 1738 H 167.047 2.05537 2.17703 0
M  V30 1739 H 164.593 0.989603 1.04608 0
M  V30 1740 H 166.546 0.644982 4.16435 0
M  V30 1741 H 165.27 -0.206727 3.25945 0
M  V30 1742 H 163.929 1.92136 3.12217 0
M  V30 1743 H 163.577 0.330037 5.01916 0
M  V30 1744 H 163.277 2.013 5.52044 0
M  V30 1745 H 164.801 1.20506 5.98591 0
M  V30 1746 H 166.215 3.14019 4.79651 0
M  V30 1747 H 164.612 3.89644 4.56397 0
M  V30 1748 H 165.682 3.67054 3.16859 0
M  V30 1749 N 167.025 -1.13721 1.09112 0
M  V30 1750 C 168.441 -1.36914 0.820174 0
M  V30 1751 C 168.641 -1.93356 -0.567079 0
M  V30 1752 O 167.697 -2.15093 -1.32255 0
M  V30 1753 C 169.01 -2.3235 1.90877 0
M  V30 1754 C 170.558 -2.45973 1.93562 0
M  V30 1755 C 171.033 -3.44714 3.01556 0
M  V30 1756 N 172.524 -3.52263 3.00775 0
M  V30 1757 C 173.259 -4.28536 3.80978 0
M  V30 1758 N 172.755 -5.07991 4.71081 0
M  V30 1759 N 174.548 -4.23804 3.69251 0
M  V30 1760 H 166.699 -0.754348 1.98553 0
M  V30 1761 H 168.962 -0.3944 0.862063 0
M  V30 1762 H 168.668 -1.98027 2.90651 0
M  V30 1763 H 168.542 -3.32332 1.78424 0
M  V30 1764 H 170.929 -2.79584 0.944286 0
M  V30 1765 H 171.01 -1.45926 2.10093 0
M  V30 1766 H 170.654 -3.11835 4.00901 0
M  V30 1767 H 170.584 -4.44558 2.82269 0
M  V30 1768 H 173.075 -2.95567 2.35475 0
M  V30 1769 H 173.388 -5.63487 5.28869 0
M  V30 1770 H 171.733 -5.07235 4.75119 0
M  V30 1771 H 174.924 -3.60806 2.98222 0
M  V30 1772 H 175.097 -4.82995 4.31995 0
M  V30 1773 N 168.503 -0.877838 -1.30888 0
M  V30 1774 C 169.728 -0.506629 -2.01117 0
M  V30 1775 C 170.153 0.895564 -1.65412 0
M  V30 1776 O 169.511 1.5923 -0.866922 0
M  V30 1777 C 169.559 -0.680223 -3.54126 0
M  V30 1778 O 168.663 0.277033 -4.11468 0
M  V30 1779 H 168.004 -0.200518 -0.633 0
M  V30 1780 H 170.534 -1.18342 -1.66902 0
M  V30 1781 H 170.544 -0.5765 -4.03907 0
M  V30 1782 H 169.219 -1.70261 -3.79452 0
M  V30 1783 H 167.796 0.127606 -3.72682 0
M  V30 1784 N 169.982 1.44106 -0.638065 0
M  V30 1785 C 170.929 2.30715 0.062701 0
M  V30 1786 C 171.899 1.43882 0.829883 0
M  V30 1787 O 173.084 1.72775 0.809532 0
M  V30 1788 C 170.224 3.29258 1.03358 0
M  V30 1789 C 169.337 4.31192 0.26409 0
M  V30 1790 C 168.472 5.16825 1.22741 0
M  V30 1791 C 167.511 6.10462 0.447475 0
M  V30 1792 N 166.648 6.8877 1.36161 0
M  V30 1793 H 171.488 2.90096 -0.681781 0
M  V30 1794 H 169.025 1.42925 -0.347988 0
M  V30 1795 H 170.983 3.84886 1.60992 0
M  V30 1796 H 169.613 2.71562 1.74511 0
M  V30 1797 H 168.665 3.77981 -0.428295 0
M  V30 1798 H 169.977 4.97619 -0.343052 0
M  V30 1799 H 169.131 5.77004 1.87487 0
M  V30 1800 H 167.87 4.50488 1.86847 0
M  V30 1801 H 166.875 5.49386 -0.213433 0
M  V30 1802 H 168.1 6.78837 -0.188968 0
M  V30 1803 H 166.046 6.25096 1.98975 0
M  V30 1804 H 165.963 7.51663 0.808656 0
M  V30 1805 H 167.231 7.53467 1.99769 0
M  V30 1806 N 171.46 0.379036 1.52974 0
M  V30 1807 C 172.876 0.0285448 1.59574 0
M  V30 1808 C 173.076 -1.45542 1.39355 0
M  V30 1809 O 172.132 -2.2187 1.20541 0
M  V30 1810 C 173.445 0.496535 2.96572 0
M  V30 1811 C 174.993 0.451909 3.0972 0
M  V30 1812 C 175.468 0.895924 4.49152 0
M  V30 1813 N 176.959 0.851522 4.55306 0
M  V30 1814 C 177.694 1.16661 5.61407 0
M  V30 1815 N 177.19 1.55166 6.752 0
M  V30 1816 N 178.983 1.08853 5.51459 0
M  V30 1817 H 171.134 1.34525 1.64367 0
M  V30 1818 H 173.397 0.550733 0.771619 0
M  V30 1819 H 173.103 1.53258 3.16552 0
M  V30 1820 H 172.977 -0.109802 3.7704 0
M  V30 1821 H 175.364 -0.575029 2.89443 0
M  V30 1822 H 175.445 1.09392 2.3123 0
M  V30 1823 H 175.089 1.92104 4.70168 0
M  V30 1824 H 175.019 0.23103 5.26093 0
M  V30 1825 H 177.51 0.568038 3.73606 0
M  V30 1826 H 177.823 1.776 7.52116 0
M  V30 1827 H 176.168 1.59044 6.76557 0
M  V30 1828 H 179.359 0.786803 4.6144 0
M  V30 1829 H 179.532 1.33742 6.34048 0
M  V30 1830 N 172.938 -1.57226 0.108567 0
M  V30 1831 C 174.184 -1.95121 -0.552761 0
M  V30 1832 C 174.517 -0.991345 -1.66991 0
M  V30 1833 O 173.792 -0.0267211 -1.94482 0
M  V30 1834 C 174.075 -3.43039 -1.09528 0
M  V30 1835 C 173.928 -4.49797 0.0177332 0
M  V30 1836 C 175.247 -3.92567 -1.98945 0
M  V30 1837 H 172.366 -0.709496 -0.199461 0
M  V30 1838 H 175.008 -1.89126 0.182011 0
M  V30 1839 H 173.158 -3.48279 -1.72146 0
M  V30 1840 H 174.83 -4.56661 0.652584 0
M  V30 1841 H 173.073 -4.284 0.682309 0
M  V30 1842 H 173.744 -5.50528 -0.402919 0
M  V30 1843 H 176.22 -3.89565 -1.46214 0
M  V30 1844 H 175.096 -4.96605 -2.33827 0
M  V30 1845 H 175.357 -3.32648 -2.91201 0
M  V30 1846 N 174.416 0.165178 -1.56732 0
M  V30 1847 C 175.346 1.20651 -1.99914 0
M  V30 1848 C 176.327 1.45827 -0.875705 0
M  V30 1849 O 177.512 1.57057 -1.14223 0
M  V30 1850 C 174.642 2.54401 -2.36427 0
M  V30 1851 C 173.596 2.43782 -3.51787 0
M  V30 1852 C 172.922 3.82078 -3.7406 0
M  V30 1853 C 174.222 1.93732 -4.85041 0
M  V30 1854 H 175.916 0.847534 -2.87154 0
M  V30 1855 H 173.462 0.40625 -1.38151 0
M  V30 1856 H 175.415 3.27458 -2.65234 0
M  V30 1857 H 174.139 2.92098 -1.46103 0
M  V30 1858 H 172.798 1.73178 -3.23117 0
M  V30 1859 H 172.446 4.17179 -2.81017 0
M  V30 1860 H 172.146 3.7584 -4.51684 0
M  V30 1861 H 173.67 4.56712 -4.05274 0
M  V30 1862 H 175.084 2.56569 -5.12684 0
M  V30 1863 H 173.481 1.98428 -5.66345 0
M  V30 1864 H 174.551 0.891962 -4.76626 0
M  V30 1865 N 175.894 1.51508 0.433938 0
M  V30 1866 C 176.824 1.76016 1.53429 0
M  V30 1867 C 177.805 0.610112 1.58782 0
M  V30 1868 O 178.99 0.853177 1.74455 0
M  V30 1869 C 176.12 1.88831 2.9148 0
M  V30 1870 C 175.074 3.04288 3.00987 0
M  V30 1871 C 174.4 3.0229 4.4105 0
M  V30 1872 C 175.7 4.44193 2.74754 0
M  V30 1873 H 177.394 2.68152 1.33171 0
M  V30 1874 H 174.94 1.29035 0.639214 0
M  V30 1875 H 176.893 2.04559 3.6842 0
M  V30 1876 H 175.617 0.933455 3.12976 0
M  V30 1877 H 174.276 2.8827 2.26486 0
M  V30 1878 H 173.924 2.04576 4.59519 0
M  V30 1879 H 173.624 3.79822 4.4834 0
M  V30 1880 H 175.148 3.20116 5.1996 0
M  V30 1881 H 176.562 4.60544 3.41426 0
M  V30 1882 H 174.959 5.23457 2.9345 0
M  V30 1883 H 176.029 4.53996 1.70339 0
M  V30 1884 N 177.372 -0.689602 1.41712 0
M  V30 1885 C 178.335 -1.78521 1.43746 0
M  V30 1886 C 179.335 -1.57436 0.327191 0
M  V30 1887 O 180.525 -1.64 0.587348 0
M  V30 1888 C 177.657 -3.16971 1.25467 0
M  V30 1889 H 178.85 -1.78108 2.41283 0
M  V30 1890 H 176.403 -0.89781 1.27942 0
M  V30 1891 H 177.138 -3.23019 0.287948 0
M  V30 1892 H 176.923 -3.33678 2.05917 0
M  V30 1893 H 178.413 -3.96935 1.2974 0
M  V30 1894 N 178.85 -1.27639 -0.924453 0
M  V30 1895 C 180.098 -1.13941 -1.66918 0
M  V30 1896 C 180.419 0.314589 -1.92446 0
M  V30 1897 O 179.689 1.21964 -1.53303 0
M  V30 1898 H 178.269 -0.418678 -0.618642 0
M  V30 1899 H 180.931 -1.60213 -1.10985 0
M  V30 1900 H 180.027 -1.67094 -2.63602 0
M  V30 1901 N 180.328 1.1314 -1.09713 0
M  V30 1902 C 181.574 1.84967 -0.846104 0
M  V30 1903 C 181.929 1.82082 0.621601 0
M  V30 1904 O 181.222 1.2501 1.452 0
M  V30 1905 C 181.416 3.32167 -1.3191 0
M  V30 1906 C 181.245 3.49386 -2.83125 0
M  V30 1907 C 180.015 3.63456 -3.51038 0
M  V30 1908 C 182.213 3.45179 -3.81256 0
M  V30 1909 N 180.195 3.68966 -4.9065 0
M  V30 1910 C 181.566 3.57094 -5.06837 0
M  V30 1911 C 183.621 3.28598 -3.74069 0
M  V30 1912 C 182.324 3.5414 -6.26081 0
M  V30 1913 C 184.35 3.26953 -4.92804 0
M  V30 1914 C 183.712 3.39422 -6.17229 0
M  V30 1915 H 179.811 0.692899 -0.362512 0
M  V30 1916 H 182.395 1.35506 -1.39808 0
M  V30 1917 H 180.566 3.80186 -0.794535 0
M  V30 1918 H 182.298 3.91815 -1.01308 0
M  V30 1919 H 179.053 3.65256 -3.01471 0
M  V30 1920 H 179.477 3.75404 -5.63383 0
M  V30 1921 H 184.119 3.17858 -2.78794 0
M  V30 1922 H 181.837 3.63653 -7.21653 0
M  V30 1923 H 185.423 3.15316 -4.88945 0
M  V30 1924 H 184.303 3.38114 -7.07565 0
M  V30 1925 N 181.806 0.884767 1.30421 0
M  V30 1926 C 182.716 0.355398 2.31892 0
M  V30 1927 C 183.732 -0.542261 1.65335 0
M  V30 1928 O 184.908 -0.435432 1.96637 0
M  V30 1929 C 181.973 -0.421661 3.44126 0
M  V30 1930 C 181.034 0.505727 4.26311 0
M  V30 1931 C 180.267 -0.234343 5.33185 0
M  V30 1932 O 180.49 -1.46045 5.51386 0
M  V30 1933 O 179.424 0.415443 6.00465 0
M  V30 1934 H 183.25 1.19685 2.79122 0
M  V30 1935 H 180.835 0.648596 1.34587 0
M  V30 1936 H 182.717 -0.861641 4.12497 0
M  V30 1937 H 181.392 -1.23942 2.99032 0
M  V30 1938 H 180.299 0.994513 3.60639 0
M  V30 1939 H 181.632 1.28948 4.75009 0
M  V30 1940 N 183.284 -1.43765 0.645699 0
M  V30 1941 C 184.216 -2.29027 -0.0890605 0
M  V30 1942 C 185.229 -1.42093 -0.794563 0
M  V30 1943 O 186.418 -1.66104 -0.653575 0
M  V30 1944 C 183.518 -3.18831 -1.14891 0
M  V30 1945 C 182.691 -4.34261 -0.523043 0
M  V30 1946 C 181.75 -5.04994 -1.47878 0
M  V30 1947 O 180.776 -5.6052 -0.990277 0
M  V30 1948 N 181.978 -5.07795 -2.81291 0
M  V30 1949 H 184.743 -2.92727 0.64272 0
M  V30 1950 H 182.304 -1.54373 0.487924 0
M  V30 1951 H 184.296 -3.63015 -1.78892 0
M  V30 1952 H 182.866 -2.56782 -1.78275 0
M  V30 1953 H 182.086 -3.93088 0.295896 0
M  V30 1954 H 183.374 -5.08728 -0.0858147 0
M  V30 1955 H 182.772 -4.64042 -3.23546 0
M  V30 1956 H 181.329 -5.55721 -3.40614 0
M  V30 1957 N 184.763 -0.387143 -1.52771 0
M  V30 1958 C 186.01 0.195735 -2.01552 0
M  V30 1959 C 186.338 1.46995 -1.27369 0
M  V30 1960 O 185.593 1.92325 -0.361879 0
M  V30 1961 C 185.892 0.512209 -3.53711 0
M  V30 1962 C 185.558 -0.670202 -4.45891 0
M  V30 1963 C 184.22 -0.994586 -4.70809 0
M  V30 1964 C 186.572 -1.46134 -5.00294 0
M  V30 1965 C 183.9 -2.11169 -5.4738 0
M  V30 1966 C 186.252 -2.56903 -5.78086 0
M  V30 1967 C 184.916 -2.89852 -6.01284 0
M  V30 1968 H 184.186 0.0716246 -0.73753 0
M  V30 1969 H 186.833 -0.524046 -1.8419 0
M  V30 1970 H 185.138 1.31329 -3.69134 0
M  V30 1971 H 186.835 0.975804 -3.88946 0
M  V30 1972 H 183.425 -0.407366 -4.2666 0
M  V30 1973 H 187.609 -1.22397 -4.80971 0
M  V30 1974 H 182.865 -2.3707 -5.63567 0
M  V30 1975 H 187.039 -3.18608 -6.19243 0
M  V30 1976 H 184.666 -3.76533 -6.60399 0
M  V30 1977 N 186.241 1.57166 -0.116904 0
M  V30 1978 C 187.518 1.86645 0.585049 0
M  V30 1979 C 187.898 1.0177 1.84949 0
M  V30 1980 O 187.246 0.0960379 2.28298 0
M  V30 1981 C 187.456 3.37736 0.879507 0
M  V30 1982 C 188.804 4.06289 1.23348 0
M  V30 1983 O 189.828 3.42743 0.969836 0
M  V30 1984 O 188.687 5.18455 1.7282 0
M  V30 1985 H 185.781 0.772593 0.295007 0
M  V30 1986 H 188.327 1.69025 -0.151249 0
M  V30 1987 H 187.099 3.91296 -0.0166136 0
M  V30 1988 H 186.722 3.6078 1.67103 0
M  V30 1989 N 187.719 -0.156864 1.56817 0
M  V30 1990 C 188.629 -1.2136 2.00771 0
M  V30 1991 C 189.645 -1.47598 0.921459 0
M  V30 1992 O 190.821 -1.59462 1.2302 0
M  V30 1993 C 187.886 -2.52943 2.37109 0
M  V30 1994 C 186.947 -2.34439 3.59634 0
M  V30 1995 C 186.18 -3.59748 3.94229 0
M  V30 1996 O 186.403 -4.65526 3.29609 0
M  V30 1997 O 185.337 -3.52998 4.8752 0
M  V30 1998 H 189.163 -0.870468 2.90958 0
M  V30 1999 H 186.748 -0.36484 1.44877 0
M  V30 2000 H 188.63 -3.30538 2.61386 0
M  V30 2001 H 187.305 -2.86806 1.5008 0
M  V30 2002 H 186.212 -1.54828 3.40557 0
M  V30 2003 H 187.545 -2.05496 4.4725 0
M  V30 2004 N 189.197 -1.51736 -0.425897 0
M  V30 2005 C 190.608 -1.5732 -1.00536 0
M  V30 2006 C 190.959 -0.403537 -1.92005 0
M  V30 2007 O 190.084 0.478256 -2.11049 0
M  V30 2008 C 190.679 -2.85119 -1.8301 0
M  V30 2009 C 189.238 -2.93236 -2.35987 0
M  V30 2010 C 188.385 -2.52098 -1.15508 0
M  V30 2011 H 191.336 -1.57348 -0.206739 0
M  V30 2012 H 191.357 -2.69526 -2.68581 0
M  V30 2013 H 190.869 -3.7023 -1.16411 0
M  V30 2014 H 188.97 -2.12581 -3.06007 0
M  V30 2015 H 189.083 -3.9713 -2.68001 0
M  V30 2016 H 187.447 -2.05558 -1.50393 0
M  V30 2017 H 188.23 -3.39565 -0.505014 0
M  V30 2018 N 190.675 0.682077 -1.42076 0
M  V30 2019 C 191.921 1.44428 -1.42367 0
M  V30 2020 C 192.254 1.94164 -0.0373056 0
M  V30 2021 O 191.529 1.70429 0.937239 0
M  V30 2022 C 191.812 2.64654 -2.44194 0
M  V30 2023 C 191.665 2.20596 -3.91991 0
M  V30 2024 C 192.984 3.66865 -2.431 0
M  V30 2025 H 190.103 0.523834 -0.518428 0
M  V30 2026 H 192.745 0.77576 -1.73442 0
M  V30 2027 H 190.895 3.2169 -2.17826 0
M  V30 2028 H 192.567 1.68783 -4.29313 0
M  V30 2029 H 190.81 1.52242 -4.06208 0
M  V30 2030 H 191.481 3.06921 -4.58807 0
M  V30 2031 H 193.957 3.19531 -2.66532 0
M  V30 2032 H 192.833 4.48577 -3.16339 0
M  V30 2033 H 193.094 4.17493 -1.45437 0
M  V30 2034 N 192.153 1.28127 0.917671 0
M  V30 2035 C 193.43 1.05761 1.64542 0
M  V30 2036 C 193.81 -0.404344 2.07191 0
M  V30 2037 O 193.158 -1.38963 1.81388 0
M  V30 2038 C 193.368 2.02857 2.83989 0
M  V30 2039 C 194.716 2.32786 3.551 0
M  V30 2040 O 195.74 2.0091 2.94132 0
M  V30 2041 O 194.599 2.87169 4.64969 0
M  V30 2042 H 191.693 0.403916 0.721652 0
M  V30 2043 H 194.239 1.39431 0.967322 0
M  V30 2044 H 193.011 3.01407 2.49538 0
M  V30 2045 H 192.634 1.69809 3.59514 0
M  V30 2046 N 193.631 -1.12557 1.10312 0
M  V30 2047 C 195.047 -1.36036 0.834649 0
M  V30 2048 C 195.247 -1.93946 -0.546539 0
M  V30 2049 O 194.303 -2.16484 -1.29966 0
M  V30 2050 C 195.616 -2.30312 1.9333 0
M  V30 2051 C 197.164 -2.43906 1.9616 0
M  V30 2052 C 197.639 -3.41496 3.05195 0
M  V30 2053 N 199.13 -3.49053 3.04494 0
M  V30 2054 C 199.865 -4.24471 3.85502 0
M  V30 2055 N 199.361 -5.02966 4.76442 0
M  V30 2056 N 201.154 -4.19864 3.73725 0
M  V30 2057 H 193.305 -0.733246 1.99342 0
M  V30 2058 H 195.568 -0.385234 0.866198 0
M  V30 2059 H 195.274 -1.94933 2.92735 0
M  V30 2060 H 195.148 -3.30421 1.81939 0
M  V30 2061 H 197.535 -2.78567 0.973886 0
M  V30 2062 H 197.616 -1.4369 2.11629 0
M  V30 2063 H 197.26 -3.07565 4.04186 0
M  V30 2064 H 197.19 -4.41539 2.86968 0
M  V30 2065 H 199.681 -2.93053 2.38596 0
M  V30 2066 H 199.994 -5.57846 5.34815 0
M  V30 2067 H 198.339 -5.02167 4.80472 0
M  V30 2068 H 201.53 -3.57623 3.02032 0
M  V30 2069 H 201.703 -4.78386 4.37093 0
M  V30 2070 N 195.109 -0.891671 -1.2995 0
M  V30 2071 C 196.358 -0.509521 -1.95158 0
M  V30 2072 C 196.671 0.947388 -1.71125 0
M  V30 2073 O 197.877 1.43669 -2.30372 0
M  V30 2074 C 196.333 -0.860315 -3.49466 0
M  V30 2075 C 195.941 -2.33545 -3.8231 0
M  V30 2076 C 197.685 -0.547687 -4.20952 0
M  V30 2077 C 195.592 -2.62752 -5.29826 0
M  V30 2078 H 194.522 -0.18682 -0.730489 0
M  V30 2079 H 197.173 -1.08756 -1.47798 0
M  V30 2080 H 195.555 -0.211285 -3.95436 0
M  V30 2081 H 196.729 -3.02936 -3.47227 0
M  V30 2082 H 195.044 -2.61629 -3.23944 0
M  V30 2083 H 197.641 -0.742854 -5.29515 0
M  V30 2084 H 197.984 0.51332 -4.13123 0
M  V30 2085 H 198.517 -1.1542 -3.80688 0
M  V30 2086 H 195.256 -3.6762 -5.42712 0
M  V30 2087 H 194.776 -1.97977 -5.66185 0
M  V30 2088 H 196.455 -2.48601 -5.97333 0
M  V30 2089 N 196.587 1.43421 -0.653314 0
M  V30 2090 C 197.833 2.02111 -0.166992 0
M  V30 2091 C 198.166 1.51423 1.21592 0
M  V30 2092 O 197.441 0.707389 1.8118 0
M  V30 2093 C 197.724 3.5966 -0.177948 0
M  V30 2094 C 197.577 4.20579 -1.59478 0
M  V30 2095 C 198.896 4.37413 0.4856 0
M  V30 2096 H 196.015 0.734374 -0.0621557 0
M  V30 2097 H 198.657 1.70717 -0.834016 0
M  V30 2098 H 196.807 3.86537 0.390032 0
M  V30 2099 H 198.479 4.04732 -2.21336 0
M  V30 2100 H 196.722 3.77226 -2.14204 0
M  V30 2101 H 197.393 5.29665 -1.5543 0
M  V30 2102 H 199.869 4.161 0.00234528 0
M  V30 2103 H 198.745 5.47075 0.447207 0
M  V30 2104 H 199.006 4.13672 1.55974 0
M  V30 2105 N 198.065 0.39524 1.52563 0
M  V30 2106 C 199.29 -0.187456 2.06551 0
M  V30 2107 C 199.715 -1.39249 1.26457 0
M  V30 2108 O 199.073 -1.78947 0.291151 0
M  V30 2109 C 199.121 -0.529985 3.56684 0
M  V30 2110 O 198.225 -1.62307 3.79118 0
M  V30 2111 H 197.566 -0.0202537 0.663691 0
M  V30 2112 H 200.096 0.564426 1.96661 0
M  V30 2113 H 200.106 -0.792598 4.00227 0
M  V30 2114 H 198.781 0.350987 4.14416 0
M  V30 2115 H 197.358 -1.3537 3.47461 0
M  V30 2116 N 199.544 -1.57102 0.125237 0
M  V30 2117 C 200.793 -1.94582 -0.531095 0
M  V30 2118 C 201.106 -1.01126 -1.6743 0
M  V30 2119 O 202.312 -1.28097 -2.39381 0
M  V30 2120 C 200.768 -3.45839 -0.996164 0
M  V30 2121 C 200.376 -4.47842 0.118926 0
M  V30 2122 C 202.12 -3.92227 -1.62352 0
M  V30 2123 C 200.027 -5.90284 -0.363192 0
M  V30 2124 H 198.957 -0.726391 -0.20217 0
M  V30 2125 H 201.608 -1.82339 0.206092 0
M  V30 2126 H 199.99 -3.53338 -1.78796 0
M  V30 2127 H 201.164 -4.52018 0.895358 0
M  V30 2128 H 199.479 -4.11243 0.653324 0
M  V30 2129 H 202.076 -4.96069 -1.99548 0
M  V30 2130 H 202.419 -3.32552 -2.50429 0
M  V30 2131 H 202.952 -3.87554 -0.897019 0
M  V30 2132 H 199.691 -6.53728 0.481679 0
M  V30 2133 H 199.211 -5.89515 -1.10597 0
M  V30 2134 H 200.89 -6.41752 -0.822377 0
M  V30 2135 N 201.022 0.148545 -1.56898 0
M  V30 2136 C 202.27 0.859717 -1.82902 0
M  V30 2137 C 202.591 1.81775 -0.70588 0
M  V30 2138 O 201.861 1.93994 0.272586 0
M  V30 2139 H 200.441 0.320469 -0.674766 0
M  V30 2140 H 203.103 0.142918 -1.94375 0
M  V30 2141 H 202.199 1.4229 -2.77777 0
M  V30 2142 N 202.5 1.5196 0.417844 0
M  V30 2143 C 203.463 1.74065 1.49111 0
M  V30 2144 C 204.463 0.610537 1.48758 0
M  V30 2145 O 205.653 0.87832 1.50437 0
M  V30 2146 C 202.785 1.81502 2.88565 0
M  V30 2147 H 203.978 2.69869 1.30807 0
M  V30 2148 H 201.531 1.42244 0.647785 0
M  V30 2149 H 202.266 0.875813 3.1225 0
M  V30 2150 H 202.051 2.63651 2.90225 0
M  V30 2151 H 203.541 2.00376 3.66387 0
M  V30 2152 N 203.978 -0.674533 1.42435 0
M  V30 2153 C 205.225 -1.43459 1.42919 0
M  V30 2154 C 205.553 -1.94446 0.0457312 0
M  V30 2155 O 204.808 -1.7132 -0.94593 0
M  V30 2156 C 205.107 -2.64767 2.40069 0
M  V30 2157 C 204.773 -2.3232 3.86443 0
M  V30 2158 C 203.435 -2.23182 4.26314 0
M  V30 2159 C 205.787 -2.05977 4.78773 0
M  V30 2160 C 203.115 -1.85827 5.56494 0
M  V30 2161 C 205.467 -1.70125 6.09295 0
M  V30 2162 C 204.131 -1.59498 6.48164 0
M  V30 2163 H 203.401 -0.524952 0.522978 0
M  V30 2164 H 206.048 -0.769097 1.75377 0
M  V30 2165 H 204.353 -3.36349 2.00939 0
M  V30 2166 H 206.05 -3.22949 2.37707 0
M  V30 2167 H 202.64 -2.40334 3.54877 0
M  V30 2168 H 206.824 -2.11969 4.48757 0
M  V30 2169 H 202.08 -1.76168 5.8547 0
M  V30 2170 H 206.254 -1.48767 6.80324 0
M  V30 2171 H 203.881 -1.30322 7.48946 0
M  V30 2172 N 205.456 -1.28612 -0.910864 0
M  V30 2173 C 206.366 -1.14643 -2.0468 0
M  V30 2174 C 207.382 -0.0723121 -1.7385 0
M  V30 2175 O 208.558 -0.282178 -1.99413 0
M  V30 2176 C 205.623 -0.812561 -3.37044 0
M  V30 2177 C 204.684 -1.96935 -3.81465 0
M  V30 2178 C 203.917 -1.65131 -5.07511 0
M  V30 2179 O 204.14 -0.567013 -5.67575 0
M  V30 2180 O 203.074 -2.49585 -5.47714 0
M  V30 2181 H 206.9 -2.1001 -2.19384 0
M  V30 2182 H 204.485 -1.07958 -1.03274 0
M  V30 2183 H 206.367 -0.640441 -4.16505 0
M  V30 2184 H 205.042 0.111426 -3.23508 0
M  V30 2185 H 203.949 -2.19664 -3.02818 0
M  V30 2186 H 205.282 -2.87414 -3.99567 0
M  V30 2187 N 206.934 1.1197 -1.10907 0
M  V30 2188 C 207.884 2.15946 -0.731538 0
M  V30 2189 C 208.868 1.58758 0.261699 0
M  V30 2190 O 210.06 1.76863 0.0696722 0
M  V30 2191 C 207.189 3.42877 -0.170299 0
M  V30 2192 C 206.275 4.07037 -1.19087 0
M  V30 2193 N 206.666 4.46135 -2.38322 0
M  V30 2194 C 204.964 4.33884 -1.03252 0
M  V30 2195 C 205.665 4.96331 -3.03366 0
M  V30 2196 N 204.641 4.9214 -2.30865 0
M  V30 2197 H 208.443 2.43947 -1.63912 0
M  V30 2198 H 205.957 1.28927 -0.987505 0
M  V30 2199 H 207.954 4.16732 0.118271 0
M  V30 2200 H 206.614 3.16343 0.731935 0
M  V30 2201 H 207.625 4.38345 -2.75815 0
M  V30 2202 H 204.302 4.17084 -0.186256 0
M  V30 2203 H 205.692 5.36257 -4.04818 0
M  V30 2204 N 208.412 0.89855 1.29475 0
M  V30 2205 C 209.659 0.523882 1.95606 0
M  V30 2206 C 209.987 -0.929608 1.70847 0
M  V30 2207 O 209.242 -1.67401 1.01367 0
M  V30 2208 C 209.541 0.761398 3.49195 0
M  V30 2209 C 209.207 2.19207 3.94029 0
M  V30 2210 C 207.869 2.58326 4.05982 0
M  V30 2211 C 210.221 3.12379 4.17216 0
M  V30 2212 C 207.549 3.898 4.38489 0
M  V30 2213 C 209.901 4.43401 4.51197 0
M  V30 2214 C 208.565 4.82394 4.61359 0
M  V30 2215 H 207.835 0.191702 0.715773 0
M  V30 2216 H 210.482 1.13699 1.54094 0
M  V30 2217 H 208.787 0.0653622 3.91745 0
M  V30 2218 H 210.484 0.450904 3.98457 0
M  V30 2219 H 207.074 1.87846 3.85242 0
M  V30 2220 H 211.258 2.83371 4.07449 0
M  V30 2221 H 206.514 4.19734 4.44559 0
M  V30 2222 H 210.688 5.15623 4.68087 0
M  V30 2223 H 208.315 5.84306 4.86303 0
M  V30 2224 N 209.89 -1.43072 0.660911 0
M  V30 2225 C 211.138 -2.01323 0.177094 0
M  V30 2226 C 211.459 -1.5245 -1.2159 0
M  V30 2227 O 210.729 -0.740322 -1.81373 0
M  V30 2228 H 209.309 -0.744382 0.0624804 0
M  V30 2229 H 211.971 -1.75179 0.854305 0
M  V30 2230 H 211.067 -3.11649 0.167641 0
M  V30 2231 N 211.368 -0.403325 -1.52352 0
M  V30 2232 C 212.318 0.442244 -2.2367 0
M  V30 2233 C 213.302 1.01823 -1.24583 0
M  V30 2234 O 214.494 0.942005 -1.49851 0
M  V30 2235 C 211.623 1.5615 -3.05732 0
M  V30 2236 C 210.709 0.996575 -4.12225 0
M  V30 2237 N 211.1 0.157804 -5.05554 0
M  V30 2238 C 209.398 1.26767 -4.27605 0
M  V30 2239 C 210.099 -0.155853 -5.81491 0
M  V30 2240 N 209.075 0.451775 -5.41719 0
M  V30 2241 H 212.877 -0.204964 -2.93184 0
M  V30 2242 H 210.391 -0.213418 -1.60992 0
M  V30 2243 H 212.388 2.17981 -3.55373 0
M  V30 2244 H 211.048 2.21139 -2.37755 0
M  V30 2245 H 212.059 -0.206049 -5.1749 0
M  V30 2246 H 208.736 1.91757 -3.70858 0
M  V30 2247 H 210.126 -0.836329 -6.66675 0
M  V30 2248 N 212.846 1.57033 -0.133567 0
M  V30 2249 C 213.756 2.19632 0.824564 0
M  V30 2250 C 214.772 1.17666 1.28182 0
M  V30 2251 O 215.948 1.50193 1.3418 0
M  V30 2252 C 213.013 2.79499 2.05137 0
M  V30 2253 C 212.074 3.96548 1.64464 0
M  V30 2254 C 211.307 4.5355 2.81297 0
M  V30 2255 O 211.53 4.09438 3.97136 0
M  V30 2256 O 210.464 5.44018 2.57542 0
M  V30 2257 H 214.29 3.01991 0.321766 0
M  V30 2258 H 211.875 1.49112 0.0927889 0
M  V30 2259 H 213.757 3.17602 2.7696 0
M  V30 2260 H 212.432 2.00162 2.54395 0
M  V30 2261 H 211.339 3.63186 0.897048 0
M  V30 2262 H 212.672 4.77364 1.19934 0
M  V30 2263 N 214.325 -0.140222 1.56975 0
M  V30 2264 C 215.741 -0.493088 1.51792 0
M  V30 2265 C 215.941 -1.83013 0.843116 0
M  V30 2266 O 214.997 -2.49041 0.416493 0
M  V30 2267 C 216.31 -0.497144 2.96562 0
M  V30 2268 C 217.858 -0.582186 3.07538 0
M  V30 2269 C 218.333 -0.616838 4.53827 0
M  V30 2270 N 219.824 -0.678873 4.58198 0
M  V30 2271 C 220.559 -0.726782 5.68775 0
M  V30 2272 N 220.055 -0.733623 6.88905 0
M  V30 2273 N 221.848 -0.768179 5.56826 0
M  V30 2274 H 213.999 0.736108 1.99237 0
M  V30 2275 H 216.262 0.269182 0.90898 0
M  V30 2276 H 215.968 0.417217 3.49217 0
M  V30 2277 H 215.842 -1.33263 3.52875 0
M  V30 2278 H 218.229 -1.48697 2.54899 0
M  V30 2279 H 218.31 0.280581 2.54257 0
M  V30 2280 H 217.954 0.283812 5.07106 0
M  V30 2281 H 217.884 -1.49619 5.04898 0
M  V30 2282 H 220.375 -0.68061 3.7172 0
M  V30 2283 H 220.688 -0.772215 7.68932 0
M  V30 2284 H 219.033 -0.701389 6.91452 0
M  V30 2285 H 222.224 -0.760051 4.61888 0
M  V30 2286 H 222.397 -0.80205 6.43017 0
M  V30 2287 N 215.803 -1.52179 -0.40978 0
M  V30 2288 C 217.033 -1.69807 -1.17682 0
M  V30 2289 C 217.441 -0.406908 -1.84773 0
M  V30 2290 O 216.784 0.626863 -1.72673 0
M  V30 2291 C 216.846 -2.77712 -2.2829 0
M  V30 2292 C 216.51 -4.19481 -1.81341 0
M  V30 2293 C 217.507 -5.03345 -1.30154 0
M  V30 2294 C 215.192 -4.65713 -1.88194 0
M  V30 2295 C 217.186 -6.31511 -0.864416 0
M  V30 2296 C 214.873 -5.93869 -1.44093 0
M  V30 2297 C 215.871 -6.76597 -0.933023 0
M  V30 2298 O 215.559 -8.02354 -0.49838 0
M  V30 2299 H 215.291 -0.572372 -0.359675 0
M  V30 2300 H 217.845 -1.99511 -0.488311 0
M  V30 2301 H 216.075 -2.43383 -3.00502 0
M  V30 2302 H 217.764 -2.83946 -2.90051 0
M  V30 2303 H 218.53 -4.68819 -1.24232 0
M  V30 2304 H 214.409 -4.01424 -2.26671 0
M  V30 2305 H 217.953 -6.96033 -0.467286 0
M  V30 2306 H 213.85 -6.27903 -1.49694 0
M  V30 2307 H 214.618 -8.16135 -0.621747 0
M  V30 2308 N 217.281 0.66697 -1.42791 0
M  V30 2309 C 218.558 1.4234 -1.34159 0
M  V30 2310 C 218.938 2.11093 0.0172729 0
M  V30 2311 O 218.286 2.03808 1.03318 0
M  V30 2312 C 218.496 2.41942 -2.51526 0
M  V30 2313 C 219.844 3.06353 -2.93995 0
M  V30 2314 O 220.868 2.52269 -2.51473 0
M  V30 2315 O 219.727 4.04376 -3.67617 0
M  V30 2316 H 216.821 0.635277 -0.529483 0
M  V30 2317 H 219.367 0.695034 -1.54814 0
M  V30 2318 H 218.139 1.89991 -3.42081 0
M  V30 2319 H 217.762 3.22249 -2.32898 0
M  V30 2320 N 218.759 1.29093 0.90403 0
M  V30 2321 C 219.722 1.1386 1.98919 0
M  V30 2322 C 220.722 0.0753457 1.60623 0
M  V30 2323 O 221.912 0.321931 1.71199 0
M  V30 2324 C 219.044 0.740198 3.32767 0
M  V30 2325 H 220.237 2.10246 2.13861 0
M  V30 2326 H 217.79 1.12218 1.08797 0
M  V30 2327 H 218.525 -0.223997 3.23525 0
M  V30 2328 H 218.31 1.50838 3.61926 0
M  V30 2329 H 219.8 0.656546 4.12407 0
M  V30 2330 N 220.237 -1.11381 1.11499 0
M  V30 2331 C 221.484 -1.83132 0.864231 0
M  V30 2332 C 221.812 -1.84683 -0.610114 0
M  V30 2333 O 221.067 -1.29589 -1.46646 0
M  V30 2334 C 221.366 -3.30026 1.37177 0
M  V30 2335 C 221.032 -3.48634 2.85946 0
M  V30 2336 C 219.694 -3.53421 3.26569 0
M  V30 2337 C 222.046 -3.54837 3.81759 0
M  V30 2338 C 219.374 -3.61967 4.61733 0
M  V30 2339 C 221.726 -3.64915 5.1674 0
M  V30 2340 C 220.39 -3.67962 5.5692 0
M  V30 2341 H 219.66 -0.670127 0.316245 0
M  V30 2342 H 222.307 -1.31354 1.3935 0
M  V30 2343 H 220.612 -3.84304 0.762753 0
M  V30 2344 H 222.309 -3.84034 1.15408 0
M  V30 2345 H 218.899 -3.45579 2.53521 0
M  V30 2346 H 223.083 -3.50399 3.51474 0
M  V30 2347 H 218.339 -3.62603 4.92269 0
M  V30 2348 H 222.513 -3.68658 5.90816 0
M  V30 2349 H 220.14 -3.74336 6.61647 0
M  V30 2350 N 221.715 -0.905404 -1.28997 0
M  V30 2351 C 222.962 -0.534248 -1.95325 0
M  V30 2352 C 223.29 0.920535 -1.71337 0
M  V30 2353 O 222.545 1.66861 -1.02254 0
M  V30 2354 C 222.844 -0.779906 -3.48787 0
M  V30 2355 C 222.51 -2.21293 -3.92861 0
M  V30 2356 C 221.172 -2.60475 -4.04606 0
M  V30 2357 C 223.524 -3.14587 -4.15553 0
M  V30 2358 C 220.852 -3.9212 -4.36416 0
M  V30 2359 C 223.204 -4.45787 -4.48839 0
M  V30 2360 C 221.868 -4.84834 -4.58794 0
M  V30 2361 H 221.138 -0.195495 -0.714747 0
M  V30 2362 H 223.785 -1.14514 -1.53488 0
M  V30 2363 H 222.09 -0.0861365 -3.91705 0
M  V30 2364 H 223.787 -0.472029 -3.98212 0
M  V30 2365 H 220.377 -1.89887 -3.84241 0
M  V30 2366 H 224.561 -2.85528 -4.0594 0
M  V30 2367 H 219.817 -4.22086 -4.42327 0
M  V30 2368 H 223.991 -5.18098 -4.65346 0
M  V30 2369 H 221.618 -5.86877 -4.83197 0
M  V30 2370 N 223.193 1.4272 -0.668489 0
M  V30 2371 C 224.418 2.06484 -0.194758 0
M  V30 2372 C 224.843 1.49862 1.13679 0
M  V30 2373 O 224.201 0.614582 1.70565 0
M  V30 2374 C 224.249 3.60353 -0.133546 0
M  V30 2375 O 223.353 4.02464 0.899806 0
M  V30 2376 H 222.694 0.656137 -0.10188 0
M  V30 2377 H 225.224 1.82964 -0.915722 0
M  V30 2378 H 225.234 4.07976 0.0447041 0
M  V30 2379 H 223.909 4.00938 -1.1055 0
M  V30 2380 H 222.486 3.66402 0.693109 0
M  V30 2381 N 224.671 0.411399 1.52136 0
M  V30 2382 C 225.601 -0.404015 2.29978 0
M  V30 2383 C 226.582 -1.04412 1.34284 0
M  V30 2384 O 227.767 -1.0527 1.63192 0
M  V30 2385 C 224.897 -1.5197 3.12286 0
M  V30 2386 C 223.851 -1.00448 4.16046 0
M  V30 2387 C 223.177 -2.21393 4.86712 0
M  V30 2388 C 224.477 -0.0569336 5.22269 0
M  V30 2389 H 226.171 0.245529 2.98392 0
M  V30 2390 H 223.717 0.119525 1.43503 0
M  V30 2391 H 225.67 -2.09715 3.6551 0
M  V30 2392 H 224.394 -2.19716 2.41646 0
M  V30 2393 H 223.053 -0.449421 3.63835 0
M  V30 2394 H 222.701 -2.87699 4.12599 0
M  V30 2395 H 222.401 -1.87571 5.56858 0
M  V30 2396 H 223.925 -2.7974 5.4275 0
M  V30 2397 H 225.339 -0.54325 5.7072 0
M  V30 2398 H 223.736 0.192594 5.99791 0
M  V30 2399 H 224.806 0.887663 4.76706 0
M  V30 2400 N 226.149 -1.5696 0.141893 0
M  V30 2401 C 227.112 -2.15316 -0.785587 0
M  V30 2402 C 228.112 -1.09366 -1.1788 0
M  V30 2403 O 229.302 -1.35031 -1.10056 0
M  V30 2404 C 226.434 -2.71211 -2.06537 0
M  V30 2405 H 227.627 -2.98608 -0.278041 0
M  V30 2406 H 225.18 -1.5593 -0.107519 0
M  V30 2407 H 225.915 -1.91571 -2.6167 0
M  V30 2408 H 225.7 -3.4872 -1.79268 0
M  V30 2409 H 227.19 -3.16189 -2.72789 0
M  V30 2410 N 227.627 0.131896 -1.57047 0
M  V30 2411 C 228.577 1.1679 -1.95816 0
M  V30 2412 C 229.561 1.37756 -0.831393 0
M  V30 2413 O 230.753 1.39065 -1.09499 0
M  V30 2414 C 227.882 2.49778 -2.35512 0
M  V30 2415 C 226.968 2.32342 -3.54793 0
M  V30 2416 N 227.359 1.8469 -4.70875 0
M  V30 2417 C 225.657 2.63043 -3.60173 0
M  V30 2418 C 226.358 1.80656 -5.52936 0
M  V30 2419 N 225.334 2.24528 -4.95064 0
M  V30 2420 H 229.136 0.791818 -2.83033 0
M  V30 2421 H 226.65 0.339791 -1.58805 0
M  V30 2422 H 228.647 3.24692 -2.61498 0
M  V30 2423 H 227.307 2.88156 -1.49654 0
M  V30 2424 H 228.318 1.54429 -4.9434 0
M  V30 2425 H 224.995 3.05193 -2.84892 0
M  V30 2426 H 226.385 1.45178 -6.56028 0
M  V30 2427 N 229.106 1.52395 0.401703 0
M  V30 2428 C 230.522 1.41363 0.740864 0
M  V30 2429 C 230.722 0.523982 1.94568 0
M  V30 2430 O 229.778 -0.00741204 2.52499 0
M  V30 2431 C 231.091 2.84011 0.987847 0
M  V30 2432 C 232.639 2.93404 1.09011 0
M  V30 2433 C 233.114 4.37036 1.3698 0
M  V30 2434 N 234.605 4.40304 1.43829 0
M  V30 2435 C 235.34 5.48508 1.67112 0
M  V30 2436 N 234.836 6.66819 1.87949 0
M  V30 2437 N 236.629 5.36034 1.69187 0
M  V30 2438 H 228.78 2.08765 -0.391262 0
M  V30 2439 H 231.043 0.941265 -0.112798 0
M  V30 2440 H 230.749 3.51265 0.174835 0
M  V30 2441 H 230.623 3.25502 1.906 0
M  V30 2442 H 233.01 2.26325 1.8937 0
M  V30 2443 H 233.091 2.55359 0.15015 0
M  V30 2444 H 232.735 5.04676 0.571353 0
M  V30 2445 H 232.665 4.72623 2.3224 0
M  V30 2446 H 235.156 3.55024 1.29486 0
M  V30 2447 H 235.469 7.45063 2.05185 0
M  V30 2448 H 233.814 6.6987 1.85199 0
M  V30 2449 H 237.005 4.42579 1.52451 0
M  V30 2450 H 237.178 6.20434 1.86993 0
M  V30 2451 N 230.584 -0.659388 1.43143 0
M  V30 2452 C 231.514 -1.78422 1.50625 0
M  V30 2453 C 232.495 -1.66216 0.361443 0
M  V30 2454 O 233.68 -1.85404 0.577834 0
M  V30 2455 C 230.81 -3.16815 1.42287 0
M  V30 2456 C 229.764 -3.43777 2.54954 0
M  V30 2457 C 229.09 -4.81905 2.31671 0
M  V30 2458 C 230.39 -3.39134 3.97222 0
M  V30 2459 H 232.084 -1.72417 2.44771 0
M  V30 2460 H 229.63 -0.828084 1.17808 0
M  V30 2461 H 231.583 -3.95253 1.46127 0
M  V30 2462 H 230.307 -3.23534 0.446435 0
M  V30 2463 H 228.966 -2.67707 2.50457 0
M  V30 2464 H 228.614 -4.85294 1.32284 0
M  V30 2465 H 228.314 -5.00906 3.07192 0
M  V30 2466 H 229.838 -5.62609 2.37284 0
M  V30 2467 H 231.252 -4.07518 4.03239 0
M  V30 2468 H 229.649 -3.69671 4.72719 0
M  V30 2469 H 230.719 -2.37426 4.22797 0
M  V30 2470 N 232.062 -1.29571 -0.897171 0
M  V30 2471 C 232.992 -1.17473 -2.01798 0
M  V30 2472 C 233.973 -0.068323 -1.69963 0
M  V30 2473 O 235.158 -0.248239 -1.92607 0
M  V30 2474 C 232.288 -0.853099 -3.36659 0
M  V30 2475 C 231.242 -1.9161 -3.82713 0
M  V30 2476 C 230.568 -1.44773 -5.14728 0
M  V30 2477 C 231.868 -3.32535 -4.02763 0
M  V30 2478 H 233.562 -2.11237 -2.12177 0
M  V30 2479 H 231.108 -1.01699 -1.01948 0
M  V30 2480 H 233.061 -0.755165 -4.14578 0
M  V30 2481 H 231.785 0.120236 -3.26379 0
M  V30 2482 H 230.444 -2.00346 -3.07013 0
M  V30 2483 H 230.092 -0.462995 -5.00865 0
M  V30 2484 H 229.792 -2.15865 -5.46513 0
M  V30 2485 H 231.316 -1.36334 -5.95185 0
M  V30 2486 H 232.73 -3.26626 -4.71156 0
M  V30 2487 H 231.127 -4.01607 -4.45905 0
M  V30 2488 H 232.197 -3.75326 -3.07016 0
M  V30 2489 N 233.54 1.10788 -1.12088 0
M  V30 2490 C 234.951 1.64181 -0.88891 0
M  V30 2491 C 235.302 1.87508 0.577498 0
M  V30 2492 O 234.427 1.61434 1.44112 0
M  V30 2493 C 235.022 2.98257 -1.60712 0
M  V30 2494 C 233.581 3.4853 -1.42139 0
M  V30 2495 C 232.728 2.23208 -1.6454 0
M  V30 2496 H 235.679 0.943368 -1.27618 0
M  V30 2497 H 235.7 3.65552 -1.05604 0
M  V30 2498 H 235.212 2.81246 -2.67436 0
M  V30 2499 H 233.313 3.70692 -0.376552 0
M  V30 2500 H 233.426 4.26882 -2.17505 0
M  V30 2501 H 231.79 2.31169 -1.06925 0
M  V30 2502 H 232.573 2.08733 -2.72554 0
M  V30 2503 N 235.018 0.912232 1.28515 0
M  V30 2504 C 235.981 0.404223 2.25607 0
M  V30 2505 C 236.981 -0.468602 1.53821 0
M  V30 2506 O 238.171 -0.271873 1.72065 0
M  V30 2507 C 235.303 -0.420653 3.38295 0
M  V30 2508 H 236.496 1.26188 2.7206 0
M  V30 2509 H 234.049 0.691495 1.40171 0
M  V30 2510 H 234.784 -1.29777 2.97201 0
M  V30 2511 H 234.569 0.204935 3.91564 0
M  V30 2512 H 236.059 -0.766971 4.10496 0
M  V30 2513 N 236.496 -1.42363 0.676048 0
M  V30 2514 C 237.773 -1.95183 0.127726 0
M  V30 2515 C 238.153 -1.61641 -1.35777 0
M  V30 2516 O 237.501 -0.913216 -2.09458 0
M  V30 2517 C 237.711 -3.46721 0.398199 0
M  V30 2518 C 239.059 -4.23427 0.315383 0
M  V30 2519 O 240.083 -3.54649 0.332016 0
M  V30 2520 O 238.942 -5.45888 0.25865 0
M  V30 2521 H 236.036 -0.826992 0.00359427 0
M  V30 2522 H 238.582 -1.52184 0.750864 0
M  V30 2523 H 237.354 -3.64344 1.4272 0
M  V30 2524 H 236.977 -3.96769 -0.256885 0
M  V30 2525 N 237.974 -0.419461 -1.51915 0
M  V30 2526 C 239.222 0.152637 -2.01523 0
M  V30 2527 C 239.543 1.44762 -1.30649 0
M  V30 2528 O 238.813 1.90997 -0.435535 0
M  V30 2529 H 237.393 0.0593966 -0.744635 0
M  V30 2530 H 240.055 -0.558073 -1.86739 0
M  V30 2531 H 239.151 0.341369 -3.10227 0
M  V30 2532 N 239.452 1.56882 -0.150215 0
M  V30 2533 C 240.698 1.96518 0.500834 0
M  V30 2534 C 241.031 1.03527 1.64304 0
M  V30 2535 O 240.306 0.0782751 1.94342 0
M  V30 2536 C 240.589 3.45822 1.00395 0
M  V30 2537 C 240.442 4.49591 -0.136983 0
M  V30 2538 C 241.761 3.97704 1.88467 0
M  V30 2539 H 238.88 0.714535 0.18058 0
M  V30 2540 H 241.522 1.88577 -0.232091 0
M  V30 2541 H 239.672 3.5272 1.62851 0
M  V30 2542 H 241.344 4.5477 -0.77343 0
M  V30 2543 H 239.587 4.26441 -0.795652 0
M  V30 2544 H 240.258 5.51402 0.256815 0
M  V30 2545 H 242.734 3.93304 1.35834 0
M  V30 2546 H 241.61 5.0263 2.20578 0
M  V30 2547 H 241.871 3.40252 2.82279 0
M  V30 2548 N 240.93 -0.123565 1.57115 0
M  V30 2549 C 241.863 -1.18202 1.95201 0
M  V30 2550 C 242.841 -1.40349 0.821031 0
M  V30 2551 O 244.025 -1.54578 1.07879 0
M  V30 2552 C 241.152 -2.53671 2.24429 0
M  V30 2553 C 240.198 -2.4798 3.46999 0
M  V30 2554 S 241.031 -1.92389 4.99747 0
M  V30 2555 C 242.187 -3.2954 5.32123 0
M  V30 2556 H 242.42 -0.857212 2.84674 0
M  V30 2557 H 239.953 -0.33014 1.50829 0
M  V30 2558 H 241.911 -3.3162 2.41947 0
M  V30 2559 H 240.572 -2.83332 1.35579 0
M  V30 2560 H 239.765 -3.47758 3.64801 0
M  V30 2561 H 239.367 -1.7815 3.28844 0
M  V30 2562 H 241.659 -4.25736 5.27025 0
M  V30 2563 H 242.602 -3.16569 6.33395 0
M  V30 2564 H 243.01 -3.27758 4.59603 0
M  V30 2565 N 242.408 -1.52605 -0.393616 0
M  V30 2566 C 243.338 -1.80022 -1.48709 0
M  V30 2567 C 244.319 -0.651995 -1.57108 0
M  V30 2568 O 245.504 -0.89913 -1.72132 0
M  V30 2569 C 242.634 -1.96492 -2.86371 0
M  V30 2570 C 241.588 -3.12161 -2.92813 0
M  V30 2571 C 240.914 -3.13877 -4.3288 0
M  V30 2572 C 242.214 -4.51322 -2.6288 0
M  V30 2573 H 243.908 -2.71589 -1.26015 0
M  V30 2574 H 241.454 -1.30684 -0.604778 0
M  V30 2575 H 243.407 -2.14255 -3.62867 0
M  V30 2576 H 242.131 -1.01611 -3.10391 0
M  V30 2577 H 240.79 -2.94173 -2.18764 0
M  V30 2578 H 240.438 -2.16687 -4.53933 0
M  V30 2579 H 240.138 -3.91576 -4.38112 0
M  V30 2580 H 241.662 -3.33789 -5.1129 0
M  V30 2581 H 243.076 -4.69435 -3.29096 0
M  V30 2582 H 241.473 -5.31053 -2.79468 0
M  V30 2583 H 242.543 -4.58353 -1.58242 0
M  V30 2584 N 243.887 0.651787 -1.4349 0
M  V30 2585 C 244.817 1.77621 -1.51569 0
M  V30 2586 C 245.798 1.66022 -0.370253 0
M  V30 2587 O 246.983 1.85095 -0.587658 0
M  V30 2588 C 244.113 3.16056 -1.43966 0
M  V30 2589 C 243.067 3.4242 -2.56774 0
M  V30 2590 C 242.393 4.8067 -2.34223 0
M  V30 2591 C 243.693 3.37023 -3.99015 0
M  V30 2592 H 245.387 1.71117 -2.45681 0
M  V30 2593 H 242.933 0.821825 -1.18246 0
M  V30 2594 H 244.886 3.94472 -1.48221 0
M  V30 2595 H 243.61 3.23293 -0.463586 0
M  V30 2596 H 242.269 2.66375 -2.51873 0
M  V30 2597 H 241.917 4.84585 -1.34856 0
M  V30 2598 H 241.617 4.9927 -3.09844 0
M  V30 2599 H 243.141 5.61342 -2.40265 0
M  V30 2600 H 244.555 4.05374 -4.05395 0
M  V30 2601 H 242.952 3.67159 -4.74673 0
M  V30 2602 H 244.022 2.3518 -4.2405 0
M  V30 2603 N 245.365 1.30045 0.890287 0
M  V30 2604 C 246.315 1.12592 1.9826 0
M  V30 2605 C 247.299 0.0426021 1.60844 0
M  V30 2606 O 248.491 0.265346 1.75 0
M  V30 2607 C 245.62 0.814301 3.33503 0
M  V30 2608 C 244.706 1.93761 3.7725 0
M  V30 2609 N 245.097 3.18232 3.93143 0
M  V30 2610 C 243.395 1.83277 4.06602 0
M  V30 2611 C 244.096 3.9158 4.30163 0
M  V30 2612 N 243.072 3.19591 4.3973 0
M  V30 2613 H 246.874 2.07003 2.08631 0
M  V30 2614 H 244.388 1.21307 1.07974 0
M  V30 2615 H 246.385 0.67029 4.11476 0
M  V30 2616 H 245.045 -0.121797 3.24471 0
M  V30 2617 H 246.056 3.53581 3.78419 0
M  V30 2618 H 242.733 0.97001 4.06075 0
M  V30 2619 H 244.123 4.98744 4.50226 0
M  V30 2620 N 246.843 -1.10192 1.12674 0
M  V30 2621 C 248.071 -1.85983 0.906527 0
M  V30 2622 C 248.486 -1.80783 -0.544333 0
M  V30 2623 O 247.843 -1.19834 -1.37645 0
M  V30 2624 C 247.894 -3.34281 1.37618 0
M  V30 2625 O 247.615 -3.39401 2.77017 0
M  V30 2626 C 249.116 -4.26938 1.19325 0
M  V30 2627 H 246.336 -0.587716 0.323775 0
M  V30 2628 H 248.88 -1.39284 1.49734 0
M  V30 2629 H 247.035 -3.78436 0.828539 0
M  V30 2630 H 247.449 -4.31838 2.97684 0
M  V30 2631 H 248.923 -5.29181 1.57071 0
M  V30 2632 H 249.4 -4.38995 0.134097 0
M  V30 2633 H 250.006 -3.8859 1.72852 0
M  V30 2634 N 248.321 -0.919034 -1.28029 0
M  V30 2635 C 249.57 -0.550802 -1.94034 0
M  V30 2636 C 249.883 0.910877 -1.73096 0
M  V30 2637 O 251.089 1.3875 -2.33368 0
M  V30 2638 C 249.545 -0.934249 -3.47563 0
M  V30 2639 C 249.153 -2.41602 -3.7727 0
M  V30 2640 C 250.897 -0.636854 -4.19696 0
M  V30 2641 C 248.804 -2.73932 -5.24133 0
M  V30 2642 H 247.734 -0.202273 -0.726362 0
M  V30 2643 H 250.385 -1.11867 -1.45458 0
M  V30 2644 H 248.767 -0.295115 -3.94899 0
M  V30 2645 H 249.941 -3.10233 -3.40723 0
M  V30 2646 H 248.256 -2.68441 -3.18321 0
M  V30 2647 H 250.853 -0.855005 -5.2782 0
M  V30 2648 H 251.196 0.425575 -4.14119 0
M  V30 2649 H 251.729 -1.23469 -3.78154 0
M  V30 2650 H 248.468 -3.79049 -5.34792 0
M  V30 2651 H 247.988 -2.09942 -5.61858 0
M  V30 2652 H 249.667 -2.61215 -5.91925 0
M  V30 2653 N 249.799 1.42003 -0.683588 0
M  V30 2654 C 251.027 2.05746 -0.218182 0
M  V30 2655 C 251.442 1.51396 1.12804 0
M  V30 2656 O 250.799 0.657303 1.70252 0
M  V30 2657 C 250.85 3.61171 -0.154131 0
M  V30 2658 O 250.571 4.13508 -1.44716 0
M  V30 2659 C 252.072 4.42042 0.333713 0
M  V30 2660 H 249.292 0.662888 -0.10402 0
M  V30 2661 H 251.836 1.81987 -0.9328 0
M  V30 2662 H 249.991 3.84012 0.511231 0
M  V30 2663 H 250.405 5.07453 -1.32632 0
M  V30 2664 H 251.879 5.51028 0.327423 0
M  V30 2665 H 252.356 4.17269 1.37053 0
M  V30 2666 H 252.962 4.24239 -0.300222 0
M  V30 2667 N 251.277 0.427512 1.51691 0
M  V30 2668 C 252.525 -0.141948 2.01601 0
M  V30 2669 C 252.846 -1.44067 1.31414 0
M  V30 2670 O 252.116 -1.90763 0.445658 0
M  V30 2671 H 250.696 -0.0554468 0.744939 0
M  V30 2672 H 253.358 0.567968 1.86441 0
M  V30 2673 H 252.454 -0.324913 3.10404 0
M  V30 2674 N 252.755 -1.56801 0.158532 0
M  V30 2675 C 253.685 -2.20347 -0.772609 0
M  V30 2676 C 254.666 -1.15518 -1.24859 0
M  V30 2677 O 255.851 -1.43902 -1.30406 0
M  V30 2678 C 252.981 -2.83417 -2.00729 0
M  V30 2679 C 251.935 -3.94174 -1.66765 0
M  V30 2680 C 251.261 -4.44233 -2.97592 0
M  V30 2681 C 252.561 -5.14392 -0.905447 0
M  V30 2682 H 254.255 -2.98413 -0.242959 0
M  V30 2683 H 251.801 -1.43537 -0.115419 0
M  V30 2684 H 253.754 -3.26543 -2.6636 0
M  V30 2685 H 252.478 -2.02701 -2.56086 0
M  V30 2686 H 251.137 -3.51684 -1.03508 0
M  V30 2687 H 250.785 -3.60325 -3.50963 0
M  V30 2688 H 250.485 -5.18945 -2.75626 0
M  V30 2689 H 252.009 -4.90037 -3.64274 0
M  V30 2690 H 253.423 -5.5429 -1.46408 0
M  V30 2691 H 251.82 -5.9494 -0.7853 0
M  V30 2692 H 252.89 -4.84795 0.100668 0
M  V30 2693 N 254.233 0.115231 -1.57178 0
M  V30 2694 C 255.183 1.14707 -1.97044 0
M  V30 2695 C 256.167 1.36866 -0.845957 0
M  V30 2696 O 257.359 1.37895 -1.10968 0
M  V30 2697 C 254.488 2.47266 -2.38148 0
M  V30 2698 C 253.574 2.28566 -3.57237 0
M  V30 2699 N 253.965 1.79685 -4.72807 0
M  V30 2700 C 252.263 2.59208 -3.62943 0
M  V30 2701 C 252.964 1.74781 -5.54821 0
M  V30 2702 N 251.94 2.19264 -4.97417 0
M  V30 2703 H 255.742 0.761754 -2.83857 0
M  V30 2704 H 253.256 0.322928 -1.59157 0
M  V30 2705 H 255.253 3.219 -2.64927 0
M  V30 2706 H 253.913 2.86552 -1.52702 0
M  V30 2707 H 254.924 1.49177 -4.9595 0
M  V30 2708 H 251.601 3.02154 -2.88113 0
M  V30 2709 H 252.991 1.38212 -6.57531 0
M  V30 2710 N 255.711 1.52812 0.385517 0
M  V30 2711 C 257.122 1.5993 0.963293 0
M  V30 2712 C 257.473 0.454302 1.90868 0
M  V30 2713 O 256.598 -0.422132 2.12243 0
M  V30 2714 C 257.193 2.89871 1.75387 0
M  V30 2715 C 255.752 2.99389 2.28129 0
M  V30 2716 C 254.899 2.55071 1.08783 0
M  V30 2717 H 257.85 1.5784 0.164948 0
M  V30 2718 H 257.871 2.76553 2.61341 0
M  V30 2719 H 257.383 3.73186 1.06554 0
M  V30 2720 H 255.484 2.20619 3.00263 0
M  V30 2721 H 255.597 4.04096 2.57377 0
M  V30 2722 H 253.961 2.09473 1.4489 0
M  V30 2723 H 254.744 3.40785 0.414807 0
M  V30 2724 N 257.189 -0.644168 1.43834 0
M  V30 2725 C 258.136 -1.75671 1.49694 0
M  V30 2726 C 259.106 -1.6246 0.345809 0
M  V30 2727 O 260.291 -1.82573 0.554234 0
M  V30 2728 C 257.431 -3.13867 1.43463 0
M  V30 2729 C 256.544 -3.38147 2.6885 0
M  V30 2730 C 255.679 -4.66241 2.54544 0
M  V30 2731 C 254.718 -4.83657 3.75157 0
M  V30 2732 N 253.855 -6.03016 3.59605 0
M  V30 2733 H 258.695 -1.69998 2.44754 0
M  V30 2734 H 256.232 -0.829458 1.21484 0
M  V30 2735 H 258.19 -3.9377 1.37843 0
M  V30 2736 H 256.82 -3.18588 0.519783 0
M  V30 2737 H 255.872 -2.52276 2.84712 0
M  V30 2738 H 257.184 -3.46899 3.58417 0
M  V30 2739 H 256.338 -5.54285 2.46683 0
M  V30 2740 H 255.077 -4.59826 1.62516 0
M  V30 2741 H 254.082 -3.94046 3.83416 0
M  V30 2742 H 255.307 -4.91896 4.68204 0
M  V30 2743 H 253.253 -5.97715 2.7032 0
M  V30 2744 H 253.17 -6.12766 4.42779 0
M  V30 2745 H 254.438 -6.93657 3.55613 0
M  V30 2746 N 258.668 -1.30515 -0.883378 0
M  V30 2747 C 259.578 -1.18959 -2.02203 0
M  V30 2748 C 260.594 -0.109172 -1.73657 0
M  V30 2749 O 261.77 -0.324413 -1.9877 0
M  V30 2750 C 258.835 -0.883871 -3.35244 0
M  V30 2751 C 257.896 -2.04982 -3.77201 0
M  V30 2752 C 257.129 -1.75859 -5.03894 0
M  V30 2753 O 257.352 -0.687276 -5.66244 0
M  V30 2754 O 256.286 -2.61146 -5.42297 0
M  V30 2755 H 260.112 -2.14616 -2.1488 0
M  V30 2756 H 257.697 -1.10124 -1.0096 0
M  V30 2757 H 259.579 -0.728644 -4.15053 0
M  V30 2758 H 258.254 0.0427798 -3.23672 0
M  V30 2759 H 257.161 -2.26038 -2.9809 0
M  V30 2760 H 258.494 -2.95825 -3.93381 0
M  V30 2761 N 260.146 1.09593 -1.13257 0
M  V30 2762 C 261.395 1.81105 -0.887917 0
M  V30 2763 C 261.708 1.86563 0.587672 0
M  V30 2764 O 262.914 2.54367 0.949204 0
M  V30 2765 C 261.37 3.25338 -1.53895 0
M  V30 2766 C 260.978 3.28151 -3.04994 0
M  V30 2767 C 262.722 4.01617 -1.37492 0
M  V30 2768 C 260.629 4.66897 -3.6299 0
M  V30 2769 H 259.559 0.678661 -0.328534 0
M  V30 2770 H 262.21 1.23183 -1.36008 0
M  V30 2771 H 260.592 3.8331 -0.994446 0
M  V30 2772 H 261.766 2.79953 -3.66009 0
M  V30 2773 H 260.081 2.65361 -3.20893 0
M  V30 2774 H 262.678 5.04119 -1.78235 0
M  V30 2775 H 263.021 4.15072 -0.31957 0
M  V30 2776 H 263.554 3.50082 -1.88912 0
M  V30 2777 H 260.293 4.58643 -4.68323 0
M  V30 2778 H 259.813 5.15426 -3.06752 0
M  V30 2779 H 261.492 5.3587 -3.62563 0
M  V30 2780 N 261.624 0.925811 1.2754 0
M  V30 2781 C 262.574 0.394488 2.24561 0
M  V30 2782 C 263.558 -0.500183 1.52928 0
M  V30 2783 O 264.75 -0.337936 1.73744 0
M  V30 2784 C 261.879 -0.353328 3.41477 0
M  V30 2785 C 260.965 0.557752 4.20416 0
M  V30 2786 N 261.356 1.67674 4.77199 0
M  V30 2787 C 259.654 0.360404 4.44541 0
M  V30 2788 C 260.355 2.24324 5.36706 0
M  V30 2789 N 259.331 1.53305 5.21535 0
M  V30 2790 H 263.133 1.2489 2.66045 0
M  V30 2791 H 260.647 0.779864 1.4245 0
M  V30 2792 H 262.644 -0.7509 4.10082 0
M  V30 2793 H 261.304 -1.20469 3.01525 0
M  V30 2794 H 262.315 2.05915 4.75204 0
M  V30 2795 H 258.992 -0.450454 4.15063 0
M  V30 2796 H 260.382 3.18521 5.91603 0
M  V30 2797 N 263.102 -1.41638 0.69111 0
M  V30 2798 C 264.012 -2.34588 0.0233487 0
M  V30 2799 C 265.028 -1.55987 -0.770984 0
M  V30 2800 O 266.204 -1.88486 -0.709569 0
M  V30 2801 C 263.269 -3.34684 -0.904851 0
M  V30 2802 C 262.33 -4.29176 -0.103225 0
M  V30 2803 C 261.563 -5.2449 -0.987216 0
M  V30 2804 O 261.786 -5.2514 -2.22674 0
M  V30 2805 O 260.72 -6.00295 -0.439281 0
M  V30 2806 H 264.546 -2.93261 0.789416 0
M  V30 2807 H 262.131 -1.42417 0.45142 0
M  V30 2808 H 264.013 -3.96133 -1.43724 0
M  V30 2809 H 262.688 -2.78461 -1.65049 0
M  V30 2810 H 261.595 -3.71089 0.473655 0
M  V30 2811 H 262.928 -4.88484 0.60365 0
M  V30 2812 N 264.58 -0.43555 -1.51462 0
M  V30 2813 C 265.996 -0.0877501 -1.59359 0
M  V30 2814 C 266.196 1.4027 -1.4466 0
M  V30 2815 O 265.252 2.17243 -1.28693 0
M  V30 2816 C 266.565 -0.606264 -2.94525 0
M  V30 2817 C 268.113 -0.566548 -3.0783 0
M  V30 2818 C 268.588 -1.06201 -4.45517 0
M  V30 2819 N 270.079 -1.01992 -4.51832 0
M  V30 2820 C 270.814 -1.37417 -5.5669 0
M  V30 2821 N 270.31 -1.80119 -6.68976 0
M  V30 2822 N 272.103 -1.29245 -5.47039 0
M  V30 2823 H 264.254 -1.40533 -1.59261 0
M  V30 2824 H 266.517 -0.578992 -0.750648 0
M  V30 2825 H 266.223 -1.64901 -3.10645 0
M  V30 2826 H 266.097 -0.0302097 -3.77188 0
M  V30 2827 H 268.484 0.467208 -2.91378 0
M  V30 2828 H 268.565 -1.17898 -2.2701 0
M  V30 2829 H 268.209 -2.09422 -4.62715 0
M  V30 2830 H 268.139 -0.426127 -5.24873 0
M  V30 2831 H 270.63 -0.706308 -3.71241 0
M  V30 2832 H 270.943 -2.05392 -7.45006 0
M  V30 2833 H 269.288 -1.84044 -6.70189 0
M  V30 2834 H 272.479 -0.957522 -4.58202 0
M  V30 2835 H 272.652 -1.57182 -6.28648 0
M  V30 2836 N 266.058 1.56714 -0.166846 0
M  V30 2837 C 267.306 1.96358 0.478305 0
M  V30 2838 C 267.627 1.0537 1.6408 0
M  V30 2839 O 266.897 0.119154 1.95537 0
M  V30 2840 H 265.477 0.725065 0.179692 0
M  V30 2841 H 268.139 1.93329 -0.246985 0
M  V30 2842 H 267.235 3.00547 0.841292 0
M  V30 2843 N 267.536 -0.106894 1.57237 0
M  V30 2844 C 268.466 -1.13148 2.04254 0
M  V30 2845 C 269.447 -1.42476 0.929224 0
M  V30 2846 O 270.632 -1.52709 1.19973 0
M  V30 2847 C 267.762 -2.4545 2.45706 0
M  V30 2848 C 266.716 -2.30558 3.60592 0
M  V30 2849 C 266.042 -3.67931 3.87983 0
M  V30 2850 C 267.342 -1.75597 4.91897 0
M  V30 2851 H 269.036 -0.740374 2.90101 0
M  V30 2852 H 266.582 -0.354696 1.39563 0
M  V30 2853 H 268.535 -3.17389 2.77205 0
M  V30 2854 H 267.259 -2.86475 1.56843 0
M  V30 2855 H 265.918 -1.61067 3.29322 0
M  V30 2856 H 265.566 -4.06462 2.96306 0
M  V30 2857 H 265.266 -3.58817 4.65322 0
M  V30 2858 H 266.79 -4.41356 4.21945 0
M  V30 2859 H 268.204 -2.37364 5.21854 0
M  V30 2860 H 266.601 -1.77272 5.73319 0
M  V30 2861 H 267.671 -0.714451 4.79608 0
M  V30 2862 N 269.014 -1.53014 -0.377408 0
M  V30 2863 C 270.425 -1.60438 -0.954798 0
M  V30 2864 C 270.776 -0.464418 -1.90624 0
M  V30 2865 O 269.901 0.41087 -2.12464 0
M  V30 2866 C 270.496 -2.90797 -1.73847 0
M  V30 2867 C 269.055 -3.00595 -2.26538 0
M  V30 2868 C 268.202 -2.55645 -1.07429 0
M  V30 2869 H 271.153 -1.57926 -0.156575 0
M  V30 2870 H 271.174 -2.77935 -2.5987 0
M  V30 2871 H 270.686 -3.73746 -1.04574 0
M  V30 2872 H 268.787 -2.22208 -2.99089 0
M  V30 2873 H 268.9 -4.05456 -2.5523 0
M  V30 2874 H 267.264 -2.10239 -1.43777 0
M  V30 2875 H 268.047 -3.41 -0.396728 0
M  V30 2876 N 270.492 0.636531 -1.44174 0
M  V30 2877 C 271.425 1.76139 -1.45087 0
M  V30 2878 C 272.403 1.59611 -0.310326 0
M  V30 2879 O 273.587 1.81568 -0.506477 0
M  V30 2880 C 270.714 3.13648 -1.27839 0
M  V30 2881 C 269.76 3.48838 -2.45386 0
M  V30 2882 S 270.593 3.46927 -4.07924 0
M  V30 2883 C 271.749 4.87064 -3.9309 0
M  V30 2884 H 271.982 1.75096 -2.40268 0
M  V30 2885 H 269.515 0.810666 -1.31406 0
M  V30 2886 H 271.473 3.93002 -1.18575 0
M  V30 2887 H 270.134 3.12235 -0.341787 0
M  V30 2888 H 269.327 4.48886 -2.29167 0
M  V30 2889 H 268.929 2.76935 -2.51362 0
M  V30 2890 H 271.221 5.76153 -3.56446 0
M  V30 2891 H 272.164 5.08337 -4.92949 0
M  V30 2892 H 272.572 4.61384 -3.25246 0
M  V30 2893 N 271.97 1.30982 0.876444 0
M  V30 2894 C 273.195 1.23373 1.66715 0
M  V30 2895 C 273.62 -0.19885 1.87046 0
M  V30 2896 O 272.978 -1.1427 1.40756 0
M  V30 2897 C 273.026 1.97644 3.01611 0
M  V30 2898 O 272.13 1.30935 3.91062 0
M  V30 2899 H 271.471 0.426279 0.509099 0
M  V30 2900 H 274.001 1.72944 1.09323 0
M  V30 2901 H 274.011 2.06992 3.51594 0
M  V30 2902 H 272.686 3.01829 2.86133 0
M  V30 2903 H 271.263 1.29996 3.49507 0
M  V30 2904 N 273.449 -1.08991 1.13837 0
M  V30 2905 C 274.696 -1.81258 0.902882 0
M  V30 2906 C 275.024 -1.85936 -0.570803 0
M  V30 2907 O 274.279 -1.3267 -1.43865 0
M  V30 2908 C 274.578 -3.27042 1.44147 0
M  V30 2909 C 274.244 -3.4249 2.93276 0
M  V30 2910 C 272.906 -3.46414 3.33992 0
M  V30 2911 C 275.258 -3.4666 3.892 0
M  V30 2912 C 272.586 -3.52091 4.69307 0
M  V30 2913 C 274.938 -3.53872 5.24364 0
M  V30 2914 C 273.602 -3.56066 5.646 0
M  V30 2915 H 272.872 -0.663268 0.330388 0
M  V30 2916 H 275.519 -1.28368 1.42105 0
M  V30 2917 H 273.824 -3.82599 0.844097 0
M  V30 2918 H 275.521 -3.81499 1.23528 0
M  V30 2919 H 272.111 -3.40124 2.60794 0
M  V30 2920 H 276.295 -3.42865 3.58828 0
M  V30 2921 H 271.551 -3.52079 4.9985 0
M  V30 2922 H 275.725 -3.56043 5.98503 0
M  V30 2923 H 273.352 -3.60218 6.69438 0
M  V30 2924 N 274.927 -0.932562 -1.27047 0
M  V30 2925 C 276.155 -0.592031 -1.98249 0
M  V30 2926 C 276.57 0.831062 -1.69525 0
M  V30 2927 O 275.927 1.55299 -0.958561 0
M  V30 2928 C 275.978 -0.814279 -3.5221 0
M  V30 2929 O 275.699 -2.18139 -3.7993 0
M  V30 2930 C 277.2 -0.483121 -4.4066 0
M  V30 2931 H 274.42 -0.223896 -0.632544 0
M  V30 2932 H 276.964 -1.25091 -1.61779 0
M  V30 2933 H 275.119 -0.20213 -3.86872 0
M  V30 2934 H 275.533 -2.235 -4.74498 0
M  V30 2935 H 277.007 -0.689298 -5.47679 0
M  V30 2936 H 277.484 0.581546 -4.35333 0
M  V30 2937 H 278.09 -1.07362 -4.11526 0
M  V30 2938 N 276.405 1.4127 -0.698611 0
M  V30 2939 C 277.652 2.0118 -0.230865 0
M  V30 2940 C 277.98 1.55338 1.17049 0
M  V30 2941 O 277.235 0.756775 1.80475 0
M  V30 2942 C 277.534 3.56592 -0.240192 0
M  V30 2943 C 277.2 4.21955 -1.58948 0
M  V30 2944 C 275.862 4.39524 -1.95887 0
M  V30 2945 C 278.214 4.58576 -2.47704 0
M  V30 2946 C 275.542 4.90992 -3.2116 0
M  V30 2947 C 277.894 5.11435 -3.72313 0
M  V30 2948 C 276.558 5.27215 -4.0939 0
M  V30 2949 H 275.828 0.736169 -0.0844796 0
M  V30 2950 H 278.475 1.69124 -0.8983 0
M  V30 2951 H 276.78 3.88456 0.510797 0
M  V30 2952 H 278.477 4.00758 0.139296 0
M  V30 2953 H 275.067 4.08657 -1.29219 0
M  V30 2954 H 279.251 4.44654 -2.20445 0
M  V30 2955 H 274.507 5.01393 -3.49878 0
M  V30 2956 H 278.681 5.38752 -4.4127 0
M  V30 2957 H 276.308 5.66859 -5.06533 0
M  V30 2958 N 277.883 0.443576 1.51229 0
M  V30 2959 C 278.846 -0.353132 2.26463 0
M  V30 2960 C 279.846 -0.944338 1.3015 0
M  V30 2961 O 281.036 -0.817813 1.5381 0
M  V30 2962 C 278.168 -1.50023 3.06114 0
M  V30 2963 H 279.361 0.3063 2.98332 0
M  V30 2964 H 276.914 0.196902 1.55055 0
M  V30 2965 H 277.649 -2.19553 2.38677 0
M  V30 2966 H 277.434 -1.08241 3.76864 0
M  V30 2967 H 278.924 -2.06296 3.63087 0
M  V30 2968 N 279.361 -1.56624 0.175154 0
M  V30 2969 C 280.777 -1.58571 -0.180966 0
M  V30 2970 C 280.977 -1.19065 -1.6256 0
M  V30 2971 O 280.033 -0.904044 -2.35761 0
M  V30 2972 C 281.346 -3.00522 0.103326 0
M  V30 2973 C 282.894 -3.12972 0.0418426 0
M  V30 2974 C 283.369 -4.57022 0.299175 0
M  V30 2975 N 284.86 -4.62541 0.247086 0
M  V30 2976 C 285.595 -5.71857 0.420318 0
M  V30 2977 N 285.091 -6.89717 0.652816 0
M  V30 2978 N 286.884 -5.60972 0.355957 0
M  V30 2979 H 279.035 -1.80589 1.11809 0
M  V30 2980 H 281.298 -0.837178 0.444788 0
M  V30 2981 H 281.004 -3.33916 1.10422 0
M  V30 2982 H 280.878 -3.72344 -0.603299 0
M  V30 2983 H 283.265 -2.79403 -0.949636 0
M  V30 2984 H 283.346 -2.43578 0.781238 0
M  V30 2985 H 282.99 -4.913 1.28788 0
M  V30 2986 H 282.92 -5.24579 -0.460876 0
M  V30 2987 H 285.411 -3.77829 0.0731895 0
M  V30 2988 H 285.724 -7.68911 0.774347 0
M  V30 2989 H 284.069 -6.91572 0.689476 0
M  V30 2990 H 287.26 -4.67773 0.174882 0
M  V30 2991 H 287.433 -6.46111 0.494388 0
M  V30 2992 N 280.839 0.0985539 -1.57292 0
M  V30 2993 C 282.086 0.802678 -1.85912 0
M  V30 2994 C 282.414 1.78901 -0.763186 0
M  V30 2995 O 281.669 1.94178 0.243559 0
M  V30 2996 C 281.968 1.56927 -3.21105 0
M  V30 2997 C 281.634 0.725376 -4.45027 0
M  V30 2998 C 280.296 0.492726 -4.78671 0
M  V30 2999 C 282.648 0.138493 -5.21016 0
M  V30 3000 C 279.976 -0.336727 -5.85733 0
M  V30 3001 C 282.328 -0.678264 -6.28953 0
M  V30 3002 C 280.992 -0.921039 -6.61115 0
M  V30 3003 H 280.262 0.293721 -0.680301 0
M  V30 3004 H 282.909 0.0642841 -1.91392 0
M  V30 3005 H 281.214 2.37914 -3.11294 0
M  V30 3006 H 282.911 2.11841 -3.40477 0
M  V30 3007 H 279.501 0.916815 -4.18679 0
M  V30 3008 H 283.685 0.305404 -4.95359 0
M  V30 3009 H 278.941 -0.533836 -6.09065 0
M  V30 3010 H 283.115 -1.1399 -6.87007 0
M  V30 3011 H 280.742 -1.56556 -7.43905 0
M  V30 3012 N 282.317 1.53212 0.369288 0
M  V30 3013 C 283.247 1.82365 1.45826 0
M  V30 3014 C 284.228 0.676907 1.56051 0
M  V30 3015 O 285.413 0.926401 1.70679 0
M  V30 3016 C 282.543 2.01023 2.83208 0
M  V30 3017 C 281.497 3.1678 2.8781 0
M  V30 3018 C 280.823 3.20724 4.27832 0
M  V30 3019 C 282.123 4.55447 2.55667 0
M  V30 3020 H 283.817 2.73559 1.21678 0
M  V30 3021 H 281.363 1.3163 0.583911 0
M  V30 3022 H 283.316 2.20001 3.59413 0
M  V30 3023 H 282.04 1.06536 3.08736 0
M  V30 3024 H 280.699 2.97616 2.14056 0
M  V30 3025 H 280.347 2.23882 4.50429 0
M  V30 3026 H 280.047 3.98496 4.31827 0
M  V30 3027 H 281.571 3.41881 5.05915 0
M  V30 3028 H 282.985 4.74611 3.21586 0
M  V30 3029 H 281.382 5.35432 2.70984 0
M  V30 3030 H 282.452 4.60812 1.5093 0
M  V30 3031 N 283.795 -0.628877 1.44509 0
M  V30 3032 C 284.742 -1.74074 1.51549 0
M  V30 3033 C 285.712 -1.62084 0.363021 0
M  V30 3034 O 286.897 -1.81975 0.573567 0
M  V30 3035 C 284.037 -3.12328 1.46784 0
M  V30 3036 C 283.15 -3.35277 2.72422 0
M  V30 3037 C 282.285 -4.63515 2.59475 0
M  V30 3038 C 281.324 -4.7965 3.80266 0
M  V30 3039 N 280.461 -5.99168 3.65981 0
M  V30 3040 H 285.301 -1.67392 2.46544 0
M  V30 3041 H 282.838 -0.816527 1.22357 0
M  V30 3042 H 284.796 -3.92286 1.42012 0
M  V30 3043 H 283.426 -3.18018 0.553544 0
M  V30 3044 H 282.478 -2.49242 2.87372 0
M  V30 3045 H 283.79 -3.43078 3.62076 0
M  V30 3046 H 282.944 -5.51638 2.52548 0
M  V30 3047 H 281.683 -4.58076 1.67384 0
M  V30 3048 H 280.688 -3.89957 3.87574 0
M  V30 3049 H 281.913 -4.86902 4.73395 0
M  V30 3050 H 279.859 -5.94814 2.76644 0
M  V30 3051 H 279.776 -6.08035 4.49254 0
M  V30 3052 H 281.044 -6.89846 3.6295 0
M  V30 3053 N 285.273 -1.31445 -0.869486 0
M  V30 3054 C 286.52 -1.21158 -1.62256 0
M  V30 3055 C 286.848 0.230155 -1.93133 0
M  V30 3056 O 286.103 1.17906 -1.56194 0
M  V30 3057 C 286.402 -2.00145 -2.96102 0
M  V30 3058 C 286.068 -3.4964 -2.84715 0
M  V30 3059 C 284.73 -3.90403 -2.81317 0
M  V30 3060 C 287.082 -4.44769 -2.71716 0
M  V30 3061 C 284.41 -5.24561 -2.62778 0
M  V30 3062 C 286.762 -5.79054 -2.54714 0
M  V30 3063 C 285.426 -6.19037 -2.49699 0
M  V30 3064 H 284.696 -0.443348 -0.593737 0
M  V30 3065 H 287.343 -1.62715 -1.00976 0
M  V30 3066 H 285.648 -1.5127 -3.6142 0
M  V30 3067 H 287.345 -1.89566 -3.53363 0
M  V30 3068 H 283.935 -3.17256 -2.88178 0
M  V30 3069 H 288.119 -4.14208 -2.73397 0
M  V30 3070 H 283.375 -5.54613 -2.57321 0
M  V30 3071 H 287.549 -6.52393 -2.43632 0
M  V30 3072 H 285.176 -7.22935 -2.35093 0
M  V30 3073 N 286.751 1.08385 -1.14413 0
M  V30 3074 C 288 1.80153 -0.907076 0
M  V30 3075 C 288.313 1.87176 0.567851 0
M  V30 3076 O 289.519 2.55359 0.922172 0
M  V30 3077 C 287.975 3.23687 -1.57336 0
M  V30 3078 C 287.583 3.24897 -3.08457 0
M  V30 3079 C 289.327 4.00136 -1.41744 0
M  V30 3080 C 287.234 4.6302 -3.67921 0
M  V30 3081 H 286.164 0.675139 -0.335714 0
M  V30 3082 H 288.815 1.21733 -1.37307 0
M  V30 3083 H 287.197 3.82234 -1.03505 0
M  V30 3084 H 288.371 2.76055 -3.68958 0
M  V30 3085 H 286.686 2.61943 -3.2369 0
M  V30 3086 H 289.283 5.02201 -1.83572 0
M  V30 3087 H 289.626 4.14709 -0.363576 0
M  V30 3088 H 290.159 3.48058 -1.92614 0
M  V30 3089 H 286.898 4.5365 -4.73161 0
M  V30 3090 H 286.418 5.12143 -3.12201 0
M  V30 3091 H 288.097 5.31994 -3.68227 0
M  V30 3092 N 288.23 0.939286 1.26551 0
M  V30 3093 C 289.476 0.586715 1.94128 0
M  V30 3094 C 289.809 -0.8717 1.73537 0
M  V30 3095 O 289.084 -1.62339 1.07127 0
M  V30 3096 C 289.367 0.927497 3.4795 0
M  V30 3097 C 289.22 2.44052 3.77834 0
M  V30 3098 C 290.539 0.441569 4.37879 0
M  V30 3099 H 287.658 0.21463 0.705055 0
M  V30 3100 H 290.3 1.17316 1.49455 0
M  V30 3101 H 288.45 0.428431 3.8613 0
M  V30 3102 H 290.122 3.01216 3.4938 0
M  V30 3103 H 288.365 2.8848 3.23978 0
M  V30 3104 H 289.036 2.62947 4.85348 0
M  V30 3105 H 291.512 0.869448 4.06915 0
M  V30 3106 H 290.388 0.708856 5.44304 0
M  V30 3107 H 290.649 -0.658467 4.37169 0
M  V30 3108 N 289.708 -1.40897 0.706093 0
M  V30 3109 C 290.936 -2.05373 0.250887 0
M  V30 3110 C 291.351 -1.53172 -1.10381 0
M  V30 3111 O 290.708 -0.684305 -1.69185 0
M  V30 3112 C 290.759 -3.6088 0.211571 0
M  V30 3113 O 290.48 -4.11153 1.51276 0
M  V30 3114 C 291.981 -4.42517 -0.263346 0
M  V30 3115 H 289.201 -0.66115 0.114552 0
M  V30 3116 H 291.745 -1.80479 0.961635 0
M  V30 3117 H 289.9 -3.84777 -0.450073 0
M  V30 3118 H 290.314 -5.05279 1.40689 0
M  V30 3119 H 291.788 -5.51479 -0.239718 0
M  V30 3120 H 292.265 -4.19396 -1.30397 0
M  V30 3121 H 292.871 -4.23708 0.367677 0
M  V30 3122 N 291.186 -0.45159 -1.50991 0
M  V30 3123 C 292.096 0.358431 -2.31846 0
M  V30 3124 C 293.112 1.01438 -1.41373 0
M  V30 3125 O 294.288 1.00663 -1.74439 0
M  V30 3126 C 291.353 1.43704 -3.15515 0
M  V30 3127 C 290.414 0.799742 -4.21785 0
M  V30 3128 C 289.647 1.82696 -5.01456 0
M  V30 3129 O 289.87 3.05105 -4.81941 0
M  V30 3130 O 288.804 1.40958 -5.85162 0
M  V30 3131 H 292.63 -0.302032 -3.02194 0
M  V30 3132 H 290.215 -0.213825 -1.47862 0
M  V30 3133 H 292.097 2.06227 -3.67489 0
M  V30 3134 H 290.772 2.08133 -2.47916 0
M  V30 3135 H 289.679 0.136084 -3.73852 0
M  V30 3136 H 291.012 0.198718 -4.91799 0
M  V30 3137 N 292.664 1.56529 -0.183458 0
M  V30 3138 C 293.913 1.96419 0.458511 0
M  V30 3139 C 294.226 1.0727 1.63562 0
M  V30 3140 O 295.432 1.36893 2.34462 0
M  V30 3141 C 293.888 3.49298 0.867122 0
M  V30 3142 C 293.496 4.47092 -0.285057 0
M  V30 3143 C 295.24 3.97983 1.47683 0
M  V30 3144 C 293.147 5.91225 0.143862 0
M  V30 3145 H 292.077 0.733394 0.175071 0
M  V30 3146 H 294.728 1.81448 -0.273624 0
M  V30 3147 H 293.11 3.59731 1.65559 0
M  V30 3148 H 294.284 4.48383 -1.0625 0
M  V30 3149 H 292.599 4.08535 -0.805503 0
M  V30 3150 H 295.196 5.03134 1.80999 0
M  V30 3151 H 295.539 3.41618 2.37914 0
M  V30 3152 H 296.072 3.90617 0.752562 0
M  V30 3153 H 292.811 6.5149 -0.723974 0
M  V30 3154 H 292.331 5.93214 0.886413 0
M  V30 3155 H 294.01 6.44362 0.583628 0
M  V30 3156 N 294.142 -0.090211 1.57342 0
M  V30 3157 C 295.389 -0.792807 1.86335 0
M  V30 3158 C 295.717 -1.78494 0.772662 0
M  V30 3159 O 294.972 -1.94305 -0.233258 0
M  V30 3160 C 295.271 -1.55222 3.21933 0
M  V30 3161 C 294.937 -0.701765 4.45406 0
M  V30 3162 C 293.599 -0.467334 4.78925 0
M  V30 3163 C 295.951 -0.11086 5.21082 0
M  V30 3164 C 293.279 0.367785 5.85546 0
M  V30 3165 C 295.631 0.711609 6.28585 0
M  V30 3166 C 294.295 0.956086 6.60617 0
M  V30 3167 H 293.565 -0.290109 0.681849 0
M  V30 3168 H 296.212 -0.0541332 1.91423 0
M  V30 3169 H 294.517 -2.3626 3.12551 0
M  V30 3170 H 296.214 -2.10032 3.41595 0
M  V30 3171 H 292.804 -0.894598 4.1916 0
M  V30 3172 H 296.988 -0.279129 4.95514 0
M  V30 3173 H 292.244 0.566128 6.08773 0
M  V30 3174 H 296.418 1.17632 6.86393 0
M  V30 3175 H 294.045 1.60499 7.43064 0
M  V30 3176 N 295.62 -1.53406 -0.361157 0
M  V30 3177 C 297.031 -1.61442 -0.937728 0
M  V30 3178 C 297.382 -0.48461 -1.90121 0
M  V30 3179 O 296.507 0.388312 -2.12888 0
M  V30 3180 C 297.102 -2.92624 -1.70753 0
M  V30 3181 C 295.661 -3.02981 -2.23337 0
M  V30 3182 C 294.808 -2.5677 -1.04712 0
M  V30 3183 H 297.759 -1.58083 -0.139816 0
M  V30 3184 H 297.78 -2.80675 -2.56908 0
M  V30 3185 H 297.292 -3.74834 -1.00604 0
M  V30 3186 H 295.393 -2.25368 -2.96715 0
M  V30 3187 H 295.506 -4.0814 -2.50916 0
M  V30 3188 H 293.87 -2.11752 -1.41539 0
M  V30 3189 H 294.653 -3.41402 -0.360539 0
M  V30 3190 N 297.098 0.621204 -1.44841 0
M  V30 3191 C 298.346 1.37783 -1.47852 0
M  V30 3192 C 298.667 1.94653 -0.116224 0
M  V30 3193 O 297.937 1.76367 0.852737 0
M  V30 3194 H 296.517 0.511453 -0.544449 0
M  V30 3195 H 299.179 0.730446 -1.80694 0
M  V30 3196 H 298.275 2.20414 -2.20961 0
M  V30 3197 N 298.576 1.31904 0.862503 0
M  V30 3198 C 299.824 1.21776 1.61292 0
M  V30 3199 C 300.145 -0.222413 1.93727 0
M  V30 3200 O 299.415 -1.1451 1.58947 0
M  V30 3201 H 297.995 0.447717 0.597962 0
M  V30 3202 H 300.657 1.65326 1.03215 0
M  V30 3203 H 299.753 1.7948 2.5533 0
M  V30 3204 N 300.054 -1.07777 1.14986 0
M  V30 3205 C 301.47 -1.32373 0.891596 0
M  V30 3206 C 301.67 -1.9609 -0.463788 0
M  V30 3207 O 300.726 -2.21801 -1.20667 0
M  V30 3208 C 302.039 -2.21905 2.02925 0
M  V30 3209 C 303.587 -2.35367 2.06329 0
M  V30 3210 C 304.062 -3.28245 3.19405 0
M  V30 3211 N 305.553 -3.35824 3.19024 0
M  V30 3212 C 306.288 -4.07739 4.03158 0
M  V30 3213 N 305.784 -4.82306 4.97346 0
M  V30 3214 N 307.577 -4.03635 3.91197 0
M  V30 3215 H 299.728 -0.648039 2.02273 0
M  V30 3216 H 301.991 -0.348149 0.881757 0
M  V30 3217 H 301.697 -1.82342 3.0074 0
M  V30 3218 H 301.571 -3.22407 1.95789 0
M  V30 3219 H 303.958 -2.74186 1.09116 0
M  V30 3220 H 304.039 -1.34585 2.17533 0
M  V30 3221 H 303.683 -2.90146 4.16867 0
M  V30 3222 H 303.613 -4.28971 3.05437 0
M  V30 3223 H 306.104 -2.8267 2.50811 0
M  V30 3224 H 306.417 -5.34661 5.57994 0
M  V30 3225 H 304.762 -4.81337 5.01338 0
M  V30 3226 H 307.953 -3.44491 3.16928 0
M  V30 3227 H 308.126 -4.59417 4.5699 0
M  V30 3228 N 301.532 -0.945985 -1.26051 0
M  V30 3229 C 302.462 -0.477172 -2.28572 0
M  V30 3230 C 303.443 0.472032 -1.63419 0
M  V30 3231 O 304.628 0.372853 -1.90587 0
M  V30 3232 C 301.758 0.253975 -3.4637 0
M  V30 3233 C 300.712 -0.609135 -4.23643 0
M  V30 3234 C 300.038 0.252252 -5.34105 0
M  V30 3235 C 301.338 -1.8829 -4.8718 0
M  V30 3236 H 303.032 -1.33402 -2.68038 0
M  V30 3237 H 300.578 -0.642904 -1.28852 0
M  V30 3238 H 302.531 0.593016 -4.17207 0
M  V30 3239 H 301.255 1.145 -3.05871 0
M  V30 3240 H 299.914 -0.931138 -3.54578 0
M  V30 3241 H 299.562 1.14278 -4.89846 0
M  V30 3242 H 299.262 -0.32188 -5.86718 0
M  V30 3243 H 300.786 0.586454 -6.07777 0
M  V30 3244 H 302.2 -1.61081 -5.50205 0
M  V30 3245 H 300.597 -2.40199 -5.49931 0
M  V30 3246 H 301.667 -2.59134 -4.09851 0
M  V30 3247 N 303.011 1.40521 -0.713556 0
M  V30 3248 C 304.422 1.83853 -0.324807 0
M  V30 3249 C 304.773 1.59667 1.14021 0
M  V30 3250 O 303.898 1.07649 1.87725 0
M  V30 3251 C 304.493 3.33751 -0.582746 0
M  V30 3252 C 303.052 3.75584 -0.247727 0
M  V30 3253 C 302.199 2.63753 -0.856121 0
M  V30 3254 H 305.15 1.29817 -0.91286 0
M  V30 3255 H 305.171 3.80194 0.152682 0
M  V30 3256 H 304.683 3.51322 -1.64908 0
M  V30 3257 H 302.784 3.63608 0.813624 0
M  V30 3258 H 302.897 4.7373 -0.715307 0
M  V30 3259 H 301.261 2.53108 -0.28432 0
M  V30 3260 H 302.044 2.84137 -1.92668 0
M  V30 3261 N 304.489 0.459591 1.5075 0
M  V30 3262 C 305.714 -0.0996819 2.0716 0
M  V30 3263 C 306.139 -1.33761 1.32249 0
M  V30 3264 O 305.497 -1.77551 0.366786 0
M  V30 3265 C 305.545 -0.378226 3.58611 0
M  V30 3266 O 304.649 -1.46081 3.85661 0
M  V30 3267 H 303.99 0.00791392 0.663953 0
M  V30 3268 H 306.52 0.647329 1.9409 0
M  V30 3269 H 306.53 -0.622135 4.03229 0
M  V30 3270 H 305.205 0.526439 4.12555 0
M  V30 3271 H 303.782 -1.20511 3.5289 0
M  V30 3272 N 305.967 -1.56429 0.191757 0
M  V30 3273 C 307.216 -1.9666 -0.448088 0
M  V30 3274 C 307.529 -1.08136 -1.62991 0
M  V30 3275 O 308.735 -1.38135 -2.33733 0
M  V30 3276 C 307.191 -3.49753 -0.848585 0
M  V30 3277 C 306.799 -4.46935 0.308764 0
M  V30 3278 C 308.543 -3.9876 -1.4557 0
M  V30 3279 C 306.45 -5.91293 -0.112506 0
M  V30 3280 H 305.38 -0.734312 -0.171179 0
M  V30 3281 H 308.031 -1.81301 0.283242 0
M  V30 3282 H 306.413 -3.60604 -1.63649 0
M  V30 3283 H 307.587 -4.47813 1.08627 0
M  V30 3284 H 305.902 -4.08102 0.827158 0
M  V30 3285 H 308.499 -5.04086 -1.78328 0
M  V30 3286 H 308.842 -3.42875 -2.36099 0
M  V30 3287 H 309.375 -3.9101 -0.731836 0
M  V30 3288 H 306.114 -6.51097 0.758514 0
M  V30 3289 H 305.634 -5.93676 -0.854941 0
M  V30 3290 H 307.313 -6.44663 -0.549448 0
M  V30 3291 N 307.445 0.0818655 -1.57387 0
M  V30 3292 C 308.856 0.634871 -1.75574 0
M  V30 3293 C 309.207 1.78435 -0.815809 0
M  V30 3294 O 308.332 2.164 0.0025366 0
M  V30 3295 C 308.927 1.15845 -3.18379 0
M  V30 3296 C 307.486 1.65741 -3.37945 0
M  V30 3297 C 306.633 0.572549 -2.71325 0
M  V30 3298 H 309.584 -0.144268 -1.58043 0
M  V30 3299 H 309.605 2.02751 -3.21982 0
M  V30 3300 H 309.117 0.321631 -3.86765 0
M  V30 3301 H 307.218 2.51781 -2.74658 0
M  V30 3302 H 307.331 1.74129 -4.46336 0
M  V30 3303 H 305.695 1.01518 -2.33594 0
M  V30 3304 H 306.478 -0.253918 -3.4236 0
M  V30 3305 N 308.923 1.53595 0.353017 0
M  V30 3306 C 309.856 1.7572 1.45594 0
M  V30 3307 C 310.834 0.605961 1.50887 0
M  V30 3308 O 312.018 0.840023 1.68748 0
M  V30 3309 C 309.145 1.84732 2.83887 0
M  V30 3310 C 308.191 3.06808 2.96262 0
M  V30 3311 S 309.024 4.66065 2.63711 0
M  V30 3312 C 310.18 4.77943 4.04131 0
M  V30 3313 H 310.413 2.68994 1.26608 0
M  V30 3314 H 307.946 1.44343 0.548117 0
M  V30 3315 H 309.904 1.9061 3.63563 0
M  V30 3316 H 308.565 0.92488 3.00175 0
M  V30 3317 H 307.758 3.09761 3.97573 0
M  V30 3318 H 307.36 2.99108 2.24523 0
M  V30 3319 H 309.652 4.5877 4.98534 0
M  V30 3320 H 310.595 5.80022 4.06177 0
M  V30 3321 H 311.003 4.06472 3.91715 0
M  V30 3322 N 310.401 -0.613514 1.45168 0
M  V30 3323 C 311.647 -1.37471 1.49096 0
M  V30 3324 C 311.98 -1.93765 0.129901 0
M  V30 3325 O 311.255 -1.74707 -0.854858 0
M  V30 3326 C 311.538 -2.52701 2.56542 0
M  V30 3327 C 311.391 -2.01643 4.0207 0
M  V30 3328 C 312.71 -3.54849 2.60327 0
M  V30 3329 H 309.829 -0.498502 0.54283 0
M  V30 3330 H 312.471 -0.692125 1.76945 0
M  V30 3331 H 310.621 -3.10931 2.32926 0
M  V30 3332 H 312.293 -1.48108 4.36877 0
M  V30 3333 H 310.536 -1.32688 4.13009 0
M  V30 3334 H 311.207 -2.84681 4.72928 0
M  V30 3335 H 313.683 -3.0645 2.81474 0
M  V30 3336 H 312.559 -4.32973 3.37381 0
M  V30 3337 H 312.82 -4.10079 1.6519 0
M  V30 3338 N 311.879 -1.3236 -0.855495 0
M  V30 3339 C 312.811 -1.17052 -1.97057 0
M  V30 3340 C 313.824 -0.10574 -1.62456 0
M  V30 3341 O 315.013 -0.354619 -1.74942 0
M  V30 3342 C 312.113 -0.769305 -3.30053 0
M  V30 3343 C 311.286 -1.9222 -3.929 0
M  V30 3344 C 310.345 -1.50466 -5.04228 0
M  V30 3345 O 309.371 -2.21655 -5.24269 0
M  V30 3346 N 310.573 -0.400209 -5.79119 0
M  V30 3347 H 313.338 -2.13103 -2.1073 0
M  V30 3348 H 310.899 -1.24885 -1.0303 0
M  V30 3349 H 312.891 -0.472407 -4.01933 0
M  V30 3350 H 311.461 0.100025 -3.1244 0
M  V30 3351 H 310.681 -2.38563 -3.13817 0
M  V30 3352 H 311.969 -2.69403 -4.31624 0
M  V30 3353 H 311.367 0.192319 -5.65373 0
M  V30 3354 H 309.924 -0.162912 -6.51596 0
M  V30 3355 N 313.357 1.07166 -1.15556 0
M  V30 3356 C 314.267 2.17947 -0.868116 0
M  V30 3357 C 315.283 1.73297 0.156297 0
M  V30 3358 O 316.459 2.01392 -0.0182327 0
M  V30 3359 C 313.524 3.44789 -0.36355 0
M  V30 3360 C 312.585 4.03996 -1.45209 0
M  V30 3361 C 311.818 5.24783 -0.971508 0
M  V30 3362 O 312.041 5.70109 0.182194 0
M  V30 3363 O 310.975 5.75715 -1.75603 0
M  V30 3364 H 314.801 2.4503 -1.79427 0
M  V30 3365 H 312.386 1.16539 -0.934824 0
M  V30 3366 H 314.268 4.21307 -0.0887113 0
M  V30 3367 H 312.943 3.19253 0.534708 0
M  V30 3368 H 311.85 3.29009 -1.78056 0
M  V30 3369 H 313.183 4.33808 -2.32533 0
M  V30 3370 N 314.835 0.952656 1.25548 0
M  V30 3371 C 316.075 0.614013 1.9496 0
M  V30 3372 C 316.439 -0.833215 1.72978 0
M  V30 3373 O 317.64 -1.28135 2.36294 0
M  V30 3374 C 315.911 0.960562 3.4425 0
M  V30 3375 S 317.47 0.734195 4.32614 0
M  V30 3376 H 314.288 0.225754 0.674208 0
M  V30 3377 H 316.89 1.22641 1.52248 0
M  V30 3378 H 315.594 2.01103 3.57751 0
M  V30 3379 H 315.125 0.338336 3.91942 0
M  V30 3380 H 317.14 -0.395995 4.94617 0
M  V30 3381 N 316.313 -1.40141 0.720998 0
M  V30 3382 C 317.276 -2.29058 0.0805834 0
M  V30 3383 C 318.276 -1.45632 -0.681758 0
M  V30 3384 O 319.466 -1.6648 -0.512856 0
M  V30 3385 C 316.598 -3.28925 -0.895593 0
M  V30 3386 H 317.791 -2.87191 0.863793 0
M  V30 3387 H 315.344 -1.48553 0.485975 0
M  V30 3388 H 316.079 -2.75822 -1.70566 0
M  V30 3389 H 315.864 -3.90519 -0.351766 0
M  V30 3390 H 317.354 -3.95494 -1.34069 0
M  V30 3391 N 317.792 -0.46758 -1.50504 0
M  V30 3392 C 319.017 0.0886943 -2.0721 0
M  V30 3393 C 319.442 1.33057 -1.32956 0
M  V30 3394 O 318.8 1.77354 -0.376197 0
M  V30 3395 C 318.848 0.359202 -3.58806 0
M  V30 3396 O 317.952 1.44034 -3.8643 0
M  V30 3397 H 317.293 -0.0114349 -0.663902 0
M  V30 3398 H 319.823 -0.657613 -1.93744 0
M  V30 3399 H 319.833 0.600742 -4.03553 0
M  V30 3400 H 318.508 -0.548311 -4.1227 0
M  V30 3401 H 317.085 1.18638 -3.53524 0
M  V30 3402 N 319.27 1.56325 -0.20005 0
M  V30 3403 C 320.233 2.18084 0.705132 0
M  V30 3404 C 321.233 1.13666 1.1374 0
M  V30 3405 O 322.423 1.39023 1.04968 0
M  V30 3406 C 319.555 2.78689 1.96329 0
M  V30 3407 H 320.748 2.99435 0.167023 0
M  V30 3408 H 318.301 1.56221 0.0495725 0
M  V30 3409 H 319.036 2.0115 2.5438 0
M  V30 3410 H 318.821 3.55133 1.66202 0
M  V30 3411 H 320.311 3.26096 2.60866 0
M  V30 3412 N 320.748 -0.0735177 1.57428 0
M  V30 3413 C 321.696 -1.10628 2.04607 0
M  V30 3414 C 322.69 -1.40181 0.951088 0
M  V30 3415 O 323.896 -1.39608 1.1362 0
M  V30 3416 H 320.271 -0.374088 0.652351 0
M  V30 3417 H 322.242 -0.682218 2.90497 0
M  V30 3418 C 320.991 -2.41212 2.50423 0
M  V30 3419 H 320.314 -2.19322 3.34272 0
M  V30 3420 H 321.754 -3.11927 2.87189 0
M  V30 3421 C 320.213 -3.0705 1.38644 0
M  V30 3422 O 320.743 -3.95056 0.727582 0
M  V30 3423 N 318.949 -2.67645 1.132 0
M  V30 3424 H 318.496 -1.96169 1.66959 0
M  V30 3425 H 318.454 -3.1202 0.386147 0
M  V30 3426 N 322.226 -1.5378 -0.344866 0
M  V30 3427 C 323.474 -1.70625 -1.08311 0
M  V30 3428 C 323.795 -0.471447 -1.89215 0
M  V30 3429 O 323.065 0.514616 -1.8902 0
M  V30 3430 H 321.645 -0.629058 -0.402859 0
M  V30 3431 H 324.307 -1.9103 -0.386459 0
M  V30 3432 H 323.403 -2.57656 -1.76124 0
M  V30 3433 N 323.704 0.605807 -1.45491 0
M  V30 3434 C 324.951 1.36476 -1.49601 0
M  V30 3435 C 325.279 1.94007 -0.138452 0
M  V30 3436 O 324.534 1.75638 0.863114 0
M  V30 3437 C 324.833 2.53012 -2.52428 0
M  V30 3438 C 324.499 2.13617 -3.97087 0
M  V30 3439 C 323.161 2.02587 -4.36477 0
M  V30 3440 C 325.513 1.82899 -4.88055 0
M  V30 3441 C 322.841 1.59064 -5.64726 0
M  V30 3442 C 325.193 1.40861 -6.16718 0
M  V30 3443 C 323.857 1.28391 -6.55036 0
M  V30 3444 H 323.127 0.499402 -0.547429 0
M  V30 3445 H 325.774 0.684546 -1.78847 0
M  V30 3446 H 324.079 3.26379 -2.16758 0
M  V30 3447 H 325.776 3.1124 -2.52845 0
M  V30 3448 H 322.366 2.23129 -3.65939 0
M  V30 3449 H 326.55 1.90317 -4.58359 0
M  V30 3450 H 321.806 1.48034 -5.93208 0
M  V30 3451 H 325.98 1.16138 -6.86648 0
M  V30 3452 H 323.607 0.944403 -7.54311 0
M  V30 3453 N 325.182 1.32811 0.848464 0
M  V30 3454 C 326.41 1.26739 1.63538 0
M  V30 3455 C 326.825 -0.163484 1.88091 0
M  V30 3456 O 326.182 -1.10258 1.45429 0
M  V30 3457 C 326.233 2.03013 2.99112 0
M  V30 3458 O 325.954 3.40518 2.75643 0
M  V30 3459 C 327.455 2.04038 3.93552 0
M  V30 3460 H 324.675 0.437024 0.509167 0
M  V30 3461 H 327.219 1.75033 1.05753 0
M  V30 3462 H 325.374 1.58426 3.53525 0
M  V30 3463 H 325.788 3.79635 3.61908 0
M  V30 3464 H 327.262 2.61877 4.85926 0
M  V30 3465 H 327.739 1.0282 4.26995 0
M  V30 3466 H 328.345 2.486 3.45077 0
M  V30 3467 N 326.66 -1.06551 1.16123 0
M  V30 3468 C 327.906 -1.79567 0.94252 0
M  V30 3469 C 328.239 -1.86869 -0.528547 0
M  V30 3470 O 327.514 -1.35838 -1.39206 0
M  V30 3471 C 327.797 -3.24195 1.56747 0
M  V30 3472 C 327.65 -3.24989 3.10969 0
M  V30 3473 C 328.969 -4.21678 1.25998 0
M  V30 3474 H 326.088 -0.651883 0.343828 0
M  V30 3475 H 328.73 -1.2463 1.43413 0
M  V30 3476 H 326.88 -3.71107 1.14942 0
M  V30 3477 H 328.552 -2.86258 3.61737 0
M  V30 3478 H 326.795 -2.63716 3.44436 0
M  V30 3479 H 327.466 -4.27005 3.49815 0
M  V30 3480 H 329.942 -3.83196 1.62174 0
M  V30 3481 H 328.818 -5.21146 1.7233 0
M  V30 3482 H 329.079 -4.4174 0.178367 0
M  V30 3483 N 328.138 -0.959301 -1.25041 0
M  V30 3484 C 329.366 -0.633949 -1.96948 0
M  V30 3485 C 329.781 0.794916 -1.7125 0
M  V30 3486 O 329.138 1.53231 -0.991287 0
M  V30 3487 C 329.189 -0.888805 -3.50403 0
M  V30 3488 O 328.91 -2.26149 -3.75218 0
M  V30 3489 C 330.411 -0.576482 -4.39536 0
M  V30 3490 H 327.631 -0.237263 -0.627652 0
M  V30 3491 H 330.175 -1.28495 -1.59089 0
M  V30 3492 H 328.33 -0.284145 -3.86357 0
M  V30 3493 H 328.744 -2.33514 -4.6965 0
M  V30 3494 H 330.218 -0.805314 -5.46094 0
M  V30 3495 H 330.695 0.489075 -4.36468 0
M  V30 3496 H 331.301 -1.16067 -4.09156 0
M  V30 3497 N 329.616 1.39756 -0.72842 0
M  V30 3498 C 331.032 1.5442 -0.403308 0
M  V30 3499 C 331.232 1.69694 1.08656 0
M  V30 3500 O 330.288 1.69373 1.87267 0
M  V30 3501 C 331.601 2.76555 -1.18058 0
M  V30 3502 C 333.149 2.90384 -1.16815 0
M  V30 3503 C 333.624 4.15449 -1.92785 0
M  V30 3504 N 335.115 4.22475 -1.89918 0
M  V30 3505 C 335.85 5.1818 -2.45514 0
M  V30 3506 N 335.346 6.19714 -3.09719 0
M  V30 3507 N 337.139 5.1035 -2.35584 0
M  V30 3508 H 329.29 1.28089 -1.69431 0
M  V30 3509 H 331.553 0.620327 -0.716867 0
M  V30 3510 H 331.259 2.7159 -2.23455 0
M  V30 3511 H 331.133 3.69033 -0.780662 0
M  V30 3512 H 333.52 2.94846 -0.12234 0
M  V30 3513 H 333.601 1.98988 -1.6074 0
M  V30 3514 H 333.245 4.11749 -2.97364 0
M  V30 3515 H 333.175 5.05877 -1.46272 0
M  V30 3516 H 335.666 3.49743 -1.43138 0
M  V30 3517 H 335.979 6.8919 -3.49625 0
M  V30 3518 H 334.324 6.20121 -3.13807 0
M  V30 3519 H 337.515 4.2996 -1.85072 0
M  V30 3520 H 337.688 5.84761 -2.79211 0
M  V30 3521 N 331.094 0.475555 1.50254 0
M  V30 3522 C 332.34 -0.0780073 2.0265 0
M  V30 3523 C 332.673 -1.38968 1.35652 0
M  V30 3524 O 331.948 -1.8839 0.483691 0
M  V30 3525 C 332.231 -0.257161 3.59181 0
M  V30 3526 C 332.084 1.07585 4.36744 0
M  V30 3527 C 333.403 -1.00965 4.28362 0
M  V30 3528 H 330.522 -0.0268758 0.73651 0
M  V30 3529 H 333.164 0.622015 1.7953 0
M  V30 3530 H 331.314 -0.853412 3.79011 0
M  V30 3531 H 332.986 1.70902 4.28474 0
M  V30 3532 H 331.229 1.6714 4.00308 0
M  V30 3533 H 331.9 0.904088 5.44546 0
M  V30 3534 H 334.376 -0.504214 4.13034 0
M  V30 3535 H 333.252 -1.10381 5.37687 0
M  V30 3536 H 333.513 -2.04731 3.91839 0
M  V30 3537 N 332.573 -1.56217 0.208337 0
M  V30 3538 C 333.505 -2.1695 -0.739276 0
M  V30 3539 C 334.518 -1.13492 -1.1672 0
M  V30 3540 O 335.707 -1.40529 -1.10063 0
M  V30 3541 C 332.807 -2.72755 -2.01142 0
M  V30 3542 C 331.98 -4.0125 -1.74118 0
M  V30 3543 C 331.039 -4.41749 -2.85909 0
M  V30 3544 O 330.065 -5.08912 -2.54946 0
M  V30 3545 N 331.267 -4.06342 -4.14568 0
M  V30 3546 H 334.032 -2.98893 -0.219837 0
M  V30 3547 H 331.593 -1.61878 0.0268445 0
M  V30 3548 H 333.585 -2.96826 -2.75094 0
M  V30 3549 H 332.155 -1.95191 -2.4417 0
M  V30 3550 H 331.375 -3.85173 -0.838775 0
M  V30 3551 H 332.663 -4.851 -1.53477 0
M  V30 3552 H 332.061 -3.52345 -4.42571 0
M  V30 3553 H 330.618 -4.35335 -4.85105 0
M  V30 3554 N 334.051 0.0651679 -1.57465 0
M  V30 3555 C 335.276 0.779605 -1.9219 0
M  V30 3556 C 335.701 1.69988 -0.805333 0
M  V30 3557 O 335.059 1.79685 0.241435 0
M  V30 3558 C 335.107 1.54364 -3.2589 0
M  V30 3559 O 334.211 2.65474 -3.1559 0
M  V30 3560 H 333.552 0.212249 -0.629163 0
M  V30 3561 H 336.082 0.0314294 -2.04576 0
M  V30 3562 H 336.092 1.92146 -3.59922 0
M  V30 3563 H 334.767 0.868457 -4.06732 0
M  V30 3564 H 333.344 2.30501 -2.93128 0
M  V30 3565 N 335.529 1.53961 0.336706 0
M  V30 3566 C 336.459 1.85417 1.41925 0
M  V30 3567 C 337.44 0.709856 1.5458 0
M  V30 3568 O 338.625 0.962396 1.68676 0
M  V30 3569 C 335.755 2.06985 2.78881 0
M  V30 3570 C 334.709 3.22813 2.81026 0
M  V30 3571 C 334.035 3.29727 4.20932 0
M  V30 3572 C 335.335 4.60767 2.45949 0
M  V30 3573 H 337.029 2.76079 1.15848 0
M  V30 3574 H 334.575 1.32839 0.555859 0
M  V30 3575 H 336.528 2.27575 3.54665 0
M  V30 3576 H 335.252 1.13061 3.06406 0
M  V30 3577 H 333.911 3.0209 2.07695 0
M  V30 3578 H 333.559 2.33385 4.45579 0
M  V30 3579 H 333.259 4.07566 4.23277 0
M  V30 3580 H 334.783 3.52536 4.98549 0
M  V30 3581 H 336.197 4.81325 3.11446 0
M  V30 3582 H 334.594 5.4106 2.59566 0
M  V30 3583 H 335.664 4.6391 1.41122 0
M  V30 3584 N 337.007 -0.598083 1.45811 0
M  V30 3585 C 337.939 -1.72231 1.51225 0
M  V30 3586 C 338.952 -1.57757 0.402059 0
M  V30 3587 O 340.141 -1.65464 0.669624 0
M  V30 3588 C 337.241 -3.10331 1.3619 0
M  V30 3589 C 336.414 -3.50955 2.61054 0
M  V30 3590 C 335.473 -4.68055 2.40439 0
M  V30 3591 O 334.499 -4.74691 3.14097 0
M  V30 3592 N 335.701 -5.61941 1.45612 0
M  V30 3593 H 338.466 -1.68046 2.48154 0
M  V30 3594 H 336.027 -0.783637 1.41671 0
M  V30 3595 H 338.019 -3.86439 1.20195 0
M  V30 3596 H 336.589 -3.0897 0.475015 0
M  V30 3597 H 335.809 -2.64711 2.92099 0
M  V30 3598 H 337.097 -3.74858 3.44034 0
M  V30 3599 H 336.495 -5.59301 0.848431 0
M  V30 3600 H 335.052 -6.37542 1.35585 0
M  V30 3601 N 338.485 -1.33259 -0.841409 0
M  V30 3602 C 339.896 -1.22066 -1.41269 0
M  V30 3603 C 340.247 0.161479 -1.95534 0
M  V30 3604 O 339.372 1.06094 -1.88608 0
M  V30 3605 C 339.967 -2.20996 -2.568 0
M  V30 3606 C 338.526 -2.13649 -3.09888 0
M  V30 3607 C 337.673 -2.08623 -1.82679 0
M  V30 3608 H 340.624 -1.44895 -0.647395 0
M  V30 3609 H 340.645 -1.81621 -3.34356 0
M  V30 3610 H 340.157 -3.2158 -2.17274 0
M  V30 3611 H 338.258 -1.16359 -3.53965 0
M  V30 3612 H 338.371 -3.04079 -3.70234 0
M  V30 3613 H 336.735 -1.54061 -2.02824 0
M  V30 3614 H 337.518 -3.1101 -1.45353 0
M  V30 3615 N 339.963 1.05934 -1.16686 0
M  V30 3616 C 340.913 2.11764 -0.844978 0
M  V30 3617 C 341.897 1.59922 0.177178 0
M  V30 3618 O 343.089 1.76983 -0.0241768 0
M  V30 3619 C 340.218 3.41493 -0.351812 0
M  V30 3620 C 339.304 4.00152 -1.40496 0
M  V30 3621 N 339.695 4.32874 -2.61636 0
M  V30 3622 C 337.993 4.278 -1.26106 0
M  V30 3623 C 338.694 4.79552 -3.29249 0
M  V30 3624 N 337.67 4.79211 -2.56628 0
M  V30 3625 H 341.472 2.34916 -1.76612 0
M  V30 3626 H 338.986 1.23511 -1.05446 0
M  V30 3627 H 340.983 4.16773 -0.102796 0
M  V30 3628 H 339.643 3.19778 0.56322 0
M  V30 3629 H 340.654 4.23109 -2.98663 0
M  V30 3630 H 337.331 4.15511 -0.407081 0
M  V30 3631 H 338.721 5.14045 -4.32675 0
M  V30 3632 N 341.441 0.965919 1.2453 0
M  V30 3633 C 342.671 0.643451 1.96324 0
M  V30 3634 C 343.079 -0.790927 1.71875 0
M  V30 3635 O 342.422 -1.54208 0.998273 0
M  V30 3636 C 342.484 0.836078 3.49643 0
M  V30 3637 C 342.148 2.24975 3.97788 0
M  V30 3638 C 343.145 3.22735 4.07601 0
M  V30 3639 C 340.83 2.57697 4.31158 0
M  V30 3640 C 342.824 4.51303 4.50116 0
M  V30 3641 C 340.511 3.86492 4.73357 0
M  V30 3642 C 341.509 4.83107 4.828 0
M  V30 3643 O 341.197 6.09605 5.24058 0
M  V30 3644 H 340.929 0.239223 0.632257 0
M  V30 3645 H 343.483 1.29587 1.59362 0
M  V30 3646 H 341.713 0.12649 3.86493 0
M  V30 3647 H 343.402 0.512965 4.02646 0
M  V30 3648 H 344.168 2.98783 3.82039 0
M  V30 3649 H 340.047 1.83216 4.23028 0
M  V30 3650 H 343.591 5.26716 4.57401 0
M  V30 3651 H 339.488 4.10245 4.98366 0
M  V30 3652 H 340.256 6.13146 5.42213 0
M  V30 3653 N 342.919 -1.39368 0.735821 0
M  V30 3654 C 343.882 -2.2896 0.104874 0
M  V30 3655 C 344.882 -1.46347 -0.666274 0
M  V30 3656 O 346.072 -1.67014 -0.49517 0
M  V30 3657 C 343.204 -3.29857 -0.860656 0
M  V30 3658 H 344.397 -2.86259 0.894205 0
M  V30 3659 H 341.95 -1.48029 0.501704 0
M  V30 3660 H 342.685 -2.77615 -1.67631 0
M  V30 3661 H 342.47 -3.9087 -0.310327 0
M  V30 3662 H 343.96 -3.96893 -1.29867 0
M  V30 3663 N 344.397 -0.483516 -1.5 0
M  V30 3664 C 345.344 0.304164 -2.28787 0
M  V30 3665 C 346.314 0.976114 -1.34392 0
M  V30 3666 O 347.499 0.986156 -1.63339 0
M  V30 3667 C 344.639 1.37298 -3.16612 0
M  V30 3668 C 343.752 0.714561 -4.26049 0
M  V30 3669 C 342.887 1.76232 -5.01114 0
M  V30 3670 C 341.926 1.08483 -6.0241 0
M  V30 3671 N 341.063 2.076 -6.70706 0
M  V30 3672 H 345.903 -0.373981 -2.95644 0
M  V30 3673 H 343.44 -0.196275 -1.45785 0
M  V30 3674 H 345.398 2.00445 -3.65893 0
M  V30 3675 H 344.028 2.02012 -2.51776 0
M  V30 3676 H 343.08 -0.0297798 -3.80388 0
M  V30 3677 H 344.392 0.180383 -4.98474 0
M  V30 3678 H 343.546 2.46929 -5.54176 0
M  V30 3679 H 342.285 2.33033 -4.28424 0
M  V30 3680 H 341.29 0.363545 -5.48597 0
M  V30 3681 H 342.515 0.523551 -6.77079 0
M  V30 3682 H 340.461 2.63394 -6.00799 0
M  V30 3683 H 340.378 1.59201 -7.39047 0
M  V30 3684 H 341.646 2.77639 -7.2838 0
M  V30 3685 N 345.875 1.56104 -0.216619 0
M  V30 3686 C 347.103 2.02563 0.421413 0
M  V30 3687 C 347.518 1.0965 1.53695 0
M  V30 3688 O 346.875 0.10521 1.82196 0
M  V30 3689 C 346.926 3.48584 0.957665 0
M  V30 3690 O 346.647 4.37953 -0.113389 0
M  V30 3691 C 348.148 4.10664 1.66943 0
M  V30 3692 H 345.368 0.662944 0.103665 0
M  V30 3693 H 347.912 2.01793 -0.331629 0
M  V30 3694 H 346.067 3.49985 1.661 0
M  V30 3695 H 346.481 5.23704 0.288932 0
M  V30 3696 H 347.955 5.14622 1.99671 0
M  V30 3697 H 348.432 3.55373 2.58083 0
M  V30 3698 H 349.038 4.13098 1.01142 0
M  V30 3699 N 347.353 -0.0568162 1.57498 0
M  V30 3700 C 348.283 -1.06593 2.0775 0
M  V30 3701 C 349.264 -1.39448 0.974082 0
M  V30 3702 O 350.449 -1.48815 1.24771 0
M  V30 3703 C 347.579 -2.37509 2.5339 0
M  V30 3704 C 346.533 -2.1897 3.67745 0
M  V30 3705 C 345.859 -3.55402 3.99492 0
M  V30 3706 C 347.159 -1.59859 4.97235 0
M  V30 3707 H 348.853 -0.647706 2.9231 0
M  V30 3708 H 346.399 -0.310116 1.40621 0
M  V30 3709 H 348.352 -3.08409 2.87162 0
M  V30 3710 H 347.076 -2.8134 1.65878 0
M  V30 3711 H 345.735 -1.50508 3.3428 0
M  V30 3712 H 345.383 -3.9683 3.09088 0
M  V30 3713 H 345.083 -3.43831 4.76502 0
M  V30 3714 H 346.607 -4.27708 4.35773 0
M  V30 3715 H 348.021 -2.20642 5.29141 0
M  V30 3716 H 346.418 -1.58942 5.78669 0
M  V30 3717 H 347.488 -0.561506 4.81638 0
M  V30 3718 N 348.832 -1.54138 -0.328536 0
M  V30 3719 C 350.109 -1.62749 -1.08499 0
M  V30 3720 C 350.489 -0.458198 -2.06067 0
M  V30 3721 O 349.837 0.548046 -2.2183 0
M  V30 3722 C 350.047 -2.99519 -1.79135 0
M  V30 3723 C 351.395 -3.55394 -2.32337 0
M  V30 3724 O 352.419 -3.01792 -1.89209 0
M  V30 3725 O 351.278 -4.49186 -3.11279 0
M  V30 3726 H 348.372 -0.65886 -0.499832 0
M  V30 3727 H 350.918 -1.66484 -0.328826 0
M  V30 3728 H 349.69 -3.76061 -1.08139 0
M  V30 3729 H 349.313 -2.99441 -2.61574 0
M  V30 3730 N 350.31 0.590341 -1.46126 0
M  V30 3731 C 351.24 1.71032 -1.58966 0
M  V30 3732 C 352.221 1.64302 -0.440335 0
M  V30 3733 O 353.406 1.82436 -0.665634 0
M  V30 3734 C 350.536 3.09665 -1.57241 0
M  V30 3735 C 349.49 3.31221 -2.71066 0
M  V30 3736 C 348.816 4.70303 -2.54399 0
M  V30 3737 C 350.116 3.19796 -4.1295 0
M  V30 3738 H 351.81 1.60543 -2.52718 0
M  V30 3739 H 349.356 0.770933 -1.21625 0
M  V30 3740 H 351.309 3.87831 -1.64819 0
M  V30 3741 H 350.033 3.21036 -0.600289 0
M  V30 3742 H 348.692 2.55452 -2.62944 0
M  V30 3743 H 348.34 4.78429 -1.55288 0
M  V30 3744 H 348.04 4.85679 -3.30741 0
M  V30 3745 H 349.564 5.50647 -2.63857 0
M  V30 3746 H 350.978 3.87815 -4.22223 0
M  V30 3747 H 349.375 3.46696 -4.89818 0
M  V30 3748 H 350.445 2.16983 -4.33643 0
M  V30 3749 N 351.788 1.33704 0.83433 0
M  V30 3750 C 353.034 1.26612 1.59188 0
M  V30 3751 C 353.389 -0.165439 1.91687 0
M  V30 3752 O 352.682 -1.10873 1.56262 0
M  V30 3753 C 352.876 2.07926 2.90692 0
M  V30 3754 C 352.705 3.58844 2.71038 0
M  V30 3755 C 351.475 4.28148 2.68361 0
M  V30 3756 C 353.673 4.53082 2.43353 0
M  V30 3757 N 351.655 5.64987 2.40132 0
M  V30 3758 C 353.026 5.77843 2.24716 0
M  V30 3759 C 355.081 4.42119 2.28987 0
M  V30 3760 C 353.784 6.92877 1.9317 0
M  V30 3761 C 355.81 5.56973 1.98835 0
M  V30 3762 C 355.172 6.80745 1.81012 0
M  V30 3763 H 351.271 0.518517 0.585375 0
M  V30 3764 H 353.855 1.68294 0.979044 0
M  V30 3765 H 352.026 1.68558 3.49918 0
M  V30 3766 H 353.758 1.92568 3.55949 0
M  V30 3767 H 350.513 3.80469 2.82029 0
M  V30 3768 H 350.937 6.37133 2.28889 0
M  V30 3769 H 355.579 3.47058 2.41477 0
M  V30 3770 H 353.297 7.87931 1.79418 0
M  V30 3771 H 356.883 5.50428 1.88468 0
M  V30 3772 H 355.763 7.68115 1.58017 0
M  V30 3773 N 353.266 -1.05314 1.17247 0
M  V30 3774 C 354.491 -1.82509 0.985148 0
M  V30 3775 C 354.916 -1.82343 -0.461788 0
M  V30 3776 O 354.274 -1.23151 -1.33055 0
M  V30 3777 C 354.322 -3.26566 1.52929 0
M  V30 3778 O 353.426 -4.05666 0.742225 0
M  V30 3779 H 352.767 -0.564347 0.349869 0
M  V30 3780 H 355.297 -1.32718 1.55715 0
M  V30 3781 H 355.307 -3.77369 1.55103 0
M  V30 3782 H 353.982 -3.26001 2.58256 0
M  V30 3783 H 352.559 -3.64397 0.791794 0
M  V30 3784 N 354.744 -0.972509 -1.24016 0
M  V30 3785 C 355.707 -0.511403 -2.23422 0
M  V30 3786 C 356.707 0.394679 -1.55881 0
M  V30 3787 O 357.897 0.189469 -1.73167 0
M  V30 3788 C 355.029 0.258769 -3.39916 0
M  V30 3789 H 356.222 -1.39024 -2.6573 0
M  V30 3790 H 353.775 -0.757585 -1.36713 0
M  V30 3791 H 354.51 1.1545 -3.03054 0
M  V30 3792 H 354.295 -0.391522 -3.9014 0
M  V30 3793 H 355.785 0.570244 -4.13688 0
M  V30 3794 N 356.222 1.38976 -0.743202 0
M  V30 3795 C 357.185 2.28901 -0.117014 0
M  V30 3796 C 358.185 1.46698 0.658503 0
M  V30 3797 O 359.375 1.67274 0.486305 0
M  V30 3798 C 356.507 3.30309 0.84315 0
M  V30 3799 H 357.7 2.8578 -0.909373 0
M  V30 3800 H 355.253 1.47761 -0.509547 0
M  V30 3801 H 355.988 2.785 1.66157 0
M  V30 3802 H 355.773 3.91029 0.289594 0
M  V30 3803 H 357.263 3.97577 1.2776 0
M  V30 3804 N 357.7 0.491464 1.49741 0
M  V30 3805 C 358.63 -0.28154 2.31796 0
M  V30 3806 C 359.611 -0.971473 1.3963 0
M  V30 3807 O 360.796 -0.964719 1.68543 0
M  V30 3808 C 357.926 -1.35203 3.19902 0
M  V30 3809 C 356.88 -0.782529 4.20786 0
M  V30 3810 C 356.206 -1.95283 4.97764 0
M  V30 3811 C 357.506 0.21999 5.21837 0
M  V30 3812 H 359.2 0.403355 2.96671 0
M  V30 3813 H 356.746 0.195425 1.42668 0
M  V30 3814 H 358.699 -1.90045 3.76113 0
M  V30 3815 H 357.423 -2.06598 2.52953 0
M  V30 3816 H 356.082 -0.255928 3.65706 0
M  V30 3817 H 355.73 -2.65423 4.2727 0
M  V30 3818 H 355.43 -1.57789 5.66018 0
M  V30 3819 H 356.954 -2.50577 5.56816 0
M  V30 3820 H 358.368 -0.23996 5.72798 0
M  V30 3821 H 356.765 0.51026 5.97927 0
M  V30 3822 H 357.835 1.13911 4.7133 0
M  V30 3823 N 359.178 -1.55987 0.224894 0
M  V30 3824 C 360.11 -2.17722 -0.716224 0
M  V30 3825 C 361.123 -1.14723 -1.15509 0
M  V30 3826 O 362.312 -1.41688 -1.08567 0
M  V30 3827 C 359.412 -2.74873 -1.98238 0
M  V30 3828 C 358.585 -4.03074 -1.69853 0
M  V30 3829 C 357.644 -4.44757 -2.81208 0
M  V30 3830 O 356.67 -5.11587 -2.49534 0
M  V30 3831 N 357.872 -4.10716 -4.10235 0
M  V30 3832 H 360.637 -2.99109 -0.188123 0
M  V30 3833 H 358.198 -1.6184 0.0440123 0
M  V30 3834 H 360.19 -2.99727 -2.7193 0
M  V30 3835 H 358.76 -1.9777 -2.42086 0
M  V30 3836 H 357.98 -3.86041 -0.797875 0
M  V30 3837 H 359.268 -4.86701 -1.48324 0
M  V30 3838 H 358.666 -3.57019 -4.38809 0
M  V30 3839 H 357.223 -4.40455 -4.80461 0
M  V30 3840 N 360.656 0.0484629 -1.57525 0
M  V30 3841 C 361.619 1.03956 -2.04269 0
M  V30 3842 C 362.619 1.30211 -0.943496 0
M  V30 3843 O 363.809 1.25539 -1.20771 0
M  V30 3844 C 360.941 2.37742 -2.44319 0
M  V30 3845 H 362.134 0.636182 -2.93075 0
M  V30 3846 H 359.687 0.294811 -1.53494 0
M  V30 3847 H 360.422 2.82866 -1.5861 0
M  V30 3848 H 360.207 2.20021 -3.24551 0
M  V30 3849 H 361.697 3.08936 -2.80978 0
M  V30 3850 N 362.134 1.5431 0.320358 0
M  V30 3851 C 363.082 1.84647 1.4145 0
M  V30 3852 C 364.076 0.718624 1.53402 0
M  V30 3853 O 365.282 0.902335 1.5575 0
M  V30 3854 H 361.657 0.585349 0.472091 0
M  V30 3855 H 363.628 2.7614 1.13089 0
M  V30 3856 C 362.377 2.09341 2.77617 0
M  V30 3857 H 361.7 2.9559 2.69196 0
M  V30 3858 H 363.14 2.3452 3.53237 0
M  V30 3859 C 361.599 0.885939 3.25043 0
M  V30 3860 O 362.129 0.0967891 4.01583 0
M  V30 3861 N 360.335 0.696682 2.82125 0
M  V30 3862 H 359.882 1.34006 2.2 0
M  V30 3863 H 359.84 -0.109712 3.14209 0
M  V30 3864 N 363.613 -0.582584 1.46437 0
M  V30 3865 C 364.56 -1.69164 1.5701 0
M  V30 3866 C 365.53 -1.60847 0.414403 0
M  V30 3867 O 366.715 -1.80058 0.631171 0
M  V30 3868 C 363.855 -3.075 1.56646 0
M  V30 3869 C 362.968 -3.2644 2.82951 0
M  V30 3870 C 362.103 -4.55026 2.7409 0
M  V30 3871 C 361.142 -4.6731 3.95333 0
M  V30 3872 N 360.279 -5.87221 3.84858 0
M  V30 3873 H 365.119 -1.59464 2.51744 0
M  V30 3874 H 362.656 -0.777186 1.24893 0
M  V30 3875 H 364.614 -3.8757 1.5442 0
M  V30 3876 H 363.244 -3.16096 0.654439 0
M  V30 3877 H 362.296 -2.39974 2.95155 0
M  V30 3878 H 363.608 -3.31385 3.72808 0
M  V30 3879 H 362.762 -5.43324 2.6997 0
M  V30 3880 H 361.501 -4.52519 1.81873 0
M  V30 3881 H 360.506 -3.77429 3.99784 0
M  V30 3882 H 361.731 -4.71595 4.88646 0
M  V30 3883 H 359.677 -5.85712 2.95427 0
M  V30 3884 H 359.594 -5.93435 4.6837 0
M  V30 3885 H 360.862 -6.7795 3.84713 0
M  V30 3886 N 365.091 -1.34144 -0.827227 0
M  V30 3887 C 366.339 -1.26009 -1.58007 0
M  V30 3888 C 366.66 0.170971 -1.94249 0
M  V30 3889 O 365.93 1.10256 -1.61927 0
M  V30 3890 H 364.51 -0.463414 -0.585881 0
M  V30 3891 H 367.172 -1.68005 -0.987951 0
M  V30 3892 H 366.268 -1.86187 -2.50481 0
M  V30 3893 N 366.569 1.04691 -1.17803 0
M  V30 3894 C 367.501 2.12571 -0.857097 0
M  V30 3895 C 368.514 1.62174 0.142647 0
M  V30 3896 O 369.703 1.78301 -0.0843387 0
M  V30 3897 C 366.803 3.37915 -0.258216 0
M  V30 3898 C 365.976 4.1757 -1.30207 0
M  V30 3899 C 365.035 5.2125 -0.720029 0
M  V30 3900 O 364.061 5.51888 -1.39314 0
M  V30 3901 N 365.263 5.78466 0.485507 0
M  V30 3902 H 368.028 2.40698 -1.78562 0
M  V30 3903 H 365.589 1.20831 -1.07757 0
M  V30 3904 H 367.581 4.04442 0.144584 0
M  V30 3905 H 366.151 3.07281 0.574199 0
M  V30 3906 H 365.371 3.46458 -1.88043 0
M  V30 3907 H 366.659 4.67586 -2.00601 0
M  V30 3908 H 366.057 5.55866 1.05022 0
M  V30 3909 H 364.614 6.4649 0.830307 0
M  V30 3910 N 368.047 0.979072 1.23499 0
M  V30 3911 C 369.01 0.523244 2.23147 0
M  V30 3912 C 370.01 -0.386406 1.56088 0
M  V30 3913 O 371.2 -0.180283 1.73265 0
M  V30 3914 C 368.332 -0.240739 3.40049 0
M  V30 3915 H 369.525 1.40432 2.64989 0
M  V30 3916 H 367.078 0.764824 1.36309 0
M  V30 3917 H 367.813 -1.13841 3.03662 0
M  V30 3918 H 367.598 0.412207 3.89927 0
M  V30 3919 H 369.088 -0.548297 4.13985 0
M  V30 3920 N 369.525 -1.3858 0.750561 0
M  V30 3921 C 370.774 -1.99424 0.302172 0
M  V30 3922 C 371.087 -1.60254 -1.12152 0
M  V30 3923 O 372.293 -2.14046 -1.67023 0
M  V30 3924 C 370.749 -3.56558 0.489307 0
M  V30 3925 C 370.357 -4.04682 1.92189 0
M  V30 3926 C 372.101 -4.24374 0.103478 0
M  V30 3927 C 370.008 -5.54446 2.05775 0
M  V30 3928 H 368.938 -0.746046 0.10923 0
M  V30 3929 H 371.589 -1.58383 0.92667 0
M  V30 3930 H 369.971 -3.95472 -0.204329 0
M  V30 3931 H 371.145 -3.77065 2.64875 0
M  V30 3932 H 369.46 -3.4958 2.26236 0
M  V30 3933 H 372.057 -5.34384 0.183787 0
M  V30 3934 H 372.4 -4.05468 -0.943481 0
M  V30 3935 H 372.933 -3.90688 0.748854 0
M  V30 3936 H 369.672 -5.78252 3.08714 0
M  V30 3937 H 369.192 -5.83816 1.37546 0
M  V30 3938 H 370.871 -6.20099 1.84626 0
M  V30 3939 N 371.003 -0.499398 -1.49478 0
M  V30 3940 C 371.966 0.268838 -2.27618 0
M  V30 3941 C 372.966 0.895383 -1.33565 0
M  V30 3942 O 374.156 0.760164 -1.56739 0
M  V30 3943 C 371.288 1.38559 -3.11471 0
M  V30 3944 H 372.481 -0.416812 -2.96989 0
M  V30 3945 H 370.034 -0.254313 -1.54217 0
M  V30 3946 H 370.769 2.10544 -2.46661 0
M  V30 3947 H 370.554 0.941797 -3.80621 0
M  V30 3948 H 372.044 1.92678 -3.70493 0
M  V30 3949 N 372.481 1.55866 -0.233164 0
M  V30 3950 C 373.411 2.23783 0.666599 0
M  V30 3951 C 374.392 1.21343 1.19205 0
M  V30 3952 O 375.577 1.4996 1.23392 0
M  V30 3953 C 372.707 2.92671 1.86978 0
M  V30 3954 C 371.661 4.01682 1.47768 0
M  V30 3955 C 370.987 4.57926 2.76058 0
M  V30 3956 C 372.287 5.18126 0.658993 0
M  V30 3957 H 373.981 2.99232 0.100306 0
M  V30 3958 H 371.527 1.43924 0.046804 0
M  V30 3959 H 373.48 3.3888 2.50476 0
M  V30 3960 H 372.204 2.14688 2.46123 0
M  V30 3961 H 370.863 3.56222 0.866106 0
M  V30 3962 H 370.511 3.76659 3.33372 0
M  V30 3963 H 370.211 5.31505 2.50552 0
M  V30 3964 H 371.735 5.06859 3.40479 0
M  V30 3965 H 373.149 5.60644 1.19795 0
M  V30 3966 H 371.546 5.98009 0.500552 0
M  V30 3967 H 372.616 4.83763 -0.331856 0
M  V30 3968 N 373.959 -0.0401083 1.57549 0
M  V30 3969 C 374.891 -1.07149 2.02612 0
M  V30 3970 C 375.904 -1.33126 0.937085 0
M  V30 3971 O 377.093 -1.30808 1.21456 0
M  V30 3972 C 374.193 -2.41561 2.37701 0
M  V30 3973 C 373.366 -2.35096 3.68848 0
M  V30 3974 C 372.425 -3.51867 3.91249 0
M  V30 3975 O 371.451 -3.3186 4.62447 0
M  V30 3976 N 372.653 -4.73351 3.36035 0
M  V30 3977 H 375.418 -0.687485 2.91708 0
M  V30 3978 H 372.979 -0.228248 1.60283 0
M  V30 3979 H 374.971 -3.18379 2.49833 0
M  V30 3980 H 373.541 -2.71846 1.54332 0
M  V30 3981 H 372.761 -1.4345 3.67173 0
M  V30 3982 H 374.049 -2.27908 4.54901 0
M  V30 3983 H 373.447 -4.92507 2.78304 0
M  V30 3984 H 372.004 -5.47572 3.53565 0
M  V30 3985 N 375.437 -1.54477 -0.31217 0
M  V30 3986 C 376.662 -1.77526 -1.07235 0
M  V30 3987 C 377.087 -0.527775 -1.80544 0
M  V30 3988 O 376.445 0.52121 -1.73646 0
M  V30 3989 C 376.493 -2.97535 -2.03728 0
M  V30 3990 O 375.597 -2.69878 -3.11833 0
M  V30 3991 H 374.938 -0.58792 -0.30862 0
M  V30 3992 H 377.468 -2.01532 -0.352993 0
M  V30 3993 H 377.478 -3.25198 -2.46395 0
M  V30 3994 H 376.153 -3.87996 -1.49774 0
M  V30 3995 H 374.73 -2.53199 -2.7376 0
M  V30 3996 N 376.915 0.57481 -1.46744 0
M  V30 3997 C 377.825 1.711 -1.60505 0
M  V30 3998 C 378.841 1.67008 -0.488307 0
M  V30 3999 O 380.017 1.86774 -0.753495 0
M  V30 4000 C 377.082 3.07608 -1.59932 0
M  V30 4001 C 376.143 3.22904 -2.82898 0
M  V30 4002 C 375.376 4.529 -2.82343 0
M  V30 4003 O 375.599 5.37278 -1.91542 0
M  V30 4004 O 374.533 4.71611 -3.73987 0
M  V30 4005 H 378.359 1.62436 -2.56609 0
M  V30 4006 H 375.944 0.742779 -1.29627 0
M  V30 4007 H 377.826 3.88877 -1.62336 0
M  V30 4008 H 376.501 3.16692 -0.669898 0
M  V30 4009 H 375.408 2.41099 -2.86046 0
M  V30 4010 H 376.741 3.18715 -3.75076 0
M  V30 4011 N 378.394 1.34581 0.820102 0
M  V30 4012 C 379.304 1.28471 1.96297 0
M  V30 4013 C 380.32 0.191902 1.72939 0
M  V30 4014 O 381.496 0.418879 1.96996 0
M  V30 4015 C 378.561 1.04281 3.30645 0
M  V30 4016 C 377.622 2.22745 3.66992 0
M  V30 4017 C 376.855 1.997 4.9493 0
M  V30 4018 O 377.078 0.956656 5.6232 0
M  V30 4019 O 376.012 2.86723 5.2922 0
M  V30 4020 H 379.838 2.24624 2.04396 0
M  V30 4021 H 377.423 1.14816 0.955913 0
M  V30 4022 H 379.305 0.925841 4.11104 0
M  V30 4023 H 377.98 0.111697 3.23507 0
M  V30 4024 H 376.887 2.40003 2.86966 0
M  V30 4025 H 378.22 3.14257 3.78819 0
M  V30 4026 N 379.872 -1.04064 1.18357 0
M  V30 4027 C 381.118 -1.77528 0.980397 0
M  V30 4028 C 381.451 -1.87948 -0.48879 0
M  V30 4029 O 380.726 -1.3876 -1.36293 0
M  V30 4030 C 381.009 -3.20797 1.63588 0
M  V30 4031 C 380.862 -3.1832 3.17793 0
M  V30 4032 C 382.181 -4.18911 1.34914 0
M  V30 4033 H 379.3 -0.644443 0.357578 0
M  V30 4034 H 381.942 -1.2156 1.46024 0
M  V30 4035 H 380.092 -3.68586 1.22788 0
M  V30 4036 H 381.764 -2.78521 3.67728 0
M  V30 4037 H 380.007 -2.56351 3.49952 0
M  V30 4038 H 380.678 -4.19489 3.58794 0
M  V30 4039 H 383.154 -3.7967 1.70265 0
M  V30 4040 H 382.03 -5.17374 1.83346 0
M  V30 4041 H 382.291 -4.41262 0.272027 0
M  V30 4042 N 381.35 -0.985608 -1.22978 0
M  V30 4043 C 382.58 -0.674603 -1.95276 0
M  V30 4044 C 382.988 0.763483 -1.73111 0
M  V30 4045 O 382.331 1.52601 -1.02268 0
M  V30 4046 C 382.393 -0.891597 -3.48268 0
M  V30 4047 C 382.057 -2.31275 -3.94158 0
M  V30 4048 C 383.054 -3.29179 -4.02415 0
M  V30 4049 C 380.739 -2.64524 -4.27004 0
M  V30 4050 C 382.733 -4.58407 -4.42879 0
M  V30 4051 C 380.42 -3.93974 -4.67149 0
M  V30 4052 C 381.418 -4.90727 -4.75053 0
M  V30 4053 O 381.106 -6.17865 -5.14294 0
M  V30 4054 H 380.838 -0.249251 -0.628371 0
M  V30 4055 H 383.392 -1.32106 -1.5728 0
M  V30 4056 H 381.622 -0.187962 -3.86243 0
M  V30 4057 H 383.311 -0.576957 -4.01779 0
M  V30 4058 H 384.077 -3.04823 -3.77237 0
M  V30 4059 H 379.956 -1.89923 -4.2006 0
M  V30 4060 H 383.5 -5.33926 -4.48964 0
M  V30 4061 H 379.397 -4.18122 -4.91777 0
M  V30 4062 H 380.165 -6.21694 -5.32389 0
M  V30 4063 N 382.828 1.3818 -0.7579 0
M  V30 4064 C 383.738 2.3421 -0.135247 0
M  V30 4065 C 384.754 1.59487 0.695683 0
M  V30 4066 O 385.93 1.91657 0.618832 0
M  V30 4067 C 382.995 3.3862 0.744139 0
M  V30 4068 C 382.056 4.2918 -0.101658 0
M  V30 4069 C 381.289 5.28603 0.735851 0
M  V30 4070 O 381.512 5.35166 1.97366 0
M  V30 4071 O 380.446 6.01707 0.152372 0
M  V30 4072 H 384.272 2.8916 -0.928436 0
M  V30 4073 H 381.857 1.40101 -0.518855 0
M  V30 4074 H 383.739 4.02539 1.2466 0
M  V30 4075 H 382.414 2.86019 1.51575 0
M  V30 4076 H 381.321 3.68407 -0.650167 0
M  V30 4077 H 382.654 4.85048 -0.836024 0
M  V30 4078 N 384.306 0.507319 1.49211 0
M  V30 4079 C 385.722 0.163682 1.58758 0
M  V30 4080 C 385.922 -1.33208 1.51188 0
M  V30 4081 O 384.978 -2.10855 1.38911 0
M  V30 4082 C 386.291 0.746095 2.91297 0
M  V30 4083 C 387.839 0.712773 3.04776 0
M  V30 4084 C 388.314 1.27336 4.39943 0
M  V30 4085 N 389.805 1.23433 4.46451 0
M  V30 4086 C 390.54 1.63821 5.495 0
M  V30 4087 N 390.036 2.11832 6.5962 0
M  V30 4088 N 391.829 1.55198 5.4025 0
M  V30 4089 H 383.98 1.47972 1.52375 0
M  V30 4090 H 386.243 0.614147 0.722168 0
M  V30 4091 H 385.949 1.79534 3.02424 0
M  V30 4092 H 385.823 0.210137 3.76614 0
M  V30 4093 H 388.21 -0.327656 2.93275 0
M  V30 4094 H 388.291 1.28595 2.21127 0
M  V30 4095 H 387.935 2.3126 4.52196 0
M  V30 4096 H 387.865 0.676066 5.22242 0
M  V30 4097 H 390.356 0.882627 3.67448 0
M  V30 4098 H 390.669 2.40703 7.34358 0
M  V30 4099 H 389.014 2.1581 6.60644 0
M  V30 4100 H 392.205 1.17505 4.53112 0
M  V30 4101 H 392.378 1.86997 6.20432 0
M  V30 4102 N 385.784 -1.5574 0.241426 0
M  V30 4103 C 387.014 -2.02913 -0.38857 0
M  V30 4104 C 387.422 -1.12014 -1.52478 0
M  V30 4105 O 386.765 -0.125903 -1.83268 0
M  V30 4106 C 386.827 -3.4636 -0.963075 0
M  V30 4107 C 386.491 -4.56982 0.0401916 0
M  V30 4108 C 387.488 -5.12941 0.847766 0
M  V30 4109 C 385.173 -5.0203 0.164699 0
M  V30 4110 C 387.167 -6.12437 1.76636 0
M  V30 4111 C 384.854 -6.01358 1.0868 0
M  V30 4112 C 385.852 -6.5644 1.88616 0
M  V30 4113 O 385.54 -7.53831 2.79273 0
M  V30 4114 H 385.272 -0.668983 -0.0971452 0
M  V30 4115 H 387.826 -2.02198 0.361248 0
M  V30 4116 H 386.056 -3.44206 -1.76235 0
M  V30 4117 H 387.745 -3.77065 -1.50257 0
M  V30 4118 H 388.511 -4.78974 0.762133 0
M  V30 4119 H 384.39 -4.58824 -0.447411 0
M  V30 4120 H 387.934 -6.55355 2.39071 0
M  V30 4121 H 383.831 -6.34746 1.17338 0
M  V30 4122 H 384.599 -7.71428 2.73572 0
M  V30 4123 N 387.262 0.0317525 -1.57568 0
M  V30 4124 C 388.195 1.06621 -2.0176 0
M  V30 4125 C 389.173 1.35323 -0.901462 0
M  V30 4126 O 390.357 1.48025 -1.16708 0
M  V30 4127 C 387.484 2.40155 -2.38837 0
M  V30 4128 C 386.53 2.27327 -3.60867 0
M  V30 4129 S 387.363 1.62925 -5.10113 0
M  V30 4130 C 388.519 2.97955 -5.5043 0
M  V30 4131 H 388.752 0.689781 -2.89187 0
M  V30 4132 H 386.285 0.24164 -1.52497 0
M  V30 4133 H 388.243 3.1695 -2.6087 0
M  V30 4134 H 386.904 2.74946 -1.51867 0
M  V30 4135 H 386.097 3.25898 -3.84456 0
M  V30 4136 H 385.699 1.58675 -3.38671 0
M  V30 4137 H 387.991 3.94285 -5.5095 0
M  V30 4138 H 388.934 2.79102 -6.50775 0
M  V30 4139 H 389.342 3.00404 -4.77931 0
M  V30 4140 N 388.74 1.54641 0.303973 0
M  V30 4141 C 389.687 1.85386 1.37479 0
M  V30 4142 C 390.657 0.702528 1.50512 0
M  V30 4143 O 391.842 0.950867 1.65418 0
M  V30 4144 C 388.982 2.10413 2.73533 0
M  V30 4145 C 388.095 3.38049 2.68974 0
M  V30 4146 C 387.23 3.52934 3.97002 0
M  V30 4147 C 386.269 4.74373 3.86829 0
M  V30 4148 N 385.406 4.8608 5.06627 0
M  V30 4149 H 390.246 2.76732 1.1056 0
M  V30 4150 H 387.783 1.37034 0.534805 0
M  V30 4151 H 389.741 2.22919 3.52652 0
M  V30 4152 H 388.371 1.22338 2.98719 0
M  V30 4153 H 387.423 3.3418 1.81736 0
M  V30 4154 H 388.735 4.27288 2.57346 0
M  V30 4155 H 387.889 3.65088 4.84557 0
M  V30 4156 H 386.628 2.61824 4.1146 0
M  V30 4157 H 385.633 4.62255 2.97658 0
M  V30 4158 H 386.858 5.66888 3.73918 0
M  V30 4159 H 384.804 3.97891 5.21554 0
M  V30 4160 H 384.721 5.69315 4.9741 0
M  V30 4161 H 385.989 5.02587 5.95841 0
M  V30 4162 N 390.218 -0.567019 1.47046 0
M  V30 4163 C 391.448 -1.34831 1.56538 0
M  V30 4164 C 391.856 -1.8802 0.21101 0
M  V30 4165 O 391.199 -1.65152 -0.804387 0
M  V30 4166 C 391.261 -2.56139 2.52256 0
M  V30 4167 C 390.925 -2.24307 3.98165 0
M  V30 4168 C 391.922 -1.82192 4.86931 0
M  V30 4169 C 389.607 -2.35968 4.43423 0
M  V30 4170 C 391.601 -1.52153 6.18973 0
M  V30 4171 C 389.288 -2.05542 5.75496 0
M  V30 4172 C 390.286 -1.63701 6.63092 0
M  V30 4173 O 389.974 -1.33657 7.92711 0
M  V30 4174 H 389.706 -0.417683 0.531523 0
M  V30 4175 H 392.26 -0.694726 1.93294 0
M  V30 4176 H 390.49 -3.24356 2.10548 0
M  V30 4177 H 392.179 -3.18214 2.51982 0
M  V30 4178 H 392.945 -1.72684 4.53217 0
M  V30 4179 H 388.824 -2.67495 3.75456 0
M  V30 4180 H 392.368 -1.19421 6.87302 0
M  V30 4181 H 388.265 -2.14679 6.08755 0
M  V30 4182 H 389.033 -1.4737 8.05124 0
M  V30 4183 N 391.696 -1.35014 -0.812953 0
M  V30 4184 C 392.626 -1.30069 -1.93919 0
M  V30 4185 C 393.607 -0.176275 -1.69184 0
M  V30 4186 O 394.792 -0.370227 -1.90638 0
M  V30 4187 C 391.922 -1.06547 -3.30552 0
M  V30 4188 C 390.876 -2.15561 -3.69753 0
M  V30 4189 C 390.202 -1.77214 -5.04479 0
M  V30 4190 C 391.502 -3.57476 -3.808 0
M  V30 4191 H 393.196 -2.24303 -1.98314 0
M  V30 4192 H 390.742 -1.07977 -0.952736 0
M  V30 4193 H 392.695 -1.01729 -4.08937 0
M  V30 4194 H 391.419 -0.0875719 -3.26483 0
M  V30 4195 H 390.078 -2.19466 -2.9365 0
M  V30 4196 H 389.726 -0.780589 -4.96906 0
M  V30 4197 H 389.426 -2.50184 -5.31678 0
M  V30 4198 H 390.95 -1.7391 -5.8531 0
M  V30 4199 H 392.364 -3.55929 -4.4943 0
M  V30 4200 H 390.761 -4.29152 -4.19462 0
M  V30 4201 H 391.831 -3.94091 -2.82525 0
M  V30 4202 N 393.175 1.03435 -1.18907 0
M  V30 4203 C 394.403 1.80381 -1.01342 0
M  V30 4204 C 394.818 1.83649 0.438005 0
M  V30 4205 O 394.175 1.27655 1.30424 0
M  V30 4206 C 394.226 3.25689 -1.56873 0
M  V30 4207 O 393.947 3.22673 -2.96334 0
M  V30 4208 C 395.448 4.19255 -1.44014 0
M  V30 4209 H 392.668 0.56784 -0.35749 0
M  V30 4210 H 395.212 1.30317 -1.576 0
M  V30 4211 H 393.367 3.72962 -1.04777 0
M  V30 4212 H 393.781 4.13748 -3.22355 0
M  V30 4213 H 395.255 5.19123 -1.87657 0
M  V30 4214 H 395.732 4.37467 -0.389815 0
M  V30 4215 H 396.338 3.77851 -1.95214 0
M  V30 4216 N 394.653 0.992116 1.22453 0
M  V30 4217 C 395.901 0.666215 1.90804 0
M  V30 4218 C 396.222 -0.804152 1.77647 0
M  V30 4219 O 395.492 -1.57629 1.16318 0
M  V30 4220 H 394.072 0.243423 0.706225 0
M  V30 4221 H 396.734 1.25845 1.48825 0
M  V30 4222 H 395.83 0.928069 2.97982 0
M  V30 4223 N 396.131 -1.37776 0.765217 0
M  V30 4224 C 397.371 -2.01691 0.331669 0
M  V30 4225 C 397.735 -1.59432 -1.06983 0
M  V30 4226 O 398.936 -2.15761 -1.60314 0
M  V30 4227 C 397.207 -3.54385 0.463261 0
M  V30 4228 S 398.766 -4.38652 0.114011 0
M  V30 4229 H 395.584 -0.699387 0.127979 0
M  V30 4230 H 398.186 -1.68084 0.998396 0
M  V30 4231 H 396.89 -3.82629 1.48401 0
M  V30 4232 H 396.421 -3.92783 -0.220246 0
M  V30 4233 H 398.436 -4.84021 -1.09261 0
M  V30 4234 N 397.609 -0.515225 -1.4894 0
M  V30 4235 C 398.572 0.244681 -2.2789 0
M  V30 4236 C 399.572 0.881166 -1.34507 0
M  V30 4237 O 400.762 0.743497 -1.57537 0
M  V30 4238 C 397.894 1.35247 -3.12923 0
M  V30 4239 H 399.087 -0.448289 -2.96531 0
M  V30 4240 H 396.64 -0.270656 -1.53939 0
M  V30 4241 H 397.375 2.07916 -2.48881 0
M  V30 4242 H 397.16 0.901374 -3.81599 0
M  V30 4243 H 398.65 1.88737 -3.72516 0
M  V30 4244 N 399.087 1.5561 -0.249682 0
M  V30 4245 C 399.997 2.25143 0.659375 0
M  V30 4246 C 401.013 1.2685 1.19101 0
M  V30 4247 O 402.189 1.59732 1.22669 0
M  V30 4248 C 399.254 2.93945 1.8384 0
M  V30 4249 C 398.315 4.07655 1.34596 0
M  V30 4250 C 397.548 4.73167 2.46878 0
M  V30 4251 O 397.771 4.37768 3.65671 0
M  V30 4252 O 396.705 5.61623 2.16478 0
M  V30 4253 H 400.531 3.03545 0.0968698 0
M  V30 4254 H 398.116 1.49389 -0.018074 0
M  V30 4255 H 399.998 3.37271 2.52638 0
M  V30 4256 H 398.673 2.18481 2.38847 0
M  V30 4257 H 397.58 3.68839 0.625174 0
M  V30 4258 H 398.913 4.84946 0.841941 0
M  V30 4259 N 400.565 -0.0233959 1.57583 0
M  V30 4260 C 401.498 -1.05549 2.02323 0
M  V30 4261 C 402.476 -1.34843 0.908626 0
M  V30 4262 O 403.66 -1.47404 1.17491 0
M  V30 4263 C 400.787 -2.38885 2.40108 0
M  V30 4264 C 399.833 -2.2541 3.62067 0
M  V30 4265 S 400.666 -1.60217 5.1097 0
M  V30 4266 C 401.822 -2.95032 5.52003 0
M  V30 4267 H 402.055 -0.674435 2.89549 0
M  V30 4268 H 399.588 -0.23355 1.52623 0
M  V30 4269 H 401.546 -3.15562 2.62547 0
M  V30 4270 H 400.207 -2.74137 1.53323 0
M  V30 4271 H 399.4 -3.23854 3.86179 0
M  V30 4272 H 399.002 -1.56876 3.39508 0
M  V30 4273 H 401.294 -3.91357 5.53033 0
M  V30 4274 H 402.237 -2.75646 6.52246 0
M  V30 4275 H 402.645 -2.97865 4.79517 0
M  V30 4276 N 402.043 -1.548 -0.295768 0
M  V30 4277 C 403.29 -1.74329 -1.03032 0
M  V30 4278 C 403.618 -0.531915 -1.87085 0
M  V30 4279 O 402.873 0.486052 -1.89568 0
M  V30 4280 C 403.172 -2.98797 -1.961 0
M  V30 4281 C 402.838 -4.32356 -1.2798 0
M  V30 4282 C 401.5 -4.68661 -1.09135 0
M  V30 4283 C 403.852 -5.15128 -0.793243 0
M  V30 4284 C 401.18 -5.85312 -0.403269 0
M  V30 4285 C 403.532 -6.32488 -0.118854 0
M  V30 4286 C 402.196 -6.6745 0.0815043 0
M  V30 4287 H 401.466 -0.637916 -0.37702 0
M  V30 4288 H 404.113 -1.8906 -0.304696 0
M  V30 4289 H 402.418 -2.78869 -2.75207 0
M  V30 4290 H 404.115 -3.11102 -2.53015 0
M  V30 4291 H 400.705 -4.03808 -1.43655 0
M  V30 4292 H 404.889 -4.87575 -0.92653 0
M  V30 4293 H 400.145 -6.1094 -0.237098 0
M  V30 4294 H 404.319 -6.95892 0.266035 0
M  V30 4295 H 401.946 -7.57695 0.616685 0
M  V30 4296 N 403.521 0.559213 -1.47345 0
M  V30 4297 C 404.937 0.884943 -1.32819 0
M  V30 4298 C 405.137 1.98988 -0.317173 0
M  V30 4299 O 404.193 2.51031 0.272011 0
M  V30 4300 C 405.506 1.28007 -2.72093 0
M  V30 4301 C 407.054 1.39161 -2.80363 0
M  V30 4302 C 407.529 1.82031 -4.20272 0
M  V30 4303 N 409.02 1.89185 -4.22804 0
M  V30 4304 C 409.755 2.2368 -5.27973 0
M  V30 4305 N 409.251 2.56802 -6.43447 0
M  V30 4306 N 411.044 2.24436 -5.15349 0
M  V30 4307 H 403.195 -0.170304 -2.11716 0
M  V30 4308 H 405.458 -0.0135247 -0.947904 0
M  V30 4309 H 405.164 0.542027 -3.47498 0
M  V30 4310 H 405.038 2.23665 -3.03733 0
M  V30 4311 H 407.425 2.12048 -2.05231 0
M  V30 4312 H 407.506 0.41696 -2.52379 0
M  V30 4313 H 407.15 1.09715 -4.95908 0
M  V30 4314 H 407.08 2.80495 -4.45679 0
M  V30 4315 H 409.571 1.65982 -3.39497 0
M  V30 4316 H 409.884 2.82144 -7.19454 0
M  V30 4317 H 408.229 2.54387 -6.46771 0
M  V30 4318 H 411.42 1.97998 -4.24163 0
M  V30 4319 H 411.593 2.50989 -5.97418 0
M  V30 4320 N 404.999 1.35443 0.805782 0
M  V30 4321 C 406.248 1.28097 1.55801 0
M  V30 4322 C 406.561 -0.142428 1.95081 0
M  V30 4323 O 407.767 -0.33817 2.69386 0
M  V30 4324 C 406.223 2.24653 2.81174 0
M  V30 4325 C 405.831 3.72342 2.49129 0
M  V30 4326 C 407.575 2.2625 3.59181 0
M  V30 4327 C 405.482 4.60719 3.70799 0
M  V30 4328 H 404.412 0.475937 0.584808 0
M  V30 4329 H 407.063 1.60712 0.885661 0
M  V30 4330 H 405.445 1.85011 3.50124 0
M  V30 4331 H 406.619 4.20624 1.88181 0
M  V30 4332 H 404.934 3.73361 1.84366 0
M  V30 4333 H 407.531 2.89495 4.49552 0
M  V30 4334 H 407.874 1.26647 3.96568 0
M  V30 4335 H 408.407 2.64426 2.97193 0
M  V30 4336 H 405.146 5.61324 3.3852 0
M  V30 4337 H 404.666 4.17163 4.3097 0
M  V30 4338 H 406.345 4.76182 4.38018 0
M  V30 4339 N 406.477 -1.02803 1.19454 0
M  V30 4340 C 407.725 -1.75869 0.995722 0
M  V30 4341 C 408.046 -1.89138 -0.474543 0
M  V30 4342 O 407.316 -1.42558 -1.34366 0
M  V30 4343 H 405.896 -0.651511 0.365435 0
M  V30 4344 H 408.558 -1.24004 1.50363 0
M  V30 4345 H 407.654 -2.76661 1.44447 0
M  V30 4346 N 407.956 -0.998596 -1.21925 0
M  V30 4347 C 409.186 -0.695276 -1.94549 0
M  V30 4348 C 409.594 0.745079 -1.73911 0
M  V30 4349 O 408.937 1.51507 -1.03881 0
M  V30 4350 C 408.999 -0.928485 -3.47303 0
M  V30 4351 C 408.663 -2.35443 -3.91683 0
M  V30 4352 C 409.66 -3.33428 -3.98901 0
M  V30 4353 C 407.345 -2.69038 -4.24174 0
M  V30 4354 C 409.339 -4.63079 -4.37992 0
M  V30 4355 C 407.026 -3.98906 -4.62944 0
M  V30 4356 C 408.024 -4.95738 -4.69822 0
M  V30 4357 O 407.712 -6.23285 -5.07711 0
M  V30 4358 H 407.444 -0.255902 -0.625692 0
M  V30 4359 H 409.998 -1.33767 -1.5587 0
M  V30 4360 H 408.228 -0.228917 -3.86022 0
M  V30 4361 H 409.917 -0.619539 -4.01144 0
M  V30 4362 H 410.683 -3.08807 -3.73983 0
M  V30 4363 H 406.562 -1.94367 -4.18022 0
M  V30 4364 H 410.106 -5.38658 -4.43275 0
M  V30 4365 H 406.003 -4.23314 -4.87314 0
M  V30 4366 H 406.771 -6.27306 -5.25766 0
M  V30 4367 N 409.434 1.37368 -0.772513 0
M  V30 4368 C 410.683 1.98918 -0.333861 0
M  V30 4369 C 410.996 1.62017 1.09589 0
M  V30 4370 O 412.202 2.16676 1.63596 0
M  V30 4371 C 410.658 3.55735 -0.545971 0
M  V30 4372 C 410.266 4.01573 -1.98603 0
M  V30 4373 C 412.01 4.24156 -0.170979 0
M  V30 4374 C 409.917 5.51102 -2.1457 0
M  V30 4375 H 408.847 0.744214 -0.121085 0
M  V30 4376 H 411.498 1.56888 -0.95175 0
M  V30 4377 H 409.88 3.95748 0.141387 0
M  V30 4378 H 411.054 3.72803 -2.7084 0
M  V30 4379 H 409.369 3.45937 -2.31769 0
M  V30 4380 H 411.966 5.34024 -0.26878 0
M  V30 4381 H 412.309 4.06917 0.878855 0
M  V30 4382 H 412.842 3.89447 -0.810914 0
M  V30 4383 H 409.581 5.73268 -3.17875 0
M  V30 4384 H 409.101 5.81554 -1.46817 0
M  V30 4385 H 410.78 6.17083 -1.94468 0
M  V30 4386 N 410.912 0.523116 1.48665 0
M  V30 4387 C 412.189 -0.0775449 1.95446 0
M  V30 4388 C 412.569 -1.5197 1.4652 0
M  V30 4389 O 411.917 -2.17876 0.688657 0
M  V30 4390 C 412.127 0.0326135 3.48985 0
M  V30 4391 C 413.475 -0.130141 4.24401 0
M  V30 4392 O 414.499 -0.0415142 3.56176 0
M  V30 4393 O 413.358 -0.31491 5.45592 0
M  V30 4394 H 410.452 -0.0831012 0.822814 0
M  V30 4395 H 412.998 0.587227 1.59216 0
M  V30 4396 H 411.77 1.03748 3.77296 0
M  V30 4397 H 411.393 -0.671317 3.91892 0
M  V30 4398 N 412.39 -1.55475 0.257931 0
M  V30 4399 C 413.636 -1.99502 -0.364266 0
M  V30 4400 C 413.969 -1.146 -1.56782 0
M  V30 4401 O 413.244 -0.211968 -1.93342 0
M  V30 4402 C 413.527 -3.51917 -0.763333 0
M  V30 4403 C 413.38 -4.4758 0.446371 0
M  V30 4404 C 414.699 -4.09742 -1.60623 0
M  V30 4405 H 411.818 -0.725277 -0.130929 0
M  V30 4406 H 414.46 -1.8653 0.361446 0
M  V30 4407 H 412.61 -3.63101 -1.38166 0
M  V30 4408 H 414.282 -4.48362 1.08487 0
M  V30 4409 H 412.525 -4.19947 1.08753 0
M  V30 4410 H 413.196 -5.51862 0.123645 0
M  V30 4411 H 415.672 -4.01727 -1.08418 0
M  V30 4412 H 414.548 -5.16631 -1.85429 0
M  V30 4413 H 414.809 -3.58889 -2.58169 0
M  V30 4414 N 413.868 0.0150385 -1.57593 0
M  V30 4415 C 414.816 1.02958 -2.08572 0
M  V30 4416 C 415.81 1.36554 -1.00246 0
M  V30 4417 O 417.016 1.35295 -1.18724 0
M  V30 4418 H 413.391 0.349619 -0.665786 0
M  V30 4419 H 415.362 0.573932 -2.92829 0
M  V30 4420 C 414.111 2.31752 -2.59203 0
M  V30 4421 H 413.434 2.06765 -3.42182 0
M  V30 4422 H 414.874 3.01053 -2.98568 0
M  V30 4423 C 413.333 3.01692 -1.49945 0
M  V30 4424 O 413.863 3.92083 -0.873704 0
M  V30 4425 N 412.069 2.6326 -1.23056 0
M  V30 4426 H 411.616 1.89838 -1.74125 0
M  V30 4427 H 411.574 3.10372 -0.501685 0
M  V30 4428 N 415.346 1.54954 0.287554 0
M  V30 4429 C 416.278 1.83224 1.37701 0
M  V30 4430 C 417.291 0.715898 1.46215 0
M  V30 4431 O 418.48 0.993565 1.48292 0
M  V30 4432 C 415.58 1.96723 2.75959 0
M  V30 4433 C 414.753 3.27253 2.90215 0
M  V30 4434 C 413.812 3.30998 4.09056 0
M  V30 4435 O 412.838 4.04457 4.00503 0
M  V30 4436 N 414.04 2.57353 5.20336 0
M  V30 4437 H 416.805 2.77254 1.138 0
M  V30 4438 H 414.366 1.54694 0.477652 0
M  V30 4439 H 416.358 1.96615 3.5373 0
M  V30 4440 H 414.928 1.09626 2.92747 0
M  V30 4441 H 414.148 3.40022 1.99447 0
M  V30 4442 H 415.436 4.13365 2.96659 0
M  V30 4443 H 414.834 1.97327 5.30169 0
M  V30 4444 H 413.391 2.62984 5.96391 0
M  V30 4445 N 416.824 -0.551391 1.4764 0
M  V30 4446 C 418.071 -1.3083 1.54563 0
M  V30 4447 C 418.399 -1.93359 0.210361 0
M  V30 4448 O 417.654 -1.78721 -0.797332 0
M  V30 4449 C 417.953 -2.43469 2.61644 0
M  V30 4450 C 417.619 -1.98732 4.04742 0
M  V30 4451 C 416.281 -1.86248 4.43695 0
M  V30 4452 C 418.633 -1.64659 4.94507 0
M  V30 4453 C 415.961 -1.37995 5.70241 0
M  V30 4454 C 418.313 -1.17875 6.21521 0
M  V30 4455 C 416.977 -1.03992 6.5935 0
M  V30 4456 H 416.247 -0.478741 0.565587 0
M  V30 4457 H 418.894 -0.617697 1.81264 0
M  V30 4458 H 417.199 -3.18109 2.28722 0
M  V30 4459 H 418.896 -3.01642 2.64222 0
M  V30 4460 H 415.486 -2.09393 3.73968 0
M  V30 4461 H 419.67 -1.73174 4.65107 0
M  V30 4462 H 414.926 -1.25915 5.98294 0
M  V30 4463 H 419.1 -0.905739 6.90485 0
M  V30 4464 H 416.727 -0.663794 7.57296 0
M  V30 4465 N 418.302 -1.35869 -0.798587 0
M  V30 4466 C 419.53 -1.32722 -1.58722 0
M  V30 4467 C 419.945 0.0935631 -1.88568 0
M  V30 4468 O 419.302 1.04784 -1.49421 0
M  V30 4469 C 419.353 -2.13974 -2.91371 0
M  V30 4470 O 419.074 -3.50514 -2.62815 0
M  V30 4471 C 420.575 -2.18504 -3.85708 0
M  V30 4472 H 417.795 -0.45562 -0.492596 0
M  V30 4473 H 420.339 -1.78837 -0.991843 0
M  V30 4474 H 418.494 -1.71438 -3.47402 0
M  V30 4475 H 418.908 -3.92806 -3.47568 0
M  V30 4476 H 420.382 -2.79732 -4.75872 0
M  V30 4477 H 420.859 -1.18597 -4.22885 0
M  V30 4478 H 421.465 -2.61236 -3.35612 0
M  V30 4479 N 419.78 1.02168 -1.19998 0
M  V30 4480 C 421.02 1.77232 -1.01825 0
M  V30 4481 C 421.384 1.86833 0.442428 0
M  V30 4482 O 422.585 2.58293 0.744189 0
M  V30 4483 C 420.856 3.15601 -1.67722 0
M  V30 4484 S 422.415 4.06765 -1.64584 0
M  V30 4485 H 419.233 0.610021 -0.365233 0
M  V30 4486 H 421.835 1.22368 -1.52467 0
M  V30 4487 H 420.539 3.06235 -2.73218 0
M  V30 4488 H 420.07 3.7554 -1.17189 0
M  V30 4489 H 422.085 4.91586 -0.67511 0
M  V30 4490 N 421.258 1.00505 1.21394 0
M  V30 4491 C 422.19 0.52372 2.23136 0
M  V30 4492 C 423.203 -0.387714 1.58116 0
M  V30 4493 O 424.392 -0.187905 1.77508 0
M  V30 4494 C 421.492 -0.258885 3.3791 0
M  V30 4495 C 420.665 0.651634 4.32519 0
M  V30 4496 C 419.724 -0.0813705 5.26137 0
M  V30 4497 O 418.75 0.537295 5.66658 0
M  V30 4498 N 419.952 -1.35992 5.64346 0
M  V30 4499 H 422.717 1.39865 2.65062 0
M  V30 4500 H 420.278 0.881196 1.35818 0
M  V30 4501 H 422.27 -0.758208 3.97534 0
M  V30 4502 H 420.84 -1.035 2.94968 0
M  V30 4503 H 420.06 1.33145 3.71034 0
M  V30 4504 H 421.348 1.27129 4.92662 0
M  V30 4505 H 420.746 -1.88368 5.33417 0
M  V30 4506 H 419.303 -1.8042 6.26332 0
M  V30 4507 N 422.737 -1.36956 0.779787 0
M  V30 4508 C 423.684 -2.30175 0.169697 0
M  V30 4509 C 424.654 -1.51501 -0.68094 0
M  V30 4510 O 425.839 -1.80042 -0.631629 0
M  V30 4511 C 422.979 -3.37985 -0.697131 0
M  V30 4512 C 422.092 -4.31661 0.170992 0
M  V30 4513 C 421.227 -5.2655 -0.701298 0
M  V30 4514 C 420.266 -6.11867 0.168869 0
M  V30 4515 N 419.403 -6.98973 -0.661855 0
M  V30 4516 H 424.243 -2.81767 0.970135 0
M  V30 4517 H 421.78 -1.38699 0.489994 0
M  V30 4518 H 423.738 -3.99128 -1.2146 0
M  V30 4519 H 422.368 -2.87739 -1.46309 0
M  V30 4520 H 421.42 -3.71756 0.80634 0
M  V30 4521 H 422.732 -4.91644 0.841875 0
M  V30 4522 H 421.886 -5.92937 -1.28494 0
M  V30 4523 H 420.625 -4.66998 -1.40584 0
M  V30 4524 H 419.63 -5.44452 0.764986 0
M  V30 4525 H 420.855 -6.73493 0.870863 0
M  V30 4526 H 418.801 -6.41941 -1.35086 0
M  V30 4527 H 418.718 -7.55984 -0.0484447 0
M  V30 4528 H 419.986 -7.6974 -1.22963 0
M  V30 4529 O 424.254 -0.672348 -1.46839 0
M  V30 4530 H 424.945 -0.203759 -1.92625 0
M  V30 END ATOM
M  V30 BEGIN BOND
M  V30 END BOND
M  V30 END CTAB
M  END
$$$$
