drugbank_target|P9WQD9 3-oxoacyl-[acyl-carrier-protein] synthase 1 (DB04302)
 OpenBabel12092120513D

  0  0  0     0  0            999 V3000
M  V30 BEGIN CTAB
M  V30 COUNTS 6032 6092 0 0 0
M  V30 BEGIN ATOM
M  V30 1 H -0.908 1.98254 -0.117106 0
M  V30 2 N 0 1.576 0 0
M  V30 3 C 0.933 2.03868 1.02534 0
M  V30 4 C 1.911 0.928543 1.3348 0
M  V30 5 O 3.095 1.19667 1.45644 0
M  V30 6 C 0.222 2.43627 2.35294 0
M  V30 7 C -0.732 3.65373 2.2001 0
M  V30 8 S 0.101 5.13292 1.52614 0
M  V30 9 C 1.257 5.56322 2.86805 0
M  V30 10 H 1.49 2.90518 0.631377 0
M  V30 11 H -0.977 1.52953 0.210867 0
M  V30 12 H 0.981 2.67203 3.11629 0
M  V30 13 H -0.358 1.57376 2.7183 0
M  V30 14 H -1.165 3.90944 3.18086 0
M  V30 15 H -1.563 3.418 1.51819 0
M  V30 16 H 0.729 5.58782 3.83104 0
M  V30 17 H 1.672 6.56266 2.65933 0
M  V30 18 H 2.08 4.83886 2.90714 0
M  V30 19 N 1.4781 -0.272755 1.55222 0
M  V30 20 C 2.7031 -1.02683 1.80197 0
M  V30 21 C 3.1281 -1.79142 0.573551 0
M  V30 22 O 2.4861 -1.74917 -0.476849 0
M  V30 23 C 2.5341 -1.9609 3.02624 0
M  V30 24 O 1.6381 -3.04863 2.77727 0
M  V30 25 H 0.9791 -0.293557 0.595584 0
M  V30 26 H 3.5091 -0.30159 2.02365 0
M  V30 27 H 3.5191 -2.38039 3.31363 0
M  V30 28 H 2.1941 -1.39851 3.91682 0
M  V30 29 H 0.7711 -2.67228 2.60084 0
M  V30 30 N 2.9562 -1.48159 -0.537278 0
M  V30 31 C 3.8882 -1.58218 -1.65831 0
M  V30 32 C 4.9012 -0.466948 -1.5596 0
M  V30 33 O 6.0902 -0.73747 -1.62553 0
M  V30 34 C 3.1902 -1.48906 -3.04434 0
M  V30 35 C 2.3632 -2.75343 -3.3986 0
M  V30 36 C 1.4222 -2.59588 -4.57712 0
M  V30 37 O 0.4482 -3.33457 -4.61297 0
M  V30 38 N 1.6502 -1.68724 -5.55439 0
M  V30 39 H 4.4152 -2.54891 -1.57641 0
M  V30 40 H 1.9762 -1.4479 -0.724386 0
M  V30 41 H 3.9682 -1.36072 -3.81139 0
M  V30 42 H 2.5382 -0.602368 -3.06741 0
M  V30 43 H 1.7582 -3.02795 -2.52406 0
M  V30 44 H 3.0462 -3.5924 -3.60311 0
M  V30 45 H 2.4442 -1.07898 -5.55315 0
M  V30 46 H 1.0012 -1.61832 -6.3139 0
M  V30 47 N 4.4343 0.785586 -1.36625 0
M  V30 48 C 5.8453 1.36101 -1.27803 0
M  V30 49 C 6.1963 1.96035 0.0804875 0
M  V30 50 O 5.3213 1.92834 0.982042 0
M  V30 51 C 5.9163 2.47442 -2.31426 0
M  V30 52 C 4.4753 3.00789 -2.26281 0
M  V30 53 C 3.6223 1.73896 -2.15999 0
M  V30 54 H 6.5733 0.586928 -1.47448 0
M  V30 55 H 6.5943 3.2656 -1.95291 0
M  V30 56 H 6.1063 2.03791 -3.30289 0
M  V30 57 H 4.2073 3.48851 -1.30896 0
M  V30 58 H 4.3203 3.57343 -3.19128 0
M  V30 59 H 2.6843 1.9628 -1.62316 0
M  V30 60 H 3.4673 1.32368 -3.16755 0
M  V30 61 N 5.9124 1.20967 1.01018 0
M  V30 62 C 7.1374 1.0503 1.78839 0
M  V30 63 C 7.5624 -0.395752 1.8389 0
M  V30 64 O 6.9204 -1.28529 1.27867 0
M  V30 65 C 6.9684 1.64602 3.2084 0
M  V30 66 O 6.0724 0.887988 4.02726 0
M  V30 67 H 5.4134 0.369987 0.551367 0
M  V30 68 H 7.9434 1.60399 1.27018 0
M  V30 69 H 7.9534 1.68607 3.71532 0
M  V30 70 H 6.6284 2.69841 3.16479 0
M  V30 71 H 5.2054 0.922648 3.61305 0
M  V30 72 N 7.3905 -1.2043 1.01659 0
M  V30 73 C 8.6185 -1.93777 0.725132 0
M  V30 74 C 9.0335 -1.74772 -0.714166 0
M  V30 75 O 8.3905 -1.06169 -1.4844 0
M  V30 76 C 8.4415 -3.45876 1.05129 0
M  V30 77 O 8.1625 -3.6426 2.43406 0
M  V30 78 C 9.6635 -4.36368 0.780891 0
M  V30 79 H 6.8835 -0.615901 0.266284 0
M  V30 80 H 9.4275 -1.52922 1.35776 0
M  V30 81 H 7.5825 -3.8461 0.464065 0
M  V30 82 H 7.9965 -4.58246 2.55169 0
M  V30 83 H 9.4705 -5.41743 1.05918 0
M  V30 84 H 9.9475 -4.38275 -0.284937 0
M  V30 85 H 10.5535 -4.03296 1.35027 0
M  V30 86 N 8.8686 -0.792821 -1.36206 0
M  V30 87 C 9.8316 -0.199459 -2.2833 0
M  V30 88 C 10.8316 0.605189 -1.48977 0
M  V30 89 O 12.0216 0.425685 -1.68919 0
M  V30 90 C 9.1536 0.723523 -3.33134 0
M  V30 91 H 10.3466 -1.01181 -2.82316 0
M  V30 92 H 7.8996 -0.562485 -1.45828 0
M  V30 93 H 8.6346 1.56008 -2.84309 0
M  V30 94 H 8.4196 0.148436 -3.91819 0
M  V30 95 H 9.9096 1.13344 -4.01924 0
M  V30 96 N 10.3467 1.47872 -0.545128 0
M  V30 97 C 11.2947 2.31533 0.222512 0
M  V30 98 C 12.2887 1.42177 0.920985 0
M  V30 99 O 13.4947 1.59005 0.843645 0
M  V30 100 H 9.8697 0.746519 0.0906278 0
M  V30 101 H 11.8407 2.94139 -0.50246 0
M  V30 102 C 10.5897 3.2457 1.24699 0
M  V30 103 H 9.9127 3.93283 0.718944 0
M  V30 104 H 11.3527 3.85963 1.75523 0
M  V30 105 C 9.8117 2.47237 2.28856 0
M  V30 106 O 10.3417 2.20808 3.35569 0
M  V30 107 N 8.5477 2.08461 2.02466 0
M  V30 108 H 8.0947 2.30155 1.157 0
M  V30 109 H 8.0527 1.57033 2.72375 0
M  V30 110 N 11.8248 0.280983 1.55075 0
M  V30 111 C 13.0728 -0.333455 1.9933 0
M  V30 112 C 13.3938 -1.55937 1.17085 0
M  V30 113 O 12.6638 -1.94143 0.261805 0
M  V30 114 H 11.2438 -0.126197 0.736263 0
M  V30 115 H 13.9058 0.387678 1.91005 0
M  V30 116 H 13.0018 -0.619292 3.05894 0
M  V30 117 N 13.3029 -1.57598 0.00835791 0
M  V30 118 C 14.5509 -1.90551 -0.6734 0
M  V30 119 C 14.8719 -0.883301 -1.73847 0
M  V30 120 O 14.1419 0.0781442 -1.95744 0
M  V30 121 H 12.7219 -0.703312 -0.251717 0
M  V30 122 H 15.3839 -1.94833 0.0512592 0
M  V30 123 H 14.4799 -2.9056 -1.13935 0
M  V30 124 N 14.781 0.264519 -1.55364 0
M  V30 125 C 16.028 0.994986 -1.7637 0
M  V30 126 C 16.356 1.85976 -0.5695 0
M  V30 127 O 15.611 1.90509 0.44776 0
M  V30 128 C 15.91 1.9004 -3.02687 0
M  V30 129 C 15.576 1.19243 -4.34847 0
M  V30 130 C 14.238 0.996709 -4.70764 0
M  V30 131 C 16.59 0.689296 -5.16622 0
M  V30 132 C 13.918 0.285261 -5.86006 0
M  V30 133 C 16.27 -0.00860079 -6.32599 0
M  V30 134 C 14.934 -0.215963 -6.67151 0
M  V30 135 H 14.204 0.364091 -0.645383 0
M  V30 136 H 16.851 0.266543 -1.89636 0
M  V30 137 H 15.156 2.69533 -2.84357 0
M  V30 138 H 16.853 2.46695 -3.16137 0
M  V30 139 H 13.443 1.3549 -4.06621 0
M  V30 140 H 17.627 0.828108 -4.89342 0
M  V30 141 H 12.883 0.113961 -6.11294 0
M  V30 142 H 17.057 -0.406186 -6.95214 0
M  V30 143 H 14.684 -0.769217 -7.56298 0
M  V30 144 N 16.2591 1.48442 0.529413 0
M  V30 145 C 17.6701 1.5002 1.11134 0
M  V30 146 C 18.0211 0.27031 1.94329 0
M  V30 147 O 17.1461 -0.622507 2.07253 0
M  V30 148 C 17.7411 2.71834 2.02217 0
M  V30 149 C 16.3001 2.76283 2.55627 0
M  V30 150 C 15.4471 2.43542 1.326 0
M  V30 151 H 18.3981 1.5555 0.314641 0
M  V30 152 H 18.4191 2.50384 2.8651 0
M  V30 153 H 17.9311 3.61331 1.41639 0
M  V30 154 H 16.0321 1.90995 3.19924 0
M  V30 155 H 16.1451 3.77725 2.94721 0
M  V30 156 H 14.5091 1.94709 1.64196 0
M  V30 157 H 15.2921 3.3528 0.737734 0
M  V30 158 N 17.7372 -0.778329 1.37039 0
M  V30 159 C 18.9622 -1.57248 1.35233 0
M  V30 160 C 19.3872 -1.87999 -0.0615568 0
M  V30 161 O 18.7452 -1.48734 -1.03672 0
M  V30 162 C 18.7932 -2.86353 2.19167 0
M  V30 163 O 17.8972 -3.80442 1.59178 0
M  V30 164 H 17.2382 -0.476569 0.462362 0
M  V30 165 H 19.7682 -0.963853 1.80474 0
M  V30 166 H 19.7782 -3.35519 2.32145 0
M  V30 167 H 18.4532 -2.63299 3.21942 0
M  V30 168 H 17.0302 -3.39067 1.55203 0
M  V30 169 N 19.2153 -1.21501 -1.00376 0
M  V30 170 C 20.4613 -1.03452 -1.74429 0
M  V30 171 C 20.7943 0.430764 -1.89362 0
M  V30 172 O 20.0693 1.31962 -1.42886 0
M  V30 173 C 20.3523 -1.73375 -3.15615 0
M  V30 174 C 20.2053 -3.27431 -3.08397 0
M  V30 175 C 21.5243 -1.47732 -4.14564 0
M  V30 176 H 18.6433 -0.377226 -0.633143 0
M  V30 177 H 21.2853 -1.49693 -1.17013 0
M  V30 178 H 19.4353 -1.34064 -3.64636 0
M  V30 179 H 21.1073 -3.76119 -2.67081 0
M  V30 180 H 19.3503 -3.5767 -2.45468 0
M  V30 181 H 20.0213 -3.71524 -4.08258 0
M  V30 182 H 22.4973 -1.8186 -3.74254 0
M  V30 183 H 21.3733 -1.99169 -5.11491 0
M  V30 184 H 21.6343 -0.407589 -4.40217 0
M  V30 185 N 20.6934 1.19889 -1.02296 0
M  V30 186 C 21.9394 1.89701 -0.717033 0
M  V30 187 C 22.2724 1.7905 0.751989 0
M  V30 188 O 21.5474 1.17891 1.547 0
M  V30 189 C 21.8304 3.40858 -1.16136 0
M  V30 190 C 21.6834 3.60411 -2.69117 0
M  V30 191 C 23.0024 4.33876 -0.737549 0
M  V30 192 H 20.1214 0.688874 -0.261957 0
M  V30 193 H 22.7634 1.41154 -1.27183 0
M  V30 194 H 20.9134 3.82335 -0.689342 0
M  V30 195 H 22.5854 3.28145 -3.2422 0
M  V30 196 H 20.8284 3.03665 -3.0979 0
M  V30 197 H 21.4994 4.66396 -2.95261 0
M  V30 198 H 23.9754 4.00081 -1.14344 0
M  V30 199 H 22.8514 5.38242 -1.0764 0
M  V30 200 H 23.1124 4.40628 0.360436 0
M  V30 201 N 22.1715 0.800033 1.35784 0
M  V30 202 C 23.4175 0.377901 1.99248 0
M  V30 203 C 23.7505 -1.05052 1.63333 0
M  V30 204 O 23.0255 -1.72768 0.893385 0
M  V30 205 C 23.3085 0.553922 3.55814 0
M  V30 206 C 23.1615 2.0268 4.01548 0
M  V30 207 C 24.4805 -0.0244802 4.40093 0
M  V30 208 H 21.5995 0.138782 0.723815 0
M  V30 209 H 24.2415 1.00835 1.61035 0
M  V30 210 H 22.3915 0.0172398 3.88496 0
M  V30 211 H 24.0635 2.62536 3.79305 0
M  V30 212 H 22.3065 2.5256 3.52698 0
M  V30 213 H 22.9775 2.10087 5.10458 0
M  V30 214 H 25.4535 0.433775 4.13833 0
M  V30 215 H 24.3295 0.128637 5.48749 0
M  V30 216 H 24.5905 -1.11758 4.27741 0
M  V30 217 N 23.6496 -1.47581 0.552962 0
M  V30 218 C 24.8776 -2.06875 0.0320556 0
M  V30 219 C 25.2926 -1.40625 -1.25976 0
M  V30 220 O 24.6496 -0.501349 -1.75479 0
M  V30 221 C 24.7006 -3.61092 -0.17167 0
M  V30 222 O 24.4216 -4.24858 1.06899 0
M  V30 223 C 25.9226 -4.37242 -0.730344 0
M  V30 224 H 23.1426 -0.669561 0.043915 0
M  V30 225 H 25.6866 -1.89646 0.765163 0
M  V30 226 H 23.8416 -3.7785 -0.854894 0
M  V30 227 H 24.2556 -5.17334 0.864059 0
M  V30 228 H 25.7296 -5.45842 -0.822203 0
M  V30 229 H 26.2066 -4.03235 -1.74064 0
M  V30 230 H 26.8126 -4.25219 -0.0829543 0
M  V30 231 N 25.1277 -0.289203 -1.54924 0
M  V30 232 C 26.0907 0.579144 -2.21762 0
M  V30 233 C 27.0907 1.07047 -1.1999 0
M  V30 234 O 28.2807 0.968384 -1.44803 0
M  V30 235 C 25.4127 1.80055 -2.8947 0
M  V30 236 H 26.6057 -0.00464908 -2.999 0
M  V30 237 H 24.1587 -0.0399306 -1.56249 0
M  V30 238 H 24.8937 2.42449 -2.15381 0
M  V30 239 H 24.6787 1.45602 -3.64064 0
M  V30 240 H 26.1687 2.41773 -3.40493 0
M  V30 241 N 26.6058 1.57591 -0.0167156 0
M  V30 242 C 27.8518 1.91567 0.665582 0
M  V30 243 C 28.1848 0.892298 1.72487 0
M  V30 244 O 27.4598 -0.0867127 1.94307 0
M  V30 245 C 27.7428 3.36069 1.29342 0
M  V30 246 C 27.5958 4.49135 0.244541 0
M  V30 247 C 28.9148 3.803 2.21495 0
M  V30 248 H 26.0338 0.69666 0.240488 0
M  V30 249 H 28.6758 1.89866 -0.0714356 0
M  V30 250 H 26.8258 3.3765 1.92158 0
M  V30 251 H 28.4978 4.59689 -0.385228 0
M  V30 252 H 26.7408 4.3165 -0.431379 0
M  V30 253 H 27.4118 5.47242 0.723207 0
M  V30 254 H 29.8878 3.80377 1.68678 0
M  V30 255 H 28.7638 4.82127 2.62382 0
M  V30 256 H 29.0248 3.15104 3.101 0
M  V30 257 N 28.0839 -0.256276 1.55502 0
M  V30 258 C 29.3119 -1.00342 1.8094 0
M  V30 259 C 29.7269 -1.79307 0.59114 0
M  V30 260 O 29.0839 -1.77114 -0.440081 0
M  V30 261 C 29.1349 -1.94875 3.04476 0
M  V30 262 O 28.8559 -1.19107 4.21598 0
M  V30 263 C 30.3569 -2.81266 3.42644 0
M  V30 264 H 27.5769 -0.295685 0.602338 0
M  V30 265 H 30.1209 -0.281998 2.02546 0
M  V30 266 H 28.2759 -2.62457 2.84947 0
M  V30 267 H 28.6899 -1.82969 4.91551 0
M  V30 268 H 30.1639 -3.43362 4.32211 0
M  V30 269 H 30.6409 -3.51897 2.62802 0
M  V30 270 H 31.2469 -2.1915 3.64491 0
M  V30 271 N 29.562 -1.4872 -0.521534 0
M  V30 272 C 30.525 -1.63379 -1.60748 0
M  V30 273 C 31.525 -0.50661 -1.52611 0
M  V30 274 O 32.715 -0.772601 -1.5613 0
M  V30 275 C 29.847 -1.61192 -3.00383 0
M  V30 276 H 31.04 -2.60217 -1.49087 0
M  V30 277 H 28.593 -1.37444 -0.744235 0
M  V30 278 H 29.328 -0.65863 -3.17541 0
M  V30 279 H 29.113 -2.43032 -3.07698 0
M  V30 280 H 30.603 -1.7466 -3.7932 0
M  V30 281 N 31.0401 0.771051 -1.3745 0
M  V30 282 C 32.2681 1.56015 -1.35893 0
M  V30 283 C 32.6831 1.88718 0.0555523 0
M  V30 284 O 32.0401 1.51502 1.01752 0
M  V30 285 C 32.0911 2.87001 -2.19801 0
M  V30 286 O 31.8121 2.557 -3.55738 0
M  V30 287 C 33.3131 3.81228 -2.26231 0
M  V30 288 H 30.5331 0.483317 -0.465453 0
M  V30 289 H 33.0771 0.955611 -1.80799 0
M  V30 290 H 31.2321 3.43877 -1.78402 0
M  V30 291 H 31.6461 3.39584 -3.99729 0
M  V30 292 H 33.1201 4.70139 -2.89263 0
M  V30 293 H 33.5971 4.20409 -1.27093 0
M  V30 294 H 34.2031 3.30281 -2.67945 0
M  V30 295 N 32.5182 1.22032 0.997298 0
M  V30 296 C 33.7462 1.06841 1.7718 0
M  V30 297 C 34.1612 -0.381325 1.84909 0
M  V30 298 O 33.5182 -1.26437 1.31605 0
M  V30 299 C 33.5692 1.66814 3.20711 0
M  V30 300 O 33.2902 3.06116 3.13408 0
M  V30 301 C 34.7912 1.56838 4.14628 0
M  V30 302 H 32.0112 0.374782 0.556578 0
M  V30 303 H 34.5552 1.61532 1.2541 0
M  V30 304 H 32.7102 1.16196 3.69564 0
M  V30 305 H 33.1242 3.34926 4.0364 0
M  V30 306 H 34.5982 2.03532 5.13107 0
M  V30 307 H 35.0752 0.524155 4.36061 0
M  V30 308 H 35.6812 2.06741 3.7167 0
M  V30 309 N 33.9963 -1.19345 1.0293 0
M  V30 310 C 35.2213 -1.93538 0.745511 0
M  V30 311 C 35.6463 -1.75007 -0.689511 0
M  V30 312 O 35.0043 -1.05265 -1.47611 0
M  V30 313 C 35.0523 -3.43336 1.10239 0
M  V30 314 O 34.1563 -4.11806 0.221289 0
M  V30 315 H 33.4973 -0.604193 0.275404 0
M  V30 316 H 36.0273 -1.5141 1.37609 0
M  V30 317 H 36.0373 -3.94004 1.05947 0
M  V30 318 H 34.7123 -3.56146 2.14786 0
M  V30 319 H 33.2893 -3.715 0.322842 0
M  V30 320 N 35.4744 -0.807222 -1.35358 0
M  V30 321 C 36.7234 -0.384376 -1.98004 0
M  V30 322 C 37.0364 1.0543 -1.64754 0
M  V30 323 O 38.2424 1.58029 -2.20769 0
M  V30 324 C 36.6984 -0.636326 -3.5423 0
M  V30 325 C 36.3064 -2.08759 -3.96388 0
M  V30 326 C 38.0504 -0.278869 -4.23583 0
M  V30 327 C 35.9574 -2.28525 -5.45463 0
M  V30 328 H 34.8874 -0.139986 -0.740891 0
M  V30 329 H 37.5384 -0.991369 -1.54415 0
M  V30 330 H 35.9204 0.0406256 -3.95979 0
M  V30 331 H 37.0944 -2.8024 -3.6579 0
M  V30 332 H 35.4094 -2.40497 -3.39926 0
M  V30 333 H 38.0064 -0.404599 -5.33167 0
M  V30 334 H 38.3494 0.775012 -4.09022 0
M  V30 335 H 38.8824 -0.909764 -3.87257 0
M  V30 336 H 35.6214 -3.32361 -5.64992 0
M  V30 337 H 35.1414 -1.61569 -5.77629 0
M  V30 338 H 36.8204 -2.10109 -6.11934 0
M  V30 339 N 36.9525 1.47285 -0.560781 0
M  V30 340 C 38.1775 2.07359 -0.0410566 0
M  V30 341 C 38.6025 1.41017 1.24483 0
M  V30 342 O 37.9605 0.486368 1.74654 0
M  V30 343 C 38.0085 3.6035 0.134123 0
M  V30 344 O 37.1125 3.94681 1.19587 0
M  V30 345 H 36.4535 0.661887 -0.0529291 0
M  V30 346 H 38.9835 1.89252 -0.777482 0
M  V30 347 H 38.9935 4.0652 0.347207 0
M  V30 348 H 37.6685 4.08034 -0.805047 0
M  V30 349 H 36.2455 3.60251 0.962987 0
M  V30 350 N 38.4306 0.297415 1.54768 0
M  V30 351 C 39.8416 -0.195947 1.85669 0
M  V30 352 C 40.1926 -1.53707 1.21937 0
M  V30 353 O 39.3176 -2.10164 0.515754 0
M  V30 354 C 39.9126 -0.362318 3.36857 0
M  V30 355 C 38.4716 -0.799901 3.67802 0
M  V30 356 C 37.6186 0.0938578 2.77141 0
M  V30 357 H 40.5696 0.518538 1.4999 0
M  V30 358 H 40.5906 -1.19745 3.61167 0
M  V30 359 H 40.1026 0.613921 3.83214 0
M  V30 360 H 38.2036 -1.78682 3.26961 0
M  V30 361 H 38.3166 -0.621773 4.75048 0
M  V30 362 H 36.6806 -0.426254 2.51108 0
M  V30 363 H 37.4636 1.06639 3.26318 0
M  V30 364 N 39.9087 -1.5758 0.0250728 0
M  V30 365 C 41.1857 -1.82917 -0.692873 0
M  V30 366 C 41.5657 -0.908137 -1.90568 0
M  V30 367 O 40.9137 0.0372298 -2.2847 0
M  V30 368 C 41.1237 -3.32034 -1.07492 0
M  V30 369 C 42.4717 -3.98406 -1.46826 0
M  V30 370 O 43.4957 -3.36505 -1.16801 0
M  V30 371 O 42.3547 -5.07497 -2.02754 0
M  V30 372 H 39.4487 -0.754079 -0.33955 0
M  V30 373 H 41.9947 -1.69619 0.0524456 0
M  V30 374 H 40.7667 -3.90728 -0.211552 0
M  V30 375 H 40.3897 -3.50424 -1.87854 0
M  V30 376 N 41.3868 0.248026 -1.55636 0
M  V30 377 C 42.6358 0.974134 -1.76617 0
M  V30 378 C 42.9488 1.86528 -0.588796 0
M  V30 379 O 44.1548 2.62805 -0.681594 0
M  V30 380 C 42.6108 1.78213 -3.12679 0
M  V30 381 C 42.2188 0.93843 -4.38061 0
M  V30 382 C 43.9628 2.50104 -3.42999 0
M  V30 383 C 41.8698 1.74225 -5.65155 0
M  V30 384 H 40.7998 0.36745 -0.658405 0
M  V30 385 H 43.4508 0.22884 -1.82067 0
M  V30 386 H 41.8328 2.56933 -3.01333 0
M  V30 387 H 43.0068 0.193635 -4.60393 0
M  V30 388 H 41.3218 0.332905 -4.15067 0
M  V30 389 H 43.9188 3.10694 -4.3517 0
M  V30 390 H 44.2618 3.21662 -2.64271 0
M  V30 391 H 44.7948 1.78395 -3.55556 0
M  V30 392 H 41.5338 1.07043 -6.46701 0
M  V30 393 H 41.0538 2.46235 -5.46926 0
M  V30 394 H 42.7328 2.30967 -6.0437 0
M  V30 395 N 42.8649 1.48995 0.513639 0
M  V30 396 C 43.7749 1.67443 1.64317 0
M  V30 397 C 44.7909 0.556947 1.64846 0
M  V30 398 O 45.9669 0.830082 1.83498 0
M  V30 399 C 43.0319 1.72515 3.00732 0
M  V30 400 C 42.0929 2.96009 3.1093 0
M  V30 401 C 41.3259 3.00829 4.40837 0
M  V30 402 O 41.5489 2.13594 5.28898 0
M  V30 403 O 40.4829 3.93168 4.55744 0
M  V30 404 H 44.3089 2.63106 1.51687 0
M  V30 405 H 41.8939 1.32588 0.688543 0
M  V30 406 H 43.7759 1.78277 3.81831 0
M  V30 407 H 42.4509 0.800278 3.13651 0
M  V30 408 H 41.3579 2.9577 2.29065 0
M  V30 409 H 42.6909 3.87934 3.02933 0
M  V30 410 N 44.343 -0.763751 1.37857 0
M  V30 411 C 45.568 -1.55805 1.36893 0
M  V30 412 C 45.993 -1.88054 -0.0416135 0
M  V30 413 O 45.351 -1.49825 -1.02089 0
M  V30 414 C 45.399 -2.84012 2.22192 0
M  V30 415 O 44.503 -3.78732 1.63204 0
M  V30 416 H 43.844 -0.471638 0.46739 0
M  V30 417 H 46.374 -0.944657 1.81487 0
M  V30 418 H 46.384 -3.33037 2.35691 0
M  V30 419 H 45.059 -2.59869 3.24716 0
M  V30 420 H 43.636 -3.37402 1.58791 0
M  V30 421 N 45.8211 -1.22559 -0.990812 0
M  V30 422 C 47.0491 -1.07779 -1.76611 0
M  V30 423 C 47.4641 0.371513 -1.85109 0
M  V30 424 O 46.8211 1.25737 -1.32274 0
M  V30 425 C 46.8721 -1.68512 -3.19822 0
M  V30 426 O 46.5931 -3.07774 -3.1178 0
M  V30 427 C 48.0941 -1.59035 -4.13791 0
M  V30 428 H 45.3141 -0.377729 -0.554583 0
M  V30 429 H 47.8581 -1.62195 -1.24551 0
M  V30 430 H 46.0131 -1.18154 -3.68942 0
M  V30 431 H 46.4271 -3.37062 -4.01858 0
M  V30 432 H 47.9011 -2.0625 -5.1202 0
M  V30 433 H 48.3781 -0.547273 -4.35777 0
M  V30 434 H 48.9841 -2.08709 -3.70568 0
M  V30 435 N 47.2992 1.18797 -1.03562 0
M  V30 436 C 48.5452 1.89192 -0.746867 0
M  V30 437 C 48.9002 1.78531 0.717245 0
M  V30 438 O 48.1932 1.17137 1.51622 0
M  V30 439 C 48.3872 3.38692 -1.14117 0
M  V30 440 C 48.2162 3.63902 -2.64207 0
M  V30 441 C 46.9862 3.81553 -3.31279 0
M  V30 442 C 49.1842 3.64903 -3.62423 0
M  V30 443 N 47.1662 3.94455 -4.70402 0
M  V30 444 C 48.5372 3.83458 -4.87196 0
M  V30 445 C 50.5922 3.47965 -3.56125 0
M  V30 446 C 49.2952 3.86829 -6.06429 0
M  V30 447 C 51.3212 3.52616 -4.7478 0
M  V30 448 C 50.6832 3.71663 -5.9837 0
M  V30 449 H 46.7822 0.711141 -0.325273 0
M  V30 450 H 49.3662 1.42727 -1.32428 0
M  V30 451 H 47.5372 3.83864 -0.591889 0
M  V30 452 H 49.2692 3.96634 -0.803966 0
M  V30 453 H 46.0242 3.80723 -2.81686 0
M  V30 454 H 46.4482 4.0474 -5.42692 0
M  V30 455 H 51.0902 3.32189 -2.61553 0
M  V30 456 H 48.8082 4.01395 -7.01362 0
M  V30 457 H 52.3942 3.40791 -4.71543 0
M  V30 458 H 51.2742 3.75145 -6.88648 0
M  V30 459 N 48.7773 0.814389 1.34928 0
M  V30 460 C 49.7243 0.22822 2.29669 0
M  V30 461 C 50.6943 -0.642164 1.53184 0
M  V30 462 O 51.8793 -0.585605 1.81591 0
M  V30 463 C 49.0193 -0.61089 3.3965 0
M  V30 464 C 48.1323 0.280792 4.31086 0
M  V30 465 C 47.2673 -0.567067 5.28165 0
M  V30 466 C 46.3063 0.324531 6.11239 0
M  V30 467 N 45.4433 -0.483756 7.00431 0
M  V30 468 H 50.2833 1.04153 2.79206 0
M  V30 469 H 47.8203 0.525133 1.37407 0
M  V30 470 H 49.7783 -1.11263 4.0209 0
M  V30 471 H 48.4083 -1.38939 2.91369 0
M  V30 472 H 47.4603 0.900688 3.69583 0
M  V30 473 H 48.7723 0.966723 4.89342 0
M  V30 474 H 47.9263 -1.13363 5.96015 0
M  V30 475 H 46.6653 -1.28654 4.70425 0
M  V30 476 H 45.6703 0.903298 5.42329 0
M  V30 477 H 46.8953 1.04198 6.71059 0
M  V30 478 H 44.8413 -1.18706 6.45171 0
M  V30 479 H 44.7583 0.143965 7.55863 0
M  V30 480 H 46.0263 -1.03334 7.7262 0
M  V30 481 N 50.2554 -1.46986 0.568584 0
M  V30 482 C 51.5034 -2.02041 0.0487022 0
M  V30 483 C 51.8244 -1.44408 -1.31039 0
M  V30 484 O 51.0944 -0.623477 -1.85714 0
M  V30 485 H 49.6744 -0.746849 0.015014 0
M  V30 486 H 52.3364 -1.80257 0.741168 0
M  V30 487 H 51.4324 -3.12085 -0.0308961 0
M  V30 488 N 51.7335 -0.305618 -1.54608 0
M  V30 489 C 52.6635 0.561482 -2.26649 0
M  V30 490 C 53.6445 1.13415 -1.26772 0
M  V30 491 O 54.8295 1.16262 -1.55553 0
M  V30 492 C 51.9595 1.73122 -3.01075 0
M  V30 493 C 50.9135 1.2887 -4.08138 0
M  V30 494 C 50.2395 2.54396 -4.70305 0
M  V30 495 C 51.5395 0.416578 -5.20636 0
M  V30 496 H 53.2335 -0.0393902 -2.99374 0
M  V30 497 H 50.7795 -0.020385 -1.43986 0
M  V30 498 H 52.7325 2.34396 -3.50195 0
M  V30 499 H 51.4565 2.3584 -2.25936 0
M  V30 500 H 50.1155 0.698991 -3.59875 0
M  V30 501 H 49.7635 3.15439 -3.918 0
M  V30 502 H 49.4635 2.25486 -5.42614 0
M  V30 503 H 50.9875 3.16464 -5.2219 0
M  V30 504 H 52.4015 0.935116 -5.65622 0
M  V30 505 H 50.7985 0.221046 -5.99693 0
M  V30 506 H 51.8685 -0.557162 -4.81688 0
M  V30 507 N 53.2116 1.57565 -0.0334293 0
M  V30 508 C 54.1416 2.13511 0.945265 0
M  V30 509 C 55.1226 1.05231 1.33643 0
M  V30 510 O 56.3076 1.33084 1.41429 0
M  V30 511 C 53.4376 2.6657 2.22616 0
M  V30 512 C 52.3916 3.79676 1.97561 0
M  V30 513 C 51.7176 4.1918 3.31952 0
M  V30 514 C 53.0176 5.0557 1.31135 0
M  V30 515 H 54.7116 2.95538 0.479325 0
M  V30 516 H 52.2576 1.42166 0.229115 0
M  V30 517 H 54.2106 3.04344 2.91466 0
M  V30 518 H 52.9346 1.8171 2.71384 0
M  V30 519 H 51.5936 3.42347 1.31127 0
M  V30 520 H 51.2416 3.31296 3.78487 0
M  V30 521 H 50.9416 4.95402 3.15992 0
M  V30 522 H 52.4656 4.59541 4.02063 0
M  V30 523 H 53.8796 5.40903 1.89992 0
M  V30 524 H 52.2766 5.86818 1.25559 0
M  V30 525 H 53.3466 4.84062 0.284894 0
M  V30 526 N 54.6897 -0.239769 1.55765 0
M  V30 527 C 55.6527 -1.28038 1.90103 0
M  V30 528 C 56.6527 -1.40723 0.778055 0
M  V30 529 O 57.8427 -1.39301 1.04599 0
M  V30 530 C 54.9747 -2.65702 2.13577 0
M  V30 531 H 56.1677 -0.988048 2.83157 0
M  V30 532 H 53.7207 -0.479382 1.48767 0
M  V30 533 H 54.4557 -3.00063 1.23015 0
M  V30 534 H 54.2407 -2.57875 2.95369 0
M  V30 535 H 55.7307 -3.40828 2.41301 0
M  V30 536 N 56.1678 -1.49265 -0.50573 0
M  V30 537 C 57.4158 -1.582 -1.25766 0
M  V30 538 C 57.7368 -0.268482 -1.93143 0
M  V30 539 O 57.0068 0.711833 -1.8251 0
M  V30 540 H 55.5868 -0.582873 -0.467191 0
M  V30 541 H 58.2488 -1.85865 -0.586525 0
M  V30 542 H 57.3448 -2.37563 -2.02412 0
M  V30 543 N 57.6459 0.756429 -1.3826 0
M  V30 544 C 58.5559 1.9009 -1.37488 0
M  V30 545 C 59.5719 1.71855 -0.272366 0
M  V30 546 O 60.7479 1.94827 -0.510318 0
M  V30 547 C 57.8129 3.25421 -1.19592 0
M  V30 548 C 56.8739 3.56202 -2.39622 0
M  V30 549 C 56.1069 4.85075 -2.2257 0
M  V30 550 O 56.3299 5.57246 -1.21793 0
M  V30 551 O 55.2639 5.15269 -3.11098 0
M  V30 552 H 59.0899 1.93695 -2.33914 0
M  V30 553 H 56.6749 0.901313 -1.1915 0
M  V30 554 H 58.5569 4.06337 -1.11661 0
M  V30 555 H 57.2319 3.22634 -0.262486 0
M  V30 556 H 56.1389 2.75458 -2.53128 0
M  V30 557 H 57.4719 3.63747 -3.31586 0
M  V30 558 N 59.124 1.23083 0.984299 0
M  V30 559 C 60.349 1.088 1.76571 0
M  V30 560 C 60.774 -0.356657 1.84688 0
M  V30 561 O 60.132 -1.25788 1.30565 0
M  V30 562 C 60.18 1.71371 3.17277 0
M  V30 563 O 59.284 0.973213 4.00752 0
M  V30 564 H 58.625 0.381599 0.543395 0
M  V30 565 H 61.155 1.63057 1.23587 0
M  V30 566 H 61.165 1.76449 3.67872 0
M  V30 567 H 59.84 2.76493 3.10684 0
M  V30 568 H 58.417 0.999078 3.59267 0
M  V30 569 N 60.6021 -1.18246 1.0419 0
M  V30 570 C 61.8501 -1.87886 0.744543 0
M  V30 571 C 62.1711 -1.8082 -0.730006 0
M  V30 572 O 61.4411 -1.22736 -1.52685 0
M  V30 573 H 60.0211 -0.695556 0.272417 0
M  V30 574 H 62.6831 -1.43494 1.31892 0
M  V30 575 H 61.7791 -2.9389 1.05049 0
M  V30 576 N 62.0802 -0.821533 -1.34494 0
M  V30 577 C 63.3292 -0.405355 -1.97585 0
M  V30 578 C 63.6422 1.03677 -1.65863 0
M  V30 579 O 64.8482 1.55679 -2.22433 0
M  V30 580 C 63.3042 -0.673861 -3.53535 0
M  V30 581 C 62.9122 -2.12951 -3.94152 0
M  V30 582 C 64.6562 -0.32378 -4.23263 0
M  V30 583 C 62.5632 -2.34298 -5.43009 0
M  V30 584 H 61.4932 -0.147836 -0.739365 0
M  V30 585 H 64.1442 -1.00769 -1.53355 0
M  V30 586 H 62.5262 -0.00137554 -3.96 0
M  V30 587 H 63.7002 -2.84104 -3.62797 0
M  V30 588 H 62.0152 -2.44089 -3.37356 0
M  V30 589 H 64.6122 -0.461126 -5.32708 0
M  V30 590 H 64.9552 0.731586 -4.09821 0
M  V30 591 H 65.4882 -0.950786 -3.8627 0
M  V30 592 H 62.2272 -3.38335 -5.61435 0
M  V30 593 H 61.7472 -1.67687 -5.75883 0
M  V30 594 H 63.4262 -2.16588 -6.09671 0
M  V30 595 N 63.5583 1.46682 -0.576371 0
M  V30 596 C 64.5083 2.27278 0.181288 0
M  V30 597 C 65.4923 1.35497 0.867721 0
M  V30 598 O 66.6843 1.59717 0.762863 0
M  V30 599 C 63.8133 3.21703 1.19841 0
M  V30 600 C 62.8993 4.20969 0.51442 0
M  V30 601 N 63.2903 5.03999 -0.426407 0
M  V30 602 C 61.5883 4.39373 0.765963 0
M  V30 603 C 62.2893 5.75812 -0.825565 0
M  V30 604 N 61.2653 5.43315 -0.176116 0
M  V30 605 H 65.0673 2.88863 -0.541785 0
M  V30 606 H 62.5813 1.57455 -0.397697 0
M  V30 607 H 64.5783 3.78145 1.75533 0
M  V30 608 H 63.2383 2.61677 1.92238 0
M  V30 609 H 64.2493 5.11659 -0.8016 0
M  V30 610 H 60.9263 3.90502 1.47698 0
M  V30 611 H 62.3163 6.52577 -1.59976 0
M  V30 612 N 65.0364 0.313813 1.54444 0
M  V30 613 C 65.9994 -0.54379 2.22656 0
M  V30 614 C 66.9994 -1.05124 1.21678 0
M  V30 615 O 68.1894 -0.945225 1.46325 0
M  V30 616 C 65.3214 -1.75427 2.92298 0
M  V30 617 H 66.5144 0.0523599 2.99854 0
M  V30 618 H 64.0674 0.0647834 1.56166 0
M  V30 619 H 64.8024 -2.38991 2.19211 0
M  V30 620 H 64.5874 -1.39791 3.66334 0
M  V30 621 H 66.0774 -2.36325 3.44297 0
M  V30 622 N 66.5145 -1.57545 0.0417849 0
M  V30 623 C 67.4445 -2.14009 -0.933929 0
M  V30 624 C 68.4255 -1.05938 -1.33083 0
M  V30 625 O 69.6105 -1.33833 -1.40721 0
M  V30 626 C 66.7405 -2.67747 -2.21199 0
M  V30 627 C 65.6945 -3.80718 -1.95544 0
M  V30 628 C 65.0205 -4.20935 -3.29724 0
M  V30 629 C 66.3205 -5.06258 -1.28452 0
M  V30 630 H 68.0145 -2.95788 -0.463645 0
M  V30 631 H 65.5605 -1.42285 -0.221573 0
M  V30 632 H 67.5135 -3.05886 -2.89848 0
M  V30 633 H 66.2375 -1.83147 -2.70416 0
M  V30 634 H 64.8965 -3.43037 -1.2931 0
M  V30 635 H 64.5445 -3.33298 -3.76724 0
M  V30 636 H 64.2445 -4.9707 -3.13361 0
M  V30 637 H 65.7685 -4.61666 -3.9962 0
M  V30 638 H 67.1825 -5.41903 -1.8712 0
M  V30 639 H 65.5795 -5.87475 -1.22445 0
M  V30 640 H 66.6495 -4.84207 -0.259219 0
M  V30 641 N 67.9926 0.231505 -1.5589 0
M  V30 642 C 68.9026 1.308 -1.94752 0
M  V30 643 C 69.9186 1.51826 -0.849989 0
M  V30 644 O 71.0946 1.6515 -1.15271 0
M  V30 645 C 68.1596 2.63968 -2.24771 0
M  V30 646 C 67.2206 2.51331 -3.48039 0
M  V30 647 C 66.4536 3.78148 -3.76616 0
M  V30 648 O 66.6766 4.80722 -3.07022 0
M  V30 649 O 65.6106 3.75857 -4.70123 0
M  V30 650 H 69.4366 1.0083 -2.86474 0
M  V30 651 H 67.0216 0.433547 -1.42971 0
M  V30 652 H 68.9036 3.42633 -2.45318 0
M  V30 653 H 67.5786 2.9364 -1.36225 0
M  V30 654 H 66.4856 1.709 -3.32782 0
M  V30 655 H 67.8186 2.26601 -4.36936 0
M  V30 656 N 69.4707 1.49531 0.497807 0
M  V30 657 C 70.7477 1.49682 1.25915 0
M  V30 658 C 71.1277 0.226339 2.09883 0
M  V30 659 O 70.4757 -0.791189 2.14365 0
M  V30 660 C 70.6857 2.77755 2.11313 0
M  V30 661 C 72.0337 3.27371 2.70395 0
M  V30 662 O 73.0577 2.78894 2.21578 0
M  V30 663 O 71.9167 4.11808 3.59272 0
M  V30 664 H 69.0107 0.599228 0.56996 0
M  V30 665 H 71.5567 1.61798 0.511816 0
M  V30 666 H 70.3287 3.61713 1.49264 0
M  V30 667 H 69.9517 2.68515 2.93233 0
M  V30 668 N 70.9488 -0.749086 1.3866 0
M  V30 669 C 71.8588 -1.89358 1.38494 0
M  V30 670 C 72.8748 -1.71708 0.281476 0
M  V30 671 O 74.0508 -1.94554 0.520643 0
M  V30 672 C 71.1158 -3.24782 1.21316 0
M  V30 673 C 70.1768 -3.54926 2.41508 0
M  V30 674 C 69.4098 -4.83888 2.2514 0
M  V30 675 O 69.6328 -5.56592 1.24746 0
M  V30 676 O 68.5668 -5.13612 3.13826 0
M  V30 677 H 72.3928 -1.92452 2.34938 0
M  V30 678 H 69.9778 -0.894981 1.19626 0
M  V30 679 H 71.8598 -4.05739 1.13814 0
M  V30 680 H 70.5348 -3.2249 0.279592 0
M  V30 681 H 69.4418 -2.74112 2.54585 0
M  V30 682 H 70.7748 -3.61983 3.3351 0
M  V30 683 N 72.4269 -1.23603 -0.977757 0
M  V30 684 C 73.6739 -1.06971 -1.71941 0
M  V30 685 C 74.0019 0.393009 -1.90488 0
M  V30 686 O 73.2569 1.30719 -1.4564 0
M  V30 687 C 73.5559 -1.7433 -3.11999 0
M  V30 688 C 73.2219 -3.24252 -3.13323 0
M  V30 689 C 71.8839 -3.65156 -3.13392 0
M  V30 690 C 74.2359 -4.20141 -3.08433 0
M  V30 691 C 71.5639 -5.00403 -3.0629 0
M  V30 692 C 73.9159 -5.55384 -3.02873 0
M  V30 693 C 72.5799 -5.95647 -3.01265 0
M  V30 694 H 71.8499 -0.391433 -0.629175 0
M  V30 695 H 74.4969 -1.53572 -1.14403 0
M  V30 696 H 72.8019 -1.20096 -3.7294 0
M  V30 697 H 74.4989 -1.58936 -3.68158 0
M  V30 698 H 71.0889 -2.91692 -3.14029 0
M  V30 699 H 75.2729 -3.89547 -3.07517 0
M  V30 700 H 70.5289 -5.3081 -3.03399 0
M  V30 701 H 74.7029 -6.29398 -2.98046 0
M  V30 702 H 72.3299 -7.0041 -2.95516 0
M  V30 703 N 73.905 1.17692 -1.04816 0
M  V30 704 C 75.151 1.88137 -0.75711 0
M  V30 705 C 75.484 1.80604 0.713841 0
M  V30 706 O 74.759 1.21146 1.52164 0
M  V30 707 C 75.042 3.38318 -1.2334 0
M  V30 708 C 74.895 3.54622 -2.76701 0
M  V30 709 C 76.214 4.32214 -0.829415 0
M  V30 710 H 73.333 0.683163 -0.27651 0
M  V30 711 H 75.975 1.38424 -1.30149 0
M  V30 712 H 74.125 3.80787 -0.770286 0
M  V30 713 H 75.797 3.21194 -3.31107 0
M  V30 714 H 74.04 2.97026 -3.16161 0
M  V30 715 H 74.711 4.60028 -3.05088 0
M  V30 716 H 77.187 3.97565 -1.22805 0
M  V30 717 H 76.063 5.35838 -1.19033 0
M  V30 718 H 76.324 4.41294 0.266891 0
M  V30 719 N 75.3831 0.828654 1.34056 0
M  V30 720 C 76.6111 0.43262 2.02326 0
M  V30 721 C 77.0261 -0.963147 1.62385 0
M  V30 722 O 76.3831 -1.62425 0.832121 0
M  V30 723 C 76.4341 0.53182 3.57567 0
M  V30 724 O 76.1551 1.87258 3.96063 0
M  V30 725 C 77.6561 0.131422 4.43105 0
M  V30 726 H 74.8761 0.172923 0.648335 0
M  V30 727 H 77.4201 1.1184 1.71208 0
M  V30 728 H 75.5751 -0.105938 3.87255 0
M  V30 729 H 75.9891 1.85087 4.90758 0
M  V30 730 H 77.4631 0.251904 5.51425 0
M  V30 731 H 77.9401 -0.925645 4.29335 0
M  V30 732 H 78.5461 0.743207 4.18756 0
M  V30 733 N 76.8612 -1.46375 0.584142 0
M  V30 734 C 77.8082 -2.30323 -0.148286 0
M  V30 735 C 78.7782 -1.40703 -0.882713 0
M  V30 736 O 79.9632 -1.69651 -0.873099 0
M  V30 737 C 77.1032 -3.25196 -1.15507 0
M  V30 738 C 76.2162 -4.29915 -0.423943 0
M  V30 739 C 75.3512 -5.11914 -1.41838 0
M  V30 740 C 74.3902 -6.08381 -0.673736 0
M  V30 741 N 73.5272 -6.83242 -1.6163 0
M  V30 742 H 78.3672 -2.92427 0.573644 0
M  V30 743 H 75.9042 -1.44118 0.294703 0
M  V30 744 H 77.8622 -3.78646 -1.75166 0
M  V30 745 H 76.4922 -2.64898 -1.8447 0
M  V30 746 H 75.5442 -3.7931 0.287714 0
M  V30 747 H 76.8562 -4.98549 0.158128 0
M  V30 748 H 76.0102 -5.69648 -2.08773 0
M  V30 749 H 74.7492 -4.43243 -2.03438 0
M  V30 750 H 73.7542 -5.49799 0.00938483 0
M  V30 751 H 74.9792 -6.79071 -0.0631082 0
M  V30 752 H 72.9252 -6.1728 -2.22038 0
M  V30 753 H 72.8422 -7.48144 -1.08707 0
M  V30 754 H 74.1102 -7.45534 -2.27596 0
M  V30 755 N 78.3393 -0.321999 -1.54275 0
M  V30 756 C 79.5853 0.274234 -2.01543 0
M  V30 757 C 79.9403 1.499 -1.20614 0
M  V30 758 O 79.2333 1.89546 -0.279804 0
M  V30 759 C 79.4273 0.661769 -3.5122 0
M  V30 760 C 79.2563 -0.523892 -4.46638 0
M  V30 761 C 78.0263 -1.02251 -4.94846 0
M  V30 762 C 80.2243 -1.37558 -4.95563 0
M  V30 763 N 78.2063 -2.17274 -5.74165 0
M  V30 764 C 79.5773 -2.37301 -5.7279 0
M  V30 765 C 81.6323 -1.40353 -4.77709 0
M  V30 766 C 80.3353 -3.3964 -6.34064 0
M  V30 767 C 82.3613 -2.41562 -5.39817 0
M  V30 768 C 81.7233 -3.40031 -6.16894 0
M  V30 769 H 77.8223 0.0642367 -0.779357 0
M  V30 770 H 80.4063 -0.456683 -1.89268 0
M  V30 771 H 78.5773 1.36182 -3.63743 0
M  V30 772 H 80.3093 1.23934 -3.85256 0
M  V30 773 H 77.0643 -0.594046 -4.6986 0
M  V30 774 H 77.4883 -2.75289 -6.18502 0
M  V30 775 H 82.1303 -0.655907 -4.17681 0
M  V30 776 H 79.8483 -4.15309 -6.93213 0
M  V30 777 H 83.4343 -2.44524 -5.2792 0
M  V30 778 H 82.3143 -4.17063 -6.64099 0
M  V30 779 N 79.8174 1.5752 -0.0501392 0
M  V30 780 C 81.0944 1.83996 0.663685 0
M  V30 781 C 81.4744 0.938339 1.89099 0
M  V30 782 O 80.8224 -0.00087759 2.285 0
M  V30 783 C 81.0324 3.33702 1.02196 0
M  V30 784 C 82.3804 4.00691 1.40469 0
M  V30 785 O 83.4044 3.38321 1.11433 0
M  V30 786 O 82.2634 5.10658 1.94654 0
M  V30 787 H 79.3574 0.759385 0.32751 0
M  V30 788 H 81.9034 1.69514 -0.0794238 0
M  V30 789 H 80.6754 3.91015 0.149364 0
M  V30 790 H 80.2984 3.53368 1.82255 0
M  V30 791 N 81.2955 -0.223234 1.56011 0
M  V30 792 C 82.2255 -1.27988 1.95298 0
M  V30 793 C 83.2065 -1.48976 0.820979 0
M  V30 794 O 84.3915 -1.61188 1.08315 0
M  V30 795 C 81.5215 -2.63 2.26822 0
M  V30 796 C 80.4755 -2.56671 3.42497 0
M  V30 797 C 79.8015 -3.95697 3.59622 0
M  V30 798 C 81.1015 -2.11601 4.77517 0
M  V30 799 H 82.7955 -0.953525 2.8381 0
M  V30 800 H 80.3415 -0.457244 1.36548 0
M  V30 801 H 82.2945 -3.37077 2.52898 0
M  V30 802 H 81.0185 -2.9732 1.35161 0
M  V30 803 H 79.6775 -1.85051 3.16467 0
M  V30 804 H 79.3255 -4.27322 2.6534 0
M  V30 805 H 79.0255 -3.92345 4.37424 0
M  V30 806 H 80.5495 -4.71438 3.88044 0
M  V30 807 H 81.9635 -2.7542 5.02809 0
M  V30 808 H 80.3605 -2.19311 5.5859 0
M  V30 809 H 81.4305 -1.06824 4.72987 0
M  V30 810 N 82.7736 -1.49793 -0.48987 0
M  V30 811 C 83.7366 -1.66752 -1.57246 0
M  V30 812 C 84.7366 -0.538867 -1.51502 0
M  V30 813 O 85.9266 -0.805545 -1.54456 0
M  V30 814 C 83.0586 -1.67528 -2.96896 0
M  V30 815 H 84.2516 -2.63321 -1.43534 0
M  V30 816 H 81.8046 -1.38992 -0.714914 0
M  V30 817 H 82.5396 -0.725837 -3.16073 0
M  V30 818 H 82.3246 -2.49504 -3.02473 0
M  V30 819 H 83.8146 -1.82667 -3.7553 0
M  V30 820 N 84.2517 0.741722 -1.39055 0
M  V30 821 C 85.4977 1.50336 -1.36113 0
M  V30 822 C 85.8307 1.94148 0.0450796 0
M  V30 823 O 85.1057 1.66301 1.00868 0
M  V30 824 C 85.3887 2.74773 -2.32749 0
M  V30 825 C 85.2417 2.37023 -3.82283 0
M  V30 826 C 86.5607 3.76846 -2.27322 0
M  V30 827 H 83.6797 0.545351 -0.495743 0
M  V30 828 H 86.3217 0.848624 -1.69995 0
M  V30 829 H 84.4717 3.30639 -2.03986 0
M  V30 830 H 86.1437 1.8684 -4.21768 0
M  V30 831 H 84.3867 1.69334 -3.99385 0
M  V30 832 H 85.0577 3.26104 -4.45376 0
M  V30 833 H 87.5337 3.30548 -2.5274 0
M  V30 834 H 86.4097 4.6159 -2.97028 0
M  V30 835 H 86.6707 4.23286 -1.27599 0
M  V30 836 N 85.7298 1.2412 0.971189 0
M  V30 837 C 86.6768 1.0305 2.06517 0
M  V30 838 C 87.6468 -0.0550666 1.66009 0
M  V30 839 O 88.8318 0.0988688 1.90544 0
M  V30 840 C 85.9718 0.637653 3.39158 0
M  V30 841 C 85.0848 1.79633 3.92882 0
M  V30 842 C 84.2198 1.34939 5.13775 0
M  V30 843 C 83.2588 2.47823 5.59687 0
M  V30 844 N 82.3958 2.04022 6.71803 0
M  V30 845 H 87.2358 1.96685 2.23873 0
M  V30 846 H 84.7728 0.979694 1.09729 0
M  V30 847 H 86.7308 0.390931 4.15364 0
M  V30 848 H 85.3608 -0.261693 3.21737 0
M  V30 849 H 84.4128 2.15681 3.13346 0
M  V30 850 H 85.7248 2.64466 4.22918 0
M  V30 851 H 84.8788 1.06134 5.97345 0
M  V30 852 H 83.6178 0.471557 4.85415 0
M  V30 853 H 82.6228 2.77392 4.74693 0
M  V30 854 H 83.8478 3.36158 5.90063 0
M  V30 855 H 81.7938 1.18632 6.45184 0
M  V30 856 H 81.7108 2.82409 7.01271 0
M  V30 857 H 82.9788 1.78347 7.58823 0
M  V30 858 N 87.2079 -1.17134 1.05439 0
M  V30 859 C 88.4569 -1.86791 0.761049 0
M  V30 860 C 88.7699 -1.82072 -0.714795 0
M  V30 861 O 89.9759 -2.47223 -1.12218 0
M  V30 862 C 88.4319 -3.35166 1.31117 0
M  V30 863 C 88.0399 -3.48381 2.81664 0
M  V30 864 C 89.7839 -4.10134 1.09499 0
M  V30 865 C 87.6909 -4.90793 3.29964 0
M  V30 866 H 86.6209 -0.699681 0.281002 0
M  V30 867 H 89.2719 -1.3226 1.27199 0
M  V30 868 H 87.6539 -3.8925 0.72803 0
M  V30 869 H 88.8279 -3.04502 3.45855 0
M  V30 870 H 87.1429 -2.86836 3.01851 0
M  V30 871 H 89.7399 -5.152 1.43084 0
M  V30 872 H 90.0829 -4.16287 0.0328772 0
M  V30 873 H 90.6159 -3.62264 1.64346 0
M  V30 874 H 87.3549 -4.89816 4.35616 0
M  V30 875 H 86.8749 -5.35333 2.70516 0
M  V30 876 H 88.5539 -5.59573 3.24787 0
M  V30 877 N 88.686 -0.835752 -1.33615 0
M  V30 878 C 89.934 -0.429109 -1.97492 0
M  V30 879 C 90.255 1.01433 -1.66543 0
M  V30 880 O 89.525 1.70611 -0.962744 0
M  V30 881 H 88.105 -0.155686 -0.730596 0
M  V30 882 H 90.767 -1.06802 -1.63031 0
M  V30 883 H 89.863 -0.55861 -3.0706 0
M  V30 884 N 90.1641 1.46063 -0.591896 0
M  V30 885 C 91.4121 2.01938 -0.0808391 0
M  V30 886 C 91.7331 1.46475 1.28725 0
M  V30 887 O 91.0031 0.652944 1.84698 0
M  V30 888 H 89.5831 0.746516 -0.0268938 0
M  V30 889 H 92.2451 1.79055 -0.769752 0
M  V30 890 H 91.3411 3.12094 -0.0187578 0
M  V30 891 N 91.6422 0.330177 1.54103 0
M  V30 892 C 92.5922 -0.548456 2.21305 0
M  V30 893 C 93.5762 -1.07651 1.19583 0
M  V30 894 O 94.7682 -1.01243 1.45186 0
M  V30 895 C 91.8972 -1.70559 2.97934 0
M  V30 896 C 90.9832 -1.19212 4.07 0
M  V30 897 N 91.3742 -0.398831 5.04225 0
M  V30 898 C 89.6722 -1.47024 4.2107 0
M  V30 899 C 90.3732 -0.121761 5.81573 0
M  V30 900 N 89.3492 -0.709722 5.38947 0
M  V30 901 H 93.1512 0.0648483 2.93828 0
M  V30 902 H 90.6652 0.136363 1.61826 0
M  V30 903 H 92.6622 -2.34688 3.44568 0
M  V30 904 H 91.3222 -2.32231 2.26934 0
M  V30 905 H 92.3332 -0.0410869 5.17884 0
M  V30 906 H 89.0102 -2.09232 3.61287 0
M  V30 907 H 90.4002 0.517298 6.69906 0
M  V30 908 N 93.1203 -1.57491 0.0584922 0
M  V30 909 C 94.0503 -2.14988 -0.911178 0
M  V30 910 C 95.0313 -1.07343 -1.31952 0
M  V30 911 O 96.2163 -1.35318 -1.39294 0
M  V30 912 C 93.3463 -2.70078 -2.18347 0
M  V30 913 C 92.3003 -3.82771 -1.91495 0
M  V30 914 C 91.6263 -4.24408 -3.25241 0
M  V30 915 C 92.9263 -5.07592 -1.23075 0
M  V30 916 H 94.6203 -2.96263 -0.432246 0
M  V30 917 H 92.1663 -1.42512 -0.206469 0
M  V30 918 H 94.1193 -3.08943 -2.86587 0
M  V30 919 H 92.8433 -1.86005 -2.68458 0
M  V30 920 H 91.5023 -3.44389 -1.25664 0
M  V30 921 H 91.1503 -3.37275 -3.73168 0
M  V30 922 H 90.8503 -5.00366 -3.08071 0
M  V30 923 H 92.3743 -4.65879 -3.94701 0
M  V30 924 H 93.7883 -5.43857 -1.81362 0
M  V30 925 H 92.1853 -5.88741 -1.16207 0
M  V30 926 H 93.2553 -4.84454 -0.207847 0
M  V30 927 N 94.5984 0.214957 -1.56127 0
M  V30 928 C 95.5454 1.26642 -1.92952 0
M  V30 929 C 96.5154 1.46244 -0.78753 0
M  V30 930 O 97.7004 1.59704 -1.04399 0
M  V30 931 C 94.8404 2.6104 -2.25726 0
M  V30 932 C 93.9534 2.49183 -3.52891 0
M  V30 933 C 93.0884 3.76149 -3.7508 0
M  V30 934 C 92.1274 3.59041 -4.95738 0
M  V30 935 N 91.2644 4.77972 -5.14283 0
M  V30 936 H 96.1044 0.945384 -2.82607 0
M  V30 937 H 93.6414 0.455489 -1.3987 0
M  V30 938 H 95.5994 3.39313 -2.42739 0
M  V30 939 H 94.2294 2.91227 -1.39236 0
M  V30 940 H 93.2814 1.6231 -3.44034 0
M  V30 941 H 94.5934 2.32466 -4.41318 0
M  V30 942 H 93.7474 4.62865 -3.92226 0
M  V30 943 H 92.4864 3.95799 -2.84947 0
M  V30 944 H 91.4914 2.7071 -4.78535 0
M  V30 945 H 92.7164 3.40856 -5.87362 0
M  V30 946 H 90.6624 4.97923 -4.27093 0
M  V30 947 H 90.5794 4.64006 -5.96853 0
M  V30 948 H 91.8474 5.66096 -5.35869 0
M  V30 949 N 96.0765 1.50051 0.48192 0
M  V30 950 C 97.3535 1.51009 1.2432 0
M  V30 951 C 97.7335 0.248587 2.09631 0
M  V30 952 O 97.0815 -0.768409 2.15192 0
M  V30 953 C 97.2915 2.79981 2.08355 0
M  V30 954 C 98.6395 3.3022 2.66908 0
M  V30 955 O 99.6635 2.81228 2.18607 0
M  V30 956 O 98.5225 4.15595 3.54884 0
M  V30 957 H 95.6165 0.605239 0.563573 0
M  V30 958 H 98.1625 1.62332 0.494627 0
M  V30 959 H 96.9345 3.63275 1.45419 0
M  V30 960 H 96.5575 2.7161 2.90368 0
M  V30 961 N 97.5546 -0.734337 1.39446 0
M  V30 962 C 98.9656 -1.31264 1.32766 0
M  V30 963 C 99.3166 -1.96198 -0.00767497 0
M  V30 964 O 98.4416 -1.96346 -0.909796 0
M  V30 965 C 99.0366 -2.38682 2.4045 0
M  V30 966 C 97.5956 -2.92184 2.37288 0
M  V30 967 C 96.7426 -1.6576 2.22304 0
M  V30 968 H 99.6936 -0.531799 1.49525 0
M  V30 969 H 99.7146 -3.19087 2.07276 0
M  V30 970 H 99.2266 -1.91392 3.37625 0
M  V30 971 H 97.3276 -3.43752 1.43754 0
M  V30 972 H 97.4406 -3.45253 3.3217 0
M  V30 973 H 95.8046 -1.9012 1.69489 0
M  V30 974 H 96.5876 -1.20521 3.21449 0
M  V30 975 N 99.0327 -1.24633 -0.964593 0
M  V30 976 C 100.279 -1.08949 -1.71049 0
M  V30 977 C 100.612 0.370302 -1.90637 0
M  V30 978 O 99.8867 1.27349 -1.47011 0
M  V30 979 C 100.17 -1.83329 -3.0994 0
M  V30 980 C 100.023 -3.37077 -2.97824 0
M  V30 981 C 101.342 -1.60846 -4.09654 0
M  V30 982 H 98.4607 -0.397178 -0.620821 0
M  V30 983 H 101.103 -1.5334 -1.12191 0
M  V30 984 H 99.2527 -1.45597 -3.60186 0
M  V30 985 H 100.925 -3.84425 -2.5498 0
M  V30 986 H 99.1677 -3.65298 -2.33965 0
M  V30 987 H 99.8387 -3.84324 -3.96231 0
M  V30 988 H 102.315 -1.93674 -3.68279 0
M  V30 989 H 101.191 -2.1534 -5.04896 0
M  V30 990 H 101.452 -0.547434 -4.38698 0
M  V30 991 N 100.511 1.16574 -1.06058 0
M  V30 992 C 101.788 1.83048 -0.689416 0
M  V30 993 C 102.168 1.94122 0.829443 0
M  V30 994 O 101.516 1.48249 1.7388 0
M  V30 995 C 101.726 3.20186 -1.38859 0
M  V30 996 C 103.074 3.95989 -1.53226 0
M  V30 997 O 104.098 3.29696 -1.3483 0
M  V30 998 O 102.957 5.14813 -1.83384 0
M  V30 999 H 100.051 0.790258 -0.243764 0
M  V30 1000 H 102.597 1.23797 -1.16071 0
M  V30 1001 H 101.369 3.07146 -2.4244 0
M  V30 1002 H 100.992 3.87112 -0.907216 0
M  V30 1003 N 101.989 0.842826 1.3317 0
M  V30 1004 C 103.214 0.453129 2.02389 0
M  V30 1005 C 103.639 -0.939105 1.6298 0
M  V30 1006 O 102.997 -1.61472 0.8244 0
M  V30 1007 C 103.045 0.586094 3.55805 0
M  V30 1008 O 102.149 -0.386029 4.10589 0
M  V30 1009 H 101.49 0.183664 0.638094 0
M  V30 1010 H 104.02 1.13875 1.69981 0
M  V30 1011 H 104.03 0.469209 4.05293 0
M  V30 1012 H 102.705 1.6014 3.83833 0
M  V30 1013 H 101.282 -0.226371 3.72212 0
M  V30 1014 N 103.467 -1.45747 0.599634 0
M  V30 1015 C 104.417 -2.27538 -0.145107 0
M  V30 1016 C 105.401 -1.3686 -0.846055 0
M  V30 1017 O 106.593 -1.6091 -0.737357 0
M  V30 1018 C 103.722 -3.23569 -1.14708 0
M  V30 1019 C 102.808 -4.21734 -0.447383 0
M  V30 1020 N 103.199 -5.03257 0.506535 0
M  V30 1021 C 101.497 -4.40536 -0.695966 0
M  V30 1022 C 102.198 -5.74426 0.917068 0
M  V30 1023 N 101.174 -5.42966 0.26253 0
M  V30 1024 H 104.976 -2.87965 0.587672 0
M  V30 1025 H 102.49 -1.56803 0.422697 0
M  V30 1026 H 104.487 -3.8089 -1.69495 0
M  V30 1027 H 103.147 -2.64702 -1.8805 0
M  V30 1028 H 104.158 -5.10319 0.882899 0
M  V30 1029 H 100.835 -3.92802 -1.41467 0
M  V30 1030 H 102.225 -6.4995 1.70338 0
M  V30 1031 N 104.945 -0.338344 -1.53925 0
M  V30 1032 C 105.878 0.563758 -2.21127 0
M  V30 1033 C 106.856 1.10433 -1.19345 0
M  V30 1034 O 108.04 1.16557 -1.48144 0
M  V30 1035 C 105.167 1.77505 -2.88461 0
M  V30 1036 C 104.213 1.3644 -4.04087 0
M  V30 1037 S 105.046 0.388593 -5.34088 0
M  V30 1038 C 106.202 1.60683 -6.04923 0
M  V30 1039 H 106.435 -0.00704546 -2.97299 0
M  V30 1040 H 103.968 -0.122418 -1.53914 0
M  V30 1041 H 105.926 2.46999 -3.27875 0
M  V30 1042 H 104.587 2.31706 -2.12064 0
M  V30 1043 H 103.78 2.26739 -4.50117 0
M  V30 1044 H 103.382 0.748998 -3.66423 0
M  V30 1045 H 105.674 2.54209 -6.28 0
M  V30 1046 H 106.617 1.18842 -6.98056 0
M  V30 1047 H 107.025 1.80052 -5.35015 0
M  V30 1048 N 106.423 1.57458 -0.0668435 0
M  V30 1049 C 107.671 1.92919 0.602214 0
M  V30 1050 C 107.992 0.947215 1.70449 0
M  V30 1051 O 107.262 -0.00544117 1.95899 0
M  V30 1052 H 105.842 0.71217 0.22544 0
M  V30 1053 H 108.504 1.94508 -0.123535 0
M  V30 1054 H 107.6 2.94589 1.03073 0
M  V30 1055 N 107.901 -0.206675 1.56239 0
M  V30 1056 C 109.317 -0.557025 1.49564 0
M  V30 1057 C 109.517 -1.86424 0.764735 0
M  V30 1058 O 108.573 -2.50584 0.310491 0
M  V30 1059 C 109.886 -0.622478 2.94186 0
M  V30 1060 C 111.434 -0.712099 3.04792 0
M  V30 1061 C 111.909 -0.808767 4.50803 0
M  V30 1062 N 113.4 -0.8726 4.54907 0
M  V30 1063 C 114.135 -0.967365 5.65181 0
M  V30 1064 N 113.631 -1.02515 6.85173 0
M  V30 1065 N 115.424 -1.00366 5.53067 0
M  V30 1066 H 107.575 0.650943 2.02179 0
M  V30 1067 H 109.838 0.230387 0.919579 0
M  V30 1068 H 109.544 0.268727 3.50672 0
M  V30 1069 H 109.418 -1.4811 3.46905 0
M  V30 1070 H 111.805 -1.59374 2.48363 0
M  V30 1071 H 111.886 0.172489 2.55218 0
M  V30 1072 H 111.53 0.0684754 5.07854 0
M  V30 1073 H 111.46 -1.70899 4.98098 0
M  V30 1074 H 113.951 -0.837657 3.68499 0
M  V30 1075 H 114.264 -1.09765 7.64965 0
M  V30 1076 H 112.609 -0.994026 6.87855 0
M  V30 1077 H 115.8 -0.95527 4.58249 0
M  V30 1078 H 115.973 -1.07405 6.39037 0
M  V30 1079 N 109.379 -1.50304 -0.473955 0
M  V30 1080 C 110.309 -1.71886 -1.58042 0
M  V30 1081 C 111.29 -0.567799 -1.60344 0
M  V30 1082 O 112.475 -0.806623 -1.76656 0
M  V30 1083 C 109.605 -1.81036 -2.96384 0
M  V30 1084 C 108.559 -2.962 -3.08949 0
M  V30 1085 C 107.885 -2.9049 -4.48909 0
M  V30 1086 C 109.185 -4.36752 -2.86434 0
M  V30 1087 H 110.879 -2.64527 -1.40234 0
M  V30 1088 H 108.425 -1.27295 -0.673201 0
M  V30 1089 H 110.378 -1.94719 -3.73714 0
M  V30 1090 H 109.102 -0.850147 -3.15341 0
M  V30 1091 H 107.761 -2.82164 -2.3405 0
M  V30 1092 H 107.409 -1.92321 -4.64781 0
M  V30 1093 H 107.109 -3.67802 -4.58253 0
M  V30 1094 H 108.633 -3.06218 -5.28264 0
M  V30 1095 H 110.047 -4.5133 -3.53517 0
M  V30 1096 H 108.444 -5.15493 -3.07225 0
M  V30 1097 H 109.514 -4.49321 -1.82316 0
M  V30 1098 N 110.857 0.726932 -1.39834 0
M  V30 1099 C 112.134 1.47902 -1.28001 0
M  V30 1100 C 112.514 2.1083 0.106789 0
M  V30 1101 O 111.862 1.99242 1.11869 0
M  V30 1102 C 112.072 2.52392 -2.41038 0
M  V30 1103 C 113.42 3.18546 -2.80737 0
M  V30 1104 O 114.444 2.62708 -2.40547 0
M  V30 1105 O 113.303 4.19604 -3.50135 0
M  V30 1106 H 110.397 0.657163 -0.502062 0
M  V30 1107 H 112.943 0.760071 -1.51727 0
M  V30 1108 H 111.715 2.04329 -3.33715 0
M  V30 1109 H 111.338 3.31837 -2.19021 0
M  V30 1110 N 112.336 1.25143 0.95797 0
M  V30 1111 C 113.269 0.995565 2.05338 0
M  V30 1112 C 114.247 -0.0740423 1.62431 0
M  V30 1113 O 115.431 0.0649212 1.88388 0
M  V30 1114 C 112.558 0.504298 3.34925 0
M  V30 1115 C 111.604 1.56393 3.96792 0
M  V30 1116 S 112.437 3.14815 4.33188 0
M  V30 1117 C 113.593 2.67415 5.65898 0
M  V30 1118 H 113.826 1.92309 2.26726 0
M  V30 1119 H 111.359 1.08635 1.09716 0
M  V30 1120 H 113.317 0.227497 4.09869 0
M  V30 1121 H 111.978 -0.402671 3.11508 0
M  V30 1122 H 111.171 1.17082 4.90212 0
M  V30 1123 H 110.773 1.79124 3.28315 0
M  V30 1124 H 113.065 2.10833 6.4386 0
M  V30 1125 H 114.008 3.59463 6.10076 0
M  V30 1126 H 114.416 2.07521 5.24972 0
M  V30 1127 N 113.814 -1.1601 1.06675 0
M  V30 1128 C 115.23 -1.38622 0.790948 0
M  V30 1129 C 115.43 -1.92109 -0.607965 0
M  V30 1130 O 114.486 -2.12239 -1.36787 0
M  V30 1131 C 115.799 -2.36347 1.85905 0
M  V30 1132 C 117.347 -2.50023 1.88301 0
M  V30 1133 C 117.822 -3.51033 2.94176 0
M  V30 1134 N 119.313 -3.58563 2.93235 0
M  V30 1135 C 120.048 -4.36521 3.71803 0
M  V30 1136 N 119.544 -5.17869 4.602 0
M  V30 1137 N 121.337 -4.31541 3.60178 0
M  V30 1138 H 113.488 -0.796294 1.96908 0
M  V30 1139 H 115.751 -0.412597 0.853503 0
M  V30 1140 H 115.457 -2.04147 2.86386 0
M  V30 1141 H 115.331 -3.36042 1.71334 0
M  V30 1142 H 117.718 -2.81524 0.884769 0
M  V30 1143 H 117.799 -1.5035 2.06951 0
M  V30 1144 H 117.443 -3.20268 3.94196 0
M  V30 1145 H 117.373 -4.50445 2.72776 0
M  V30 1146 H 119.864 -3.00496 2.29152 0
M  V30 1147 H 120.177 -5.74578 5.16797 0
M  V30 1148 H 118.522 -5.17199 4.64253 0
M  V30 1149 H 121.713 -3.67051 2.90502 0
M  V30 1150 H 121.886 -4.9205 4.21653 0
M  V30 1151 N 115.292 -0.849877 -1.32721 0
M  V30 1152 C 116.708 -0.539102 -1.50219 0
M  V30 1153 C 116.908 0.931271 -1.78689 0
M  V30 1154 O 115.964 1.71455 -1.85363 0
M  V30 1155 C 117.277 -1.42196 -2.64954 0
M  V30 1156 C 118.825 -1.42189 -2.78839 0
M  V30 1157 C 119.3 -2.28985 -3.96648 0
M  V30 1158 N 120.791 -2.26754 -4.03902 0
M  V30 1159 C 121.526 -2.90644 -4.94281 0
M  V30 1160 N 121.022 -3.63629 -5.897 0
M  V30 1161 N 122.815 -2.80057 -4.87365 0
M  V30 1162 H 114.966 -1.80156 -1.12506 0
M  V30 1163 H 117.229 -0.769217 -0.554085 0
M  V30 1164 H 116.935 -2.46733 -2.50631 0
M  V30 1165 H 116.809 -1.10591 -3.60624 0
M  V30 1166 H 119.196 -0.38419 -2.92588 0
M  V30 1167 H 119.277 -1.77807 -1.83898 0
M  V30 1168 H 118.921 -3.32819 -3.83658 0
M  V30 1169 H 118.851 -1.90702 -4.90857 0
M  V30 1170 H 121.342 -1.73688 -3.3562 0
M  V30 1171 H 121.655 -4.09558 -6.55349 0
M  V30 1172 H 120 -3.67737 -5.89741 0
M  V30 1173 H 123.191 -2.22593 -4.11789 0
M  V30 1174 H 123.364 -3.30132 -5.57599 0
M  V30 1175 N 116.77 1.45427 -0.607355 0
M  V30 1176 C 117.703 2.27635 0.160482 0
M  V30 1177 C 118.681 1.37122 0.873857 0
M  V30 1178 O 119.865 1.66551 0.882775 0
M  V30 1179 C 116.992 3.15486 1.23231 0
M  V30 1180 C 116.038 4.21939 0.622097 0
M  V30 1181 S 116.871 5.32459 -0.569852 0
M  V30 1182 C 118.027 6.23879 0.502577 0
M  V30 1183 H 118.26 2.9241 -0.536983 0
M  V30 1184 H 115.793 1.49265 -0.394868 0
M  V30 1185 H 117.751 3.66659 1.84585 0
M  V30 1186 H 116.412 2.49977 1.90185 0
M  V30 1187 H 115.605 4.8333 1.42856 0
M  V30 1188 H 115.207 3.73906 0.0837063 0
M  V30 1189 H 117.499 6.63261 1.38171 0
M  V30 1190 H 118.442 7.0806 -0.0751759 0
M  V30 1191 H 118.85 5.58545 0.8178 0
M  V30 1192 N 118.248 0.346503 1.53744 0
M  V30 1193 C 119.473 -0.253074 2.0585 0
M  V30 1194 C 119.898 -1.43202 1.21962 0
M  V30 1195 O 119.256 -1.79783 0.234073 0
M  V30 1196 C 119.304 -0.643193 3.54817 0
M  V30 1197 O 118.408 -1.74286 3.73762 0
M  V30 1198 H 117.749 -0.0413583 0.662711 0
M  V30 1199 H 120.279 0.501574 1.98357 0
M  V30 1200 H 120.289 -0.919526 3.97503 0
M  V30 1201 H 118.964 0.218966 4.15323 0
M  V30 1202 H 117.541 -1.46356 3.42979 0
M  V30 1203 N 119.726 -1.57421 0.075193 0
M  V30 1204 C 120.956 -1.97659 -0.601203 0
M  V30 1205 C 121.364 -0.952427 -1.63479 0
M  V30 1206 O 120.707 0.0688241 -1.83571 0
M  V30 1207 C 120.769 -3.34218 -1.32434 0
M  V30 1208 C 120.433 -4.5484 -0.443826 0
M  V30 1209 C 121.43 -5.19034 0.299969 0
M  V30 1210 C 119.115 -5.00952 -0.367709 0
M  V30 1211 C 121.109 -6.27695 1.10807 0
M  V30 1212 C 118.796 -6.09484 0.444058 0
M  V30 1213 C 119.794 -6.72719 1.18061 0
M  V30 1214 O 119.482 -7.79161 1.97898 0
M  V30 1215 H 119.214 -0.65494 -0.167422 0
M  V30 1216 H 121.768 -2.04886 0.145157 0
M  V30 1217 H 119.998 -3.23615 -2.11685 0
M  V30 1218 H 121.687 -3.59038 -1.89331 0
M  V30 1219 H 122.453 -4.84351 0.250776 0
M  V30 1220 H 118.332 -4.51509 -0.930638 0
M  V30 1221 H 121.876 -6.76982 1.68347 0
M  V30 1222 H 117.773 -6.43601 0.494803 0
M  V30 1223 H 118.541 -7.96055 1.90367 0
M  V30 1224 N 121.204 0.198386 -1.56346 0
M  V30 1225 C 122.45 0.920648 -1.80698 0
M  V30 1226 C 122.783 1.83045 -0.648697 0
M  V30 1227 O 122.058 1.91308 0.350925 0
M  V30 1228 C 122.341 1.73971 -3.15287 0
M  V30 1229 C 122.194 0.85485 -4.41602 0
M  V30 1230 C 123.513 2.71296 -3.46535 0
M  V30 1231 H 120.632 0.333261 -0.657348 0
M  V30 1232 H 123.274 0.188198 -1.89066 0
M  V30 1233 H 121.424 2.36416 -3.08285 0
M  V30 1234 H 123.096 0.245362 -4.60647 0
M  V30 1235 H 121.339 0.161398 -4.335 0
M  V30 1236 H 122.01 1.46286 -5.32264 0
M  V30 1237 H 124.486 2.18983 -3.53816 0
M  V30 1238 H 123.362 3.2569 -4.41834 0
M  V30 1239 H 123.623 3.5018 -2.69864 0
M  V30 1240 N 122.682 1.50554 0.465978 0
M  V30 1241 C 123.614 1.65949 1.58093 0
M  V30 1242 C 124.627 0.540827 1.53554 0
M  V30 1243 O 125.816 0.814187 1.5885 0
M  V30 1244 C 122.916 1.63261 2.96983 0
M  V30 1245 C 122.089 2.91245 3.26336 0
M  V30 1246 C 121.148 2.8113 4.44806 0
M  V30 1247 O 120.174 3.55086 4.44862 0
M  V30 1248 N 121.376 1.95032 5.46756 0
M  V30 1249 H 124.141 2.62122 1.45301 0
M  V30 1250 H 121.702 1.48082 0.65448 0
M  V30 1251 H 123.694 1.54101 3.74212 0
M  V30 1252 H 122.264 0.748032 3.03518 0
M  V30 1253 H 121.484 3.14493 2.37672 0
M  V30 1254 H 122.772 3.76022 3.42761 0
M  V30 1255 H 122.17 1.3427 5.49534 0
M  V30 1256 H 120.727 1.91772 6.2295 0
M  V30 1257 N 124.16 -0.719506 1.40217 0
M  V30 1258 C 125.576 -1.02707 1.22161 0
M  V30 1259 C 125.776 -2.0128 0.0940557 0
M  V30 1260 O 124.832 -2.46452 -0.549318 0
M  V30 1261 C 126.145 -1.57454 2.56181 0
M  V30 1262 C 127.693 -1.69458 2.63159 0
M  V30 1263 C 128.168 -2.27611 3.97438 0
M  V30 1264 N 129.659 -2.35002 3.99159 0
M  V30 1265 C 130.394 -2.80972 4.99842 0
M  V30 1266 N 129.89 -3.26723 6.10921 0
M  V30 1267 N 131.683 -2.80321 4.87213 0
M  V30 1268 H 123.834 -0.0660492 2.12297 0
M  V30 1269 H 126.097 -0.0919077 0.943534 0
M  V30 1270 H 125.803 -0.924873 3.39321 0
M  V30 1271 H 125.677 -2.56036 2.76993 0
M  V30 1272 H 128.064 -2.33543 1.80393 0
M  V30 1273 H 128.145 -0.694867 2.46181 0
M  V30 1274 H 127.789 -1.6415 4.80643 0
M  V30 1275 H 127.719 -3.2829 4.11744 0
M  V30 1276 H 130.21 -2.02685 3.18947 0
M  V30 1277 H 130.523 -3.60355 6.8364 0
M  V30 1278 H 128.868 -3.24692 6.14492 0
M  V30 1279 H 132.059 -2.43912 3.9953 0
M  V30 1280 H 132.232 -3.15831 5.65822 0
M  V30 1281 N 125.638 -1.25649 -0.95132 0
M  V30 1282 C 126.571 -1.00644 -2.04807 0
M  V30 1283 C 127.549 0.0654271 -1.62468 0
M  V30 1284 O 128.733 -0.074911 -1.88351 0
M  V30 1285 C 125.86 -0.522052 -3.34653 0
M  V30 1286 C 124.906 -1.58495 -3.95957 0
M  V30 1287 S 125.739 -3.17108 -4.31512 0
M  V30 1288 C 126.895 -2.70412 -5.64471 0
M  V30 1289 H 127.128 -1.93508 -2.25703 0
M  V30 1290 H 124.661 -1.09216 -1.09139 0
M  V30 1291 H 126.619 -0.24923 -4.09743 0
M  V30 1292 H 125.28 0.386146 -3.11717 0
M  V30 1293 H 124.473 -1.1968 -4.89584 0
M  V30 1294 H 124.075 -1.80862 -3.2736 0
M  V30 1295 H 126.367 -2.14245 -6.42733 0
M  V30 1296 H 127.31 -3.62693 -6.08161 0
M  V30 1297 H 127.718 -2.10302 -5.23864 0
M  V30 1298 N 127.117 1.15442 -1.07289 0
M  V30 1299 C 128.365 1.85845 -0.794096 0
M  V30 1300 C 128.686 1.82692 0.681809 0
M  V30 1301 O 127.956 1.26741 1.49377 0
M  V30 1302 H 126.536 0.688089 -0.290763 0
M  V30 1303 H 129.198 1.39947 -1.3565 0
M  V30 1304 H 128.294 2.91001 -1.12804 0
M  V30 1305 N 128.595 0.856903 1.32268 0
M  V30 1306 C 129.542 0.301172 2.28827 0
M  V30 1307 C 130.512 -0.593104 1.5515 0
M  V30 1308 O 131.697 -0.527537 1.83362 0
M  V30 1309 C 128.837 -0.502523 3.41422 0
M  V30 1310 C 127.95 0.417797 4.29975 0
M  V30 1311 C 127.085 -0.398749 5.29701 0
M  V30 1312 C 126.124 0.518827 6.09897 0
M  V30 1313 N 125.261 -0.260674 7.01616 0
M  V30 1314 H 130.101 1.12983 2.75751 0
M  V30 1315 H 127.638 0.568582 1.35667 0
M  V30 1316 H 129.596 -0.984141 4.05426 0
M  V30 1317 H 128.226 -1.29599 2.95642 0
M  V30 1318 H 127.278 1.01781 3.66531 0
M  V30 1319 H 128.59 1.12191 4.86019 0
M  V30 1320 H 127.744 -0.943435 5.9932 0
M  V30 1321 H 126.483 -1.13622 4.7428 0
M  V30 1322 H 125.488 1.07538 5.39181 0
M  V30 1323 H 126.713 1.25495 6.67404 0
M  V30 1324 H 124.659 -0.981198 6.4862 0
M  V30 1325 H 124.576 0.384364 7.55022 0
M  V30 1326 H 125.844 -0.787014 7.75517 0
M  V30 1327 N 130.073 -1.45103 0.615059 0
M  V30 1328 C 131.003 -2.33339 -0.0865619 0
M  V30 1329 C 131.984 -1.4727 -0.851209 0
M  V30 1330 O 133.169 -1.76026 -0.820281 0
M  V30 1331 C 130.299 -3.30095 -1.07956 0
M  V30 1332 C 129.253 -4.25858 -0.427628 0
M  V30 1333 C 128.579 -5.12361 -1.5294 0
M  V30 1334 C 129.879 -5.18165 0.655944 0
M  V30 1335 H 131.573 -2.92254 0.650224 0
M  V30 1336 H 129.119 -1.40532 0.314138 0
M  V30 1337 H 131.072 -3.90698 -1.57901 0
M  V30 1338 H 129.796 -2.69355 -1.84703 0
M  V30 1339 H 128.455 -3.66564 0.0510292 0
M  V30 1340 H 128.103 -4.47984 -2.28734 0
M  V30 1341 H 127.803 -5.77238 -1.09865 0
M  V30 1342 H 129.327 -5.75833 -2.03098 0
M  V30 1343 H 130.741 -5.72796 0.240257 0
M  V30 1344 H 129.138 -5.91559 1.00888 0
M  V30 1345 H 130.208 -4.60144 1.52957 0
M  V30 1346 N 131.551 -0.354651 -1.53558 0
M  V30 1347 C 132.481 0.489091 -2.2832 0
M  V30 1348 C 133.462 1.09324 -1.30316 0
M  V30 1349 O 134.647 1.11255 -1.59173 0
M  V30 1350 C 131.777 1.63456 -3.0643 0
M  V30 1351 C 130.731 1.1582 -4.12031 0
M  V30 1352 C 130.057 2.39305 -4.7816 0
M  V30 1353 C 131.357 0.250731 -5.21698 0
M  V30 1354 H 133.051 -0.134614 -2.99097 0
M  V30 1355 H 130.597 -0.0661826 -1.43848 0
M  V30 1356 H 132.55 2.23136 -3.57475 0
M  V30 1357 H 131.274 2.28533 -2.33325 0
M  V30 1358 H 129.933 0.584146 -3.61916 0
M  V30 1359 H 129.581 3.02814 -4.01637 0
M  V30 1360 H 129.281 2.08109 -5.49513 0
M  V30 1361 H 130.805 2.99691 -5.31994 0
M  V30 1362 H 132.219 0.754695 -5.68311 0
M  V30 1363 H 130.616 0.0301468 -6.00092 0
M  V30 1364 H 131.686 -0.710125 -4.79672 0
M  V30 1365 N 133.029 1.57378 -0.0835403 0
M  V30 1366 C 134.277 1.93547 0.581718 0
M  V30 1367 C 134.598 0.96524 1.69435 0
M  V30 1368 O 133.868 0.0153369 1.95894 0
M  V30 1369 H 132.448 0.714521 0.217874 0
M  V30 1370 H 135.11 1.94366 -0.144158 0
M  V30 1371 H 134.206 2.95665 0.999423 0
M  V30 1372 N 134.507 -0.190092 1.56449 0
M  V30 1373 C 135.755 -0.907908 1.80559 0
M  V30 1374 C 136.076 -1.83583 0.657438 0
M  V30 1375 O 135.346 -1.93203 -0.323924 0
M  V30 1376 H 133.926 -0.338247 0.666032 0
M  V30 1377 H 136.588 -0.194403 1.93928 0
M  V30 1378 H 135.684 -1.49604 2.73907 0
M  V30 1379 N 135.985 -1.50799 -0.457987 0
M  V30 1380 C 136.917 -1.66786 -1.57211 0
M  V30 1381 C 137.93 -0.548962 -1.53265 0
M  V30 1382 O 139.119 -0.8226 -1.58416 0
M  V30 1383 C 136.219 -1.64834 -2.96113 0
M  V30 1384 C 135.392 -2.92971 -3.24787 0
M  V30 1385 C 134.451 -2.83485 -4.43309 0
M  V30 1386 O 133.477 -3.5744 -4.42973 0
M  V30 1387 N 134.679 -1.97929 -5.45714 0
M  V30 1388 H 137.444 -2.62889 -1.43909 0
M  V30 1389 H 135.005 -1.48427 -0.646617 0
M  V30 1390 H 136.997 -1.56084 -3.7339 0
M  V30 1391 H 135.567 -0.764118 -3.03117 0
M  V30 1392 H 134.787 -3.15749 -2.36 0
M  V30 1393 H 136.075 -3.77834 -3.40762 0
M  V30 1394 H 135.473 -1.37182 -5.48815 0
M  V30 1395 H 134.03 -1.95073 -6.21924 0
M  V30 1396 N 137.463 0.71206 -1.40597 0
M  V30 1397 C 138.393 1.83889 -1.43899 0
M  V30 1398 C 139.374 1.67442 -0.299504 0
M  V30 1399 O 140.559 1.87421 -0.508624 0
M  V30 1400 C 137.689 3.21877 -1.30431 0
M  V30 1401 C 136.643 3.53002 -2.42019 0
M  V30 1402 C 135.969 4.90172 -2.13626 0
M  V30 1403 C 137.269 3.53643 -3.84362 0
M  V30 1404 H 138.963 1.81383 -2.38203 0
M  V30 1405 H 136.509 0.871237 -1.14654 0
M  V30 1406 H 138.462 4.00404 -1.31357 0
M  V30 1407 H 137.186 3.24968 -0.326049 0
M  V30 1408 H 135.845 2.76818 -2.40349 0
M  V30 1409 H 135.493 4.89869 -1.14182 0
M  V30 1410 H 135.193 5.11962 -2.88389 0
M  V30 1411 H 136.717 5.71028 -2.1624 0
M  V30 1412 H 138.131 4.22203 -3.87837 0
M  V30 1413 H 136.528 3.86961 -4.58673 0
M  V30 1414 H 137.598 2.52954 -4.13693 0
M  V30 1415 N 138.941 1.26152 0.944643 0
M  V30 1416 C 140.187 1.12665 1.69346 0
M  V30 1417 C 140.542 -0.3273 1.89596 0
M  V30 1418 O 139.835 -1.23717 1.46303 0
M  V30 1419 C 140.029 1.82541 3.07268 0
M  V30 1420 C 139.858 3.34582 3.00475 0
M  V30 1421 C 138.628 4.03863 3.03681 0
M  V30 1422 C 140.826 4.30828 2.80877 0
M  V30 1423 N 138.808 5.42603 2.87151 0
M  V30 1424 C 140.179 5.5672 2.7288 0
M  V30 1425 C 142.234 4.21122 2.65633 0
M  V30 1426 C 140.937 6.74013 2.51196 0
M  V30 1427 C 142.963 5.38118 2.45323 0
M  V30 1428 C 142.325 6.62955 2.38055 0
M  V30 1429 H 138.424 0.467041 0.627214 0
M  V30 1430 H 141.008 1.59391 1.11815 0
M  V30 1431 H 139.179 1.38296 3.62945 0
M  V30 1432 H 140.911 1.61708 3.70989 0
M  V30 1433 H 137.666 3.55198 3.1326 0
M  V30 1434 H 138.09 6.15443 2.82063 0
M  V30 1435 H 142.732 3.25344 2.70021 0
M  V30 1436 H 140.45 7.6989 2.4555 0
M  V30 1437 H 144.036 5.32475 2.34439 0
M  V30 1438 H 142.916 7.51959 2.22546 0
M  V30 1439 N 140.419 -1.14872 1.07899 0
M  V30 1440 C 141.329 -2.2341 0.715915 0
M  V30 1441 C 142.345 -1.71808 -0.275306 0
M  V30 1442 O 143.521 -2.01039 -0.120545 0
M  V30 1443 C 140.586 -3.46474 0.125168 0
M  V30 1444 C 139.647 -4.13039 1.17034 0
M  V30 1445 C 138.88 -5.30229 0.607688 0
M  V30 1446 O 139.103 -5.675 -0.574497 0
M  V30 1447 O 138.037 -5.86444 1.35526 0
M  V30 1448 H 141.863 -2.56808 1.62121 0
M  V30 1449 H 139.448 -1.22702 0.852322 0
M  V30 1450 H 141.33 -4.20917 -0.201729 0
M  V30 1451 H 140.005 -3.14811 -0.753364 0
M  V30 1452 H 138.912 -3.40493 1.54968 0
M  V30 1453 H 140.245 -4.48796 2.02097 0
M  V30 1454 N 141.898 -0.863906 -1.31812 0
M  V30 1455 C 143.123 -0.48527 -2.01643 0
M  V30 1456 C 143.548 0.913058 -1.64453 0
M  V30 1457 O 142.906 1.6014 -0.849985 0
M  V30 1458 C 142.954 -0.642625 -3.54828 0
M  V30 1459 O 142.058 0.320659 -4.11151 0
M  V30 1460 H 141.399 -0.193793 -0.635091 0
M  V30 1461 H 143.929 -1.16565 -1.68148 0
M  V30 1462 H 143.939 -0.533628 -4.04495 0
M  V30 1463 H 142.614 -1.66227 -3.81237 0
M  V30 1464 H 141.191 0.167126 -3.72525 0
M  V30 1465 N 143.376 1.44774 -0.622745 0
M  V30 1466 C 144.339 2.29069 0.0774015 0
M  V30 1467 C 145.339 1.4059 0.780461 0
M  V30 1468 O 146.529 1.62551 0.626322 0
M  V30 1469 C 143.661 3.21974 1.12006 0
M  V30 1470 H 144.854 2.92459 -0.663901 0
M  V30 1471 H 142.407 1.51548 -0.382486 0
M  V30 1472 H 143.142 2.63417 1.89162 0
M  V30 1473 H 142.927 3.87168 0.619951 0
M  V30 1474 H 144.417 3.85318 1.60995 0
M  V30 1475 N 144.854 0.36279 1.53368 0
M  V30 1476 C 146.102 -0.227326 2.00817 0
M  V30 1477 C 146.423 -1.49511 1.25186 0
M  V30 1478 O 145.693 -1.92482 0.364348 0
M  V30 1479 H 144.273 -0.0869923 0.741917 0
M  V30 1480 H 146.935 0.488381 1.88682 0
M  V30 1481 H 146.031 -0.456273 3.08747 0
M  V30 1482 N 146.332 -1.57332 0.0918853 0
M  V30 1483 C 147.557 -1.98995 -0.584442 0
M  V30 1484 C 147.982 -0.970528 -1.61128 0
M  V30 1485 O 147.34 0.0613904 -1.81196 0
M  V30 1486 C 147.388 -3.39636 -1.21161 0
M  V30 1487 O 146.492 -3.40447 -2.32744 0
M  V30 1488 H 145.833 -0.647165 -0.148572 0
M  V30 1489 H 148.363 -2.03873 0.172347 0
M  V30 1490 H 148.373 -3.7726 -1.55367 0
M  V30 1491 H 147.048 -4.13356 -0.459313 0
M  V30 1492 H 145.625 -3.14614 -2.0018 0
M  V30 1493 N 147.81 0.181792 -1.56548 0
M  V30 1494 C 149.221 0.745244 -1.71181 0
M  V30 1495 C 149.572 1.83262 -0.70068 0
M  V30 1496 O 148.697 2.15946 0.140154 0
M  V30 1497 C 149.292 1.35859 -3.10367 0
M  V30 1498 C 147.851 1.86898 -3.2672 0
M  V30 1499 C 146.998 0.743942 -2.67134 0
M  V30 1500 H 149.949 -0.0434661 -1.5864 0
M  V30 1501 H 149.97 2.22817 -3.08436 0
M  V30 1502 H 149.482 0.566948 -3.83937 0
M  V30 1503 H 147.583 2.68738 -2.5809 0
M  V30 1504 H 147.696 2.02162 -4.34359 0
M  V30 1505 H 146.06 1.16169 -2.26665 0
M  V30 1506 H 146.843 -0.035676 -3.43281 0
M  V30 1507 N 149.288 1.51039 0.449983 0
M  V30 1508 C 150.198 1.74261 1.57067 0
M  V30 1509 C 151.214 0.626363 1.62335 0
M  V30 1510 O 152.39 0.907162 1.79812 0
M  V30 1511 C 149.455 1.85114 2.93144 0
M  V30 1512 C 148.516 3.0893 2.98095 0
M  V30 1513 C 147.749 3.19256 4.27681 0
M  V30 1514 O 147.972 2.35835 5.19363 0
M  V30 1515 O 146.906 4.12144 4.38658 0
M  V30 1516 H 150.732 2.69303 1.40391 0
M  V30 1517 H 148.317 1.35389 0.631688 0
M  V30 1518 H 150.199 1.94311 3.73926 0
M  V30 1519 H 148.874 0.932588 3.09975 0
M  V30 1520 H 147.781 3.0522 2.16314 0
M  V30 1521 H 149.114 4.00433 2.86206 0
M  V30 1522 N 150.766 -0.704594 1.40972 0
M  V30 1523 C 152.012 -1.46675 1.40051 0
M  V30 1524 C 152.345 -1.94199 0.00641102 0
M  V30 1525 O 151.62 -1.68916 -0.964235 0
M  V30 1526 C 151.903 -2.68505 2.39952 0
M  V30 1527 C 151.756 -2.26805 3.88432 0
M  V30 1528 C 153.075 -3.70686 2.37233 0
M  V30 1529 H 150.194 -0.532015 0.510028 0
M  V30 1530 H 152.836 -0.803255 1.72185 0
M  V30 1531 H 150.986 -3.25114 2.1268 0
M  V30 1532 H 152.658 -1.75592 4.26574 0
M  V30 1533 H 150.901 -1.58685 4.03734 0
M  V30 1534 H 151.572 -3.14181 4.53866 0
M  V30 1535 H 154.048 -3.23731 2.61415 0
M  V30 1536 H 152.924 -4.53553 3.09162 0
M  V30 1537 H 153.185 -4.19754 1.38777 0
M  V30 1538 N 152.244 -1.26651 -0.937939 0
M  V30 1539 C 153.521 -1.0313 -1.66204 0
M  V30 1540 C 153.901 0.437256 -2.06522 0
M  V30 1541 O 153.249 1.41831 -1.79154 0
M  V30 1542 C 153.459 -1.98314 -2.87181 0
M  V30 1543 C 154.807 -2.27107 -3.58758 0
M  V30 1544 O 155.831 -1.96205 -2.97291 0
M  V30 1545 O 154.69 -2.79736 -4.69479 0
M  V30 1546 H 151.784 -0.392384 -0.727986 0
M  V30 1547 H 154.33 -1.37874 -0.989382 0
M  V30 1548 H 153.102 -2.97399 -2.54302 0
M  V30 1549 H 152.725 -1.64068 -3.6217 0
M  V30 1550 N 153.722 1.14298 -1.08507 0
M  V30 1551 C 155.133 1.66926 -0.836227 0
M  V30 1552 C 155.484 1.85576 0.63686 0
M  V30 1553 O 154.609 1.56767 1.49175 0
M  V30 1554 C 155.204 3.03219 -1.51142 0
M  V30 1555 C 153.763 3.52876 -1.30979 0
M  V30 1556 C 152.91 2.2833 -1.57356 0
M  V30 1557 H 155.861 0.983491 -1.24552 0
M  V30 1558 H 155.882 3.68726 -0.939211 0
M  V30 1559 H 155.394 2.89612 -2.58353 0
M  V30 1560 H 153.495 3.71703 -0.258429 0
M  V30 1561 H 153.608 4.33586 -2.03814 0
M  V30 1562 H 151.972 2.34454 -0.995164 0
M  V30 1563 H 152.755 2.17298 -2.65775 0
M  V30 1564 N 155.201 0.870884 1.31352 0
M  V30 1565 C 156.478 0.402907 1.91405 0
M  V30 1566 C 156.858 -1.11512 1.79244 0
M  V30 1567 O 156.206 -1.94411 1.2007 0
M  V30 1568 C 156.416 0.885301 3.37585 0
M  V30 1569 C 157.764 0.911971 4.14691 0
M  V30 1570 O 158.788 0.831016 3.46371 0
M  V30 1571 O 157.647 1.02927 5.3672 0
M  V30 1572 H 154.741 0.120698 0.818145 0
M  V30 1573 H 157.287 0.958857 1.40014 0
M  V30 1574 H 156.059 1.92889 3.40455 0
M  V30 1575 H 155.682 0.307714 3.96407 0
M  V30 1576 N 156.679 -1.44442 0.630414 0
M  V30 1577 C 158.095 -1.56832 0.295973 0
M  V30 1578 C 158.295 -1.61806 -1.20088 0
M  V30 1579 O 157.351 -1.5607 -1.9849 0
M  V30 1580 C 158.664 -2.84031 0.987264 0
M  V30 1581 C 160.212 -2.97742 0.96534 0
M  V30 1582 C 160.687 -4.27743 1.63708 0
M  V30 1583 N 162.178 -4.34555 1.60364 0
M  V30 1584 C 162.913 -5.33862 2.09234 0
M  V30 1585 N 162.409 -6.39578 2.66292 0
M  V30 1586 N 164.202 -5.25366 1.99867 0
M  V30 1587 H 156.353 -1.39457 1.60205 0
M  V30 1588 H 158.616 -0.668237 0.672431 0
M  V30 1589 H 158.322 -2.86338 2.04215 0
M  V30 1590 H 158.196 -3.73534 0.524588 0
M  V30 1591 H 160.583 -2.94989 -0.0810639 0
M  V30 1592 H 160.664 -2.09589 1.4665 0
M  V30 1593 H 160.308 -4.31255 2.68293 0
M  V30 1594 H 160.238 -5.14752 1.11076 0
M  V30 1595 H 162.729 -3.58772 1.18705 0
M  V30 1596 H 163.042 -7.11637 3.01317 0
M  V30 1597 H 161.387 -6.40265 2.70343 0
M  V30 1598 H 164.578 -4.41688 1.55013 0
M  V30 1599 H 164.751 -6.02606 2.38265 0
M  V30 1600 N 158.157 -0.370918 -1.53173 0
M  V30 1601 C 159.404 0.217102 -2.01333 0
M  V30 1602 C 159.732 1.48338 -1.25802 0
M  V30 1603 O 158.987 1.92698 -0.34146 0
M  V30 1604 C 159.286 0.549696 -3.53147 0
M  V30 1605 C 158.952 -0.622872 -4.46577 0
M  V30 1606 C 157.614 -0.944595 -4.71838 0
M  V30 1607 C 159.966 -1.40819 -5.01816 0
M  V30 1608 C 157.294 -2.05351 -5.49589 0
M  V30 1609 C 159.646 -2.50757 -5.80778 0
M  V30 1610 C 158.31 -2.83458 -6.04324 0
M  V30 1611 H 157.58 0.0794431 -0.736729 0
M  V30 1612 H 160.227 -0.504481 -1.84736 0
M  V30 1613 H 158.532 1.35237 -3.6772 0
M  V30 1614 H 160.229 1.017 -3.87889 0
M  V30 1615 H 156.819 -0.36209 -4.27068 0
M  V30 1616 H 161.003 -1.17289 -4.82242 0
M  V30 1617 H 156.259 -2.3108 -5.6605 0
M  V30 1618 H 160.433 -3.12022 -6.22588 0
M  V30 1619 H 158.06 -3.69508 -6.64355 0
M  V30 1620 N 159.635 1.57281 -0.100228 0
M  V30 1621 C 160.598 2.13158 0.842398 0
M  V30 1622 C 161.598 1.06202 1.20738 0
M  V30 1623 O 162.788 1.32066 1.13597 0
M  V30 1624 C 159.92 2.65639 2.13655 0
M  V30 1625 H 161.113 2.97766 0.357114 0
M  V30 1626 H 158.666 1.5559 0.148823 0
M  V30 1627 H 159.401 1.84566 2.66657 0
M  V30 1628 H 159.186 3.43844 1.88451 0
M  V30 1629 H 160.676 3.08846 2.81077 0
M  V30 1630 N 161.113 -0.173488 1.56642 0
M  V30 1631 C 162.359 -0.891784 1.8214 0
M  V30 1632 C 162.692 -1.8199 0.677736 0
M  V30 1633 O 161.967 -1.91842 -0.320446 0
M  V30 1634 C 162.25 -1.68933 3.18015 0
M  V30 1635 C 162.103 -0.784487 4.42906 0
M  V30 1636 C 163.422 -2.65748 3.50808 0
M  V30 1637 H 160.541 -0.322761 0.662567 0
M  V30 1638 H 163.183 -0.158095 1.89341 0
M  V30 1639 H 161.333 -2.31482 3.12007 0
M  V30 1640 H 163.005 -0.172046 4.60979 0
M  V30 1641 H 161.248 -0.0924117 4.33702 0
M  V30 1642 H 161.919 -1.37799 5.34524 0
M  V30 1643 H 164.395 -2.13327 3.57255 0
M  V30 1644 H 163.271 -3.18619 4.4696 0
M  V30 1645 H 163.532 -3.45842 2.75401 0
M  V30 1646 N 162.591 -1.51276 -0.441967 0
M  V30 1647 C 163.837 -1.63958 -1.19355 0
M  V30 1648 C 164.17 -0.352543 -1.90973 0
M  V30 1649 O 163.445 0.647627 -1.83401 0
M  V30 1650 C 163.728 -2.83979 -2.21422 0
M  V30 1651 C 163.581 -4.22646 -1.53918 0
M  V30 1652 C 164.9 -2.99521 -3.22451 0
M  V30 1653 H 162.019 -0.596709 -0.432559 0
M  V30 1654 H 164.661 -1.83748 -0.483398 0
M  V30 1655 H 162.811 -2.67237 -2.81987 0
M  V30 1656 H 164.483 -4.51045 -0.967256 0
M  V30 1657 H 162.726 -4.25558 -0.841615 0
M  V30 1658 H 163.397 -5.02609 -2.28229 0
M  V30 1659 H 165.873 -3.14944 -2.71937 0
M  V30 1660 H 164.749 -3.85072 -3.91166 0
M  V30 1661 H 165.01 -2.11391 -3.88287 0
M  V30 1662 N 164.069 0.697108 -1.41344 0
M  V30 1663 C 165.315 1.4593 -1.40827 0
M  V30 1664 C 165.648 1.94193 -0.0167098 0
M  V30 1665 O 164.923 1.69425 0.955263 0
M  V30 1666 C 165.206 2.67229 -2.41373 0
M  V30 1667 C 165.059 2.24741 -3.8963 0
M  V30 1668 C 166.378 3.69423 -2.39196 0
M  V30 1669 H 163.497 0.529303 -0.512842 0
M  V30 1670 H 166.139 0.794112 -1.72609 0
M  V30 1671 H 164.289 3.23982 -2.14401 0
M  V30 1672 H 165.961 1.73327 -4.27499 0
M  V30 1673 H 164.204 1.56542 -4.0457 0
M  V30 1674 H 164.875 3.1177 -4.55525 0
M  V30 1675 H 167.351 3.2234 -2.63128 0
M  V30 1676 H 166.227 4.51907 -3.11563 0
M  V30 1677 H 166.488 4.19012 -1.41001 0
M  V30 1678 N 165.547 1.27147 0.931209 0
M  V30 1679 C 166.795 1.13055 1.6752 0
M  V30 1680 C 167.116 -0.324791 1.92276 0
M  V30 1681 O 166.386 -1.22775 1.52654 0
M  V30 1682 H 164.966 0.415391 0.620854 0
M  V30 1683 H 167.628 1.59623 1.11833 0
M  V30 1684 H 166.724 1.65694 2.64485 0
M  V30 1685 N 167.025 -1.13721 1.09112 0
M  V30 1686 C 168.253 -1.88773 0.846899 0
M  V30 1687 C 168.668 -1.7896 -0.601572 0
M  V30 1688 O 168.025 -1.15394 -1.41388 0
M  V30 1689 C 168.076 -3.3849 1.26913 0
M  V30 1690 O 167.797 -3.48043 2.66079 0
M  V30 1691 C 169.298 -4.30518 1.05682 0
M  V30 1692 H 166.518 -0.59772 0.304914 0
M  V30 1693 H 169.062 -1.43977 1.45227 0
M  V30 1694 H 167.217 -3.80881 0.707723 0
M  V30 1695 H 167.631 -4.4109 2.83795 0
M  V30 1696 H 169.105 -5.3391 1.40156 0
M  V30 1697 H 169.582 -4.392 -0.00563416 0
M  V30 1698 H 170.188 -3.93893 1.60402 0
M  V30 1699 N 168.503 -0.877838 -1.30888 0
M  V30 1700 C 169.751 -0.491723 -1.96027 0
M  V30 1701 C 170.072 0.960827 -1.69685 0
M  V30 1702 O 169.342 1.67462 -1.01654 0
M  V30 1703 H 167.922 -0.17885 -0.725273 0
M  V30 1704 H 170.584 -1.11935 -1.59551 0
M  V30 1705 H 169.68 -0.656016 -3.05128 0
M  V30 1706 N 169.982 1.44106 -0.638065 0
M  V30 1707 C 170.912 2.33448 0.0494287 0
M  V30 1708 C 171.893 1.48606 0.827672 0
M  V30 1709 O 173.078 1.77308 0.792173 0
M  V30 1710 C 170.208 3.31771 1.02691 0
M  V30 1711 C 169.162 4.26485 0.359823 0
M  V30 1712 C 168.488 5.14729 1.44769 0
M  V30 1713 C 169.788 5.17056 -0.738296 0
M  V30 1714 H 171.482 2.91183 -0.696636 0
M  V30 1715 H 169.028 1.40014 -0.336456 0
M  V30 1716 H 170.981 3.93161 1.51666 0
M  V30 1717 H 169.705 2.7226 1.80395 0
M  V30 1718 H 168.364 3.66437 -0.10934 0
M  V30 1719 H 168.012 4.51566 2.21578 0
M  V30 1720 H 167.712 5.78913 1.00668 0
M  V30 1721 H 169.236 5.78991 1.93911 0
M  V30 1722 H 170.65 5.72342 -0.331354 0
M  V30 1723 H 169.047 5.89879 -1.10286 0
M  V30 1724 H 170.117 4.57652 -1.60258 0
M  V30 1725 N 171.46 0.379036 1.52974 0
M  V30 1726 C 172.708 -0.206014 2.01047 0
M  V30 1727 C 173.029 -1.48175 1.26765 0
M  V30 1728 O 172.299 -1.92085 0.384743 0
M  V30 1729 H 170.879 -0.0791184 0.742798 0
M  V30 1730 H 173.541 0.508366 1.88153 0
M  V30 1731 H 172.637 -0.423501 3.09213 0
M  V30 1732 N 172.938 -1.57226 0.108567 0
M  V30 1733 C 174.186 -1.94448 -0.550853 0
M  V30 1734 C 174.507 -0.992074 -1.67878 0
M  V30 1735 O 173.777 -0.0465 -1.95845 0
M  V30 1736 H 172.357 -0.717897 -0.206479 0
M  V30 1737 H 175.019 -1.94112 0.175062 0
M  V30 1738 H 174.115 -2.97218 -0.952259 0
M  V30 1739 N 174.416 0.165178 -1.56732 0
M  V30 1740 C 175.379 1.18822 -1.95995 0
M  V30 1741 C 176.379 1.3685 -0.84431 0
M  V30 1742 O 177.569 1.34152 -1.11126 0
M  V30 1743 C 174.701 2.5521 -2.26011 0
M  V30 1744 H 175.894 0.851825 -2.87548 0
M  V30 1745 H 173.447 0.407857 -1.50885 0
M  V30 1746 H 174.182 2.93852 -1.37191 0
M  V30 1747 H 173.967 2.43489 -3.07336 0
M  V30 1748 H 175.457 3.28927 -2.57288 0
M  V30 1749 N 175.894 1.51508 0.433938 0
M  V30 1750 C 176.804 1.75917 1.5521 0
M  V30 1751 C 177.82 0.643545 1.61662 0
M  V30 1752 O 178.996 0.926183 1.7884 0
M  V30 1753 C 176.061 1.88213 2.91164 0
M  V30 1754 C 175.122 3.12074 2.94802 0
M  V30 1755 C 174.355 3.23774 4.24271 0
M  V30 1756 O 174.578 2.4133 5.16833 0
M  V30 1757 O 173.512 4.16774 4.34262 0
M  V30 1758 H 177.338 2.70777 1.37527 0
M  V30 1759 H 174.923 1.36051 0.617293 0
M  V30 1760 H 176.805 1.98267 3.71845 0
M  V30 1761 H 175.48 0.965413 3.08968 0
M  V30 1762 H 174.387 3.07497 2.13065 0
M  V30 1763 H 175.72 4.03446 2.81943 0
M  V30 1764 N 177.372 -0.689602 1.41712 0
M  V30 1765 C 178.788 -1.00093 1.24312 0
M  V30 1766 C 178.988 -2.01036 0.136729 0
M  V30 1767 O 178.044 -2.47562 -0.496918 0
M  V30 1768 C 179.357 -1.51985 2.59463 0
M  V30 1769 C 180.905 -1.63838 2.66695 0
M  V30 1770 C 181.38 -2.1913 4.02177 0
M  V30 1771 N 182.871 -2.26483 4.04054 0
M  V30 1772 C 183.606 -2.70306 5.0569 0
M  V30 1773 N 183.102 -3.13691 6.17713 0
M  V30 1774 N 184.895 -2.69923 4.9305 0
M  V30 1775 H 177.046 -0.0210029 2.1239 0
M  V30 1776 H 179.309 -0.0718733 0.945272 0
M  V30 1777 H 179.015 -0.85269 3.41207 0
M  V30 1778 H 178.889 -2.50103 2.82362 0
M  V30 1779 H 181.276 -2.29664 1.85306 0
M  V30 1780 H 181.357 -0.642492 2.476 0
M  V30 1781 H 181.001 -1.53918 4.84016 0
M  V30 1782 H 180.931 -3.19482 4.18615 0
M  V30 1783 H 183.422 -1.95874 3.23174 0
M  V30 1784 H 183.735 -3.45773 6.9113 0
M  V30 1785 H 182.08 -3.11585 6.21241 0
M  V30 1786 H 185.271 -2.35382 4.04614 0
M  V30 1787 H 185.444 -3.03758 5.72394 0
M  V30 1788 N 178.85 -1.27639 -0.924453 0
M  V30 1789 C 180.099 -1.13549 -1.66702 0
M  V30 1790 C 180.412 0.317487 -1.93006 0
M  V30 1791 O 181.618 0.579333 -2.65247 0
M  V30 1792 C 180.074 -1.98426 -3.00259 0
M  V30 1793 C 179.682 -3.484 -2.81641 0
M  V30 1794 C 181.426 -1.92993 -3.78092 0
M  V30 1795 C 179.333 -4.25464 -4.10773 0
M  V30 1796 H 178.263 -0.421351 -0.625283 0
M  V30 1797 H 180.914 -1.52085 -1.02676 0
M  V30 1798 H 179.296 -1.52736 -3.6536 0
M  V30 1799 H 180.47 -4.01973 -2.25287 0
M  V30 1800 H 178.785 -3.55245 -2.17232 0
M  V30 1801 H 181.382 -2.47844 -4.7379 0
M  V30 1802 H 181.725 -0.904281 -4.0636 0
M  V30 1803 H 182.258 -2.36595 -3.19793 0
M  V30 1804 H 178.997 -5.28566 -3.87683 0
M  V30 1805 H 178.517 -3.76667 -4.66779 0
M  V30 1806 H 180.196 -4.34812 -4.79111 0
M  V30 1807 N 180.328 1.1314 -1.09713 0
M  V30 1808 C 181.574 1.84757 -0.836224 0
M  V30 1809 C 181.907 1.8347 0.636598 0
M  V30 1810 O 181.182 1.27491 1.46889 0
M  V30 1811 C 181.465 3.32782 -1.37578 0
M  V30 1812 C 181.318 3.42567 -2.91493 0
M  V30 1813 C 182.637 4.28307 -1.01198 0
M  V30 1814 H 179.756 0.67082 -0.305236 0
M  V30 1815 H 182.398 1.3278 -1.35903 0
M  V30 1816 H 180.548 3.77177 -0.931097 0
M  V30 1817 H 182.22 3.06862 -3.44432 0
M  V30 1818 H 180.463 2.83349 -3.28475 0
M  V30 1819 H 181.134 4.46674 -3.24324 0
M  V30 1820 H 183.61 3.91999 -1.39556 0
M  V30 1821 H 182.486 5.30307 -1.41653 0
M  V30 1822 H 182.747 4.42029 0.0794833 0
M  V30 1823 N 181.806 0.884767 1.30421 0
M  V30 1824 C 182.716 0.355398 2.31892 0
M  V30 1825 C 183.732 -0.542261 1.65335 0
M  V30 1826 O 184.908 -0.435432 1.96637 0
M  V30 1827 C 181.973 -0.421661 3.44126 0
M  V30 1828 C 181.034 0.505727 4.26311 0
M  V30 1829 C 180.267 -0.234343 5.33185 0
M  V30 1830 O 180.49 -1.46045 5.51386 0
M  V30 1831 O 179.424 0.415443 6.00465 0
M  V30 1832 H 183.25 1.19685 2.79122 0
M  V30 1833 H 180.835 0.648596 1.34587 0
M  V30 1834 H 182.717 -0.861641 4.12497 0
M  V30 1835 H 181.392 -1.23942 2.99032 0
M  V30 1836 H 180.299 0.994513 3.60639 0
M  V30 1837 H 181.632 1.28948 4.75009 0
M  V30 1838 N 183.284 -1.43765 0.645699 0
M  V30 1839 C 184.509 -2.06767 0.161883 0
M  V30 1840 C 184.934 -1.48034 -1.16049 0
M  V30 1841 O 184.292 -0.587369 -1.71522 0
M  V30 1842 C 184.34 -3.60519 0.0762003 0
M  V30 1843 O 183.444 -4.00982 -0.963721 0
M  V30 1844 H 182.785 -0.657675 0.091429 0
M  V30 1845 H 185.315 -1.84397 0.886499 0
M  V30 1846 H 185.325 -4.07853 -0.109604 0
M  V30 1847 H 184 -4.02646 1.04157 0
M  V30 1848 H 182.577 -3.65253 -0.751312 0
M  V30 1849 N 184.763 -0.387143 -1.52771 0
M  V30 1850 C 185.993 0.195585 -2.05672 0
M  V30 1851 C 186.401 1.41241 -1.25887 0
M  V30 1852 O 185.744 1.81265 -0.298081 0
M  V30 1853 C 185.806 0.632327 -3.53895 0
M  V30 1854 C 185.47 -0.470739 -4.54569 0
M  V30 1855 C 186.467 -1.32746 -5.02667 0
M  V30 1856 C 184.152 -0.637151 -4.98243 0
M  V30 1857 C 186.146 -2.33574 -5.93061 0
M  V30 1858 C 183.833 -1.64877 -5.88438 0
M  V30 1859 C 184.831 -2.49649 -6.35739 0
M  V30 1860 O 184.519 -3.49082 -7.24153 0
M  V30 1861 H 184.251 0.033658 -0.675162 0
M  V30 1862 H 186.805 -0.550221 -1.97893 0
M  V30 1863 H 185.035 1.43008 -3.59285 0
M  V30 1864 H 186.724 1.14048 -3.89548 0
M  V30 1865 H 187.49 -1.21019 -4.69659 0
M  V30 1866 H 183.369 0.0129567 -4.60998 0
M  V30 1867 H 186.913 -2.99777 -6.29904 0
M  V30 1868 H 182.81 -1.76643 -6.2086 0
M  V30 1869 H 183.578 -3.45065 -7.42208 0
M  V30 1870 N 186.241 1.57166 -0.116904 0
M  V30 1871 C 187.518 1.86645 0.585049 0
M  V30 1872 C 187.898 1.0177 1.84949 0
M  V30 1873 O 187.246 0.0960379 2.28298 0
M  V30 1874 C 187.456 3.37736 0.879507 0
M  V30 1875 C 188.804 4.06289 1.23348 0
M  V30 1876 O 189.828 3.42743 0.969836 0
M  V30 1877 O 188.687 5.18455 1.7282 0
M  V30 1878 H 185.781 0.772593 0.295007 0
M  V30 1879 H 188.327 1.69025 -0.151249 0
M  V30 1880 H 187.099 3.91296 -0.0166136 0
M  V30 1881 H 186.722 3.6078 1.67103 0
M  V30 1882 N 187.719 -0.156864 1.56817 0
M  V30 1883 C 188.649 -1.19589 2.00551 0
M  V30 1884 C 189.63 -1.4536 0.883426 0
M  V30 1885 O 190.815 -1.56449 1.15054 0
M  V30 1886 C 187.945 -2.53143 2.37773 0
M  V30 1887 C 186.899 -2.41913 3.53075 0
M  V30 1888 C 186.225 -3.80088 3.76081 0
M  V30 1889 C 187.525 -1.91157 4.86062 0
M  V30 1890 H 189.219 -0.832293 2.87599 0
M  V30 1891 H 186.765 -0.398918 1.38364 0
M  V30 1892 H 188.718 -3.26047 2.66967 0
M  V30 1893 H 187.442 -2.91319 1.4765 0
M  V30 1894 H 186.101 -1.71462 3.24031 0
M  V30 1895 H 185.749 -4.15683 2.83225 0
M  V30 1896 H 185.449 -3.73439 4.53671 0
M  V30 1897 H 186.973 -4.54556 4.0769 0
M  V30 1898 H 188.387 -2.53846 5.14038 0
M  V30 1899 H 186.784 -1.95422 5.67389 0
M  V30 1900 H 187.854 -0.866673 4.77092 0
M  V30 1901 N 189.197 -1.51736 -0.425897 0
M  V30 1902 C 190.13 -1.68574 -1.53812 0
M  V30 1903 C 191.108 -0.53328 -1.53606 0
M  V30 1904 O 192.292 -0.758555 -1.72564 0
M  V30 1905 C 189.419 -1.70977 -2.92377 0
M  V30 1906 C 188.465 -2.92324 -3.10563 0
M  V30 1907 S 189.298 -4.52952 -2.85648 0
M  V30 1908 C 190.454 -4.58117 -4.26474 0
M  V30 1909 H 190.687 -2.62647 -1.39298 0
M  V30 1910 H 188.22 -1.41564 -0.616361 0
M  V30 1911 H 190.178 -1.73047 -3.72243 0
M  V30 1912 H 188.839 -0.78061 -3.04245 0
M  V30 1913 H 188.032 -2.90439 -4.11899 0
M  V30 1914 H 187.634 -2.88055 -2.38538 0
M  V30 1915 H 189.926 -4.34462 -5.19855 0
M  V30 1916 H 190.869 -5.59983 -4.33388 0
M  V30 1917 H 191.277 -3.8732 -4.10662 0
M  V30 1918 N 190.675 0.682077 -1.42076 0
M  V30 1919 C 191.623 1.81707 -1.45208 0
M  V30 1920 C 192.617 1.66183 -0.328591 0
M  V30 1921 O 193.823 1.7288 -0.501264 0
M  V30 1922 H 190.198 0.599014 -0.454628 0
M  V30 1923 H 192.169 1.76183 -2.40836 0
M  V30 1924 C 190.918 3.19816 -1.36428 0
M  V30 1925 H 190.241 3.32385 -2.22171 0
M  V30 1926 H 191.681 3.99272 -1.42681 0
M  V30 1927 C 190.14 3.36809 -0.078191 0
M  V30 1928 O 190.67 3.92124 0.87188 0
M  V30 1929 N 188.876 2.906 0.00229266 0
M  V30 1930 H 188.423 2.45772 -0.771616 0
M  V30 1931 H 188.381 3.02347 0.862179 0
M  V30 1932 N 192.153 1.28127 0.917671 0
M  V30 1933 C 193.116 1.11744 2.00115 0
M  V30 1934 C 194.116 0.0583052 1.60694 0
M  V30 1935 O 195.306 0.303755 1.71531 0
M  V30 1936 C 192.438 0.704862 3.33533 0
M  V30 1937 H 193.631 2.07966 2.16079 0
M  V30 1938 H 191.184 1.11058 1.09981 0
M  V30 1939 H 191.919 -0.258299 3.2327 0
M  V30 1940 H 191.704 1.4699 3.63505 0
M  V30 1941 H 193.194 0.612768 4.1308 0
M  V30 1942 N 193.631 -1.12557 1.10312 0
M  V30 1943 C 194.879 -1.83675 0.843091 0
M  V30 1944 C 195.2 -1.84435 -0.633131 0
M  V30 1945 O 194.47 -1.30657 -1.45964 0
M  V30 1946 H 193.05 -0.680138 0.308904 0
M  V30 1947 H 195.712 -1.36301 1.39313 0
M  V30 1948 H 194.808 -2.87908 1.2048 0
M  V30 1949 N 195.109 -0.891671 -1.2995 0
M  V30 1950 C 196.357 -0.512486 -1.95494 0
M  V30 1951 C 196.678 0.942776 -1.70695 0
M  V30 1952 O 195.948 1.66374 -1.03424 0
M  V30 1953 H 194.528 -0.186533 -0.723336 0
M  V30 1954 H 197.19 -1.13621 -1.58355 0
M  V30 1955 H 196.286 -0.688342 -3.04415 0
M  V30 1956 N 196.587 1.43421 -0.653314 0
M  V30 1957 C 197.998 1.85065 -0.246537 0
M  V30 1958 C 198.349 1.54688 1.2069 0
M  V30 1959 O 197.474 0.995896 1.92122 0
M  V30 1960 C 198.069 3.35922 -0.440666 0
M  V30 1961 C 196.628 3.76297 -0.0882064 0
M  V30 1962 C 195.775 2.67147 -0.743484 0
M  V30 1963 H 198.726 1.33572 -0.856979 0
M  V30 1964 H 198.747 3.79204 0.313798 0
M  V30 1965 H 198.259 3.58 -1.49858 0
M  V30 1966 H 196.36 3.5983 0.96711 0
M  V30 1967 H 196.473 4.76338 -0.513738 0
M  V30 1968 H 194.837 2.54086 -0.176712 0
M  V30 1969 H 195.62 2.92053 -1.80443 0
M  V30 1970 N 198.065 0.39524 1.52563 0
M  V30 1971 C 199.481 0.0454682 1.59535 0
M  V30 1972 C 199.681 -1.44056 1.4089 0
M  V30 1973 O 198.737 -2.20579 1.22888 0
M  V30 1974 C 200.05 0.527963 2.96029 0
M  V30 1975 C 201.598 0.484733 3.09224 0
M  V30 1976 C 202.073 0.943512 4.48176 0
M  V30 1977 N 203.564 0.899765 4.54377 0
M  V30 1978 C 204.299 1.22609 5.60138 0
M  V30 1979 N 203.795 1.62319 6.73516 0
M  V30 1980 N 205.588 1.14696 5.50274 0
M  V30 1981 H 197.739 1.36261 1.62931 0
M  V30 1982 H 200.002 0.558887 0.765735 0
M  V30 1983 H 199.708 1.56607 3.14908 0
M  V30 1984 H 199.582 -0.0698056 3.77135 0
M  V30 1985 H 201.969 -0.544298 2.90037 0
M  V30 1986 H 202.05 1.11838 2.30056 0
M  V30 1987 H 201.694 1.9708 4.68104 0
M  V30 1988 H 201.624 0.286817 5.25818 0
M  V30 1989 H 204.115 0.607632 3.72983 0
M  V30 1990 H 204.428 1.85567 7.5019 0
M  V30 1991 H 202.773 1.66211 6.74833 0
M  V30 1992 H 205.964 0.835701 4.6058 0
M  V30 1993 H 206.137 1.40459 6.32594 0
M  V30 1994 N 199.544 -1.57102 0.125237 0
M  V30 1995 C 200.491 -2.15641 -0.822655 0
M  V30 1996 C 201.461 -1.08313 -1.25927 0
M  V30 1997 O 202.646 -1.36251 -1.33567 0
M  V30 1998 C 199.786 -2.76504 -2.06494 0
M  V30 1999 C 198.899 -3.98158 -1.67612 0
M  V30 2000 C 198.034 -4.47088 -2.86854 0
M  V30 2001 C 197.073 -5.6126 -2.44242 0
M  V30 2002 N 196.21 -6.04905 -3.56419 0
M  V30 2003 H 201.05 -2.96313 -0.316625 0
M  V30 2004 H 198.587 -1.46388 -0.144588 0
M  V30 2005 H 200.545 -3.09925 -2.79289 0
M  V30 2006 H 199.175 -1.98512 -2.54545 0
M  V30 2007 H 198.227 -3.70858 -0.846661 0
M  V30 2008 H 199.539 -4.80934 -1.32301 0
M  V30 2009 H 198.693 -4.82451 -3.67867 0
M  V30 2010 H 197.432 -3.63275 -3.25396 0
M  V30 2011 H 196.437 -5.25495 -1.61663 0
M  V30 2012 H 197.662 -6.46843 -2.0681 0
M  V30 2013 H 195.608 -5.24032 -3.94623 0
M  V30 2014 H 195.525 -6.82552 -3.25051 0
M  V30 2015 H 196.793 -6.44907 -4.37853 0
M  V30 2016 N 201.022 0.148545 -1.56898 0
M  V30 2017 C 202.268 0.862694 -1.83536 0
M  V30 2018 C 202.601 1.80889 -0.706604 0
M  V30 2019 O 201.876 1.92328 0.289885 0
M  V30 2020 C 202.159 1.63853 -3.20662 0
M  V30 2021 C 202.012 0.713925 -4.44098 0
M  V30 2022 C 203.331 2.60133 -3.54991 0
M  V30 2023 H 200.45 0.312179 -0.667618 0
M  V30 2024 H 203.092 0.127953 -1.89569 0
M  V30 2025 H 201.242 2.26489 -3.1565 0
M  V30 2026 H 202.914 0.098686 -4.61194 0
M  V30 2027 H 201.157 0.0234019 -4.33794 0
M  V30 2028 H 201.828 1.29278 -5.36648 0
M  V30 2029 H 204.304 2.07616 -3.60603 0
M  V30 2030 H 203.18 3.11468 -4.51972 0
M  V30 2031 H 203.441 3.41417 -2.80868 0
M  V30 2032 N 202.5 1.5196 0.417844 0
M  V30 2033 C 203.725 1.69717 1.1921 0
M  V30 2034 C 204.15 0.402148 1.83751 0
M  V30 2035 O 203.508 -0.639593 1.69643 0
M  V30 2036 C 203.556 2.82794 2.2374 0
M  V30 2037 O 202.66 2.47756 3.29683 0
M  V30 2038 H 202.001 0.565263 0.348387 0
M  V30 2039 H 204.531 1.98621 0.490985 0
M  V30 2040 H 204.541 3.07452 2.68212 0
M  V30 2041 H 203.216 3.76756 1.76146 0
M  V30 2042 H 201.793 2.33739 2.90552 0
M  V30 2043 N 203.978 -0.674533 1.42435 0
M  V30 2044 C 205.389 -1.25514 1.38214 0
M  V30 2045 C 205.74 -1.96055 0.0755464 0
M  V30 2046 O 204.865 -2.00028 -0.8257 0
M  V30 2047 C 205.46 -2.28269 2.50357 0
M  V30 2048 C 204.019 -2.81856 2.49467 0
M  V30 2049 C 203.166 -1.56182 2.29134 0
M  V30 2050 H 206.117 -0.467902 1.51646 0
M  V30 2051 H 206.138 -3.10009 2.20624 0
M  V30 2052 H 205.65 -1.769 3.45439 0
M  V30 2053 H 203.751 -3.37346 1.58204 0
M  V30 2054 H 203.864 -3.30854 3.46515 0
M  V30 2055 H 202.228 -1.82761 1.774 0
M  V30 2056 H 203.011 -1.06778 3.26272 0
M  V30 2057 N 205.456 -1.28612 -0.910864 0
M  V30 2058 C 206.386 -1.15326 -2.03032 0
M  V30 2059 C 207.367 -0.0502924 -1.70026 0
M  V30 2060 O 208.552 -0.227797 -1.92859 0
M  V30 2061 C 205.682 -0.817343 -3.37545 0
M  V30 2062 C 204.636 -1.8754 -3.84724 0
M  V30 2063 C 203.962 -1.39305 -5.16235 0
M  V30 2064 C 205.262 -3.28244 -4.06267 0
M  V30 2065 H 206.956 -2.08975 -2.14406 0
M  V30 2066 H 204.502 -1.00612 -1.03021 0
M  V30 2067 H 206.455 -0.711151 -4.15356 0
M  V30 2068 H 205.179 0.154846 -3.26233 0
M  V30 2069 H 203.838 -1.97079 -3.09121 0
M  V30 2070 H 203.486 -0.409846 -5.01328 0
M  V30 2071 H 203.186 -2.10057 -5.48771 0
M  V30 2072 H 204.71 -1.30014 -5.96598 0
M  V30 2073 H 206.124 -3.21611 -4.74594 0
M  V30 2074 H 204.521 -3.96855 -4.5014 0
M  V30 2075 H 205.591 -3.72048 -3.10979 0
M  V30 2076 N 206.934 1.1197 -1.10907 0
M  V30 2077 C 207.897 2.16031 -0.765707 0
M  V30 2078 C 208.897 1.59393 0.212235 0
M  V30 2079 O 210.087 1.74196 -0.0115441 0
M  V30 2080 C 207.219 3.40632 -0.135053 0
M  V30 2081 H 208.412 2.47919 -1.68748 0
M  V30 2082 H 205.965 1.27061 -0.910226 0
M  V30 2083 H 206.7 3.14348 0.797218 0
M  V30 2084 H 206.485 3.8302 -0.838937 0
M  V30 2085 H 207.975 4.17505 0.0892469 0
M  V30 2086 N 208.412 0.89855 1.29475 0
M  V30 2087 C 209.658 0.524658 1.95896 0
M  V30 2088 C 209.991 -0.926468 1.70676 0
M  V30 2089 O 209.266 -1.65665 1.01908 0
M  V30 2090 C 209.549 0.81633 3.50725 0
M  V30 2091 C 209.402 2.31907 3.85408 0
M  V30 2092 C 210.721 0.302038 4.39062 0
M  V30 2093 H 207.84 0.19209 0.711527 0
M  V30 2094 H 210.482 1.12502 1.53112 0
M  V30 2095 H 208.632 0.305369 3.87298 0
M  V30 2096 H 210.304 2.89949 3.58786 0
M  V30 2097 H 208.547 2.78027 3.32992 0
M  V30 2098 H 209.218 2.47373 4.93468 0
M  V30 2099 H 211.694 0.739551 4.09475 0
M  V30 2100 H 210.57 0.535331 5.46283 0
M  V30 2101 H 210.831 -0.797216 4.34853 0
M  V30 2102 N 209.89 -1.43072 0.660911 0
M  V30 2103 C 210.822 -2.29108 -0.0647641 0
M  V30 2104 C 211.835 -1.42928 -0.779448 0
M  V30 2105 O 213.024 -1.66788 -0.635921 0
M  V30 2106 C 210.124 -3.20032 -1.11503 0
M  V30 2107 C 209.297 -4.34792 -0.476955 0
M  V30 2108 C 208.356 -5.06534 -1.42513 0
M  V30 2109 O 207.382 -5.61538 -0.930771 0
M  V30 2110 N 208.584 -5.1075 -2.75889 0
M  V30 2111 H 211.349 -2.92029 0.673731 0
M  V30 2112 H 208.91 -1.53846 0.50427 0
M  V30 2113 H 210.902 -3.64892 -1.75032 0
M  V30 2114 H 209.472 -2.58658 -1.75541 0
M  V30 2115 H 208.692 -3.92752 0.337572 0
M  V30 2116 H 209.98 -5.0879 -0.0318525 0
M  V30 2117 H 209.378 -4.67447 -3.18606 0
M  V30 2118 H 207.935 -5.59302 -3.347 0
M  V30 2119 N 211.368 -0.403325 -1.52352 0
M  V30 2120 C 212.301 0.469463 -2.23319 0
M  V30 2121 C 213.279 1.05272 -1.23922 0
M  V30 2122 O 214.463 1.10169 -1.52954 0
M  V30 2123 C 211.59 1.6511 -2.9573 0
M  V30 2124 C 210.636 1.19178 -4.0951 0
M  V30 2125 S 211.469 0.161718 -5.35256 0
M  V30 2126 C 212.625 1.34882 -6.11194 0
M  V30 2127 H 212.858 -0.133134 -2.97002 0
M  V30 2128 H 210.391 -0.187588 -1.53256 0
M  V30 2129 H 212.349 2.3287 -3.38056 0
M  V30 2130 H 211.01 2.22503 -2.21701 0
M  V30 2131 H 210.203 2.07444 -4.59329 0
M  V30 2132 H 209.805 0.592911 -3.6927 0
M  V30 2133 H 212.097 2.27345 -6.38217 0
M  V30 2134 H 213.04 0.89128 -7.02468 0
M  V30 2135 H 213.448 1.57198 -5.42171 0
M  V30 2136 N 212.846 1.57033 -0.133567 0
M  V30 2137 C 214.095 1.94861 0.520768 0
M  V30 2138 C 214.408 1.02012 1.66892 0
M  V30 2139 O 215.614 1.29365 2.38699 0
M  V30 2140 C 214.07 3.46362 0.977809 0
M  V30 2141 C 213.678 4.47773 -0.142674 0
M  V30 2142 C 215.422 3.93083 1.60269 0
M  V30 2143 C 213.329 5.90468 0.331883 0
M  V30 2144 H 212.259 0.727453 0.198315 0
M  V30 2145 H 214.91 1.82227 -0.215759 0
M  V30 2146 H 213.292 3.54282 1.7692 0
M  V30 2147 H 214.466 4.51536 -0.919317 0
M  V30 2148 H 212.781 4.10891 -0.675124 0
M  V30 2149 H 215.378 4.97121 1.96914 0
M  V30 2150 H 215.721 3.33876 2.48662 0
M  V30 2151 H 216.254 3.88025 0.876453 0
M  V30 2152 H 212.993 6.53463 -0.516341 0
M  V30 2153 H 212.513 5.90094 1.07469 0
M  V30 2154 H 214.192 6.42179 0.788332 0
M  V30 2155 N 214.325 -0.140222 1.56975 0
M  V30 2156 C 215.258 -1.20266 1.93936 0
M  V30 2157 C 216.236 -1.41212 0.806099 0
M  V30 2158 O 217.42 -1.55713 1.06234 0
M  V30 2159 C 214.547 -2.56037 2.21726 0
M  V30 2160 C 213.593 -2.51646 3.44349 0
M  V30 2161 S 214.426 -1.97678 4.97678 0
M  V30 2162 C 215.582 -3.35165 5.28597 0
M  V30 2163 H 215.815 -0.887358 2.83749 0
M  V30 2164 H 213.348 -0.346119 1.50471 0
M  V30 2165 H 215.306 -3.34167 2.38416 0
M  V30 2166 H 213.967 -2.84755 1.32566 0
M  V30 2167 H 213.16 -3.51608 3.61092 0
M  V30 2168 H 212.762 -1.81628 3.26936 0
M  V30 2169 H 215.054 -4.31302 5.2248 0
M  V30 2170 H 215.997 -3.23269 6.30002 0
M  V30 2171 H 216.405 -3.32614 4.56101 0
M  V30 2172 N 215.803 -1.52179 -0.40978 0
M  V30 2173 C 217.214 -1.58377 -0.988615 0
M  V30 2174 C 217.565 -0.423879 -1.91566 0
M  V30 2175 O 216.69 0.455844 -2.11544 0
M  V30 2176 C 217.285 -2.87044 -1.79976 0
M  V30 2177 C 215.844 -2.95722 -2.32863 0
M  V30 2178 C 214.991 -2.53309 -1.12828 0
M  V30 2179 H 217.942 -1.57558 -0.190039 0
M  V30 2180 H 217.963 -2.7236 -2.65707 0
M  V30 2181 H 217.475 -3.71444 -1.12478 0
M  V30 2182 H 215.576 -2.15814 -3.03735 0
M  V30 2183 H 215.689 -3.99951 -2.63773 0
M  V30 2184 H 214.053 -2.07142 -1.48204 0
M  V30 2185 H 214.836 -3.40082 -0.46897 0
M  V30 2186 N 217.281 0.66697 -1.42791 0
M  V30 2187 C 218.229 1.80157 -1.47127 0
M  V30 2188 C 219.223 1.65825 -0.346199 0
M  V30 2189 O 220.429 1.72338 -0.519572 0
M  V30 2190 H 216.804 0.594158 -0.460956 0
M  V30 2191 H 218.775 1.73619 -2.42692 0
M  V30 2192 C 217.524 3.18351 -1.39813 0
M  V30 2193 H 216.847 3.3001 -2.25684 0
M  V30 2194 H 218.287 3.97736 -1.46908 0
M  V30 2195 C 216.746 3.36707 -0.11391 0
M  V30 2196 O 217.276 3.93027 0.830241 0
M  V30 2197 N 215.482 2.90586 -0.0285295 0
M  V30 2198 H 215.029 2.4494 -0.79764 0
M  V30 2199 H 214.987 3.03245 0.830063 0
M  V30 2200 N 218.759 1.29093 0.90403 0
M  V30 2201 C 220.007 1.16583 1.65085 0
M  V30 2202 C 220.328 -0.283933 1.92922 0
M  V30 2203 O 219.598 -1.19509 1.55224 0
M  V30 2204 H 218.178 0.428467 0.611903 0
M  V30 2205 H 220.84 1.61959 1.08422 0
M  V30 2206 H 219.936 1.71266 2.6091 0
M  V30 2207 N 220.237 -1.11381 1.11499 0
M  V30 2208 C 221.2 -2.15622 0.777153 0
M  V30 2209 C 222.2 -1.59504 -0.203779 0
M  V30 2210 O 223.39 -1.74188 0.020782 0
M  V30 2211 C 220.522 -3.40556 0.153116 0
M  V30 2212 H 221.715 -2.47021 1.70061 0
M  V30 2213 H 219.268 -1.26577 0.916952 0
M  V30 2214 H 220.003 -3.14767 -0.780536 0
M  V30 2215 H 219.788 -3.8257 0.859238 0
M  V30 2216 H 221.278 -4.17546 -0.0671044 0
M  V30 2217 N 221.715 -0.905404 -1.28997 0
M  V30 2218 C 222.678 -0.392253 -2.25819 0
M  V30 2219 C 223.678 0.476753 -1.5357 0
M  V30 2220 O 224.868 0.280994 -1.71919 0
M  V30 2221 C 222 0.438588 -3.38067 0
M  V30 2222 H 223.193 -1.24743 -2.72725 0
M  V30 2223 H 220.746 -0.684051 -1.40536 0
M  V30 2224 H 221.481 1.31352 -2.96508 0
M  V30 2225 H 221.266 -0.184167 -3.91667 0
M  V30 2226 H 222.756 0.78873 -4.10084 0
M  V30 2227 N 223.193 1.4272 -0.668489 0
M  V30 2228 C 224.156 2.292 0.00448567 0
M  V30 2229 C 225.156 1.43001 0.735339 0
M  V30 2230 O 226.346 1.64461 0.57429 0
M  V30 2231 C 223.478 3.25375 1.01705 0
M  V30 2232 H 224.671 2.90199 -0.756608 0
M  V30 2233 H 222.224 1.50254 -0.430506 0
M  V30 2234 H 222.959 2.69301 1.80686 0
M  V30 2235 H 222.744 3.88944 0.496463 0
M  V30 2236 H 224.234 3.90245 1.48655 0
M  V30 2237 N 224.671 0.411399 1.52136 0
M  V30 2238 C 225.917 -0.163888 2.02137 0
M  V30 2239 C 226.25 -1.44597 1.29636 0
M  V30 2240 O 225.525 -1.90272 0.403353 0
M  V30 2241 C 225.808 -0.40927 3.57767 0
M  V30 2242 C 225.661 0.889643 4.40914 0
M  V30 2243 C 226.98 -1.19042 4.23694 0
M  V30 2244 H 224.099 -0.0580896 0.734707 0
M  V30 2245 H 226.741 0.54531 1.82007 0
M  V30 2246 H 224.891 -1.0134 3.7505 0
M  V30 2247 H 226.563 1.52575 4.35337 0
M  V30 2248 H 224.806 1.50011 4.07037 0
M  V30 2249 H 225.477 0.672314 5.4789 0
M  V30 2250 H 227.953 -0.678942 4.10524 0
M  V30 2251 H 226.829 -1.33086 5.32522 0
M  V30 2252 H 227.09 -2.21166 3.82803 0
M  V30 2253 N 226.149 -1.5696 0.141893 0
M  V30 2254 C 227.398 -1.95135 -0.510427 0
M  V30 2255 C 227.711 -1.02896 -1.66348 0
M  V30 2256 O 228.917 -1.30629 -2.38009 0
M  V30 2257 C 227.373 -3.46876 -0.959427 0
M  V30 2258 C 226.981 -4.47691 0.166419 0
M  V30 2259 C 228.725 -3.93927 -1.58183 0
M  V30 2260 C 226.632 -5.90636 -0.300565 0
M  V30 2261 H 225.562 -0.728494 -0.194454 0
M  V30 2262 H 228.213 -1.8211 0.22542 0
M  V30 2263 H 226.595 -3.55215 -1.75038 0
M  V30 2264 H 227.769 -4.51043 0.94325 0
M  V30 2265 H 226.084 -4.10527 0.696905 0
M  V30 2266 H 228.681 -4.98158 -1.94275 0
M  V30 2267 H 229.024 -3.3519 -2.46888 0
M  V30 2268 H 229.557 -3.88484 -0.855863 0
M  V30 2269 H 226.296 -6.5318 0.550989 0
M  V30 2270 H 225.816 -5.90655 -1.04338 0
M  V30 2271 H 227.495 -6.42588 -0.754265 0
M  V30 2272 N 227.627 0.131896 -1.57047 0
M  V30 2273 C 228.875 0.840269 -1.83804 0
M  V30 2274 C 229.196 1.81017 -0.72512 0
M  V30 2275 O 228.466 1.94272 0.251995 0
M  V30 2276 H 227.046 0.313294 -0.678127 0
M  V30 2277 H 229.708 0.122294 -1.94516 0
M  V30 2278 H 228.804 1.39335 -2.79271 0
M  V30 2279 N 229.106 1.52395 0.401703 0
M  V30 2280 C 230.036 1.79231 1.49661 0
M  V30 2281 C 231.017 0.643654 1.57452 0
M  V30 2282 O 232.202 0.889989 1.72606 0
M  V30 2283 C 229.332 1.94971 2.87409 0
M  V30 2284 C 228.286 3.10604 2.94465 0
M  V30 2285 C 227.612 3.11577 4.34538 0
M  V30 2286 C 228.912 4.49921 2.6527 0
M  V30 2287 H 230.606 2.70917 1.27454 0
M  V30 2288 H 228.152 1.30362 0.6117 0
M  V30 2289 H 230.105 2.12328 3.63999 0
M  V30 2290 H 228.829 0.999632 3.10926 0
M  V30 2291 H 227.488 2.93009 2.20321 0
M  V30 2292 H 227.136 2.14277 4.55076 0
M  V30 2293 H 226.836 3.89247 4.40183 0
M  V30 2294 H 228.36 3.31073 5.13053 0
M  V30 2295 H 229.774 4.67683 3.31581 0
M  V30 2296 H 228.171 5.29564 2.82281 0
M  V30 2297 H 229.241 4.57507 1.60671 0
M  V30 2298 N 230.584 -0.659388 1.43143 0
M  V30 2299 C 231.516 -1.7849 1.43784 0
M  V30 2300 C 232.529 -1.5932 0.334787 0
M  V30 2301 O 233.718 -1.68155 0.598842 0
M  V30 2302 C 230.818 -3.15828 1.22906 0
M  V30 2303 C 229.991 -3.61711 2.45934 0
M  V30 2304 C 229.05 -4.77831 2.20371 0
M  V30 2305 O 228.076 -4.87586 2.93681 0
M  V30 2306 N 229.278 -5.67611 1.21647 0
M  V30 2307 H 232.043 -1.7842 2.40803 0
M  V30 2308 H 229.604 -0.84302 1.3822 0
M  V30 2309 H 231.596 -3.91189 1.03697 0
M  V30 2310 H 230.166 -3.10707 0.343542 0
M  V30 2311 H 229.386 -2.76861 2.80609 0
M  V30 2312 H 230.674 -3.89112 3.27825 0
M  V30 2313 H 230.072 -5.62397 0.610449 0
M  V30 2314 H 228.629 -6.42719 1.08423 0
M  V30 2315 N 232.062 -1.29571 -0.897171 0
M  V30 2316 C 232.992 -1.17473 -2.01798 0
M  V30 2317 C 233.973 -0.068323 -1.69963 0
M  V30 2318 O 235.158 -0.248239 -1.92607 0
M  V30 2319 C 232.288 -0.853099 -3.36659 0
M  V30 2320 C 231.242 -1.9161 -3.82713 0
M  V30 2321 C 230.568 -1.44773 -5.14728 0
M  V30 2322 C 231.868 -3.32535 -4.02763 0
M  V30 2323 H 233.562 -2.11237 -2.12177 0
M  V30 2324 H 231.108 -1.01699 -1.01948 0
M  V30 2325 H 233.061 -0.755165 -4.14578 0
M  V30 2326 H 231.785 0.120236 -3.26379 0
M  V30 2327 H 230.444 -2.00346 -3.07013 0
M  V30 2328 H 230.092 -0.462995 -5.00865 0
M  V30 2329 H 229.792 -2.15865 -5.46513 0
M  V30 2330 H 231.316 -1.36334 -5.95185 0
M  V30 2331 H 232.73 -3.26626 -4.71156 0
M  V30 2332 H 231.127 -4.01607 -4.45905 0
M  V30 2333 H 232.197 -3.75326 -3.07016 0
M  V30 2334 N 233.54 1.10788 -1.12088 0
M  V30 2335 C 234.788 1.8231 -0.872205 0
M  V30 2336 C 235.109 1.85419 0.603709 0
M  V30 2337 O 234.379 1.32963 1.43867 0
M  V30 2338 H 232.959 0.675137 -0.319686 0
M  V30 2339 H 235.621 1.34068 -1.41463 0
M  V30 2340 H 234.717 2.85955 -1.25045 0
M  V30 2341 N 235.018 0.912232 1.28515 0
M  V30 2342 C 235.981 0.404223 2.25607 0
M  V30 2343 C 236.981 -0.468602 1.53821 0
M  V30 2344 O 238.171 -0.271873 1.72065 0
M  V30 2345 C 235.303 -0.420653 3.38295 0
M  V30 2346 H 236.496 1.26188 2.7206 0
M  V30 2347 H 234.049 0.691495 1.40171 0
M  V30 2348 H 234.784 -1.29777 2.97201 0
M  V30 2349 H 234.569 0.204935 3.91564 0
M  V30 2350 H 236.059 -0.766971 4.10496 0
M  V30 2351 N 236.496 -1.42363 0.676048 0
M  V30 2352 C 237.912 -1.55811 0.345718 0
M  V30 2353 C 238.112 -1.65544 -1.14879 0
M  V30 2354 O 237.168 -1.62306 -1.93424 0
M  V30 2355 C 238.481 -2.80746 1.07713 0
M  V30 2356 C 240.029 -2.9452 1.05958 0
M  V30 2357 C 240.504 -4.22318 1.77233 0
M  V30 2358 N 241.995 -4.29233 1.74108 0
M  V30 2359 C 242.73 -5.26935 2.26113 0
M  V30 2360 N 242.226 -6.30783 2.86505 0
M  V30 2361 N 244.019 -5.18741 2.1648 0
M  V30 2362 H 236.17 -1.34289 1.6456 0
M  V30 2363 H 238.433 -0.646506 0.69335 0
M  V30 2364 H 238.139 -2.79696 2.13221 0
M  V30 2365 H 238.013 -3.71676 0.64316 0
M  V30 2366 H 240.4 -2.95097 0.0128255 0
M  V30 2367 H 240.481 -2.04817 1.53244 0
M  V30 2368 H 240.125 -4.22502 2.81877 0
M  V30 2369 H 240.055 -5.10958 1.27396 0
M  V30 2370 H 242.546 -3.54814 1.30059 0
M  V30 2371 H 242.859 -7.01691 3.23805 0
M  V30 2372 H 241.204 -6.31341 2.90575 0
M  V30 2373 H 244.395 -4.36533 1.68987 0
M  V30 2374 H 244.568 -5.94721 2.57316 0
M  V30 2375 N 237.974 -0.419461 -1.51915 0
M  V30 2376 C 238.937 0.389116 -2.25873 0
M  V30 2377 C 239.937 0.964924 -1.28631 0
M  V30 2378 O 241.127 0.842179 -1.52489 0
M  V30 2379 C 238.259 1.54874 -3.03689 0
M  V30 2380 H 239.452 -0.258799 -2.98781 0
M  V30 2381 H 237.005 -0.172209 -1.55348 0
M  V30 2382 H 237.74 2.23323 -2.35154 0
M  V30 2383 H 237.525 1.14223 -3.75094 0
M  V30 2384 H 239.015 2.12046 -3.59759 0
M  V30 2385 N 239.452 1.56882 -0.150215 0
M  V30 2386 C 240.7 1.9584 0.499105 0
M  V30 2387 C 241.021 1.03623 1.65188 0
M  V30 2388 O 240.291 0.0984084 1.95653 0
M  V30 2389 H 238.871 0.723119 0.187373 0
M  V30 2390 H 241.533 1.9358 -0.226466 0
M  V30 2391 H 240.629 2.99638 0.873122 0
M  V30 2392 N 240.93 -0.123565 1.57115 0
M  V30 2393 C 242.176 -0.833386 1.84885 0
M  V30 2394 C 242.509 -1.79742 0.735292 0
M  V30 2395 O 241.784 -1.92764 -0.25925 0
M  V30 2396 C 242.067 -1.5873 3.23228 0
M  V30 2397 C 241.92 -0.643183 4.45178 0
M  V30 2398 C 243.239 -2.54453 3.59085 0
M  V30 2399 H 240.358 -0.301518 0.6725 0
M  V30 2400 H 243 -0.097778 1.89748 0
M  V30 2401 H 241.15 -2.21438 3.19214 0
M  V30 2402 H 242.822 -0.0253015 4.61293 0
M  V30 2403 H 241.065 0.0456139 4.33776 0
M  V30 2404 H 241.736 -1.20724 5.38637 0
M  V30 2405 H 244.212 -2.01853 3.63861 0
M  V30 2406 H 243.088 -3.04238 4.5687 0
M  V30 2407 H 243.349 -3.36906 2.86264 0
M  V30 2408 N 242.408 -1.52605 -0.393616 0
M  V30 2409 C 243.341 -1.71798 -1.50202 0
M  V30 2410 C 244.319 -0.565743 -1.52441 0
M  V30 2411 O 245.503 -0.794987 -1.70916 0
M  V30 2412 C 242.63 -1.7714 -2.88685 0
M  V30 2413 C 241.676 -2.98845 -3.04292 0
M  V30 2414 S 242.509 -4.58909 -2.75976 0
M  V30 2415 C 243.665 -4.6706 -4.1666 0
M  V30 2416 H 243.898 -2.65542 -1.33696 0
M  V30 2417 H 241.431 -1.42839 -0.586195 0
M  V30 2418 H 243.389 -1.80903 -3.68489 0
M  V30 2419 H 242.05 -0.844969 -3.02521 0
M  V30 2420 H 241.243 -2.99111 -4.05646 0
M  V30 2421 H 240.845 -2.9305 -2.32374 0
M  V30 2422 H 243.137 -4.45391 -5.10523 0
M  V30 2423 H 244.08 -5.6905 -4.21412 0
M  V30 2424 H 244.488 -3.95944 -4.02354 0
M  V30 2425 N 243.887 0.651787 -1.4349 0
M  V30 2426 C 245.115 1.43937 -1.48626 0
M  V30 2427 C 245.53 1.8851 -0.104587 0
M  V30 2428 O 244.887 1.5958 0.885464 0
M  V30 2429 C 244.938 2.6734 -2.43334 0
M  V30 2430 O 244.659 2.24631 -3.76128 0
M  V30 2431 C 246.16 3.60683 -2.57726 0
M  V30 2432 H 243.38 0.44213 -0.504739 0
M  V30 2433 H 245.924 0.798944 -1.88248 0
M  V30 2434 H 244.079 3.2752 -2.06904 0
M  V30 2435 H 244.493 3.04485 -4.2707 0
M  V30 2436 H 245.967 4.43933 -3.28067 0
M  V30 2437 H 246.444 4.08126 -1.62265 0
M  V30 2438 H 247.05 3.06384 -2.94973 0
M  V30 2439 N 245.365 1.30045 0.890287 0
M  V30 2440 C 246.776 1.16738 1.45702 0
M  V30 2441 C 247.127 -0.233939 1.948 0
M  V30 2442 O 246.252 -1.13021 1.84541 0
M  V30 2443 C 246.847 2.11313 2.64825 0
M  V30 2444 C 245.406 2.02001 3.17604 0
M  V30 2445 C 244.553 2.01699 1.90296 0
M  V30 2446 H 247.504 1.42392 0.700726 0
M  V30 2447 H 247.525 1.69086 3.40867 0
M  V30 2448 H 247.037 3.13294 2.2906 0
M  V30 2449 H 245.138 1.03142 3.5804 0
M  V30 2450 H 245.251 2.90128 3.81264 0
M  V30 2451 H 243.615 1.46427 2.08402 0
M  V30 2452 H 244.398 3.05402 1.56795 0
M  V30 2453 N 246.843 -1.10192 1.12674 0
M  V30 2454 C 248.089 -1.82475 0.884915 0
M  V30 2455 C 248.422 -1.85093 -0.58773 0
M  V30 2456 O 247.697 -1.3134 -1.43457 0
M  V30 2457 C 247.98 -3.29018 1.46353 0
M  V30 2458 C 247.833 -3.34718 3.00473 0
M  V30 2459 C 249.152 -4.25473 1.12519 0
M  V30 2460 H 246.271 -0.662492 0.322915 0
M  V30 2461 H 248.913 -1.2913 1.39375 0
M  V30 2462 H 247.063 -3.74576 1.03077 0
M  V30 2463 H 248.735 -2.97622 3.52447 0
M  V30 2464 H 246.978 -2.74541 3.35872 0
M  V30 2465 H 247.649 -4.37918 3.36053 0
M  V30 2466 H 250.125 -3.88161 1.499 0
M  V30 2467 H 249.001 -5.26365 1.55663 0
M  V30 2468 H 249.262 -4.42084 0.0377407 0
M  V30 2469 N 248.321 -0.919034 -1.28029 0
M  V30 2470 C 249.546 -0.570357 -1.99403 0
M  V30 2471 C 249.971 0.842486 -1.68178 0
M  V30 2472 O 249.329 1.56391 -0.917141 0
M  V30 2473 C 249.377 -0.792541 -3.51783 0
M  V30 2474 O 248.481 0.145988 -4.12142 0
M  V30 2475 H 247.822 -0.220555 -0.6263 0
M  V30 2476 H 250.352 -1.23592 -1.63053 0
M  V30 2477 H 250.362 -0.704708 -4.01868 0
M  V30 2478 H 249.037 -1.82247 -3.73844 0
M  V30 2479 H 247.614 0.00897528 -3.72899 0
M  V30 2480 N 249.799 1.42003 -0.683588 0
M  V30 2481 C 250.762 2.29191 -0.0198243 0
M  V30 2482 C 251.762 1.43773 0.72013 0
M  V30 2483 O 252.952 1.65061 0.556815 0
M  V30 2484 C 250.084 3.26435 0.982487 0
M  V30 2485 H 251.277 2.8938 -0.787345 0
M  V30 2486 H 248.83 1.49789 -0.446418 0
M  V30 2487 H 249.565 2.71203 1.77819 0
M  V30 2488 H 249.35 3.89449 0.455182 0
M  V30 2489 H 250.84 3.918 1.44508 0
M  V30 2490 N 251.277 0.427512 1.51691 0
M  V30 2491 C 252.517 -0.141524 2.03909 0
M  V30 2492 C 252.881 -1.40811 1.30523 0
M  V30 2493 O 254.082 -2.05676 1.73063 0
M  V30 2494 C 252.353 -0.364962 3.55532 0
M  V30 2495 S 253.912 -0.898812 4.29496 0
M  V30 2496 H 250.73 -0.0364542 0.710065 0
M  V30 2497 H 253.332 0.584659 1.86553 0
M  V30 2498 H 252.036 0.56336 4.06515 0
M  V30 2499 H 251.567 -1.1185 3.77164 0
M  V30 2500 H 253.582 -2.17747 4.45871 0
M  V30 2501 N 252.755 -1.56801 0.158532 0
M  V30 2502 C 253.98 -2.01295 -0.499516 0
M  V30 2503 C 254.405 -1.03799 -1.56867 0
M  V30 2504 O 253.763 -0.0155162 -1.81293 0
M  V30 2505 C 253.811 -3.44469 -1.06647 0
M  V30 2506 O 252.915 -3.50012 -2.18095 0
M  V30 2507 H 252.256 -0.652884 -0.12099 0
M  V30 2508 H 254.786 -2.02958 0.258661 0
M  V30 2509 H 254.796 -3.8351 -1.39227 0
M  V30 2510 H 253.471 -4.14932 -0.283581 0
M  V30 2511 H 252.048 -3.22822 -1.86656 0
M  V30 2512 N 254.233 0.115231 -1.57178 0
M  V30 2513 C 255.458 0.840354 -1.89612 0
M  V30 2514 C 255.883 1.72464 -0.750845 0
M  V30 2515 O 255.241 1.78826 0.298478 0
M  V30 2516 C 255.289 1.64654 -3.20814 0
M  V30 2517 O 254.393 2.7538 -3.06985 0
M  V30 2518 H 253.734 0.232158 -0.622092 0
M  V30 2519 H 256.264 0.0964977 -2.04372 0
M  V30 2520 H 256.274 2.03499 -3.53627 0
M  V30 2521 H 254.949 0.997416 -4.03763 0
M  V30 2522 H 253.526 2.3971 -2.85646 0
M  V30 2523 N 255.711 1.52812 0.385517 0
M  V30 2524 C 256.959 1.67694 1.12797 0
M  V30 2525 C 257.28 0.421115 1.90399 0
M  V30 2526 O 256.55 -0.564551 1.87589 0
M  V30 2527 H 255.13 0.618155 0.419396 0
M  V30 2528 H 257.792 1.89938 0.436972 0
M  V30 2529 H 256.888 2.52896 1.82894 0
M  V30 2530 N 257.189 -0.644168 1.43834 0
M  V30 2531 C 258.414 -1.43642 1.49605 0
M  V30 2532 C 258.839 -1.8773 0.117913 0
M  V30 2533 O 258.197 -1.57938 -0.890239 0
M  V30 2534 C 258.245 -2.6416 2.45463 0
M  V30 2535 O 257.349 -3.63538 1.94714 0
M  V30 2536 H 256.69 -0.430329 0.50568 0
M  V30 2537 H 259.22 -0.787448 1.8884 0
M  V30 2538 H 259.23 -3.11864 2.63068 0
M  V30 2539 H 257.905 -2.31414 3.45572 0
M  V30 2540 H 256.482 -3.2273 1.86814 0
M  V30 2541 N 258.668 -1.30515 -0.883378 0
M  V30 2542 C 259.578 -1.18959 -2.02203 0
M  V30 2543 C 260.594 -0.109172 -1.73657 0
M  V30 2544 O 261.77 -0.324413 -1.9877 0
M  V30 2545 C 258.835 -0.883871 -3.35244 0
M  V30 2546 C 257.896 -2.04982 -3.77201 0
M  V30 2547 C 257.129 -1.75859 -5.03894 0
M  V30 2548 O 257.352 -0.687276 -5.66244 0
M  V30 2549 O 256.286 -2.61146 -5.42297 0
M  V30 2550 H 260.112 -2.14616 -2.1488 0
M  V30 2551 H 257.697 -1.10124 -1.0096 0
M  V30 2552 H 259.579 -0.728644 -4.15053 0
M  V30 2553 H 258.254 0.0427798 -3.23672 0
M  V30 2554 H 257.161 -2.26038 -2.9809 0
M  V30 2555 H 258.494 -2.95825 -3.93381 0
M  V30 2556 N 260.146 1.09593 -1.13257 0
M  V30 2557 C 261.109 2.14359 -0.811358 0
M  V30 2558 C 262.109 1.59808 0.178377 0
M  V30 2559 O 263.299 1.74132 -0.0484911 0
M  V30 2560 C 260.431 3.40269 -0.207276 0
M  V30 2561 H 261.624 2.44284 -1.73969 0
M  V30 2562 H 259.177 1.25102 -0.936973 0
M  V30 2563 H 259.912 3.15969 0.73036 0
M  V30 2564 H 259.697 3.81154 -0.919992 0
M  V30 2565 H 261.187 4.176 0.000667944 0
M  V30 2566 N 261.624 0.925811 1.2754 0
M  V30 2567 C 262.873 0.561084 1.93739 0
M  V30 2568 C 263.186 -0.901685 1.73577 0
M  V30 2569 O 264.392 -1.37511 2.34101 0
M  V30 2570 C 262.848 0.952668 3.47062 0
M  V30 2571 C 262.456 2.43599 3.75983 0
M  V30 2572 C 264.2 0.659103 4.19352 0
M  V30 2573 C 262.107 2.76707 5.22673 0
M  V30 2574 H 261.037 0.206122 0.725279 0
M  V30 2575 H 263.688 1.12637 1.44863 0
M  V30 2576 H 262.07 0.316053 3.94737 0
M  V30 2577 H 263.244 3.12035 3.39073 0
M  V30 2578 H 261.559 2.70125 3.16893 0
M  V30 2579 H 264.156 0.882985 5.27359 0
M  V30 2580 H 264.499 -0.403607 4.14339 0
M  V30 2581 H 265.032 1.25473 3.77494 0
M  V30 2582 H 261.771 3.8188 5.32774 0
M  V30 2583 H 261.291 2.12919 5.60737 0
M  V30 2584 H 262.97 2.6435 5.90532 0
M  V30 2585 N 263.102 -1.41638 0.69111 0
M  V30 2586 C 264.065 -2.29178 0.0319786 0
M  V30 2587 C 265.065 -1.44153 -0.712496 0
M  V30 2588 O 266.255 -1.65354 -0.548053 0
M  V30 2589 C 263.387 -3.26952 -0.965161 0
M  V30 2590 H 264.58 -2.88959 0.802681 0
M  V30 2591 H 262.133 -1.4955 0.454356 0
M  V30 2592 H 262.868 -2.72142 -1.76378 0
M  V30 2593 H 262.653 -3.89685 -0.434522 0
M  V30 2594 H 264.143 -3.92561 -1.42428 0
M  V30 2595 N 264.58 -0.43555 -1.51462 0
M  V30 2596 C 265.53 0.394701 -2.24558 0
M  V30 2597 C 266.514 0.99157 -1.26715 0
M  V30 2598 O 267.706 0.910007 -1.51815 0
M  V30 2599 C 264.835 1.4963 -3.08975 0
M  V30 2600 C 263.921 0.908912 -4.14246 0
M  V30 2601 N 264.312 0.0505335 -5.05775 0
M  V30 2602 C 262.61 1.17668 -4.30198 0
M  V30 2603 C 263.311 -0.279161 -5.8103 0
M  V30 2604 N 262.287 0.336767 -5.42556 0
M  V30 2605 H 266.089 -0.267106 -2.92684 0
M  V30 2606 H 263.603 -0.247518 -1.60503 0
M  V30 2607 H 265.6 2.10394 -3.59917 0
M  V30 2608 H 264.26 2.16046 -2.42393 0
M  V30 2609 H 265.271 -0.31577 -5.16936 0
M  V30 2610 H 261.948 1.83847 -3.74842 0
M  V30 2611 H 263.338 -0.977553 -6.64751 0
M  V30 2612 N 266.058 1.56714 -0.166846 0
M  V30 2613 C 267.021 2.16539 0.751232 0
M  V30 2614 C 268.021 1.11228 1.16125 0
M  V30 2615 O 269.211 1.36765 1.07894 0
M  V30 2616 C 266.343 2.74462 2.02196 0
M  V30 2617 H 267.536 2.99013 0.230499 0
M  V30 2618 H 265.089 1.56081 0.0826982 0
M  V30 2619 H 265.824 1.95709 2.58589 0
M  V30 2620 H 265.609 3.51527 1.73698 0
M  V30 2621 H 267.099 3.20489 2.67725 0
M  V30 2622 N 267.536 -0.106894 1.57237 0
M  V30 2623 C 268.782 -0.808678 1.86633 0
M  V30 2624 C 269.137 -1.76917 0.756178 0
M  V30 2625 O 268.43 -1.90055 -0.242834 0
M  V30 2626 C 268.624 -1.58628 3.20268 0
M  V30 2627 C 268.453 -0.702592 4.44178 0
M  V30 2628 C 267.223 -0.352808 5.04067 0
M  V30 2629 C 269.421 -0.0148031 5.14298 0
M  V30 2630 N 267.403 0.540279 6.11518 0
M  V30 2631 C 268.774 0.736809 6.15606 0
M  V30 2632 C 270.829 0.0603524 4.97863 0
M  V30 2633 C 269.532 1.55654 7.02257 0
M  V30 2634 C 271.558 0.866942 5.85011 0
M  V30 2635 C 270.92 1.60671 6.85831 0
M  V30 2636 H 267.019 -0.27246 0.733001 0
M  V30 2637 H 269.603 -0.0717858 1.94568 0
M  V30 2638 H 267.774 -2.29413 3.13408 0
M  V30 2639 H 269.506 -2.23434 3.3743 0
M  V30 2640 H 266.261 -0.697802 4.68431 0
M  V30 2641 H 266.685 0.979029 6.69884 0
M  V30 2642 H 271.327 -0.497236 4.19866 0
M  V30 2643 H 269.045 2.12524 7.79653 0
M  V30 2644 H 272.631 0.927612 5.74358 0
M  V30 2645 H 271.511 2.2208 7.52097 0
M  V30 2646 N 269.014 -1.53014 -0.377408 0
M  V30 2647 C 270.43 -1.42523 -0.718281 0
M  V30 2648 C 270.63 -0.55487 -1.9371 0
M  V30 2649 O 269.686 -0.0327593 -2.52479 0
M  V30 2650 C 270.999 -2.85546 -0.942539 0
M  V30 2651 C 272.547 -2.95101 -1.04329 0
M  V30 2652 C 273.022 -4.3916 -1.3001 0
M  V30 2653 N 274.513 -4.42536 -1.36806 0
M  V30 2654 C 275.248 -5.51097 -1.58364 0
M  V30 2655 N 274.744 -6.69724 -1.77317 0
M  V30 2656 N 276.537 -5.38657 -1.60638 0
M  V30 2657 H 268.688 -2.08116 0.424426 0
M  V30 2658 H 270.951 -0.939352 0.127759 0
M  V30 2659 H 270.657 -3.51499 -0.118929 0
M  V30 2660 H 270.531 -3.28493 -1.85397 0
M  V30 2661 H 272.918 -2.29309 -1.85745 0
M  V30 2662 H 272.999 -2.55566 -0.109505 0
M  V30 2663 H 272.643 -5.05521 -0.490991 0
M  V30 2664 H 272.573 -4.76258 -2.24691 0
M  V30 2665 H 275.064 -3.57039 -1.23821 0
M  V30 2666 H 275.377 -7.48233 -1.93306 0
M  V30 2667 H 273.722 -6.72732 -1.74518 0
M  V30 2668 H 276.913 -4.44948 -1.45391 0
M  V30 2669 H 277.086 -6.2333 -1.77098 0
M  V30 2670 N 270.492 0.636531 -1.44174 0
M  V30 2671 C 271.424 1.7618 -1.46606 0
M  V30 2672 C 272.437 1.58768 -0.360091 0
M  V30 2673 O 273.626 1.67181 -0.625518 0
M  V30 2674 C 270.726 3.13833 -1.27915 0
M  V30 2675 C 269.899 3.57753 -2.51658 0
M  V30 2676 C 268.958 4.74265 -2.27945 0
M  V30 2677 O 267.984 4.82852 -3.01401 0
M  V30 2678 N 269.186 5.65604 -1.30662 0
M  V30 2679 H 271.951 1.74567 -2.43612 0
M  V30 2680 H 269.512 0.820924 -1.39544 0
M  V30 2681 H 271.504 3.8949 -1.09907 0
M  V30 2682 H 270.074 3.10121 -0.39293 0
M  V30 2683 H 269.294 2.72362 -2.84978 0
M  V30 2684 H 270.582 3.83847 -3.33974 0
M  V30 2685 H 269.98 5.61354 -0.699844 0
M  V30 2686 H 268.537 6.40913 -1.18634 0
M  V30 2687 N 271.97 1.30982 0.876444 0
M  V30 2688 C 273.219 1.19658 1.62373 0
M  V30 2689 C 273.532 -0.245636 1.94052 0
M  V30 2690 O 274.738 -0.48049 2.67214 0
M  V30 2691 C 273.194 2.09433 2.92687 0
M  V30 2692 C 272.802 3.58613 2.68516 0
M  V30 2693 C 274.546 2.06893 3.70669 0
M  V30 2694 C 272.453 4.40416 3.94699 0
M  V30 2695 H 271.383 0.444268 0.609214 0
M  V30 2696 H 274.034 1.55791 0.969605 0
M  V30 2697 H 272.416 1.66191 3.59439 0
M  V30 2698 H 273.59 4.10058 2.10212 0
M  V30 2699 H 271.905 3.63063 2.03898 0
M  V30 2700 H 274.502 2.65258 4.64265 0
M  V30 2701 H 274.845 1.05448 4.02724 0
M  V30 2702 H 275.378 2.48301 3.10792 0
M  V30 2703 H 272.117 5.42591 3.67798 0
M  V30 2704 H 271.637 3.93731 4.52477 0
M  V30 2705 H 273.316 4.52294 4.62644 0
M  V30 2706 N 273.449 -1.08991 1.13837 0
M  V30 2707 C 274.695 -1.81526 0.90422 0
M  V30 2708 C 275.028 -1.85706 -0.568066 0
M  V30 2709 O 274.303 -1.32855 -1.42056 0
M  V30 2710 C 274.586 -3.27447 1.49835 0
M  V30 2711 C 274.439 -3.31512 3.04006 0
M  V30 2712 C 275.758 -4.24256 1.17025 0
M  V30 2713 H 272.877 -0.659029 0.329923 0
M  V30 2714 H 275.519 -1.27644 1.40737 0
M  V30 2715 H 273.669 -3.73462 1.07044 0
M  V30 2716 H 275.341 -2.93867 3.55584 0
M  V30 2717 H 273.584 -2.70963 3.38765 0
M  V30 2718 H 274.255 -4.34329 3.40679 0
M  V30 2719 H 276.731 -3.86549 1.54009 0
M  V30 2720 H 275.607 -5.24684 1.61237 0
M  V30 2721 H 275.868 -4.42019 0.0846274 0
M  V30 2722 N 274.927 -0.932562 -1.27047 0
M  V30 2723 C 275.86 -0.379774 -2.25018 0
M  V30 2724 C 276.838 0.526587 -1.53837 0
M  V30 2725 O 278.022 0.465992 -1.82649 0
M  V30 2726 C 275.149 0.455187 -3.35627 0
M  V30 2727 C 274.195 -0.388428 -4.24728 0
M  V30 2728 S 275.028 -1.80701 -5.04091 0
M  V30 2729 C 276.184 -0.979865 -6.18182 0
M  V30 2730 H 276.417 -1.2101 -2.71558 0
M  V30 2731 H 273.95 -0.735078 -1.35779 0
M  V30 2732 H 275.908 0.931052 -3.99802 0
M  V30 2733 H 274.569 1.26009 -2.87716 0
M  V30 2734 H 273.762 0.25089 -5.03375 0
M  V30 2735 H 273.364 -0.798649 -3.65373 0
M  V30 2736 H 275.656 -0.218115 -6.77149 0
M  V30 2737 H 276.599 -1.73951 -6.86401 0
M  V30 2738 H 277.007 -0.51973 -5.62102 0
M  V30 2739 N 276.405 1.4127 -0.698611 0
M  V30 2740 C 277.653 2.00782 -0.230409 0
M  V30 2741 C 277.974 1.5562 1.17505 0
M  V30 2742 O 277.244 0.78815 1.79346 0
M  V30 2743 H 275.824 0.742464 -0.0821944 0
M  V30 2744 H 278.486 1.72852 -0.90045 0
M  V30 2745 H 277.582 3.11095 -0.25021 0
M  V30 2746 N 277.883 0.443576 1.51229 0
M  V30 2747 C 279.16 -0.181038 1.9476 0
M  V30 2748 C 279.54 -1.59523 1.38259 0
M  V30 2749 O 278.888 -2.2122 0.572198 0
M  V30 2750 C 279.098 -0.152422 3.48667 0
M  V30 2751 C 280.446 -0.354923 4.23114 0
M  V30 2752 O 281.47 -0.230257 3.55455 0
M  V30 2753 O 280.329 -0.603674 5.43156 0
M  V30 2754 H 277.423 -0.1266 0.817252 0
M  V30 2755 H 279.969 0.502004 1.62105 0
M  V30 2756 H 278.741 0.836022 3.82265 0
M  V30 2757 H 278.364 -0.878107 3.87782 0
M  V30 2758 N 279.361 -1.56624 0.175154 0
M  V30 2759 C 280.324 -2.16934 -0.739738 0
M  V30 2760 C 281.324 -1.11842 -1.15533 0
M  V30 2761 O 282.514 -1.37335 -1.07167 0
M  V30 2762 C 279.646 -2.75531 -2.00738 0
M  V30 2763 H 280.839 -2.99131 -0.214639 0
M  V30 2764 H 278.392 -1.56123 -0.0744197 0
M  V30 2765 H 279.127 -1.97078 -2.57548 0
M  V30 2766 H 278.912 -3.52444 -1.71831 0
M  V30 2767 H 280.402 -3.21904 -2.66021 0
M  V30 2768 N 280.839 0.0985539 -1.57292 0
M  V30 2769 C 282.116 0.834155 -1.76921 0
M  V30 2770 C 282.496 1.97101 -0.755928 0
M  V30 2771 O 281.844 2.27474 0.216245 0
M  V30 2772 C 282.054 1.33194 -3.22584 0
M  V30 2773 C 283.402 1.77611 -3.85668 0
M  V30 2774 O 284.426 1.42825 -3.26312 0
M  V30 2775 O 283.285 2.4192 -4.90038 0
M  V30 2776 H 280.379 0.397628 -0.725135 0
M  V30 2777 H 282.925 0.0807044 -1.69508 0
M  V30 2778 H 281.697 0.517248 -3.87866 0
M  V30 2779 H 281.32 2.1475 -3.34616 0
M  V30 2780 N 282.317 1.53212 0.369288 0
M  V30 2781 C 283.563 1.69466 1.11397 0
M  V30 2782 C 283.896 0.443257 1.89074 0
M  V30 2783 O 283.171 -0.559386 1.86282 0
M  V30 2784 C 283.454 2.9422 2.07621 0
M  V30 2785 C 283.307 4.29508 1.33577 0
M  V30 2786 C 284.626 3.14565 3.07794 0
M  V30 2787 H 281.745 0.616667 0.403597 0
M  V30 2788 H 284.387 1.85845 0.395179 0
M  V30 2789 H 282.537 2.80387 2.68916 0
M  V30 2790 H 284.209 4.55147 0.750955 0
M  V30 2791 H 282.452 4.29088 0.637618 0
M  V30 2792 H 283.123 5.12926 2.03989 0
M  V30 2793 H 285.599 3.2756 2.56601 0
M  V30 2794 H 284.475 4.03297 3.72348 0
M  V30 2795 H 284.736 2.29675 3.77759 0
M  V30 2796 N 283.795 -0.628877 1.44509 0
M  V30 2797 C 284.758 -1.72263 1.51188 0
M  V30 2798 C 285.758 -1.55907 0.39367 0
M  V30 2799 O 286.948 -1.61361 0.656377 0
M  V30 2800 C 284.08 -3.11365 1.38798 0
M  V30 2801 H 285.273 -1.67714 2.4862 0
M  V30 2802 H 282.826 -0.842737 1.31634 0
M  V30 2803 H 283.561 -3.21507 0.424693 0
M  V30 2804 H 283.346 -3.24644 2.19884 0
M  V30 2805 H 284.836 -3.91075 1.46458 0
M  V30 2806 N 285.273 -1.31445 -0.869486 0
M  V30 2807 C 286.519 -1.21337 -1.62496 0
M  V30 2808 C 286.852 0.227872 -1.92858 0
M  V30 2809 O 286.127 1.16094 -1.56053 0
M  V30 2810 C 286.41 -2.05814 -2.95487 0
M  V30 2811 C 286.263 -3.5824 -2.72 0
M  V30 2812 C 287.582 -1.9079 -3.96594 0
M  V30 2813 H 284.701 -0.442135 -0.589649 0
M  V30 2814 H 287.343 -1.6124 -1.00507 0
M  V30 2815 H 285.493 -1.71913 -3.48394 0
M  V30 2816 H 287.165 -4.0228 -2.25762 0
M  V30 2817 H 285.408 -3.81647 -2.06224 0
M  V30 2818 H 286.079 -4.12657 -3.66631 0
M  V30 2819 H 288.555 -2.20459 -3.52898 0
M  V30 2820 H 287.431 -2.52199 -4.87531 0
M  V30 2821 H 287.692 -0.871341 -4.33428 0
M  V30 2822 N 286.751 1.08385 -1.14413 0
M  V30 2823 C 287.991 1.8238 -0.922868 0
M  V30 2824 C 288.355 1.84225 0.540842 0
M  V30 2825 O 289.556 2.53985 0.880058 0
M  V30 2826 C 287.827 3.24048 -1.50757 0
M  V30 2827 S 289.386 4.14917 -1.4279 0
M  V30 2828 H 286.204 0.628524 -0.332384 0
M  V30 2829 H 288.806 1.30278 -1.45766 0
M  V30 2830 H 287.51 3.20288 -2.56601 0
M  V30 2831 H 287.041 3.81224 -0.971178 0
M  V30 2832 H 289.056 4.94473 -0.413582 0
M  V30 2833 N 288.23 0.939286 1.26551 0
M  V30 2834 C 289.478 0.58469 1.93457 0
M  V30 2835 C 289.799 -0.878774 1.74076 0
M  V30 2836 O 289.069 -1.62421 1.09528 0
M  V30 2837 H 287.649 0.21325 0.715914 0
M  V30 2838 H 290.311 1.1942 1.54029 0
M  V30 2839 H 289.407 0.800849 3.0165 0
M  V30 2840 N 289.708 -1.40897 0.706093 0
M  V30 2841 C 290.956 -2.00657 0.241054 0
M  V30 2842 C 291.277 -1.56241 -1.16678 0
M  V30 2843 O 290.547 -0.79765 -1.78926 0
M  V30 2844 H 289.127 -0.742018 0.0861308 0
M  V30 2845 H 291.789 -1.72372 0.909604 0
M  V30 2846 H 290.885 -3.10958 0.266705 0
M  V30 2847 N 291.186 -0.45159 -1.50991 0
M  V30 2848 C 292.432 0.110237 -2.025 0
M  V30 2849 C 292.765 1.41109 -1.33424 0
M  V30 2850 O 292.04 1.89135 -0.453659 0
M  V30 2851 C 292.323 0.314271 -3.58726 0
M  V30 2852 C 292.176 -1.00623 -4.38401 0
M  V30 2853 C 293.495 1.07767 -4.26702 0
M  V30 2854 H 290.614 0.0385897 -0.735989 0
M  V30 2855 H 293.256 -0.593374 -1.80497 0
M  V30 2856 H 291.406 0.913601 -3.77605 0
M  V30 2857 H 293.078 -1.64064 -4.31139 0
M  V30 2858 H 291.321 -1.6075 -4.02917 0
M  V30 2859 H 291.992 -0.817341 -5.45915 0
M  V30 2860 H 294.468 0.56986 -4.12179 0
M  V30 2861 H 293.344 1.18921 -5.35863 0
M  V30 2862 H 293.605 2.10939 -3.88532 0
M  V30 2863 N 292.664 1.56529 -0.183458 0
M  V30 2864 C 293.574 2.22144 0.754272 0
M  V30 2865 C 294.59 1.21684 1.24374 0
M  V30 2866 O 295.766 1.54385 1.29333 0
M  V30 2867 C 292.831 2.85884 1.96141 0
M  V30 2868 C 291.892 4.01579 1.51765 0
M  V30 2869 C 291.125 4.6227 2.66725 0
M  V30 2870 O 291.348 4.21865 3.83909 0
M  V30 2871 O 290.282 5.51936 2.40104 0
M  V30 2872 H 294.108 3.02861 0.225527 0
M  V30 2873 H 291.693 1.49331 0.0453032 0
M  V30 2874 H 293.575 3.26253 2.66715 0
M  V30 2875 H 292.25 2.08154 2.47899 0
M  V30 2876 H 291.157 3.65856 0.781049 0
M  V30 2877 H 292.49 4.80938 1.04686 0
M  V30 2878 N 294.142 -0.090211 1.57342 0
M  V30 2879 C 295.39 -0.791241 1.85967 0
M  V30 2880 C 295.711 -1.7903 0.772859 0
M  V30 2881 O 294.981 -1.94872 -0.200398 0
M  V30 2882 H 293.561 -0.295205 0.686195 0
M  V30 2883 H 296.223 -0.0706782 1.94772 0
M  V30 2884 H 295.319 -1.31882 2.82867 0
M  V30 2885 N 295.62 -1.53406 -0.361157 0
M  V30 2886 C 297.031 -1.61442 -0.937728 0
M  V30 2887 C 297.382 -0.48461 -1.90121 0
M  V30 2888 O 296.507 0.388312 -2.12888 0
M  V30 2889 C 297.102 -2.92624 -1.70753 0
M  V30 2890 C 295.661 -3.02981 -2.23337 0
M  V30 2891 C 294.808 -2.5677 -1.04712 0
M  V30 2892 H 297.759 -1.58083 -0.139816 0
M  V30 2893 H 297.78 -2.80675 -2.56908 0
M  V30 2894 H 297.292 -3.74834 -1.00604 0
M  V30 2895 H 295.393 -2.25368 -2.96715 0
M  V30 2896 H 295.506 -4.0814 -2.50916 0
M  V30 2897 H 293.87 -2.11752 -1.41539 0
M  V30 2898 H 294.653 -3.41402 -0.360539 0
M  V30 2899 N 297.098 0.621204 -1.44841 0
M  V30 2900 C 298.347 1.37658 -1.47422 0
M  V30 2901 C 298.66 1.95264 -0.114629 0
M  V30 2902 O 299.866 2.71494 -0.0180199 0
M  V30 2903 C 298.322 2.49285 -2.59586 0
M  V30 2904 C 297.93 1.98149 -4.01797 0
M  V30 2905 C 299.674 3.26409 -2.71399 0
M  V30 2906 C 297.581 3.07178 -5.05367 0
M  V30 2907 H 296.511 0.517344 -0.548517 0
M  V30 2908 H 299.162 0.667257 -1.70938 0
M  V30 2909 H 297.544 3.22839 -2.29328 0
M  V30 2910 H 298.718 1.31395 -4.41669 0
M  V30 2911 H 297.033 1.33812 -3.94314 0
M  V30 2912 H 299.63 4.07706 -3.45948 0
M  V30 2913 H 299.973 3.76535 -1.77559 0
M  V30 2914 H 300.506 2.5995 -3.01116 0
M  V30 2915 H 297.245 2.61985 -6.00869 0
M  V30 2916 H 296.765 3.72542 -4.70077 0
M  V30 2917 H 298.444 3.71789 -5.29511 0
M  V30 2918 N 298.576 1.31904 0.862503 0
M  V30 2919 C 299.486 1.22161 2.00285 0
M  V30 2920 C 300.502 0.136785 1.73462 0
M  V30 2921 O 301.678 0.355994 1.98229 0
M  V30 2922 C 298.743 0.937093 3.33796 0
M  V30 2923 C 297.804 2.10957 3.73893 0
M  V30 2924 C 297.037 1.83853 5.01033 0
M  V30 2925 O 297.26 0.777274 5.65079 0
M  V30 2926 O 296.194 2.69741 5.38074 0
M  V30 2927 H 300.02 2.18008 2.11439 0
M  V30 2928 H 297.605 1.11716 0.991957 0
M  V30 2929 H 299.487 0.794583 4.13841 0
M  V30 2930 H 298.162 0.00871894 3.23699 0
M  V30 2931 H 297.069 2.30752 2.94456 0
M  V30 2932 H 298.402 3.02046 3.88625 0
M  V30 2933 N 300.054 -1.07777 1.14986 0
M  V30 2934 C 301.017 -2.13041 0.845358 0
M  V30 2935 C 302.017 -1.60071 -0.152931 0
M  V30 2936 O 303.207 -1.74033 0.0761879 0
M  V30 2937 C 300.339 -3.39896 0.261383 0
M  V30 2938 H 301.532 -2.41485 1.77834 0
M  V30 2939 H 299.085 -1.23595 0.956757 0
M  V30 2940 H 299.82 -3.17091 -0.68 0
M  V30 2941 H 299.605 -3.79642 0.980514 0
M  V30 2942 H 301.095 -4.17548 0.0657687 0
M  V30 2943 N 301.532 -0.945985 -1.26051 0
M  V30 2944 C 302.462 -0.477172 -2.28572 0
M  V30 2945 C 303.443 0.472032 -1.63419 0
M  V30 2946 O 304.628 0.372853 -1.90587 0
M  V30 2947 C 301.758 0.253975 -3.4637 0
M  V30 2948 C 300.712 -0.609135 -4.23643 0
M  V30 2949 C 300.038 0.252252 -5.34105 0
M  V30 2950 C 301.338 -1.8829 -4.8718 0
M  V30 2951 H 303.032 -1.33402 -2.68038 0
M  V30 2952 H 300.578 -0.642904 -1.28852 0
M  V30 2953 H 302.531 0.593016 -4.17207 0
M  V30 2954 H 301.255 1.145 -3.05871 0
M  V30 2955 H 299.914 -0.931138 -3.54578 0
M  V30 2956 H 299.562 1.14278 -4.89846 0
M  V30 2957 H 299.262 -0.32188 -5.86718 0
M  V30 2958 H 300.786 0.586454 -6.07777 0
M  V30 2959 H 302.2 -1.61081 -5.50205 0
M  V30 2960 H 300.597 -2.40199 -5.49931 0
M  V30 2961 H 301.667 -2.59134 -4.09851 0
M  V30 2962 N 303.011 1.40521 -0.713556 0
M  V30 2963 C 304.422 1.83853 -0.324807 0
M  V30 2964 C 304.773 1.59667 1.14021 0
M  V30 2965 O 303.898 1.07649 1.87725 0
M  V30 2966 C 304.493 3.33751 -0.582746 0
M  V30 2967 C 303.052 3.75584 -0.247727 0
M  V30 2968 C 302.199 2.63753 -0.856121 0
M  V30 2969 H 305.15 1.29817 -0.91286 0
M  V30 2970 H 305.171 3.80194 0.152682 0
M  V30 2971 H 304.683 3.51322 -1.64908 0
M  V30 2972 H 302.784 3.63608 0.813624 0
M  V30 2973 H 302.897 4.7373 -0.715307 0
M  V30 2974 H 301.261 2.53108 -0.28432 0
M  V30 2975 H 302.044 2.84137 -1.92668 0
M  V30 2976 N 304.489 0.459591 1.5075 0
M  V30 2977 C 305.738 -0.100971 2.01447 0
M  V30 2978 C 306.051 -1.41816 1.34713 0
M  V30 2979 O 307.257 -2.06299 1.76502 0
M  V30 2980 C 305.713 -0.23047 3.59161 0
M  V30 2981 C 305.321 1.0776 4.34847 0
M  V30 2982 C 307.065 -0.743608 4.17936 0
M  V30 2983 C 304.972 0.91253 5.84317 0
M  V30 2984 H 303.902 -0.0415102 0.752856 0
M  V30 2985 H 306.553 0.592742 1.73663 0
M  V30 2986 H 304.935 -0.987703 3.83485 0
M  V30 2987 H 306.109 1.8449 4.22256 0
M  V30 2988 H 304.424 1.52097 3.87628 0
M  V30 2989 H 307.021 -0.883959 5.27343 0
M  V30 2990 H 307.364 -1.73196 3.78562 0
M  V30 2991 H 307.897 -0.04408 3.97776 0
M  V30 2992 H 304.636 1.87391 6.28144 0
M  V30 2993 H 304.156 0.185422 5.99513 0
M  V30 2994 H 305.835 0.574547 6.44444 0
M  V30 2995 N 305.967 -1.56429 0.191757 0
M  V30 2996 C 306.93 -2.17707 -0.716688 0
M  V30 2997 C 307.93 -1.13061 -1.14341 0
M  V30 2998 O 309.12 -1.38464 -1.05704 0
M  V30 2999 C 306.252 -2.77644 -1.97804 0
M  V30 3000 H 307.445 -2.99342 -0.1829 0
M  V30 3001 H 304.998 -1.56193 -0.0578566 0
M  V30 3002 H 305.733 -1.99799 -2.55443 0
M  V30 3003 H 305.518 -3.54246 -1.68083 0
M  V30 3004 H 307.008 -3.24708 -2.62592 0
M  V30 3005 N 307.445 0.0818655 -1.57387 0
M  V30 3006 C 308.408 1.08265 -2.02018 0
M  V30 3007 C 309.408 1.32183 -0.915664 0
M  V30 3008 O 310.598 1.28073 -1.18081 0
M  V30 3009 C 307.73 2.42871 -2.39221 0
M  V30 3010 H 308.923 0.698204 -2.91659 0
M  V30 3011 H 306.476 0.327303 -1.52835 0
M  V30 3012 H 307.211 2.86167 -1.52575 0
M  V30 3013 H 306.996 2.26855 -3.19811 0
M  V30 3014 H 308.486 3.14826 -2.74362 0
M  V30 3015 N 308.923 1.53595 0.353017 0
M  V30 3016 C 310.17 1.70385 1.09431 0
M  V30 3017 C 310.498 0.462113 1.88931 0
M  V30 3018 O 309.753 -0.556074 1.87633 0
M  V30 3019 C 310.052 2.91313 2.07054 0
M  V30 3020 C 309.718 4.27308 1.43939 0
M  V30 3021 C 308.38 4.64287 1.26454 0
M  V30 3022 C 310.732 5.11829 0.983883 0
M  V30 3023 C 308.06 5.83412 0.620226 0
M  V30 3024 C 310.412 6.31611 0.353516 0
M  V30 3025 C 309.076 6.67293 0.166272 0
M  V30 3026 H 308.346 0.623484 0.400436 0
M  V30 3027 H 310.993 1.87799 0.374655 0
M  V30 3028 H 309.298 2.68463 2.85368 0
M  V30 3029 H 310.995 3.01497 2.64387 0
M  V30 3030 H 307.585 3.98198 1.58543 0
M  V30 3031 H 311.769 4.838 1.10685 0
M  V30 3032 H 307.025 6.09639 0.463681 0
M  V30 3033 H 311.199 6.964 -0.00757555 0
M  V30 3034 H 308.826 7.59461 -0.335047 0
M  V30 3035 N 310.401 -0.613514 1.45168 0
M  V30 3036 C 311.626 -1.40437 1.52618 0
M  V30 3037 C 312.051 -1.87438 0.157707 0
M  V30 3038 O 311.409 -1.59791 -0.856537 0
M  V30 3039 C 311.457 -2.58894 2.51011 0
M  V30 3040 O 310.561 -3.59326 2.02382 0
M  V30 3041 H 309.902 -0.419506 0.514695 0
M  V30 3042 H 312.432 -0.747215 1.90467 0
M  V30 3043 H 312.442 -3.06214 2.69624 0
M  V30 3044 H 311.117 -2.24032 3.50403 0
M  V30 3045 H 309.694 -3.18695 1.93618 0
M  V30 3046 N 311.879 -1.3236 -0.855495 0
M  V30 3047 C 312.812 -1.15559 -1.96777 0
M  V30 3048 C 313.79 -0.0552681 -1.62506 0
M  V30 3049 O 314.974 -0.214419 -1.87277 0
M  V30 3050 C 312.101 -0.768851 -3.29858 0
M  V30 3051 C 311.147 -1.87429 -3.83109 0
M  V30 3052 S 311.98 -3.48243 -4.06801 0
M  V30 3053 C 313.136 -3.11539 -5.42858 0
M  V30 3054 H 313.369 -2.09717 -2.10727 0
M  V30 3055 H 310.902 -1.17011 -1.00737 0
M  V30 3056 H 312.86 -0.55248 -4.06765 0
M  V30 3057 H 311.521 0.153857 -3.13723 0
M  V30 3058 H 310.714 -1.55667 -4.79358 0
M  V30 3059 H 310.316 -2.04647 -3.13042 0
M  V30 3060 H 312.608 -2.61331 -6.2507 0
M  V30 3061 H 313.551 -4.06806 -5.79582 0
M  V30 3062 H 313.959 -2.48582 -5.06821 0
M  V30 3063 N 313.357 1.07166 -1.15556 0
M  V30 3064 C 314.29 2.13808 -0.797593 0
M  V30 3065 C 315.268 1.6101 0.226812 0
M  V30 3066 O 316.452 1.88161 0.112932 0
M  V30 3067 C 313.579 3.38187 -0.186371 0
M  V30 3068 C 312.625 4.09766 -1.18297 0
M  V30 3069 S 313.458 4.60932 -2.72584 0
M  V30 3070 C 314.614 5.88583 -2.12886 0
M  V30 3071 H 314.847 2.43843 -1.70083 0
M  V30 3072 H 312.38 1.19467 -0.978106 0
M  V30 3073 H 314.338 4.10189 0.159837 0
M  V30 3074 H 312.999 3.06326 0.694489 0
M  V30 3075 H 312.192 4.99065 -0.703562 0
M  V30 3076 H 311.794 3.43736 -1.47381 0
M  V30 3077 H 314.086 6.60866 -1.49208 0
M  V30 3078 H 315.029 6.41241 -3.0036 0
M  V30 3079 H 315.437 5.42194 -1.57116 0
M  V30 3080 N 314.835 0.952656 1.25548 0
M  V30 3081 C 316.251 0.656769 1.4546 0
M  V30 3082 C 316.451 -0.78633 1.85524 0
M  V30 3083 O 315.507 -1.56183 1.98402 0
M  V30 3084 C 316.82 1.62801 2.52817 0
M  V30 3085 C 318.368 1.63897 2.66659 0
M  V30 3086 C 318.843 2.5978 3.77198 0
M  V30 3087 N 320.334 2.58133 3.84606 0
M  V30 3088 C 321.069 3.29003 4.69621 0
M  V30 3089 N 320.565 4.09339 5.58939 0
M  V30 3090 N 322.358 3.179 4.63569 0
M  V30 3091 H 314.509 1.88526 0.978344 0
M  V30 3092 H 316.772 0.810815 0.491206 0
M  V30 3093 H 316.478 2.65869 2.30232 0
M  V30 3094 H 316.352 1.38898 3.50695 0
M  V30 3095 H 318.739 0.615481 2.8861 0
M  V30 3096 H 318.82 1.91858 1.69187 0
M  V30 3097 H 318.464 3.62254 3.55997 0
M  V30 3098 H 318.394 2.29105 4.7415 0
M  V30 3099 H 320.885 1.99809 3.20757 0
M  V30 3100 H 321.198 4.6034 6.20731 0
M  V30 3101 H 319.543 4.13438 5.58654 0
M  V30 3102 H 322.734 2.54612 3.92798 0
M  V30 3103 H 322.907 3.73398 5.29602 0
M  V30 3104 N 316.313 -1.40141 0.720998 0
M  V30 3105 C 317.276 -2.29058 0.0805834 0
M  V30 3106 C 318.276 -1.45632 -0.681758 0
M  V30 3107 O 319.466 -1.6648 -0.512856 0
M  V30 3108 C 316.598 -3.28925 -0.895593 0
M  V30 3109 H 317.791 -2.87191 0.863793 0
M  V30 3110 H 315.344 -1.48553 0.485975 0
M  V30 3111 H 316.079 -2.75822 -1.70566 0
M  V30 3112 H 315.864 -3.90519 -0.351766 0
M  V30 3113 H 317.354 -3.95494 -1.34069 0
M  V30 3114 N 317.792 -0.46758 -1.50504 0
M  V30 3115 C 318.725 0.374324 -2.25109 0
M  V30 3116 C 319.703 0.99921 -1.28275 0
M  V30 3117 O 320.887 1.03583 -1.57489 0
M  V30 3118 C 318.014 1.52419 -3.02467 0
M  V30 3119 C 317.06 1.01702 -4.14197 0
M  V30 3120 S 317.893 -0.0654477 -5.3546 0
M  V30 3121 C 319.049 1.08837 -6.16365 0
M  V30 3122 H 319.282 -0.258983 -2.9617 0
M  V30 3123 H 316.815 -0.252421 -1.52323 0
M  V30 3124 H 318.773 2.18322 -3.47628 0
M  V30 3125 H 317.434 2.129 -2.30938 0
M  V30 3126 H 316.627 1.87776 -4.67714 0
M  V30 3127 H 316.229 0.435757 -3.71453 0
M  V30 3128 H 318.521 2.00071 -6.47285 0
M  V30 3129 H 319.464 0.592538 -7.05616 0
M  V30 3130 H 319.872 1.34061 -5.4835 0
M  V30 3131 N 319.27 1.56325 -0.20005 0
M  V30 3132 C 320.495 2.02548 0.44597 0
M  V30 3133 C 320.92 1.07922 1.5406 0
M  V30 3134 O 320.278 0.0635775 1.81188 0
M  V30 3135 C 320.326 3.47175 0.974761 0
M  V30 3136 O 319.43 3.55671 2.08739 0
M  V30 3137 H 318.771 0.655862 0.103638 0
M  V30 3138 H 321.301 2.02201 -0.312381 0
M  V30 3139 H 321.311 3.87067 1.2901 0
M  V30 3140 H 319.986 4.15538 0.17347 0
M  V30 3141 H 318.563 3.27657 1.78032 0
M  V30 3142 N 320.748 -0.0735177 1.57428 0
M  V30 3143 C 321.976 -0.785969 1.9139 0
M  V30 3144 C 322.391 -1.71207 0.795847 0
M  V30 3145 O 321.748 -1.81033 -0.230915 0
M  V30 3146 C 321.799 -1.58107 3.25091 0
M  V30 3147 O 321.52 -0.6922 4.32597 0
M  V30 3148 C 323.021 -2.39467 3.73055 0
M  V30 3149 H 320.241 -0.223558 0.632663 0
M  V30 3150 H 322.785 -0.044302 2.04452 0
M  V30 3151 H 320.94 -2.27503 3.13562 0
M  V30 3152 H 321.354 -1.24504 5.09508 0
M  V30 3153 H 322.828 -2.90716 4.69242 0
M  V30 3154 H 323.305 -3.18913 3.01979 0
M  V30 3155 H 323.911 -1.7523 3.87523 0
M  V30 3156 N 322.226 -1.5378 -0.344866 0
M  V30 3157 C 323.642 -1.44015 -0.687888 0
M  V30 3158 C 323.842 -0.595834 -1.92489 0
M  V30 3159 O 322.898 -0.0863064 -2.52352 0
M  V30 3160 C 324.211 -2.87481 -0.881758 0
M  V30 3161 C 325.759 -2.97247 -0.980459 0
M  V30 3162 C 326.234 -4.41819 -1.20665 0
M  V30 3163 N 327.725 -4.45339 -1.27389 0
M  V30 3164 C 328.46 -5.54333 -1.46639 0
M  V30 3165 N 327.956 -6.73335 -1.63071 0
M  V30 3166 N 329.749 -5.41944 -1.49176 0
M  V30 3167 H 321.9 -2.07169 0.468475 0
M  V30 3168 H 324.163 -0.93643 0.147655 0
M  V30 3169 H 323.869 -3.51672 -0.0443444 0
M  V30 3170 H 323.743 -3.32352 -1.78388 0
M  V30 3171 H 326.13 -2.33197 -1.8084 0
M  V30 3172 H 326.211 -2.5574 -0.0552713 0
M  V30 3173 H 325.855 -5.06449 -0.383652 0
M  V30 3174 H 325.785 -4.80917 -2.14539 0
M  V30 3175 H 328.276 -3.59585 -1.1622 0
M  V30 3176 H 328.589 -7.52165 -1.77391 0
M  V30 3177 H 326.934 -6.76282 -1.60209 0
M  V30 3178 H 330.125 -4.47932 -1.3592 0
M  V30 3179 H 330.298 -6.26946 -1.63837 0
M  V30 3180 N 323.704 0.605807 -1.45491 0
M  V30 3181 C 324.652 1.73754 -1.54636 0
M  V30 3182 C 325.646 1.64207 -0.416219 0
M  V30 3183 O 326.852 1.69979 -0.592199 0
M  V30 3184 H 323.227 0.574073 -0.485741 0
M  V30 3185 H 325.198 1.63169 -2.49837 0
M  V30 3186 C 323.947 3.12135 -1.53189 0
M  V30 3187 H 323.27 3.20141 -2.39478 0
M  V30 3188 H 324.71 3.91147 -1.63645 0
M  V30 3189 C 323.169 3.35921 -0.256616 0
M  V30 3190 O 323.699 3.96194 0.662798 0
M  V30 3191 N 321.905 2.90204 -0.151751 0
M  V30 3192 H 321.452 2.41336 -0.90081 0
M  V30 3193 H 321.41 3.06492 0.700699 0
M  V30 3194 N 325.182 1.32811 0.848464 0
M  V30 3195 C 326.459 1.14334 1.58704 0
M  V30 3196 C 326.839 -0.293948 2.09043 0
M  V30 3197 O 326.187 -1.29153 1.88499 0
M  V30 3198 C 326.397 2.17626 2.72837 0
M  V30 3199 C 327.745 2.51282 3.42261 0
M  V30 3200 O 328.769 2.16219 2.83068 0
M  V30 3201 O 327.628 3.11413 4.49093 0
M  V30 3202 H 324.722 0.441601 0.699226 0
M  V30 3203 H 327.268 1.44362 0.892053 0
M  V30 3204 H 326.04 3.14211 2.3321 0
M  V30 3205 H 325.663 1.88628 3.50008 0
M  V30 3206 N 326.66 -1.06551 1.16123 0
M  V30 3207 C 327.57 -2.17484 0.879662 0
M  V30 3208 C 328.586 -1.73377 -0.147104 0
M  V30 3209 O 329.762 -2.01379 0.0289128 0
M  V30 3210 C 326.827 -3.44591 0.381829 0
M  V30 3211 C 325.888 -4.0322 1.4735 0
M  V30 3212 C 325.121 -5.24261 0.999324 0
M  V30 3213 O 325.344 -5.70198 -0.151957 0
M  V30 3214 O 324.278 -5.74775 1.78653 0
M  V30 3215 H 328.104 -2.44075 1.80724 0
M  V30 3216 H 325.689 -1.16042 0.940992 0
M  V30 3217 H 327.571 -4.21254 0.111053 0
M  V30 3218 H 326.246 -3.19532 -0.51777 0
M  V30 3219 H 325.153 -3.2806 1.79798 0
M  V30 3220 H 326.486 -4.32568 2.34831 0
M  V30 3221 N 328.138 -0.959301 -1.25041 0
M  V30 3222 C 329.549 -0.65667 -1.74771 0
M  V30 3223 C 329.9 0.827852 -1.77879 0
M  V30 3224 O 329.025 1.64783 -1.40269 0
M  V30 3225 C 329.62 -1.1853 -3.1739 0
M  V30 3226 C 328.179 -0.932734 -3.6466 0
M  V30 3227 C 327.326 -1.32558 -2.43564 0
M  V30 3228 H 330.277 -1.13558 -1.10862 0
M  V30 3229 H 330.298 -0.547582 -3.76539 0
M  V30 3230 H 329.81 -2.26576 -3.15095 0
M  V30 3231 H 327.911 0.13257 -3.72364 0
M  V30 3232 H 328.024 -1.57248 -4.52559 0
M  V30 3233 H 326.388 -0.743956 -2.43593 0
M  V30 3234 H 327.171 -2.41537 -2.43957 0
M  V30 3235 N 329.616 1.39756 -0.72842 0
M  V30 3236 C 330.526 2.34444 -0.0855374 0
M  V30 3237 C 331.542 1.57976 0.729356 0
M  V30 3238 O 332.718 1.90301 0.659346 0
M  V30 3239 C 329.783 3.36965 0.815798 0
M  V30 3240 C 328.844 4.29299 -0.0105996 0
M  V30 3241 C 328.077 5.26923 0.84781 0
M  V30 3242 O 328.3 5.30859 2.08673 0
M  V30 3243 O 327.234 6.01249 0.279969 0
M  V30 3244 H 331.06 2.91065 -0.866892 0
M  V30 3245 H 328.645 1.4117 -0.48902 0
M  V30 3246 H 330.527 3.99804 1.33171 0
M  V30 3247 H 329.202 2.82739 1.57608 0
M  V30 3248 H 328.109 3.69703 -0.571877 0
M  V30 3249 H 329.442 4.86712 -0.73295 0
M  V30 3250 N 331.094 0.475555 1.50254 0
M  V30 3251 C 332.51 0.12997 1.5907 0
M  V30 3252 C 332.71 -1.36385 1.48328 0
M  V30 3253 O 331.766 -2.13754 1.34407 0
M  V30 3254 C 333.079 0.684139 2.92814 0
M  V30 3255 C 334.627 0.647965 3.0622 0
M  V30 3256 C 335.102 1.17975 4.42545 0
M  V30 3257 N 336.593 1.13936 4.48969 0
M  V30 3258 C 337.328 1.52129 5.52851 0
M  V30 3259 N 336.824 1.97793 6.63965 0
M  V30 3260 N 338.617 1.43704 5.4342 0
M  V30 3261 H 330.768 1.44706 1.55479 0
M  V30 3262 H 333.031 0.598691 0.735033 0
M  V30 3263 H 332.737 1.73079 3.06164 0
M  V30 3264 H 332.611 0.130204 3.76975 0
M  V30 3265 H 334.998 -0.38979 2.92514 0
M  V30 3266 H 335.079 1.23876 2.23805 0
M  V30 3267 H 334.723 2.21616 4.57 0
M  V30 3268 H 334.653 0.565138 5.23559 0
M  V30 3269 H 337.144 0.804488 3.69238 0
M  V30 3270 H 337.457 2.25072 7.39299 0
M  V30 3271 H 335.802 2.01749 6.65073 0
M  V30 3272 H 338.993 1.07867 4.55502 0
M  V30 3273 H 339.166 1.73794 6.24259 0
M  V30 3274 N 332.573 -1.56217 0.208337 0
M  V30 3275 C 333.536 -2.18455 -0.693557 0
M  V30 3276 C 334.536 -1.14268 -1.13135 0
M  V30 3277 O 335.726 -1.39577 -1.0423 0
M  V30 3278 C 332.858 -2.79727 -1.94848 0
M  V30 3279 H 334.051 -2.99519 -0.15114 0
M  V30 3280 H 331.604 -1.56245 -0.041287 0
M  V30 3281 H 332.339 -2.02497 -2.53309 0
M  V30 3282 H 332.124 -3.56009 -1.64316 0
M  V30 3283 H 333.614 -3.27475 -2.59133 0
M  V30 3284 N 334.051 0.0651679 -1.57465 0
M  V30 3285 C 335.276 0.779605 -1.9219 0
M  V30 3286 C 335.701 1.69988 -0.805333 0
M  V30 3287 O 335.059 1.79685 0.241435 0
M  V30 3288 C 335.107 1.54364 -3.2589 0
M  V30 3289 O 334.211 2.65474 -3.1559 0
M  V30 3290 H 333.552 0.212249 -0.629163 0
M  V30 3291 H 336.082 0.0314294 -2.04576 0
M  V30 3292 H 336.092 1.92146 -3.59922 0
M  V30 3293 H 334.767 0.868457 -4.06732 0
M  V30 3294 H 333.344 2.30501 -2.93128 0
M  V30 3295 N 335.529 1.53961 0.336706 0
M  V30 3296 C 336.945 1.44378 0.680241 0
M  V30 3297 C 337.145 0.606034 1.9217 0
M  V30 3298 O 336.201 0.099688 2.52303 0
M  V30 3299 C 337.514 2.87945 0.8665 0
M  V30 3300 C 339.062 2.97763 0.964682 0
M  V30 3301 C 339.537 4.42453 1.18321 0
M  V30 3302 N 341.028 4.46008 1.25025 0
M  V30 3303 C 341.763 5.55102 1.43697 0
M  V30 3304 N 341.259 6.7419 1.59498 0
M  V30 3305 N 343.052 5.42727 1.463 0
M  V30 3306 H 335.203 2.06918 -0.479455 0
M  V30 3307 H 337.466 0.935634 -0.152619 0
M  V30 3308 H 337.172 3.51691 0.0256937 0
M  V30 3309 H 337.046 3.33293 1.76623 0
M  V30 3310 H 339.433 2.34153 1.796 0
M  V30 3311 H 339.514 2.55766 0.041708 0
M  V30 3312 H 339.158 5.06645 0.356788 0
M  V30 3313 H 339.088 4.82048 2.11985 0
M  V30 3314 H 341.579 3.60196 1.14312 0
M  V30 3315 H 341.892 7.53095 1.734 0
M  V30 3316 H 340.237 6.77123 1.56621 0
M  V30 3317 H 343.428 4.48647 1.33543 0
M  V30 3318 H 343.601 6.27806 1.6051 0
M  V30 3319 N 337.007 -0.598083 1.45811 0
M  V30 3320 C 338.418 -1.18011 1.44673 0
M  V30 3321 C 338.769 -1.95378 0.179364 0
M  V30 3322 O 337.894 -2.04124 -0.718509 0
M  V30 3323 C 338.489 -2.14677 2.62105 0
M  V30 3324 C 337.048 -2.68236 2.64057 0
M  V30 3325 C 336.195 -1.43816 2.37091 0
M  V30 3326 H 339.146 -0.38686 1.53913 0
M  V30 3327 H 339.167 -2.97878 2.36746 0
M  V30 3328 H 338.679 -1.5834 3.5433 0
M  V30 3329 H 336.78 -3.28486 1.75864 0
M  V30 3330 H 336.893 -3.12021 3.63566 0
M  V30 3331 H 335.257 -1.731 1.86838 0
M  V30 3332 H 336.04 -0.893333 3.31473 0
M  V30 3333 N 338.485 -1.33259 -0.841409 0
M  V30 3334 C 339.732 -1.24572 -1.5965 0
M  V30 3335 C 340.06 0.189137 -1.93578 0
M  V30 3336 O 339.315 1.14566 -1.5866 0
M  V30 3337 C 339.614 -2.06381 -2.9179 0
M  V30 3338 C 339.28 -3.556 -2.77235 0
M  V30 3339 C 337.942 -3.96282 -2.72973 0
M  V30 3340 C 340.294 -4.50433 -2.62221 0
M  V30 3341 C 337.622 -5.30017 -2.51592 0
M  V30 3342 C 339.974 -5.84327 -2.42374 0
M  V30 3343 C 338.638 -6.24194 -2.36512 0
M  V30 3344 H 337.908 -0.455842 -0.5842 0
M  V30 3345 H 340.555 -1.6482 -0.975016 0
M  V30 3346 H 338.86 -1.58903 -3.5813 0
M  V30 3347 H 340.557 -1.97019 -3.49263 0
M  V30 3348 H 337.147 -3.23298 -2.81384 0
M  V30 3349 H 341.331 -4.19914 -2.64549 0
M  V30 3350 H 336.587 -5.59947 -2.45499 0
M  V30 3351 H 340.761 -6.57414 -2.29739 0
M  V30 3352 H 338.388 -7.27759 -2.19706 0
M  V30 3353 N 339.963 1.05934 -1.16686 0
M  V30 3354 C 341.24 1.75643 -0.860747 0
M  V30 3355 C 341.62 2.01144 0.640641 0
M  V30 3356 O 340.968 1.64147 1.58959 0
M  V30 3357 C 341.178 3.05493 -1.68745 0
M  V30 3358 C 342.526 3.79581 -1.90271 0
M  V30 3359 O 343.55 3.15344 -1.65641 0
M  V30 3360 O 342.409 4.9499 -2.31618 0
M  V30 3361 H 339.503 0.763426 -0.317977 0
M  V30 3362 H 342.049 1.1217 -1.27342 0
M  V30 3363 H 340.821 2.8264 -2.70611 0
M  V30 3364 H 340.444 3.76702 -1.27206 0
M  V30 3365 N 341.441 0.965919 1.2453 0
M  V30 3366 C 342.388 0.49402 2.25451 0
M  V30 3367 C 343.358 -0.45948 1.59618 0
M  V30 3368 O 344.543 -0.370238 1.87173 0
M  V30 3369 C 341.683 -0.211359 3.44452 0
M  V30 3370 C 340.796 0.7807 4.24887 0
M  V30 3371 C 339.931 0.0516105 5.31175 0
M  V30 3372 C 338.97 1.03385 6.03306 0
M  V30 3373 N 338.107 0.334887 7.01301 0
M  V30 3374 H 342.947 1.35946 2.65184 0
M  V30 3375 H 340.484 0.681515 1.3036 0
M  V30 3376 H 342.442 -0.637 4.12308 0
M  V30 3377 H 341.072 -1.04077 3.05562 0
M  V30 3378 H 340.124 1.32479 3.56586 0
M  V30 3379 H 341.436 1.52978 4.74762 0
M  V30 3380 H 340.59 -0.432114 6.05159 0
M  V30 3381 H 339.329 -0.730179 4.82203 0
M  V30 3382 H 338.334 1.52847 5.28127 0
M  V30 3383 H 339.559 1.81606 6.54367 0
M  V30 3384 H 337.505 -0.427959 6.54603 0
M  V30 3385 H 337.422 1.02287 7.49048 0
M  V30 3386 H 338.69 -0.126928 7.79397 0
M  V30 3387 N 342.919 -1.39368 0.735821 0
M  V30 3388 C 344.196 -1.94465 0.210395 0
M  V30 3389 C 344.576 -1.67254 -1.28799 0
M  V30 3390 O 343.924 -1.00123 -2.05396 0
M  V30 3391 C 344.134 -3.4472 0.544897 0
M  V30 3392 C 345.482 -4.21708 0.494689 0
M  V30 3393 O 346.506 -3.52922 0.482136 0
M  V30 3394 O 345.365 -5.44299 0.489947 0
M  V30 3395 H 342.459 -0.826096 0.0386666 0
M  V30 3396 H 345.005 -1.48863 0.814735 0
M  V30 3397 H 343.777 -3.57963 1.58045 0
M  V30 3398 H 343.4 -3.97502 -0.08837 0
M  V30 3399 N 344.397 -0.483516 -1.5 0
M  V30 3400 C 345.813 -0.138404 -1.58999 0
M  V30 3401 C 346.013 1.35597 -1.4905 0
M  V30 3402 O 345.069 2.13039 -1.35539 0
M  V30 3403 C 346.382 -0.699658 -2.92447 0
M  V30 3404 C 347.93 -0.664195 -3.05872 0
M  V30 3405 C 348.405 -1.20321 -4.41913 0
M  V30 3406 N 349.896 -1.16315 -4.48358 0
M  V30 3407 C 350.631 -1.55058 -5.52037 0
M  V30 3408 N 350.127 -2.01311 -6.62907 0
M  V30 3409 N 351.92 -1.46584 -5.42651 0
M  V30 3410 H 344.071 -1.45529 -1.5471 0
M  V30 3411 H 346.334 -0.60258 -0.731848 0
M  V30 3412 H 346.04 -1.747 -3.05242 0
M  V30 3413 H 345.914 -0.150194 -3.76901 0
M  V30 3414 H 348.301 0.374272 -2.92717 0
M  V30 3415 H 348.382 -1.25061 -2.23144 0
M  V30 3416 H 348.026 -2.24037 -4.55818 0
M  V30 3417 H 347.956 -0.592896 -5.23252 0
M  V30 3418 H 350.447 -0.824058 -3.68806 0
M  V30 3419 H 350.76 -2.2899 -7.38095 0
M  V30 3420 H 349.105 -2.05273 -6.63994 0
M  V30 3421 H 352.296 -1.10281 -4.54924 0
M  V30 3422 H 352.469 -1.77103 -6.23329 0
M  V30 3423 N 345.875 1.56104 -0.216619 0
M  V30 3424 C 347.152 1.89988 0.465165 0
M  V30 3425 C 347.532 1.13326 1.78102 0
M  V30 3426 O 346.88 0.241033 2.27225 0
M  V30 3427 C 347.09 3.42646 0.662939 0
M  V30 3428 C 348.438 4.13311 0.972602 0
M  V30 3429 O 349.462 3.48217 0.749901 0
M  V30 3430 O 348.321 5.28396 1.39499 0
M  V30 3431 H 345.415 0.78979 0.245276 0
M  V30 3432 H 347.961 1.67721 -0.258436 0
M  V30 3433 H 346.733 3.90399 -0.26543 0
M  V30 3434 H 346.356 3.70677 1.43821 0
M  V30 3435 N 347.353 -0.0568162 1.57498 0
M  V30 3436 C 348.601 -0.751617 1.87604 0
M  V30 3437 C 348.922 -1.77351 0.81066 0
M  V30 3438 O 348.192 -1.95254 -0.159018 0
M  V30 3439 H 346.772 -0.280583 0.692302 0
M  V30 3440 H 349.434 -0.0293483 1.94878 0
M  V30 3441 H 348.53 -1.25852 2.856 0
M  V30 3442 N 348.832 -1.54138 -0.328536 0
M  V30 3443 C 350.079 -1.72105 -1.06706 0
M  V30 3444 C 350.407 -0.492111 -1.88171 0
M  V30 3445 O 349.662 0.526153 -1.88494 0
M  V30 3446 C 349.961 -2.9457 -2.02393 0
M  V30 3447 C 349.627 -4.29544 -1.37122 0
M  V30 3448 C 348.289 -4.6624 -1.19052 0
M  V30 3449 C 350.641 -5.1333 -0.902331 0
M  V30 3450 C 347.969 -5.84325 -0.527331 0
M  V30 3451 C 350.321 -6.32094 -0.252988 0
M  V30 3452 C 348.985 -6.67473 -0.0600901 0
M  V30 3453 H 348.255 -0.629775 -0.390466 0
M  V30 3454 H 350.902 -1.88372 -0.34473 0
M  V30 3455 H 349.207 -2.72969 -2.81061 0
M  V30 3456 H 350.904 -3.05665 -2.59557 0
M  V30 3457 H 347.494 -4.0067 -1.52188 0
M  V30 3458 H 351.678 -4.855 -1.02974 0
M  V30 3459 H 346.934 -6.103 -0.366634 0
M  V30 3460 H 351.108 -6.96299 0.118366 0
M  V30 3461 H 348.735 -7.58832 0.455828 0
M  V30 3462 N 350.31 0.590341 -1.46126 0
M  V30 3463 C 351.556 1.35082 -1.51264 0
M  V30 3464 C 351.889 1.93534 -0.160711 0
M  V30 3465 O 351.164 1.76045 0.826956 0
M  V30 3466 C 351.447 2.48588 -2.6053 0
M  V30 3467 C 351.3 1.95221 -4.05227 0
M  V30 3468 C 352.619 3.50662 -2.6594 0
M  V30 3469 H 349.738 0.489803 -0.550692 0
M  V30 3470 H 352.38 0.663887 -1.78024 0
M  V30 3471 H 350.53 3.07186 -2.37843 0
M  V30 3472 H 352.202 1.41139 -4.39178 0
M  V30 3473 H 350.445 1.26101 -4.15068 0
M  V30 3474 H 351.116 2.77121 -4.77397 0
M  V30 3475 H 353.592 3.01934 -2.86313 0
M  V30 3476 H 352.468 4.27551 -3.44226 0
M  V30 3477 H 352.729 4.07399 -1.71694 0
M  V30 3478 N 351.788 1.33704 0.83433 0
M  V30 3479 C 353.035 1.25417 1.58987 0
M  V30 3480 C 353.363 -0.178869 1.93676 0
M  V30 3481 O 352.618 -1.13723 1.59265 0
M  V30 3482 C 352.917 2.07926 2.90692 0
M  V30 3483 C 352.583 3.57066 2.75345 0
M  V30 3484 C 351.245 3.97724 2.70867 0
M  V30 3485 C 353.597 4.51817 2.59828 0
M  V30 3486 C 350.925 5.31344 2.48778 0
M  V30 3487 C 353.277 5.85604 2.39272 0
M  V30 3488 C 351.941 6.25439 2.33199 0
M  V30 3489 H 351.211 0.458934 0.581774 0
M  V30 3490 H 353.858 1.65335 0.966261 0
M  V30 3491 H 352.163 1.608 3.57282 0
M  V30 3492 H 353.86 1.98868 3.48213 0
M  V30 3493 H 350.45 3.24785 2.79665 0
M  V30 3494 H 354.634 4.21311 2.62319 0
M  V30 3495 H 349.89 5.61241 2.42526 0
M  V30 3496 H 354.064 6.58623 2.2625 0
M  V30 3497 H 351.691 7.28914 2.15843 0
M  V30 3498 N 353.266 -1.05314 1.17247 0
M  V30 3499 C 354.514 -1.77941 0.958194 0
M  V30 3500 C 354.835 -1.88089 -0.514556 0
M  V30 3501 O 354.105 -1.39676 -1.37359 0
M  V30 3502 H 352.685 -0.659116 0.351533 0
M  V30 3503 H 355.347 -1.27166 1.47699 0
M  V30 3504 H 354.443 -2.79663 1.38546 0
M  V30 3505 N 354.744 -0.972509 -1.24016 0
M  V30 3506 C 355.654 -0.5143 -2.28893 0
M  V30 3507 C 356.67 0.427078 -1.68677 0
M  V30 3508 O 357.846 0.298939 -1.99169 0
M  V30 3509 C 354.911 0.183598 -3.46214 0
M  V30 3510 C 353.972 -0.798202 -4.21814 0
M  V30 3511 C 353.205 -0.133514 -5.33533 0
M  V30 3512 O 353.428 1.07714 -5.60137 0
M  V30 3513 O 352.362 -0.828103 -5.96176 0
M  V30 3514 H 356.188 -1.38629 -2.70214 0
M  V30 3515 H 353.773 -0.739769 -1.29799 0
M  V30 3516 H 355.655 0.575433 -4.17453 0
M  V30 3517 H 354.33 1.03048 -3.0686 0
M  V30 3518 H 353.237 -1.24059 -3.52931 0
M  V30 3519 H 354.57 -1.61364 -4.64997 0
M  V30 3520 N 356.222 1.38976 -0.743202 0
M  V30 3521 C 357.185 2.28901 -0.117014 0
M  V30 3522 C 358.185 1.46698 0.658503 0
M  V30 3523 O 359.375 1.67274 0.486305 0
M  V30 3524 C 356.507 3.30309 0.84315 0
M  V30 3525 H 357.7 2.8578 -0.909373 0
M  V30 3526 H 355.253 1.47761 -0.509547 0
M  V30 3527 H 355.988 2.785 1.66157 0
M  V30 3528 H 355.773 3.91029 0.289594 0
M  V30 3529 H 357.263 3.97577 1.2776 0
M  V30 3530 N 357.7 0.491464 1.49741 0
M  V30 3531 C 358.948 -0.0563141 2.02022 0
M  V30 3532 C 359.269 -1.38363 1.37407 0
M  V30 3533 O 358.539 -1.88702 0.526166 0
M  V30 3534 H 357.119 -0.0238014 0.746621 0
M  V30 3535 H 359.781 0.646533 1.83864 0
M  V30 3536 H 358.877 -0.192967 3.11503 0
M  V30 3537 N 359.178 -1.55987 0.224894 0
M  V30 3538 C 360.141 -2.19178 -0.670348 0
M  V30 3539 C 361.141 -1.15461 -1.11917 0
M  V30 3540 O 362.331 -1.40675 -1.02743 0
M  V30 3541 C 359.463 -2.81777 -1.9187 0
M  V30 3542 H 360.656 -2.99662 -0.119364 0
M  V30 3543 H 358.209 -1.5628 -0.0247128 0
M  V30 3544 H 358.944 -2.05172 -2.51147 0
M  V30 3545 H 358.729 -3.57732 -1.60531 0
M  V30 3546 H 360.219 -3.30205 -2.55645 0
M  V30 3547 N 360.656 0.0484629 -1.57525 0
M  V30 3548 C 361.586 1.0549 -2.08313 0
M  V30 3549 C 362.567 1.38929 -0.981463 0
M  V30 3550 O 363.752 1.48151 -1.25558 0
M  V30 3551 C 360.882 2.36162 -2.54646 0
M  V30 3552 C 359.836 2.17016 -3.68901 0
M  V30 3553 C 359.162 3.53278 -4.01371 0
M  V30 3554 C 360.462 1.57219 -4.98076 0
M  V30 3555 H 362.156 0.632195 -2.92649 0
M  V30 3556 H 359.702 0.302654 -1.40784 0
M  V30 3557 H 361.655 3.06882 -2.88793 0
M  V30 3558 H 360.379 2.80456 -1.67368 0
M  V30 3559 H 359.038 1.48733 -3.35073 0
M  V30 3560 H 358.686 3.95185 -3.11188 0
M  V30 3561 H 358.386 3.41299 -4.78318 0
M  V30 3562 H 359.91 4.25391 -4.38035 0
M  V30 3563 H 361.324 2.17832 -5.30304 0
M  V30 3564 H 359.721 1.55871 -5.79503 0
M  V30 3565 H 360.791 0.535956 -4.81929 0
M  V30 3566 N 362.134 1.5431 0.320358 0
M  V30 3567 C 363.067 1.78769 1.41834 0
M  V30 3568 C 364.045 0.63783 1.49568 0
M  V30 3569 O 365.229 0.875628 1.66928 0
M  V30 3570 C 362.356 1.90712 2.79905 0
M  V30 3571 C 361.402 3.13023 2.89687 0
M  V30 3572 S 362.235 4.71554 2.53766 0
M  V30 3573 C 363.391 4.86408 3.93902 0
M  V30 3574 H 363.624 2.71619 1.20874 0
M  V30 3575 H 361.157 1.45474 0.517377 0
M  V30 3576 H 363.115 1.98279 3.59438 0
M  V30 3577 H 361.776 0.988343 2.98145 0
M  V30 3578 H 360.969 3.18124 3.90913 0
M  V30 3579 H 360.571 3.03803 2.18128 0
M  V30 3580 H 362.863 4.69241 4.88691 0
M  V30 3581 H 363.806 5.88508 3.93782 0
M  V30 3582 H 364.214 4.14689 3.83005 0
M  V30 3583 N 363.613 -0.582584 1.46437 0
M  V30 3584 C 364.543 -1.70187 1.59871 0
M  V30 3585 C 365.524 -1.64066 0.449042 0
M  V30 3586 O 366.709 -1.82081 0.6753 0
M  V30 3587 C 363.839 -3.08827 1.58881 0
M  V30 3588 C 362.793 -3.29779 2.72819 0
M  V30 3589 C 362.119 -4.68947 2.5689 0
M  V30 3590 C 363.419 -3.17601 4.1464 0
M  V30 3591 H 365.113 -1.592 2.53566 0
M  V30 3592 H 362.659 -0.764472 1.22032 0
M  V30 3593 H 364.612 -3.86951 1.66873 0
M  V30 3594 H 363.336 -3.20713 0.617306 0
M  V30 3595 H 361.995 -2.54054 2.64296 0
M  V30 3596 H 361.643 -4.77599 1.57823 0
M  V30 3597 H 361.343 -4.83919 3.33312 0
M  V30 3598 H 362.867 -5.4924 2.66773 0
M  V30 3599 H 364.281 -3.8557 4.24274 0
M  V30 3600 H 362.678 -3.44094 4.9165 0
M  V30 3601 H 363.748 -2.14681 4.34788 0
M  V30 3602 N 365.091 -1.34144 -0.827227 0
M  V30 3603 C 366.34 -1.25602 -1.5782 0
M  V30 3604 C 366.653 0.173445 -1.94829 0
M  V30 3605 O 367.859 0.380984 -2.68814 0
M  V30 3606 C 366.315 -2.20151 -2.84713 0
M  V30 3607 C 365.923 -3.68331 -2.55021 0
M  V30 3608 C 367.667 -2.20508 -3.62735 0
M  V30 3609 C 365.574 -4.54762 -3.78082 0
M  V30 3610 H 364.504 -0.466573 -0.592306 0
M  V30 3611 H 367.155 -1.59283 -0.911116 0
M  V30 3612 H 365.537 -1.79417 -3.53023 0
M  V30 3613 H 366.711 -4.17577 -1.94849 0
M  V30 3614 H 365.026 -3.7038 -1.90283 0
M  V30 3615 H 367.623 -2.82306 -4.54101 0
M  V30 3616 H 367.966 -1.20322 -3.98533 0
M  V30 3617 H 368.499 -2.59664 -3.01362 0
M  V30 3618 H 365.238 -5.55867 -3.47407 0
M  V30 3619 H 364.758 -4.10254 -4.37552 0
M  V30 3620 H 366.437 -4.69153 -4.45538 0
M  V30 3621 N 366.569 1.04691 -1.17803 0
M  V30 3622 C 367.479 2.16057 -0.914151 0
M  V30 3623 C 368.495 1.73589 0.119503 0
M  V30 3624 O 369.671 2.01308 -0.0609468 0
M  V30 3625 C 366.736 3.4394 -0.436603 0
M  V30 3626 C 365.797 4.00825 -1.53746 0
M  V30 3627 C 365.03 5.22604 -1.0826 0
M  V30 3628 O 365.253 5.70367 0.0612244 0
M  V30 3629 O 364.187 5.7186 -1.87775 0
M  V30 3630 H 368.013 2.41169 -1.84584 0
M  V30 3631 H 365.598 1.1453 -0.959334 0
M  V30 3632 H 367.48 4.21024 -0.178057 0
M  V30 3633 H 366.155 3.20316 0.466869 0
M  V30 3634 H 365.062 3.25158 -1.84995 0
M  V30 3635 H 366.395 4.28778 -2.41683 0
M  V30 3636 N 368.047 0.979072 1.23499 0
M  V30 3637 C 369.275 0.665202 1.95915 0
M  V30 3638 C 369.69 -0.767571 1.72493 0
M  V30 3639 O 369.047 -1.51635 1.01554 0
M  V30 3640 C 369.098 0.944438 3.48945 0
M  V30 3641 O 368.819 2.3209 3.71572 0
M  V30 3642 C 370.32 0.646336 4.38563 0
M  V30 3643 H 367.54 0.247218 0.623798 0
M  V30 3644 H 370.084 1.31009 1.57025 0
M  V30 3645 H 368.239 0.345575 3.85856 0
M  V30 3646 H 368.653 2.40957 4.65876 0
M  V30 3647 H 370.127 0.892091 5.44744 0
M  V30 3648 H 370.604 -0.419575 4.37191 0
M  V30 3649 H 371.21 1.22562 4.07258 0
M  V30 3650 N 369.525 -1.3858 0.750561 0
M  V30 3651 C 370.435 -2.34278 0.122825 0
M  V30 3652 C 371.451 -1.59116 -0.704131 0
M  V30 3653 O 372.627 -1.91326 -0.628987 0
M  V30 3654 C 369.692 -3.38221 -0.762086 0
M  V30 3655 C 368.753 -4.29227 0.078896 0
M  V30 3656 C 367.986 -5.28205 -0.763874 0
M  V30 3657 O 368.209 -5.34112 -2.00201 0
M  V30 3658 O 367.143 -6.01618 -0.18428 0
M  V30 3659 H 370.969 -2.89649 0.913088 0
M  V30 3660 H 368.554 -1.40374 0.511417 0
M  V30 3661 H 370.436 -4.01872 -1.26793 0
M  V30 3662 H 369.111 -2.85211 -1.5309 0
M  V30 3663 H 368.018 -3.68747 0.630621 0
M  V30 3664 H 369.351 -4.85484 0.810289 0
M  V30 3665 N 371.003 -0.499398 -1.49478 0
M  V30 3666 C 371.913 0.284489 -2.32869 0
M  V30 3667 C 372.929 0.968885 -1.44529 0
M  V30 3668 O 374.105 0.95062 -1.77553 0
M  V30 3669 C 371.17 1.33594 -3.19928 0
M  V30 3670 C 370.231 0.665149 -4.24116 0
M  V30 3671 C 369.464 1.6665 -5.07014 0
M  V30 3672 O 369.687 2.89618 -4.91404 0
M  V30 3673 O 368.621 1.22271 -5.8935 0
M  V30 3674 H 372.447 -0.39802 -3.01081 0
M  V30 3675 H 370.032 -0.260758 -1.47107 0
M  V30 3676 H 371.914 1.94431 -3.73864 0
M  V30 3677 H 370.589 2.0014 -2.54412 0
M  V30 3678 H 369.496 0.0170769 -3.74096 0
M  V30 3679 H 370.829 0.0421555 -4.92182 0
M  V30 3680 N 372.481 1.55866 -0.233164 0
M  V30 3681 C 373.431 2.17442 0.685774 0
M  V30 3682 C 374.415 1.12617 1.14918 0
M  V30 3683 O 375.607 1.3857 1.10124 0
M  V30 3684 C 372.736 2.86685 1.88856 0
M  V30 3685 C 371.822 3.98749 1.4443 0
M  V30 3686 N 372.213 5.00744 0.713364 0
M  V30 3687 C 370.511 4.11052 1.73068 0
M  V30 3688 C 371.212 5.79673 0.485205 0
M  V30 3689 N 370.188 5.33454 1.04536 0
M  V30 3690 H 373.99 2.93659 0.119022 0
M  V30 3691 H 371.504 1.62362 -0.0348995 0
M  V30 3692 H 373.501 3.29218 2.55776 0
M  V30 3693 H 372.161 2.11967 2.45967 0
M  V30 3694 H 373.172 5.16613 0.364861 0
M  V30 3695 H 369.849 3.47495 2.31416 0
M  V30 3696 H 371.239 6.71829 -0.097365 0
M  V30 3697 N 373.959 -0.0401083 1.57549 0
M  V30 3698 C 374.922 -1.02871 2.04817 0
M  V30 3699 C 375.922 -1.29708 0.950388 0
M  V30 3700 O 377.112 -1.24897 1.21435 0
M  V30 3701 C 374.244 -2.36443 2.45576 0
M  V30 3702 H 375.437 -0.620631 2.93408 0
M  V30 3703 H 372.99 -0.286667 1.53649 0
M  V30 3704 H 373.725 -2.82021 1.60108 0
M  V30 3705 H 373.51 -2.18296 3.25713 0
M  V30 3706 H 375 -3.07441 2.82612 0
M  V30 3707 N 375.437 -1.54477 -0.31217 0
M  V30 3708 C 376.384 -1.84655 -1.38461 0
M  V30 3709 C 377.354 -0.694536 -1.50882 0
M  V30 3710 O 378.539 -0.942081 -1.6592 0
M  V30 3711 C 375.679 -2.0896 -2.74645 0
M  V30 3712 C 374.792 -3.36618 -2.70763 0
M  V30 3713 C 373.927 -3.50824 -3.98868 0
M  V30 3714 C 372.966 -4.72315 -3.89339 0
M  V30 3715 N 372.103 -4.83387 -5.09197 0
M  V30 3716 H 376.943 -2.76142 -1.12026 0
M  V30 3717 H 374.48 -1.36748 -0.542065 0
M  V30 3718 H 376.438 -2.21045 -3.53829 0
M  V30 3719 H 375.068 -1.20752 -2.99364 0
M  V30 3720 H 374.12 -3.33211 -1.83506 0
M  V30 3721 H 375.432 -4.25917 -2.59608 0
M  V30 3722 H 374.586 -3.62513 -4.86486 0
M  V30 3723 H 373.325 -2.59638 -4.12843 0
M  V30 3724 H 372.33 -4.6067 -3.00105 0
M  V30 3725 H 373.555 -5.64897 -3.76919 0
M  V30 3726 H 371.501 -3.9512 -5.23657 0
M  V30 3727 H 371.418 -5.66669 -5.00422 0
M  V30 3728 H 372.686 -4.9942 -5.98498 0
M  V30 3729 N 376.915 0.57481 -1.46744 0
M  V30 3730 C 377.878 1.66533 -1.57478 0
M  V30 3731 C 378.878 1.54338 -0.451263 0
M  V30 3732 O 380.068 1.58814 -0.715813 0
M  V30 3733 C 377.2 3.05999 -1.50259 0
M  V30 3734 H 378.393 1.58372 -2.54673 0
M  V30 3735 H 375.946 0.793301 -1.34672 0
M  V30 3736 H 376.681 3.19709 -0.543725 0
M  V30 3737 H 376.466 3.16259 -2.31781 0
M  V30 3738 H 377.956 3.8537 -1.60872 0
M  V30 3739 N 378.394 1.34581 0.820102 0
M  V30 3740 C 379.81 1.14325 1.11364 0
M  V30 3741 C 380.01 -0.0533648 2.01429 0
M  V30 3742 O 379.066 -0.728044 2.41776 0
M  V30 3743 C 380.379 2.43983 1.75764 0
M  V30 3744 C 381.927 2.50065 1.88246 0
M  V30 3745 C 382.402 3.79732 2.56061 0
M  V30 3746 N 383.893 3.80908 2.63558 0
M  V30 3747 C 384.628 4.77961 3.16766 0
M  V30 3748 N 384.124 5.85397 3.70517 0
M  V30 3749 N 385.917 4.65413 3.15194 0
M  V30 3750 H 378.068 2.11246 0.221096 0
M  V30 3751 H 380.331 0.934289 0.160649 0
M  V30 3752 H 380.037 3.31651 1.1705 0
M  V30 3753 H 379.911 2.57531 2.75604 0
M  V30 3754 H 382.298 1.62834 2.46108 0
M  V30 3755 H 382.379 2.40442 0.873006 0
M  V30 3756 H 382.023 4.67354 1.98853 0
M  V30 3757 H 381.953 3.86639 3.57516 0
M  V30 3758 H 384.444 3.03274 2.25463 0
M  V30 3759 H 384.757 6.55463 4.09376 0
M  V30 3760 H 383.102 5.89107 3.68752 0
M  V30 3761 H 386.293 3.80627 2.72471 0
M  V30 3762 H 386.466 5.41216 3.56356 0
M  V30 3763 N 379.872 -1.04064 1.18357 0
M  V30 3764 C 381.12 -1.76915 0.977013 0
M  V30 3765 C 381.441 -1.88624 -0.494577 0
M  V30 3766 O 380.711 -1.41125 -1.3587 0
M  V30 3767 H 379.291 -0.65535 0.358504 0
M  V30 3768 H 381.953 -1.25592 1.49039 0
M  V30 3769 H 381.049 -2.78178 1.41504 0
M  V30 3770 N 381.35 -0.985608 -1.22978 0
M  V30 3771 C 382.313 -0.535071 -2.22867 0
M  V30 3772 C 383.313 0.378123 -1.56291 0
M  V30 3773 O 384.503 0.171092 -1.73358 0
M  V30 3774 C 381.635 0.222702 -3.40172 0
M  V30 3775 H 382.828 -1.41835 -2.6424 0
M  V30 3776 H 380.381 -0.772042 -1.35901 0
M  V30 3777 H 381.116 1.12229 -3.04262 0
M  V30 3778 H 380.901 -0.43288 -3.89703 0
M  V30 3779 H 382.391 0.526335 -4.1427 0
M  V30 3780 N 382.828 1.3818 -0.7579 0
M  V30 3781 C 383.775 2.30416 -0.133057 0
M  V30 3782 C 384.745 1.50398 0.704957 0
M  V30 3783 O 385.93 1.79014 0.660192 0
M  V30 3784 C 383.07 3.36834 0.750813 0
M  V30 3785 C 382.183 4.31879 -0.102297 0
M  V30 3786 C 381.318 5.25368 0.784979 0
M  V30 3787 C 380.357 6.12058 -0.0715046 0
M  V30 3788 N 379.494 6.97832 0.772972 0
M  V30 3789 H 384.334 2.83274 -0.925186 0
M  V30 3790 H 381.871 1.39461 -0.467866 0
M  V30 3791 H 383.829 3.97145 1.27794 0
M  V30 3792 H 382.459 2.85374 1.50868 0
M  V30 3793 H 381.511 3.72991 -0.747095 0
M  V30 3794 H 382.823 4.92921 -0.763552 0
M  V30 3795 H 381.977 5.90818 1.37911 0
M  V30 3796 H 380.716 4.64703 1.47996 0
M  V30 3797 H 379.721 5.456 -0.678272 0
M  V30 3798 H 380.946 6.74793 -0.763606 0
M  V30 3799 H 378.892 6.3971 1.45282 0
M  V30 3800 H 378.809 7.55812 0.168709 0
M  V30 3801 H 380.077 7.67687 1.35194 0
M  V30 3802 N 384.306 0.507319 1.49211 0
M  V30 3803 C 385.717 0.0611118 1.866 0
M  V30 3804 C 386.068 -1.35488 1.41907 0
M  V30 3805 O 385.193 -2.0108 0.799726 0
M  V30 3806 C 385.788 0.104125 3.3864 0
M  V30 3807 C 384.347 -0.28677 3.75306 0
M  V30 3808 C 383.494 0.473893 2.73221 0
M  V30 3809 H 386.445 0.719775 1.41439 0
M  V30 3810 H 386.466 -0.689672 3.74198 0
M  V30 3811 H 385.978 1.13482 3.71138 0
M  V30 3812 H 384.079 -1.32046 3.48417 0
M  V30 3813 H 384.192 0.0370745 4.79086 0
M  V30 3814 H 382.556 -0.0770644 2.54583 0
M  V30 3815 H 383.339 1.50478 3.08563 0
M  V30 3816 N 385.784 -1.5574 0.241426 0
M  V30 3817 C 386.714 -2.24133 -0.654722 0
M  V30 3818 C 387.695 -1.21974 -1.1856 0
M  V30 3819 O 388.88 -1.50612 -1.22595 0
M  V30 3820 C 386.01 -2.93659 -1.85423 0
M  V30 3821 C 384.964 -4.0246 -1.45636 0
M  V30 3822 C 384.29 -4.59383 -2.73626 0
M  V30 3823 C 385.59 -5.18468 -0.631506 0
M  V30 3824 H 387.284 -2.99281 -0.0844353 0
M  V30 3825 H 384.83 -1.43947 -0.0391707 0
M  V30 3826 H 386.783 -3.40203 -2.48676 0
M  V30 3827 H 385.507 -2.15991 -2.44981 0
M  V30 3828 H 384.166 -3.56676 -0.847202 0
M  V30 3829 H 383.814 -3.78422 -3.3137 0
M  V30 3830 H 383.514 -5.32826 -2.4773 0
M  V30 3831 H 385.038 -5.08658 -3.37786 0
M  V30 3832 H 386.452 -5.61272 -1.1682 0
M  V30 3833 H 384.849 -5.98266 -0.468831 0
M  V30 3834 H 385.919 -4.8358 0.357506 0
M  V30 3835 N 387.262 0.0317525 -1.57568 0
M  V30 3836 C 388.225 1.01783 -2.0536 0
M  V30 3837 C 389.225 1.29203 -0.957253 0
M  V30 3838 O 390.415 1.24251 -1.22095 0
M  V30 3839 C 387.547 2.35137 -2.46827 0
M  V30 3840 H 388.74 0.605062 -2.93733 0
M  V30 3841 H 386.293 0.278514 -1.53799 0
M  V30 3842 H 387.028 2.81168 -1.61602 0
M  V30 3843 H 386.813 2.16566 -3.26866 0
M  V30 3844 H 388.303 3.05938 -2.84239 0
M  V30 3845 N 388.74 1.54641 0.303973 0
M  V30 3846 C 390.156 1.45788 0.649463 0
M  V30 3847 C 390.356 0.64666 1.90842 0
M  V30 3848 O 389.412 0.153183 2.52035 0
M  V30 3849 C 390.725 2.89718 0.805227 0
M  V30 3850 C 392.273 2.99742 0.901305 0
M  V30 3851 C 392.748 4.44863 1.08909 0
M  V30 3852 N 394.239 4.48559 1.15536 0
M  V30 3853 C 394.974 5.58026 1.3189 0
M  V30 3854 N 394.47 6.77422 1.45161 0
M  V30 3855 N 396.263 5.45708 1.34755 0
M  V30 3856 H 388.414 2.05854 -0.523237 0
M  V30 3857 H 390.677 0.932186 -0.172431 0
M  V30 3858 H 390.383 3.51666 -0.0489108 0
M  V30 3859 H 390.257 3.36964 1.69513 0
M  V30 3860 H 392.644 2.3791 1.74593 0
M  V30 3861 H 392.725 2.55797 -0.0125531 0
M  V30 3862 H 392.369 5.07288 0.249241 0
M  V30 3863 H 392.299 4.86436 2.01713 0
M  V30 3864 H 394.79 3.6254 1.06646 0
M  V30 3865 H 395.103 7.56604 1.57387 0
M  V30 3866 H 393.448 6.80292 1.42223 0
M  V30 3867 H 396.639 4.51378 1.23996 0
M  V30 3868 H 396.812 6.3107 1.47157 0
M  V30 3869 N 390.218 -0.567019 1.47046 0
M  V30 3870 C 391.148 -1.68482 1.61667 0
M  V30 3871 C 392.129 -1.6358 0.466418 0
M  V30 3872 O 393.314 -1.81354 0.694574 0
M  V30 3873 C 390.444 -3.07124 1.62148 0
M  V30 3874 C 389.398 -3.26867 2.76301 0
M  V30 3875 C 388.724 -4.66196 2.61849 0
M  V30 3876 C 390.024 -3.13186 4.17986 0
M  V30 3877 H 391.718 -1.56502 2.5524 0
M  V30 3878 H 389.264 -0.751486 1.22836 0
M  V30 3879 H 391.217 -3.8516 1.70968 0
M  V30 3880 H 389.941 -3.2004 0.651287 0
M  V30 3881 H 388.6 -2.51237 2.66975 0
M  V30 3882 H 388.248 -4.75898 1.62879 0
M  V30 3883 H 387.948 -4.80356 3.38425 0
M  V30 3884 H 389.472 -5.46379 2.72584 0
M  V30 3885 H 390.886 -3.81049 4.2834 0
M  V30 3886 H 389.283 -3.3886 4.95272 0
M  V30 3887 H 390.353 -2.10057 4.3704 0
M  V30 3888 N 391.696 -1.35014 -0.812953 0
M  V30 3889 C 392.626 -1.30069 -1.93919 0
M  V30 3890 C 393.607 -0.176275 -1.69184 0
M  V30 3891 O 394.792 -0.370227 -1.90638 0
M  V30 3892 C 391.922 -1.06547 -3.30552 0
M  V30 3893 C 390.876 -2.15561 -3.69753 0
M  V30 3894 C 390.202 -1.77214 -5.04479 0
M  V30 3895 C 391.502 -3.57476 -3.808 0
M  V30 3896 H 393.196 -2.24303 -1.98314 0
M  V30 3897 H 390.742 -1.07977 -0.952736 0
M  V30 3898 H 392.695 -1.01729 -4.08937 0
M  V30 3899 H 391.419 -0.0875719 -3.26483 0
M  V30 3900 H 390.078 -2.19466 -2.9365 0
M  V30 3901 H 389.726 -0.780589 -4.96906 0
M  V30 3902 H 389.426 -2.50184 -5.31678 0
M  V30 3903 H 390.95 -1.7391 -5.8531 0
M  V30 3904 H 392.364 -3.55929 -4.4943 0
M  V30 3905 H 390.761 -4.29152 -4.19462 0
M  V30 3906 H 391.831 -3.94091 -2.82525 0
M  V30 3907 N 393.175 1.03435 -1.18907 0
M  V30 3908 C 394.423 1.76394 -0.986382 0
M  V30 3909 C 394.744 1.88883 0.484567 0
M  V30 3910 O 394.014 1.41843 1.3512 0
M  V30 3911 H 392.594 0.65344 -0.361975 0
M  V30 3912 H 395.256 1.248 -1.49703 0
M  V30 3913 H 394.352 2.77424 -1.42978 0
M  V30 3914 N 394.653 0.992116 1.22453 0
M  V30 3915 C 395.616 0.546883 2.2258 0
M  V30 3916 C 396.616 -0.369829 1.56489 0
M  V30 3917 O 397.806 -0.161896 1.73446 0
M  V30 3918 C 394.938 -0.204659 3.40285 0
M  V30 3919 H 396.131 1.43234 2.63484 0
M  V30 3920 H 393.684 0.779239 1.3549 0
M  V30 3921 H 394.419 -1.10614 3.04853 0
M  V30 3922 H 394.204 0.45354 3.89468 0
M  V30 3923 H 395.694 -0.504358 4.14543 0
M  V30 3924 N 396.131 -1.37776 0.765217 0
M  V30 3925 C 397.379 -1.99454 0.325943 0
M  V30 3926 C 397.7 -1.61049 -1.09947 0
M  V30 3927 O 396.97 -0.872821 -1.75381 0
M  V30 3928 H 395.55 -0.737697 0.117525 0
M  V30 3929 H 398.212 -1.68359 0.981895 0
M  V30 3930 H 397.308 -3.09547 0.398353 0
M  V30 3931 N 397.609 -0.515225 -1.4894 0
M  V30 3932 C 398.858 0.0261361 -2.01683 0
M  V30 3933 C 399.171 1.36719 -1.39883 0
M  V30 3934 O 400.377 1.99606 -1.84037 0
M  V30 3935 C 398.833 0.0970111 -3.59769 0
M  V30 3936 C 398.441 -1.23825 -4.30548 0
M  V30 3937 C 400.185 0.587981 -4.20408 0
M  V30 3938 C 398.092 -1.12877 -5.80528 0
M  V30 3939 H 397.022 0.0135398 -0.753878 0
M  V30 3940 H 399.673 -0.656787 -1.71343 0
M  V30 3941 H 398.055 0.844694 -3.86886 0
M  V30 3942 H 399.229 -2.00034 -4.15118 0
M  V30 3943 H 397.544 -1.66379 -3.81716 0
M  V30 3944 H 400.141 0.68763 -5.3026 0
M  V30 3945 H 400.484 1.59026 -3.84729 0
M  V30 3946 H 401.017 -0.103582 -3.97665 0
M  V30 3947 H 397.756 -2.10575 -6.20756 0
M  V30 3948 H 397.276 -0.407799 -5.98412 0
M  V30 3949 H 398.955 -0.813332 -6.41868 0
M  V30 3950 N 399.087 1.5561 -0.249682 0
M  V30 3951 C 400.315 2.03411 0.378352 0
M  V30 3952 C 400.73 1.12886 1.51335 0
M  V30 3953 O 400.087 0.143833 1.81932 0
M  V30 3954 C 400.138 3.50537 0.88351 0
M  V30 3955 O 399.859 4.37614 -0.20626 0
M  V30 3956 C 401.36 4.14113 1.58195 0
M  V30 3957 H 398.58 0.664994 0.08958 0
M  V30 3958 H 401.124 2.01044 -0.374357 0
M  V30 3959 H 399.279 3.5343 1.58639 0
M  V30 3960 H 399.693 5.24199 0.177782 0
M  V30 3961 H 401.167 5.18741 1.8871 0
M  V30 3962 H 401.644 3.60767 2.50487 0
M  V30 3963 H 402.25 4.15151 0.923573 0
M  V30 3964 N 400.565 -0.0233959 1.57583 0
M  V30 3965 C 401.79 -0.728376 1.94189 0
M  V30 3966 C 402.215 -1.67793 0.850119 0
M  V30 3967 O 401.573 -1.80262 -0.19371 0
M  V30 3968 C 401.621 -1.45669 3.29868 0
M  V30 3969 O 400.725 -2.57013 3.22518 0
M  V30 3970 H 400.066 -0.195493 0.63457 0
M  V30 3971 H 402.596 0.0228214 2.04587 0
M  V30 3972 H 402.606 -1.82535 3.6489 0
M  V30 3973 H 401.281 -0.760314 4.08891 0
M  V30 3974 H 399.858 -2.22648 2.99136 0
M  V30 3975 N 402.043 -1.548 -0.295768 0
M  V30 3976 C 403.32 -1.65014 -1.05023 0
M  V30 3977 C 403.7 -0.501805 -2.05049 0
M  V30 3978 O 403.048 0.500869 -2.22943 0
M  V30 3979 C 403.258 -3.03252 -1.72741 0
M  V30 3980 C 404.606 -3.60242 -2.24746 0
M  V30 3981 O 405.63 -3.05737 -1.82765 0
M  V30 3982 O 404.489 -4.55687 -3.01681 0
M  V30 3983 H 401.583 -0.669314 -0.485744 0
M  V30 3984 H 404.129 -1.67144 -0.293438 0
M  V30 3985 H 402.901 -3.7827 -1.00138 0
M  V30 3986 H 402.524 -3.04922 -2.55163 0
M  V30 3987 N 403.521 0.559213 -1.47345 0
M  V30 3988 C 404.484 1.64854 -1.59235 0
M  V30 3989 C 405.484 1.53851 -0.467607 0
M  V30 3990 O 406.674 1.58045 -0.732617 0
M  V30 3991 C 403.806 3.04388 -1.53496 0
M  V30 3992 H 404.999 1.55662 -2.56339 0
M  V30 3993 H 402.552 0.778973 -1.35505 0
M  V30 3994 H 403.287 3.19115 -0.577604 0
M  V30 3995 H 403.072 3.13783 -2.35123 0
M  V30 3996 H 404.562 3.83642 -1.6495 0
M  V30 3997 N 404.999 1.35443 0.805782 0
M  V30 3998 C 406.246 1.28761 1.56291 0
M  V30 3999 C 406.574 -0.137747 1.94012 0
M  V30 4000 O 405.829 -1.1032 1.61642 0
M  V30 4001 C 406.128 2.14045 2.86216 0
M  V30 4002 C 405.794 3.62826 2.67709 0
M  V30 4003 C 404.456 4.0338 2.6237 0
M  V30 4004 C 406.808 4.57227 2.50186 0
M  V30 4005 C 404.136 5.36501 2.37451 0
M  V30 4006 C 406.488 5.90547 2.26797 0
M  V30 4007 C 405.152 6.30245 2.1988 0
M  V30 4008 H 404.422 0.471171 0.571908 0
M  V30 4009 H 407.069 1.67347 0.930974 0
M  V30 4010 H 405.374 1.68342 3.53791 0
M  V30 4011 H 407.071 2.0621 3.43917 0
M  V30 4012 H 403.661 3.30644 2.72713 0
M  V30 4013 H 407.845 4.2678 2.53323 0
M  V30 4014 H 403.101 5.66259 2.30567 0
M  V30 4015 H 407.275 6.63274 2.12228 0
M  V30 4016 H 404.902 7.33328 2.00333 0
M  V30 4017 N 406.477 -1.02803 1.19454 0
M  V30 4018 C 407.427 -2.0945 0.900827 0
M  V30 4019 C 408.411 -1.60335 -0.134715 0
M  V30 4020 O 409.603 -1.76857 0.0710924 0
M  V30 4021 C 406.732 -3.4044 0.442229 0
M  V30 4022 C 405.818 -3.96286 1.51056 0
M  V30 4023 N 406.209 -4.25785 2.73021 0
M  V30 4024 C 404.507 -4.24307 1.37404 0
M  V30 4025 C 405.208 -4.70654 3.41848 0
M  V30 4026 N 404.184 -4.72238 2.69243 0
M  V30 4027 H 407.986 -2.3015 1.82779 0
M  V30 4028 H 405.5 -1.20672 1.08683 0
M  V30 4029 H 407.497 -4.16354 0.21326 0
M  V30 4030 H 406.157 -3.21159 -0.478238 0
M  V30 4031 H 407.168 -4.15041 3.09776 0
M  V30 4032 H 403.845 -4.14285 0.517103 0
M  V30 4033 H 405.235 -5.02392 4.46152 0
M  V30 4034 N 407.956 -0.998596 -1.21925 0
M  V30 4035 C 408.889 -0.498517 -2.22688 0
M  V30 4036 C 409.867 0.444301 -1.56412 0
M  V30 4037 O 411.051 0.368518 -1.84863 0
M  V30 4038 C 408.178 0.276639 -3.37568 0
M  V30 4039 C 407.224 -0.61302 -4.22071 0
M  V30 4040 S 408.057 -2.07168 -4.93803 0
M  V30 4041 C 409.213 -1.30617 -6.12119 0
M  V30 4042 H 409.446 -1.35234 -2.64762 0
M  V30 4043 H 406.979 -0.806018 -1.31692 0
M  V30 4044 H 408.937 0.717817 -4.04175 0
M  V30 4045 H 407.598 1.10581 -2.93991 0
M  V30 4046 H 406.791 -0.0162909 -5.03997 0
M  V30 4047 H 406.393 -0.991202 -3.60626 0
M  V30 4048 H 408.685 -0.57675 -6.75041 0
M  V30 4049 H 409.628 -2.10091 -6.76215 0
M  V30 4050 H 410.036 -0.816957 -5.58557 0
M  V30 4051 N 409.434 1.37368 -0.772513 0
M  V30 4052 C 410.68 1.99969 -0.337681 0
M  V30 4053 C 411.013 1.61184 1.08321 0
M  V30 4054 O 410.288 0.858395 1.74533 0
M  V30 4055 C 410.571 3.56858 -0.482121 0
M  V30 4056 C 410.424 4.0555 -1.94549 0
M  V30 4057 C 411.743 4.39955 0.113143 0
M  V30 4058 H 408.862 0.726464 -0.124171 0
M  V30 4059 H 411.504 1.63034 -0.975699 0
M  V30 4060 H 409.654 3.88452 0.0610361 0
M  V30 4061 H 411.326 3.84518 -2.54841 0
M  V30 4062 H 409.569 3.57715 -2.45403 0
M  V30 4063 H 410.24 5.14587 -1.9976 0
M  V30 4064 H 412.716 4.14623 -0.35031 0
M  V30 4065 H 411.592 5.48897 -0.0180514 0
M  V30 4066 H 411.853 4.25403 1.20354 0
M  V30 4067 N 410.912 0.523116 1.48665 0
M  V30 4068 C 411.875 -0.232592 2.28017 0
M  V30 4069 C 412.875 -0.874021 1.34972 0
M  V30 4070 O 414.065 -0.735132 1.57929 0
M  V30 4071 C 411.197 -1.33586 3.13636 0
M  V30 4072 H 412.39 0.464008 2.96289 0
M  V30 4073 H 409.943 0.278816 1.53793 0
M  V30 4074 H 410.678 -2.06593 2.4998 0
M  V30 4075 H 410.463 -0.881125 3.82071 0
M  V30 4076 H 411.953 -1.86759 3.73511 0
M  V30 4077 N 412.39 -1.55475 0.257931 0
M  V30 4078 C 413.801 -1.8511 -0.243135 0
M  V30 4079 C 414.152 -1.17986 -1.5676 0
M  V30 4080 O 413.277 -0.462102 -2.11409 0
M  V30 4081 C 413.872 -3.35826 -0.447929 0
M  V30 4082 C 412.431 -3.65647 -0.893245 0
M  V30 4083 C 411.578 -2.7729 0.0232965 0
M  V30 4084 H 414.529 -1.51261 0.480199 0
M  V30 4085 H 414.55 -3.58002 -1.28898 0
M  V30 4086 H 414.062 -3.84652 0.516196 0
M  V30 4087 H 412.163 -3.22308 -1.86945 0
M  V30 4088 H 412.276 -4.73312 -0.742469 0
M  V30 4089 H 410.64 -2.49942 -0.490021 0
M  V30 4090 H 411.423 -3.28926 0.982994 0
M  V30 4091 N 413.868 0.0150385 -1.57593 0
M  V30 4092 C 414.831 0.995996 -2.06428 0
M  V30 4093 C 415.831 1.2818 -0.970903 0
M  V30 4094 O 417.021 1.22949 -1.23406 0
M  V30 4095 C 414.153 2.32506 -2.49307 0
M  V30 4096 H 415.346 0.573873 -2.94358 0
M  V30 4097 H 412.899 0.262186 -1.54085 0
M  V30 4098 H 413.634 2.79438 -1.64575 0
M  V30 4099 H 413.419 2.13087 -3.29145 0
M  V30 4100 H 414.909 3.02906 -2.87468 0
M  V30 4101 N 415.346 1.54954 0.287554 0
M  V30 4102 C 416.309 1.86076 1.33823 0
M  V30 4103 C 417.309 0.734414 1.43049 0
M  V30 4104 O 418.499 1.00266 1.42452 0
M  V30 4105 C 415.631 2.05305 2.72144 0
M  V30 4106 H 416.824 2.79984 1.07465 0
M  V30 4107 H 414.377 1.47223 0.524902 0
M  V30 4108 H 415.112 1.1373 3.03704 0
M  V30 4109 H 414.897 2.873 2.66836 0
M  V30 4110 H 416.387 2.30706 3.48087 0
M  V30 4111 N 416.824 -0.551391 1.4764 0
M  V30 4112 C 418.101 -1.31229 1.45046 0
M  V30 4113 C 418.481 -2.10563 0.150527 0
M  V30 4114 O 417.829 -2.11374 -0.867956 0
M  V30 4115 C 418.039 -2.21189 2.69956 0
M  V30 4116 C 419.387 -2.82021 3.1741 0
M  V30 4117 O 420.411 -2.31488 2.70724 0
M  V30 4118 O 419.27 -3.73885 3.98588 0
M  V30 4119 H 416.364 -0.591193 0.578291 0
M  V30 4120 H 418.91 -0.569813 1.59847 0
M  V30 4121 H 417.682 -1.62207 3.56096 0
M  V30 4122 H 417.305 -3.02722 2.57769 0
M  V30 4123 N 418.302 -1.35869 -0.798587 0
M  V30 4124 C 419.55 -1.29332 -1.55298 0
M  V30 4125 C 419.871 0.129729 -1.94568 0
M  V30 4126 O 419.141 1.06796 -1.6423 0
M  V30 4127 H 417.721 -0.475737 -0.57592 0
M  V30 4128 H 420.383 -1.70062 -0.952093 0
M  V30 4129 H 419.479 -1.91458 -2.46476 0
M  V30 4130 N 419.78 1.02168 -1.19998 0
M  V30 4131 C 421.026 1.75945 -1.00852 0
M  V30 4132 C 421.359 1.88702 0.458828 0
M  V30 4133 O 420.634 1.40911 1.34069 0
M  V30 4134 C 420.917 3.18154 -1.68671 0
M  V30 4135 C 420.77 3.13224 -3.22817 0
M  V30 4136 C 422.089 4.16711 -1.41561 0
M  V30 4137 H 419.208 0.638673 -0.367785 0
M  V30 4138 H 421.85 1.19222 -1.4794 0
M  V30 4139 H 420 3.66586 -1.28636 0
M  V30 4140 H 421.672 2.72635 -3.72112 0
M  V30 4141 H 419.915 2.50751 -3.53986 0
M  V30 4142 H 420.586 4.13728 -3.65422 0
M  V30 4143 H 423.062 3.76913 -1.76284 0
M  V30 4144 H 421.938 5.14391 -1.91553 0
M  V30 4145 H 422.199 4.40774 -0.342193 0
M  V30 4146 N 421.258 1.00505 1.21394 0
M  V30 4147 C 422.674 0.717873 1.42544 0
M  V30 4148 C 422.874 -0.706936 1.88692 0
M  V30 4149 O 421.93 -1.47627 2.04847 0
M  V30 4150 C 423.243 1.73377 2.45684 0
M  V30 4151 C 424.791 1.75059 2.59467 0
M  V30 4152 C 425.266 2.75545 3.6584 0
M  V30 4153 N 426.757 2.74213 3.73311 0
M  V30 4154 C 427.492 3.48626 4.55245 0
M  V30 4155 N 426.988 4.32678 5.41075 0
M  V30 4156 N 428.781 3.37276 4.49668 0
M  V30 4157 H 420.932 1.92506 0.897503 0
M  V30 4158 H 423.195 0.830919 0.456375 0
M  V30 4159 H 422.901 2.75395 2.18748 0
M  V30 4160 H 422.775 1.53647 3.44489 0
M  V30 4161 H 425.162 0.737337 2.8574 0
M  V30 4162 H 425.243 1.98861 1.60897 0
M  V30 4163 H 424.887 3.77028 3.40313 0
M  V30 4164 H 424.817 2.49009 4.64007 0
M  V30 4165 H 427.308 2.13234 3.11993 0
M  V30 4166 H 427.621 4.86253 6.00648 0
M  V30 4167 H 425.966 4.3676 5.40616 0
M  V30 4168 H 429.157 2.71043 3.81646 0
M  V30 4169 H 429.33 3.95524 5.13288 0
M  V30 4170 N 422.737 -1.36956 0.779787 0
M  V30 4171 C 423.7 -2.2851 0.177662 0
M  V30 4172 C 424.7 -1.48393 -0.619377 0
M  V30 4173 O 425.89 -1.68505 -0.441785 0
M  V30 4174 C 423.022 -3.32428 -0.755279 0
M  V30 4175 H 424.215 -2.83269 0.984823 0
M  V30 4176 H 421.768 -1.46358 0.548544 0
M  V30 4177 H 422.503 -2.82808 -1.58714 0
M  V30 4178 H 422.288 -3.91659 -0.185817 0
M  V30 4179 H 423.778 -4.00824 -1.17174 0
M  V30 4180 N 424.215 -0.530993 -1.48385 0
M  V30 4181 C 425.463 0.00273189 -2.021 0
M  V30 4182 C 425.784 1.34672 -1.41027 0
M  V30 4183 O 425.054 1.8724 -0.576012 0
M  V30 4184 H 423.634 0.00399774 -0.746989 0
M  V30 4185 H 426.296 -0.695054 -1.82085 0
M  V30 4186 H 425.392 0.11031 -3.11905 0
M  V30 4187 N 425.693 1.55336 -0.266172 0
M  V30 4188 C 427.109 1.59356 0.0882065 0
M  V30 4189 C 427.309 1.2834 1.55342 0
M  V30 4190 O 426.365 1.03996 2.30089 0
M  V30 4191 C 427.678 2.99409 -0.278364 0
M  V30 4192 C 429.226 3.12196 -0.224243 0
M  V30 4193 C 429.701 4.545 -0.565123 0
M  V30 4194 N 431.192 4.60313 -0.51634 0
M  V30 4195 C 431.927 5.68434 -0.753013 0
M  V30 4196 N 431.423 6.84738 -1.05383 0
M  V30 4197 N 433.216 5.57942 -0.682414 0
M  V30 4198 H 425.367 1.73764 -1.22147 0
M  V30 4199 H 427.63 0.809822 -0.492841 0
M  V30 4200 H 427.336 3.2691 -1.29703 0
M  V30 4201 H 427.21 3.75228 0.385186 0
M  V30 4202 H 429.597 2.84464 0.78512 0
M  V30 4203 H 429.678 2.38609 -0.921922 0
M  V30 4204 H 429.322 4.82956 -1.57213 0
M  V30 4205 H 429.252 5.26374 0.154248 0
M  V30 4206 H 431.743 3.7676 -0.29335 0
M  V30 4207 H 432.056 7.63088 -1.22133 0
M  V30 4208 H 430.401 6.86375 -1.09151 0
M  V30 4209 H 433.592 4.65958 -0.44731 0
M  V30 4210 H 433.765 6.4213 -0.870248 0
M  V30 4211 N 427.171 -0.0066808 1.57599 0
M  V30 4212 C 428.134 -0.985035 2.06953 0
M  V30 4213 C 429.134 -1.27663 0.977687 0
M  V30 4214 O 430.324 -1.22293 1.24057 0
M  V30 4215 C 427.456 -2.3118 2.50536 0
M  V30 4216 H 428.649 -0.558255 2.94658 0
M  V30 4217 H 426.202 -0.254011 1.54222 0
M  V30 4218 H 426.937 -2.78561 1.66054 0
M  V30 4219 H 426.722 -2.11338 3.3027 0
M  V30 4220 H 428.212 -3.01377 2.8907 0
M  V30 4221 N 428.649 -1.55105 -0.279332 0
M  V30 4222 C 429.582 -1.82467 -1.37044 0
M  V30 4223 C 430.56 -0.677261 -1.47824 0
M  V30 4224 O 431.744 -0.919578 -1.64548 0
M  V30 4225 C 428.871 -1.98066 -2.7475 0
M  V30 4226 C 427.917 -3.20594 -2.81286 0
M  V30 4227 S 428.75 -4.78116 -2.41175 0
M  V30 4228 C 429.906 -4.9668 -3.80867 0
M  V30 4229 H 430.139 -2.74728 -1.1363 0
M  V30 4230 H 427.672 -1.46794 -0.478625 0
M  V30 4231 H 429.63 -2.07739 -3.54055 0
M  V30 4232 H 428.291 -1.06704 -2.9542 0
M  V30 4233 H 427.484 -3.28376 -3.82341 0
M  V30 4234 H 427.086 -3.09479 -2.09996 0
M  V30 4235 H 429.378 -4.82033 -4.76078 0
M  V30 4236 H 430.321 -5.98741 -3.78041 0
M  V30 4237 H 430.729 -4.24698 -3.71876 0
M  V30 4238 N 430.127 0.543554 -1.4793 0
M  V30 4239 C 431.355 1.32516 -1.58894 0
M  V30 4240 C 431.77 1.87215 -0.244131 0
M  V30 4241 O 431.127 1.65709 0.764652 0
M  V30 4242 C 431.178 2.48554 -2.62494 0
M  V30 4243 O 430.899 1.96112 -3.91755 0
M  V30 4244 C 432.4 3.40572 -2.8377 0
M  V30 4245 H 429.62 0.403472 -0.536145 0
M  V30 4246 H 432.164 0.657106 -1.93655 0
M  V30 4247 H 430.319 3.1127 -2.30629 0
M  V30 4248 H 430.733 2.71967 -4.4848 0
M  V30 4249 H 432.207 4.18375 -3.60093 0
M  V30 4250 H 432.684 3.94965 -1.92092 0
M  V30 4251 H 433.29 2.8366 -3.16887 0
M  V30 4252 N 431.605 1.3629 0.791371 0
M  V30 4253 C 433.021 1.16661 1.08914 0
M  V30 4254 C 433.221 -0.0106266 2.01497 0
M  V30 4255 O 432.277 -0.676596 2.43266 0
M  V30 4256 C 433.59 2.47656 1.70549 0
M  V30 4257 C 435.138 2.54002 1.82899 0
M  V30 4258 C 435.613 3.85078 2.47949 0
M  V30 4259 N 437.104 3.86413 2.5542 0
M  V30 4260 C 437.839 4.84572 3.06557 0
M  V30 4261 N 437.335 5.93124 3.58016 0
M  V30 4262 N 439.128 4.71994 3.05251 0
M  V30 4263 H 431.279 2.11668 0.176238 0
M  V30 4264 H 433.542 0.937486 0.140796 0
M  V30 4265 H 433.248 3.34059 1.09989 0
M  V30 4266 H 433.122 2.63319 2.70079 0
M  V30 4267 H 435.509 1.68018 2.42598 0
M  V30 4268 H 435.59 2.42239 0.821808 0
M  V30 4269 H 435.234 4.71467 1.88895 0
M  V30 4270 H 435.164 3.94135 3.49235 0
M  V30 4271 H 437.655 3.07988 2.18979 0
M  V30 4272 H 437.968 6.63999 3.95381 0
M  V30 4273 H 436.313 5.96796 3.56173 0
M  V30 4274 H 439.504 3.86321 2.64336 0
M  V30 4275 H 439.677 5.48653 3.44796 0
M  V30 4276 N 433.083 -1.0153 1.20538 0
M  V30 4277 C 434.308 -1.79283 1.04271 0
M  V30 4278 C 434.733 -1.8372 -0.403544 0
M  V30 4279 O 434.091 -1.27321 -1.2907 0
M  V30 4280 C 434.139 -3.21535 1.63241 0
M  V30 4281 O 433.243 -4.03099 0.870908 0
M  V30 4282 H 432.584 -0.55293 0.367647 0
M  V30 4283 H 435.114 -1.27696 1.59859 0
M  V30 4284 H 435.124 -3.72243 1.6703 0
M  V30 4285 H 433.799 -3.1762 2.68497 0
M  V30 4286 H 432.376 -3.61693 0.907323 0
M  V30 4287 N 434.561 -1.01147 -1.20859 0
M  V30 4288 C 435.491 -0.597663 -2.25722 0
M  V30 4289 C 436.472 0.384744 -1.65692 0
M  V30 4290 O 437.657 0.271303 -1.92296 0
M  V30 4291 C 434.787 0.0700149 -3.47229 0
M  V30 4292 C 433.741 -0.832843 -4.19819 0
M  V30 4293 C 433.067 -0.0312202 -5.34691 0
M  V30 4294 C 434.367 -2.1385 -4.76514 0
M  V30 4295 H 436.061 -1.47423 -2.60589 0
M  V30 4296 H 433.607 -0.710301 -1.25263 0
M  V30 4297 H 435.56 0.37103 -4.19763 0
M  V30 4298 H 434.284 0.981259 -3.11511 0
M  V30 4299 H 432.943 -1.11778 -3.49144 0
M  V30 4300 H 432.591 0.881515 -4.95215 0
M  V30 4301 H 432.291 -0.632434 -5.84187 0
M  V30 4302 H 433.815 0.26346 -6.10031 0
M  V30 4303 H 435.229 -1.9002 -5.40893 0
M  V30 4304 H 433.626 -2.69012 -5.36426 0
M  V30 4305 H 434.696 -2.80495 -3.95538 0
M  V30 4306 N 436.039 1.36541 -0.78704 0
M  V30 4307 C 436.949 2.3387 -0.184896 0
M  V30 4308 C 437.965 1.60927 0.661697 0
M  V30 4309 O 439.141 1.92927 0.57804 0
M  V30 4310 C 436.206 3.40122 0.672145 0
M  V30 4311 C 435.267 4.28867 -0.19267 0
M  V30 4312 C 434.5 5.30045 0.623561 0
M  V30 4313 O 434.723 5.39232 1.8597 0
M  V30 4314 O 433.657 6.01895 0.0247068 0
M  V30 4315 H 437.483 2.87126 -0.989562 0
M  V30 4316 H 435.068 1.38969 -0.548455 0
M  V30 4317 H 436.95 4.05093 1.16094 0
M  V30 4318 H 435.625 2.89169 1.45474 0
M  V30 4319 H 434.532 3.66945 -0.728166 0
M  V30 4320 H 435.865 4.83165 -0.938722 0
M  V30 4321 N 437.518 0.538854 1.48102 0
M  V30 4322 C 438.448 -0.207654 2.32575 0
M  V30 4323 C 439.429 -0.926559 1.4265 0
M  V30 4324 O 440.614 -0.91061 1.71527 0
M  V30 4325 C 437.744 -1.24957 3.24042 0
M  V30 4326 C 436.698 -0.648263 4.23062 0
M  V30 4327 C 436.024 -1.79348 5.03725 0
M  V30 4328 C 437.324 0.385897 5.20872 0
M  V30 4329 H 439.018 0.497534 2.95237 0
M  V30 4330 H 436.564 0.240715 1.41974 0
M  V30 4331 H 438.517 -1.77983 3.81969 0
M  V30 4332 H 437.241 -1.98446 2.59397 0
M  V30 4333 H 435.9 -0.139452 3.66335 0
M  V30 4334 H 435.548 -2.51696 4.35498 0
M  V30 4335 H 435.248 -1.39702 5.70751 0
M  V30 4336 H 436.772 -2.32735 5.64506 0
M  V30 4337 H 438.186 -0.057607 5.73271 0
M  V30 4338 H 436.583 0.700227 5.96001 0
M  V30 4339 H 437.653 1.28848 4.67468 0
M  V30 4340 N 438.996 -1.55193 0.274407 0
M  V30 4341 C 439.959 -2.212 -0.600279 0
M  V30 4342 C 440.959 -1.18963 -1.08187 0
M  V30 4343 O 442.149 -1.43873 -0.982158 0
M  V30 4344 C 439.281 -2.87739 -1.82809 0
M  V30 4345 H 440.474 -2.9989 -0.0239682 0
M  V30 4346 H 438.027 -1.5628 0.0250192 0
M  V30 4347 H 438.762 -2.13058 -2.44493 0
M  V30 4348 H 438.547 -3.62658 -1.49069 0
M  V30 4349 H 440.037 -3.38171 -2.45011 0
M  V30 4350 N 440.474 -0.00167713 -1.576 0
M  V30 4351 C 441.722 0.681471 -1.90264 0
M  V30 4352 C 442.043 1.7422 -0.875924 0
M  V30 4353 O 441.313 1.95709 0.0864412 0
M  V30 4354 H 439.893 0.254696 -0.702239 0
M  V30 4355 H 442.555 -0.0429996 -1.94853 0
M  V30 4356 H 441.651 1.15166 -2.90075 0
M  V30 4357 N 441.952 1.55251 0.271103 0
M  V30 4358 C 442.882 1.9127 1.33933 0
M  V30 4359 C 443.863 0.77478 1.5143 0
M  V30 4360 O 445.048 1.03307 1.64442 0
M  V30 4361 C 442.178 2.18627 2.69851 0
M  V30 4362 C 441.132 3.34442 2.67081 0
M  V30 4363 C 440.458 3.47284 4.06569 0
M  V30 4364 C 441.758 4.70784 2.26185 0
M  V30 4365 H 443.452 2.80744 1.04035 0
M  V30 4366 H 440.998 1.35077 0.499017 0
M  V30 4367 H 442.951 2.42413 3.44694 0
M  V30 4368 H 441.675 1.25955 3.01335 0
M  V30 4369 H 440.334 3.10627 1.94695 0
M  V30 4370 H 439.982 2.52074 4.35279 0
M  V30 4371 H 439.682 4.25152 4.0561 0
M  V30 4372 H 441.206 3.73363 4.83148 0
M  V30 4373 H 442.62 4.94102 2.90751 0
M  V30 4374 H 441.017 5.51582 2.36384 0
M  V30 4375 H 442.087 4.69478 1.21319 0
M  V30 4376 N 443.43 -0.535701 1.48216 0
M  V30 4377 C 444.655 -1.32149 1.59848 0
M  V30 4378 C 445.08 -1.86338 0.256842 0
M  V30 4379 O 444.438 -1.64107 -0.770632 0
M  V30 4380 C 444.486 -2.45224 2.64381 0
M  V30 4381 O 443.59 -3.48093 2.21144 0
M  V30 4382 H 442.931 -0.391634 0.536208 0
M  V30 4383 H 445.461 -0.645202 1.94161 0
M  V30 4384 H 445.471 -2.91491 2.85476 0
M  V30 4385 H 444.146 -2.05143 3.61786 0
M  V30 4386 H 442.723 -3.07984 2.10239 0
M  V30 4387 N 444.908 -1.36708 -0.784132 0
M  V30 4388 C 446.319 -1.27947 -1.35965 0
M  V30 4389 C 446.67 0.0784013 -1.96043 0
M  V30 4390 O 445.795 0.979989 -1.92938 0
M  V30 4391 C 446.39 -2.31689 -2.47195 0
M  V30 4392 C 444.949 -2.26601 -3.00548 0
M  V30 4393 C 444.096 -2.16184 -1.73666 0
M  V30 4394 H 447.047 -1.4751 -0.585358 0
M  V30 4395 H 447.068 -1.95638 -3.26352 0
M  V30 4396 H 446.58 -3.30506 -2.03439 0
M  V30 4397 H 444.681 -1.31268 -3.48711 0
M  V30 4398 H 444.794 -3.19508 -3.57004 0
M  V30 4399 H 443.158 -1.62524 -1.96107 0
M  V30 4400 H 443.941 -3.16896 -1.32031 0
M  V30 4401 N 446.386 1.0089 -1.21074 0
M  V30 4402 C 447.349 2.0775 -0.968129 0
M  V30 4403 C 448.349 1.6069 0.0593445 0
M  V30 4404 O 449.539 1.73293 -0.177525 0
M  V30 4405 C 446.671 3.37794 -0.459108 0
M  V30 4406 H 447.864 2.30707 -1.9161 0
M  V30 4407 H 445.417 1.17807 -1.02719 0
M  V30 4408 H 446.152 3.20516 0.49397 0
M  V30 4409 H 445.937 3.7328 -1.20019 0
M  V30 4410 H 447.427 4.16454 -0.309099 0
M  V30 4411 N 447.864 1.01787 1.20321 0
M  V30 4412 C 449.141 0.622978 1.85414 0
M  V30 4413 C 449.521 -0.898887 1.91006 0
M  V30 4414 O 448.869 -1.79112 1.41884 0
M  V30 4415 C 449.079 1.27226 3.24984 0
M  V30 4416 C 450.427 1.3885 4.01255 0
M  V30 4417 O 451.451 1.22857 3.34342 0
M  V30 4418 O 450.31 1.64705 5.2109 0
M  V30 4419 H 447.404 0.215116 0.798533 0
M  V30 4420 H 449.95 1.11533 1.27901 0
M  V30 4421 H 448.722 2.31209 3.15687 0
M  V30 4422 H 448.345 0.767069 3.90131 0
M  V30 4423 N 449.342 -1.36122 0.79427 0
M  V30 4424 C 450.591 -1.98361 0.365464 0
M  V30 4425 C 450.904 -1.6374 -1.06997 0
M  V30 4426 O 452.11 -2.19251 -1.60129 0
M  V30 4427 C 450.566 -3.54821 0.602496 0
M  V30 4428 C 450.174 -3.98362 2.04967 0
M  V30 4429 C 451.918 -4.2383 0.238437 0
M  V30 4430 C 449.825 -5.47619 2.2331 0
M  V30 4431 H 448.755 -0.742193 0.13291 0
M  V30 4432 H 451.406 -1.55354 0.976589 0
M  V30 4433 H 449.788 -3.95922 -0.078409 0
M  V30 4434 H 450.962 -3.68447 2.76737 0
M  V30 4435 H 449.277 -3.42206 2.37243 0
M  V30 4436 H 451.874 -5.33529 0.353705 0
M  V30 4437 H 452.217 -4.08264 -0.814006 0
M  V30 4438 H 452.75 -3.88108 0.872769 0
M  V30 4439 H 449.489 -5.68138 3.26955 0
M  V30 4440 H 449.009 -5.79145 1.5605 0
M  V30 4441 H 450.688 -6.13911 2.0426 0
M  V30 4442 N 450.82 -0.546701 -1.47814 0
M  V30 4443 C 452.097 0.0464413 -1.95545 0
M  V30 4444 C 452.477 1.4962 -1.48919 0
M  V30 4445 O 451.825 2.16752 -0.723232 0
M  V30 4446 C 452.035 -0.0881298 -3.48889 0
M  V30 4447 C 453.383 0.0626059 -4.24554 0
M  V30 4448 O 454.407 -0.0151555 -3.56197 0
M  V30 4449 O 453.266 0.228071 -5.46024 0
M  V30 4450 H 450.36 0.0700004 -0.824032 0
M  V30 4451 H 452.906 -0.612482 -1.58262 0
M  V30 4452 H 451.678 -1.09737 -3.75597 0
M  V30 4453 H 451.301 0.608886 -3.9291 0
M  V30 4454 N 452.299 1.55045 -0.282633 0
M  V30 4455 C 453.249 2.19514 0.616249 0
M  V30 4456 C 454.233 1.16216 1.11277 0
M  V30 4457 O 455.425 1.42004 1.05659 0
M  V30 4458 C 452.554 2.92548 1.7964 0
M  V30 4459 C 451.64 4.03142 1.31671 0
M  V30 4460 N 452.031 5.0276 0.553695 0
M  V30 4461 C 450.329 4.1635 1.59903 0
M  V30 4462 C 451.03 5.80923 0.30054 0
M  V30 4463 N 450.006 5.3651 0.875116 0
M  V30 4464 H 453.808 2.93889 0.0255363 0
M  V30 4465 H 451.322 1.62169 -0.0865362 0
M  V30 4466 H 453.319 3.37188 2.45173 0
M  V30 4467 H 451.979 2.19685 2.39099 0
M  V30 4468 H 452.99 5.17512 0.20032 0
M  V30 4469 H 449.667 3.54682 2.20243 0
M  V30 4470 H 451.057 6.7118 -0.311053 0
M  V30 4471 N 453.777 0.010035 1.57597 0
M  V30 4472 C 455.023 -0.673697 1.91283 0
M  V30 4473 C 455.356 -1.72863 0.884979 0
M  V30 4474 O 454.631 -1.94268 -0.0949487 0
M  V30 4475 C 454.914 -1.30766 3.35518 0
M  V30 4476 C 454.767 -0.263578 4.49027 0
M  V30 4477 C 456.086 -2.23105 3.79358 0
M  V30 4478 H 453.205 -0.243439 0.695634 0
M  V30 4479 H 455.847 0.0633864 1.89894 0
M  V30 4480 H 453.997 -1.93588 3.36832 0
M  V30 4481 H 455.669 0.365738 4.59848 0
M  V30 4482 H 453.912 0.413077 4.31829 0
M  V30 4483 H 454.583 -0.746398 5.4693 0
M  V30 4484 H 457.059 -1.70289 3.79659 0
M  V30 4485 H 455.935 -2.64424 4.81011 0
M  V30 4486 H 456.196 -3.11433 3.13787 0
M  V30 4487 N 455.255 -1.55392 -0.262866 0
M  V30 4488 C 456.203 -1.8977 -1.345 0
M  V30 4489 C 457.197 -0.775063 -1.50629 0
M  V30 4490 O 458.403 -0.959519 -1.52293 0
M  V30 4491 H 454.778 -0.602467 -0.450041 0
M  V30 4492 H 456.749 -2.80147 -1.02762 0
M  V30 4493 C 455.498 -2.19501 -2.69657 0
M  V30 4494 H 454.821 -3.05378 -2.5804 0
M  V30 4495 H 456.261 -2.47469 -3.44289 0
M  V30 4496 C 454.72 -1.00597 -3.21531 0
M  V30 4497 O 455.25 -0.245768 -4.00947 0
M  V30 4498 N 453.456 -0.800911 -2.79345 0
M  V30 4499 H 453.003 -1.42079 -2.14875 0
M  V30 4500 H 452.961 -0.00697996 -3.14399 0
M  V30 4501 N 456.733 0.527833 -1.48498 0
M  V30 4502 C 457.696 1.61439 -1.62696 0
M  V30 4503 C 458.696 1.52824 -0.500136 0
M  V30 4504 O 459.886 1.56456 -0.765976 0
M  V30 4505 C 457.018 3.01063 -1.59918 0
M  V30 4506 H 458.211 1.50189 -2.59583 0
M  V30 4507 H 455.764 0.750055 -1.37127 0
M  V30 4508 H 456.499 3.17818 -0.645163 0
M  V30 4509 H 456.284 3.08725 -2.41726 0
M  V30 4510 H 457.774 3.80057 -1.73051 0
M  V30 4511 N 458.211 1.37122 0.776871 0
M  V30 4512 C 459.161 1.28989 1.88005 0
M  V30 4513 C 460.145 0.178765 1.59904 0
M  V30 4514 O 461.337 0.412705 1.72121 0
M  V30 4515 C 458.466 1.09402 3.25402 0
M  V30 4516 C 457.552 2.25036 3.59471 0
M  V30 4517 N 457.943 3.50407 3.64759 0
M  V30 4518 C 456.241 2.17078 3.89607 0
M  V30 4519 C 456.942 4.26628 3.95428 0
M  V30 4520 N 455.918 3.55709 4.11062 0
M  V30 4521 H 459.72 2.2394 1.90337 0
M  V30 4522 H 457.234 1.30021 0.973052 0
M  V30 4523 H 459.231 1.01661 4.04315 0
M  V30 4524 H 457.891 0.153632 3.24336 0
M  V30 4525 H 458.902 3.8438 3.47091 0
M  V30 4526 H 455.579 1.31067 3.96393 0
M  V30 4527 H 456.969 5.35107 4.06338 0
M  V30 4528 N 459.689 -1.00246 1.21608 0
M  V30 4529 C 460.937 -1.73717 1.0328 0
M  V30 4530 C 461.258 -1.90102 -0.434318 0
M  V30 4531 O 460.528 -1.45376 -1.31311 0
M  V30 4532 H 459.108 -0.643613 0.379172 0
M  V30 4533 H 461.77 -1.20787 1.52959 0
M  V30 4534 H 460.866 -2.73535 1.50283 0
M  V30 4535 N 461.167 -1.02423 -1.1978 0
M  V30 4536 C 462.395 -0.737456 -1.93311 0
M  V30 4537 C 462.81 0.703023 -1.75223 0
M  V30 4538 O 462.167 1.47761 -1.07112 0
M  V30 4539 C 462.218 -1.0733 -3.45199 0
M  V30 4540 O 461.939 -2.4572 -3.62702 0
M  V30 4541 C 463.44 -0.80866 -4.35862 0
M  V30 4542 H 460.66 -0.2702 -0.614193 0
M  V30 4543 H 463.204 -1.36747 -1.52054 0
M  V30 4544 H 461.359 -0.488545 -3.84307 0
M  V30 4545 H 461.773 -2.58081 -4.56612 0
M  V30 4546 H 463.247 -1.09365 -5.41057 0
M  V30 4547 H 463.724 0.257025 -4.38447 0
M  V30 4548 H 464.33 -1.37592 -4.02428 0
M  V30 4549 N 462.645 1.35699 -0.801477 0
M  V30 4550 C 463.608 2.28199 -0.213994 0
M  V30 4551 C 464.608 1.49359 0.595691 0
M  V30 4552 O 465.798 1.69186 0.414921 0
M  V30 4553 C 462.93 3.33587 0.702297 0
M  V30 4554 H 464.123 2.81666 -1.02976 0
M  V30 4555 H 461.676 1.45467 -0.571759 0
M  V30 4556 H 462.411 2.85297 1.54195 0
M  V30 4557 H 462.196 3.91906 0.123484 0
M  V30 4558 H 463.686 4.02638 1.10783 0
M  V30 4559 N 464.123 0.554532 1.47522 0
M  V30 4560 C 465.351 0.034257 2.06872 0
M  V30 4561 C 465.766 -1.25826 1.40759 0
M  V30 4562 O 465.123 -1.75425 0.503217 0
M  V30 4563 C 465.174 -0.167827 3.6111 0
M  V30 4564 O 464.895 1.07351 4.24744 0
M  V30 4565 C 466.396 -0.72569 4.3732 0
M  V30 4566 H 463.616 0.0446275 0.669514 0
M  V30 4567 H 466.16 0.767181 1.89564 0
M  V30 4568 H 464.315 -0.850872 3.7794 0
M  V30 4569 H 464.729 0.869563 5.17242 0
M  V30 4570 H 466.203 -0.816394 5.45929 0
M  V30 4571 H 466.68 -1.73635 4.0342 0
M  V30 4572 H 467.286 -0.0784292 4.25228 0
M  V30 4573 N 465.601 -1.54893 0.290851 0
M  V30 4574 C 467.012 -1.85584 -0.203816 0
M  V30 4575 C 467.363 -1.21285 -1.54222 0
M  V30 4576 O 466.488 -0.506841 -2.10381 0
M  V30 4577 C 467.083 -3.367 -0.376595 0
M  V30 4578 C 465.642 -3.6746 -0.815485 0
M  V30 4579 C 464.789 -2.77178 0.0821087 0
M  V30 4580 H 467.74 -1.50208 0.512175 0
M  V30 4581 H 467.761 -3.60656 -1.21275 0
M  V30 4582 H 467.273 -3.8347 0.59767 0
M  V30 4583 H 465.374 -3.26201 -1.80066 0
M  V30 4584 H 465.487 -4.7478 -0.641905 0
M  V30 4585 H 463.851 -2.50925 -0.436895 0
M  V30 4586 H 464.634 -3.26767 1.05254 0
M  V30 4587 N 467.08 -0.0183926 -1.57589 0
M  V30 4588 C 468.329 0.66185 -1.90532 0
M  V30 4589 C 468.642 1.73904 -0.895366 0
M  V30 4590 O 469.848 2.47518 -1.11566 0
M  V30 4591 C 468.304 1.22844 -3.38286 0
M  V30 4592 C 467.912 0.185103 -4.47617 0
M  V30 4593 C 469.656 1.88581 -3.80312 0
M  V30 4594 C 467.563 0.762723 -5.86461 0
M  V30 4595 H 466.493 0.250972 -0.711006 0
M  V30 4596 H 469.144 -0.0819435 -1.83317 0
M  V30 4597 H 467.526 2.0235 -3.40398 0
M  V30 4598 H 468.7 -0.58671 -4.5705 0
M  V30 4599 H 467.015 -0.372889 -4.14727 0
M  V30 4600 H 469.612 2.32735 -4.81392 0
M  V30 4601 H 469.955 2.72408 -3.14801 0
M  V30 4602 H 470.488 1.15782 -3.80578 0
M  V30 4603 H 467.227 -0.0371713 -6.55489 0
M  V30 4604 H 466.747 1.50327 -5.80656 0
M  V30 4605 H 468.426 1.25576 -6.34697 0
M  V30 4606 N 468.558 1.5553 0.254621 0
M  V30 4607 C 469.806 1.7665 0.981793 0
M  V30 4608 C 470.127 0.580963 1.86145 0
M  V30 4609 O 469.397 -0.403537 1.91699 0
M  V30 4610 H 467.977 0.651475 0.365498 0
M  V30 4611 H 470.639 1.92958 0.274426 0
M  V30 4612 H 469.735 2.67486 1.60802 0
M  V30 4613 N 470.036 -0.519951 1.48776 0
M  V30 4614 C 471.313 -1.28123 1.47797 0
M  V30 4615 C 471.693 -2.10196 0.195157 0
M  V30 4616 O 471.041 -2.13167 -0.822925 0
M  V30 4617 C 471.251 -2.15413 2.74587 0
M  V30 4618 C 472.599 -2.75225 3.23321 0
M  V30 4619 O 473.623 -2.25694 2.75574 0
M  V30 4620 O 472.482 -3.65346 4.06429 0
M  V30 4621 H 469.576 -0.578793 0.590701 0
M  V30 4622 H 472.122 -0.535779 1.6102 0
M  V30 4623 H 470.894 -1.54617 3.59457 0
M  V30 4624 H 470.517 -2.97186 2.64132 0
M  V30 4625 N 471.514 -1.37532 -0.769588 0
M  V30 4626 C 472.477 -1.33292 -1.86456 0
M  V30 4627 C 473.477 -0.236537 -1.59051 0
M  V30 4628 O 474.667 -0.492511 -1.67093 0
M  V30 4629 C 471.799 -1.07118 -3.23633 0
M  V30 4630 H 472.992 -2.30692 -1.91628 0
M  V30 4631 H 470.545 -1.22593 -0.969572 0
M  V30 4632 H 471.28 -0.102578 -3.24138 0
M  V30 4633 H 471.065 -1.86479 -3.44917 0
M  V30 4634 H 472.555 -1.06806 -4.03711 0
M  V30 4635 N 472.992 0.995999 -1.22138 0
M  V30 4636 C 473.955 2.06711 -0.990109 0
M  V30 4637 C 474.955 1.60744 0.0422978 0
M  V30 4638 O 476.145 1.73095 -0.195895 0
M  V30 4639 C 473.277 3.37288 -0.49491 0
M  V30 4640 H 474.47 2.28661 -1.94047 0
M  V30 4641 H 472.023 1.16711 -1.03963 0
M  V30 4642 H 472.758 3.21022 0.459948 0
M  V30 4643 H 472.543 3.71986 -1.23971 0
M  V30 4644 H 474.033 4.16103 -0.353253 0
M  V30 4645 N 474.47 1.03057 1.19235 0
M  V30 4646 C 475.38 0.622922 2.26179 0
M  V30 4647 C 476.396 -0.346113 1.70523 0
M  V30 4648 O 477.572 -0.203572 2.00369 0
M  V30 4649 C 474.637 -0.0182063 3.46695 0
M  V30 4650 C 473.698 0.998546 4.17526 0
M  V30 4651 C 472.931 0.387917 5.32288 0
M  V30 4652 O 473.154 -0.808668 5.64639 0
M  V30 4653 O 472.088 1.1116 5.91546 0
M  V30 4654 H 475.914 1.51363 2.63292 0
M  V30 4655 H 473.499 0.800856 1.26122 0
M  V30 4656 H 475.381 -0.375606 4.19723 0
M  V30 4657 H 474.056 -0.882895 3.11427 0
M  V30 4658 H 472.963 1.40756 3.4661 0
M  V30 4659 H 474.296 1.83366 4.56769 0
M  V30 4660 N 475.948 -1.35272 0.808662 0
M  V30 4661 C 476.911 -2.28082 0.226093 0
M  V30 4662 C 477.911 -1.49673 -0.587762 0
M  V30 4663 O 479.101 -1.69404 -0.405943 0
M  V30 4664 C 476.233 -3.33955 -0.684596 0
M  V30 4665 H 477.426 -2.81116 1.04469 0
M  V30 4666 H 474.979 -1.45162 0.579466 0
M  V30 4667 H 475.714 -2.86111 -1.5268 0
M  V30 4668 H 475.499 -3.91965 -0.102699 0
M  V30 4669 H 476.989 -4.03219 -1.08646 0
M  V30 4670 N 477.426 -0.562348 -1.47226 0
M  V30 4671 C 478.374 0.195476 -2.31777 0
M  V30 4672 C 479.368 0.90433 -1.43242 0
M  V30 4673 O 480.574 0.825031 -1.59979 0
M  V30 4674 H 476.949 0.0819095 -0.747526 0
M  V30 4675 H 478.92 -0.536753 -2.93533 0
M  V30 4676 C 477.669 1.20902 -3.26003 0
M  V30 4677 H 476.992 0.672997 -3.94095 0
M  V30 4678 H 478.432 1.71006 -3.87986 0
M  V30 4679 C 476.891 2.25955 -2.49891 0
M  V30 4680 O 477.421 3.32969 -2.2471 0
M  V30 4681 N 475.627 2.00019 -2.1081 0
M  V30 4682 H 475.174 1.13006 -2.31489 0
M  V30 4683 H 475.132 2.70523 -1.60201 0
M  V30 4684 N 478.904 1.54736 -0.299062 0
M  V30 4685 C 479.867 2.22127 0.565012 0
M  V30 4686 C 480.867 1.20669 1.06281 0
M  V30 4687 O 482.057 1.45417 0.959145 0
M  V30 4688 C 479.189 2.90611 1.78208 0
M  V30 4689 H 480.382 2.99891 -0.0237448 0
M  V30 4690 H 477.935 1.5622 -0.0498788 0
M  V30 4691 H 478.67 2.16921 2.41072 0
M  V30 4692 H 478.455 3.64984 1.43281 0
M  V30 4693 H 479.945 3.42026 2.396 0
M  V30 4694 N 480.382 0.0267497 1.57577 0
M  V30 4695 C 481.631 -0.651736 1.9088 0
M  V30 4696 C 481.944 -1.73427 0.904576 0
M  V30 4697 O 483.15 -2.46923 1.12877 0
M  V30 4698 C 481.606 -1.21048 3.38933 0
M  V30 4699 C 481.214 -0.161362 4.47709 0
M  V30 4700 C 482.958 -1.86562 3.81307 0
M  V30 4701 C 480.865 -0.731611 5.86857 0
M  V30 4702 H 479.795 -0.247198 0.712326 0
M  V30 4703 H 482.446 0.0916641 1.83271 0
M  V30 4704 H 480.828 -2.00542 3.41466 0
M  V30 4705 H 482.002 0.61094 4.56732 0
M  V30 4706 H 480.317 0.394877 4.14523 0
M  V30 4707 H 482.914 -2.30178 4.8262 0
M  V30 4708 H 483.257 -2.70735 3.16241 0
M  V30 4709 H 483.79 -1.13762 3.81186 0
M  V30 4710 H 480.529 0.0719329 6.55461 0
M  V30 4711 H 480.049 -1.47245 5.81445 0
M  V30 4712 H 481.728 -1.22208 6.35354 0
M  V30 4713 N 481.861 -1.55662 -0.24637 0
M  V30 4714 C 483.277 -1.48098 -0.594907 0
M  V30 4715 C 483.477 -0.717044 -1.8831 0
M  V30 4716 O 482.533 -0.246618 -2.51293 0
M  V30 4717 C 483.846 -2.92507 -0.697146 0
M  V30 4718 C 485.394 -3.02881 -0.789436 0
M  V30 4719 C 485.869 -4.48598 -0.923232 0
M  V30 4720 N 487.36 -4.52538 -0.988088 0
M  V30 4721 C 488.095 -5.62536 -1.11089 0
M  V30 4722 N 487.591 -6.82342 -1.19919 0
M  V30 4723 N 489.384 -5.50334 -1.14408 0
M  V30 4724 H 481.535 -2.0377 0.599278 0
M  V30 4725 H 483.798 -0.925145 0.20691 0
M  V30 4726 H 483.504 -3.51242 0.179396 0
M  V30 4727 H 483.378 -3.43024 -1.5689 0
M  V30 4728 H 485.765 -2.44226 -1.65643 0
M  V30 4729 H 485.846 -2.55574 0.107482 0
M  V30 4730 H 485.49 -5.07864 -0.0607927 0
M  V30 4731 H 485.42 -4.93587 -1.8352 0
M  V30 4732 H 487.911 -3.66248 -0.931167 0
M  V30 4733 H 488.224 -7.61924 -1.29197 0
M  V30 4734 H 486.569 -6.85102 -1.16876 0
M  V30 4735 H 489.76 -4.5567 -1.07158 0
M  V30 4736 H 489.933 -6.36096 -1.23634 0
M  V30 4737 N 483.339 0.512053 -1.4905 0
M  V30 4738 C 484.585 1.26874 -1.58212 0
M  V30 4739 C 484.918 1.9241 -0.263073 0
M  V30 4740 O 484.193 1.80181 0.732476 0
M  V30 4741 C 484.476 2.34428 -2.73341 0
M  V30 4742 C 484.329 1.73466 -4.15006 0
M  V30 4743 C 485.648 3.36073 -2.84154 0
M  V30 4744 H 482.767 0.459924 -0.575881 0
M  V30 4745 H 485.409 0.568587 -1.81293 0
M  V30 4746 H 483.559 2.94146 -2.53792 0
M  V30 4747 H 485.231 1.17661 -4.46042 0
M  V30 4748 H 483.474 1.03921 -4.21168 0
M  V30 4749 H 484.145 2.51426 -4.91415 0
M  V30 4750 H 486.621 2.86332 -3.01916 0
M  V30 4751 H 485.497 4.08703 -3.66406 0
M  V30 4752 H 485.758 3.97725 -1.93048 0
M  V30 4753 N 484.817 1.37938 0.762283 0
M  V30 4754 C 485.78 1.34279 1.85747 0
M  V30 4755 C 486.78 0.244969 1.58923 0
M  V30 4756 O 487.97 0.501365 1.66829 0
M  V30 4757 C 485.102 1.08833 3.23061 0
M  V30 4758 H 486.295 2.31705 1.90401 0
M  V30 4759 H 483.848 1.23105 0.963057 0
M  V30 4760 H 484.583 0.119767 3.24079 0
M  V30 4761 H 484.368 1.88306 3.43923 0
M  V30 4762 H 485.858 1.08946 4.03138 0
M  V30 4763 N 486.295 -0.989507 1.22664 0
M  V30 4764 C 487.543 -1.72612 1.05117 0
M  V30 4765 C 487.864 -1.90552 -0.414131 0
M  V30 4766 O 487.134 -1.4676 -1.29762 0
M  V30 4767 H 485.714 -0.639555 0.385977 0
M  V30 4768 H 488.376 -1.19158 1.54232 0
M  V30 4769 H 487.472 -2.71926 1.53175 0
M  V30 4770 N 487.773 -1.03688 -1.18687 0
M  V30 4771 C 489.013 -0.746858 -1.90267 0
M  V30 4772 C 489.377 0.712075 -1.78307 0
M  V30 4773 O 490.578 1.11553 -2.44559 0
M  V30 4774 C 488.849 -1.19543 -3.36815 0
M  V30 4775 S 490.408 -1.03047 -4.26529 0
M  V30 4776 H 487.226 -0.271663 -0.657054 0
M  V30 4777 H 489.828 -1.32838 -1.43437 0
M  V30 4778 H 488.532 -2.2527 -3.43047 0
M  V30 4779 H 488.063 -0.607533 -3.88681 0
M  V30 4780 H 490.078 0.0543232 -4.9617 0
M  V30 4781 N 489.251 1.34841 -0.815825 0
M  V30 4782 C 490.528 1.92908 -0.323416 0
M  V30 4783 C 490.908 1.74479 1.18828 0
M  V30 4784 O 490.256 1.11928 1.99209 0
M  V30 4785 C 490.466 3.40957 -0.744952 0
M  V30 4786 C 491.814 4.18107 -0.739716 0
M  V30 4787 O 492.838 3.49511 -0.68708 0
M  V30 4788 O 491.697 5.40517 -0.806456 0
M  V30 4789 H 488.791 0.822436 -0.0867646 0
M  V30 4790 H 491.337 1.4386 -0.90014 0
M  V30 4791 H 490.109 3.4814 -1.78646 0
M  V30 4792 H 489.732 3.97341 -0.143535 0
M  V30 4793 N 490.729 0.570148 1.46925 0
M  V30 4794 C 491.661 -0.207909 2.28255 0
M  V30 4795 C 492.674 -0.867301 1.37774 0
M  V30 4796 O 493.863 -0.738976 1.62485 0
M  V30 4797 C 490.963 -1.31298 3.12433 0
M  V30 4798 C 490.136 -0.747915 4.30958 0
M  V30 4799 C 489.195 -1.7391 4.9663 0
M  V30 4800 O 488.221 -1.2801 5.54619 0
M  V30 4801 N 489.423 -3.07288 4.92498 0
M  V30 4802 H 492.188 0.489794 2.95671 0
M  V30 4803 H 489.749 0.407076 1.56699 0
M  V30 4804 H 491.741 -1.97507 3.53232 0
M  V30 4805 H 490.311 -1.91373 2.47175 0
M  V30 4806 H 489.531 0.0913066 3.94094 0
M  V30 4807 H 490.819 -0.349958 5.07595 0
M  V30 4808 H 490.217 -3.47213 4.46609 0
M  V30 4809 H 488.774 -3.69021 5.37277 0
M  V30 4810 N 492.207 -1.54576 0.307264 0
M  V30 4811 C 493.17 -2.22423 -0.553224 0
M  V30 4812 C 494.17 -1.21231 -1.05639 0
M  V30 4813 O 495.36 -1.45923 -0.951419 0
M  V30 4814 C 492.492 -2.91552 -1.76664 0
M  V30 4815 H 493.685 -2.99874 0.0396484 0
M  V30 4816 H 491.238 -1.56192 0.0581629 0
M  V30 4817 H 491.973 -2.18196 -2.39918 0
M  V30 4818 H 491.758 -3.65738 -1.41343 0
M  V30 4819 H 493.248 -3.43292 -2.37783 0
M  V30 4820 N 493.685 -0.035106 -1.57561 0
M  V30 4821 C 494.648 0.929819 -2.09492 0
M  V30 4822 C 495.648 1.25026 -1.01119 0
M  V30 4823 O 496.838 1.18961 -1.27255 0
M  V30 4824 C 493.97 2.24457 -2.56577 0
M  V30 4825 H 495.163 0.479935 -2.96035 0
M  V30 4826 H 492.716 0.213033 -1.54841 0
M  V30 4827 H 493.451 2.74061 -1.73382 0
M  V30 4828 H 493.236 2.02508 -3.35757 0
M  V30 4829 H 494.726 2.93607 -2.96959 0
M  V30 4830 N 495.163 1.55791 0.238111 0
M  V30 4831 C 496.409 1.78297 0.966337 0
M  V30 4832 C 496.742 0.601903 1.84637 0
M  V30 4833 O 496.017 -0.399499 1.90353 0
M  V30 4834 C 496.3 3.10758 1.81939 0
M  V30 4835 C 496.153 4.39283 0.966958 0
M  V30 4836 C 497.472 3.39519 2.80027 0
M  V30 4837 H 494.591 0.648654 0.349882 0
M  V30 4838 H 497.233 1.88525 0.236253 0
M  V30 4839 H 495.383 3.02168 2.44185 0
M  V30 4840 H 497.055 4.59873 0.362514 0
M  V30 4841 H 495.298 4.32948 0.271669 0
M  V30 4842 H 495.969 5.28368 1.59784 0
M  V30 4843 H 498.445 3.48128 2.27917 0
M  V30 4844 H 497.321 4.33402 3.36829 0
M  V30 4845 H 497.582 2.60864 3.56934 0
M  V30 4846 N 496.642 -0.504142 1.49319 0
M  V30 4847 C 497.872 -1.28071 1.62116 0
M  V30 4848 C 498.28 -1.86955 0.290566 0
M  V30 4849 O 497.623 -1.68415 -0.733616 0
M  V30 4850 C 497.685 -2.4521 2.62893 0
M  V30 4851 C 497.349 -2.07218 4.0732 0
M  V30 4852 C 498.346 -1.61375 4.94221 0
M  V30 4853 C 496.031 -2.16949 4.53033 0
M  V30 4854 C 498.025 -1.25763 6.2487 0
M  V30 4855 C 495.712 -1.80949 5.83696 0
M  V30 4856 C 496.71 -1.3543 6.69438 0
M  V30 4857 O 496.398 -0.99915 7.97667 0
M  V30 4858 H 496.13 -0.394763 0.54876 0
M  V30 4859 H 498.684 -0.612118 1.96067 0
M  V30 4860 H 496.914 -3.15134 2.24115 0
M  V30 4861 H 498.603 -3.0724 2.65252 0
M  V30 4862 H 499.369 -1.53306 4.60133 0
M  V30 4863 H 495.248 -2.5133 3.86463 0
M  V30 4864 H 498.792 -0.901631 6.91749 0
M  V30 4865 H 494.689 -1.88667 6.17313 0
M  V30 4866 H 495.457 -1.13089 8.1065 0
M  V30 4867 N 498.12 -1.38341 -0.754957 0
M  V30 4868 C 499.083 -1.35262 -1.85032 0
M  V30 4869 C 500.083 -0.253393 -1.58791 0
M  V30 4870 O 501.273 -0.510205 -1.66561 0
M  V30 4871 C 498.405 -1.10544 -3.22479 0
M  V30 4872 H 499.598 -2.32712 -1.8917 0
M  V30 4873 H 497.151 -1.23614 -0.956515 0
M  V30 4874 H 497.886 -0.136952 -3.24011 0
M  V30 4875 H 497.671 -1.90127 -3.4292 0
M  V30 4876 H 499.161 -1.11082 -4.02555 0
M  V30 4877 N 499.598 0.982988 -1.23187 0
M  V30 4878 C 501.009 1.53847 -1.05773 0
M  V30 4879 C 501.36 1.92568 0.375744 0
M  V30 4880 O 500.485 1.75783 1.26211 0
M  V30 4881 C 501.08 2.79567 -1.91384 0
M  V30 4882 C 499.639 3.31524 -1.78238 0
M  V30 4883 C 498.786 2.04534 -1.87246 0
M  V30 4884 H 501.737 0.802962 -1.36888 0
M  V30 4885 H 501.758 3.52317 -1.43711 0
M  V30 4886 H 501.27 2.51353 -2.95708 0
M  V30 4887 H 499.371 3.64623 -0.766875 0
M  V30 4888 H 499.484 4.01457 -2.61475 0
M  V30 4889 H 497.848 2.1855 -1.30797 0
M  V30 4890 H 498.631 1.78706 -2.9312 0
M  V30 4891 N 501.076 1.04316 1.18135 0
M  V30 4892 C 502.023 0.636398 2.21853 0
M  V30 4893 C 502.993 -0.357039 1.62217 0
M  V30 4894 O 504.178 -0.250453 1.89149 0
M  V30 4895 C 501.318 0.00812779 3.45099 0
M  V30 4896 C 500.431 1.04933 4.19062 0
M  V30 4897 C 499.566 0.389313 5.29771 0
M  V30 4898 C 498.605 1.41544 5.9551 0
M  V30 4899 N 497.742 0.78021 6.97751 0
M  V30 4900 H 502.582 1.52536 2.56002 0
M  V30 4901 H 500.119 0.76304 1.25762 0
M  V30 4902 H 502.077 -0.373497 4.15525 0
M  V30 4903 H 500.707 -0.844336 3.11562 0
M  V30 4904 H 499.759 1.54888 3.47439 0
M  V30 4905 H 501.071 1.82862 4.64072 0
M  V30 4906 H 500.225 -0.0463805 6.06682 0
M  V30 4907 H 498.964 -0.422038 4.8587 0
M  V30 4908 H 497.969 1.86124 5.17337 0
M  V30 4909 H 499.194 2.22854 6.41493 0
M  V30 4910 H 497.14 -0.0107899 6.55999 0
M  V30 4911 H 497.057 1.49716 7.41027 0
M  V30 4912 H 498.325 0.368996 7.78626 0
M  V30 4913 N 502.554 -1.34406 0.822964 0
M  V30 4914 C 503.779 -2.0304 0.423034 0
M  V30 4915 C 504.204 -1.61568 -0.963196 0
M  V30 4916 O 503.562 -0.800339 -1.62678 0
M  V30 4917 C 503.61 -3.56636 0.53321 0
M  V30 4918 O 502.714 -4.09971 -0.446939 0
M  V30 4919 H 502.055 -0.64075 0.174171 0
M  V30 4920 H 504.585 -1.71653 1.11339 0
M  V30 4921 H 504.595 -4.05945 0.408991 0
M  V30 4922 H 503.27 -3.86168 1.54425 0
M  V30 4923 H 501.847 -3.71835 -0.281601 0
M  V30 4924 N 504.032 -0.577932 -1.46621 0
M  V30 4925 C 504.995 0.147805 -2.28723 0
M  V30 4926 C 505.995 0.823325 -1.38123 0
M  V30 4927 O 507.185 0.676011 -1.60548 0
M  V30 4928 C 504.317 1.21853 -3.18378 0
M  V30 4929 H 505.51 -0.573654 -2.94362 0
M  V30 4930 H 503.063 -0.335703 -1.52652 0
M  V30 4931 H 503.798 1.97173 -2.57475 0
M  V30 4932 H 503.583 0.738714 -3.85078 0
M  V30 4933 H 505.073 1.72768 -3.80186 0
M  V30 4934 N 505.51 1.54411 -0.315457 0
M  V30 4935 C 506.44 2.27002 0.547039 0
M  V30 4936 C 507.421 1.27492 1.12605 0
M  V30 4937 O 508.606 1.5629 1.15269 0
M  V30 4938 C 505.736 3.02171 1.71201 0
M  V30 4939 C 504.69 4.0895 1.26268 0
M  V30 4940 C 504.016 4.71915 2.51396 0
M  V30 4941 C 505.316 5.20891 0.383419 0
M  V30 4942 H 507.01 2.99343 -0.0584517 0
M  V30 4943 H 504.556 1.4397 -0.0295527 0
M  V30 4944 H 506.509 3.51681 2.32161 0
M  V30 4945 H 505.233 2.27433 2.34397 0
M  V30 4946 H 503.892 3.60312 0.676062 0
M  V30 4947 H 503.54 3.93801 3.12937 0
M  V30 4948 H 503.24 5.44039 2.22026 0
M  V30 4949 H 504.764 5.24195 3.13133 0
M  V30 4950 H 506.178 5.66206 0.899082 0
M  V30 4951 H 504.575 5.99821 0.182857 0
M  V30 4952 H 505.645 4.81324 -0.587821 0
M  V30 4953 N 506.988 0.0434614 1.5754 0
M  V30 4954 C 508.236 -0.630786 1.92004 0
M  V30 4955 C 508.557 -1.71836 0.921807 0
M  V30 4956 O 507.827 -1.9587 -0.034522 0
M  V30 4957 H 506.407 -0.235988 0.708745 0
M  V30 4958 H 509.069 0.0946462 1.9467 0
M  V30 4959 H 508.165 -1.07434 2.93026 0
M  V30 4960 N 508.466 -1.55915 -0.229846 0
M  V30 4961 C 509.416 -1.8813 -1.28807 0
M  V30 4962 C 510.4 -0.743621 -1.42685 0
M  V30 4963 O 511.592 -1.00588 -1.4564 0
M  V30 4964 C 508.721 -2.19431 -2.64017 0
M  V30 4965 C 507.807 -3.39569 -2.54074 0
M  V30 4966 N 508.198 -4.58404 -2.13774 0
M  V30 4967 C 506.496 -3.43019 -2.85051 0
M  V30 4968 C 507.197 -5.40557 -2.1488 0
M  V30 4969 N 506.173 -4.80054 -2.55047 0
M  V30 4970 H 509.975 -2.77527 -0.967261 0
M  V30 4971 H 507.489 -1.5637 -0.438433 0
M  V30 4972 H 509.486 -2.40681 -3.40409 0
M  V30 4973 H 508.146 -1.31341 -2.9695 0
M  V30 4974 H 509.157 -4.83716 -1.8504 0
M  V30 4975 H 505.834 -2.65249 -3.22411 0
M  V30 4976 H 507.224 -6.45666 -1.85918 0
M  V30 4977 N 509.944 0.496216 -1.49584 0
M  V30 4978 C 511.169 1.27865 -1.63295 0
M  V30 4979 C 511.594 1.85592 -0.306156 0
M  V30 4980 O 510.952 1.66092 0.726851 0
M  V30 4981 C 511 2.38128 -2.7079 0
M  V30 4982 O 510.104 3.42108 -2.30296 0
M  V30 4983 H 509.445 0.377279 -0.546403 0
M  V30 4984 H 511.975 0.593497 -1.95803 0
M  V30 4985 H 511.985 2.8382 -2.93104 0
M  V30 4986 H 510.66 1.95479 -3.67098 0
M  V30 4987 H 509.237 3.02301 -2.18331 0
M  V30 4988 N 511.423 1.38739 0.74761 0
M  V30 4989 C 512.672 1.3459 1.50228 0
M  V30 4990 C 512.985 -0.0595592 1.95509 0
M  V30 4991 O 514.191 -0.22361 2.70578 0
M  V30 4992 C 512.647 2.36377 2.71393 0
M  V30 4993 C 512.255 3.82573 2.33113 0
M  V30 4994 C 513.999 2.41281 3.49262 0
M  V30 4995 C 511.906 4.76032 3.50924 0
M  V30 4996 H 510.836 0.500312 0.564096 0
M  V30 4997 H 513.487 1.64324 0.8167 0
M  V30 4998 H 511.869 1.99694 3.41962 0
M  V30 4999 H 513.043 4.28227 1.70171 0
M  V30 5000 H 511.358 3.80844 1.68365 0
M  V30 5001 H 513.955 3.08301 4.36869 0
M  V30 5002 H 514.298 1.43353 3.9084 0
M  V30 5003 H 514.831 2.76793 2.85711 0
M  V30 5004 H 511.57 5.75177 3.14408 0
M  V30 5005 H 511.09 4.35066 4.12889 0
M  V30 5006 H 512.769 4.94331 4.17427 0
M  V30 5007 N 512.901 -0.976442 1.23707 0
M  V30 5008 C 514.149 -1.71487 1.06942 0
M  V30 5009 C 514.47 -1.9098 -0.393897 0
M  V30 5010 O 513.74 -1.48128 -1.28198 0
M  V30 5011 H 512.32 -0.635425 0.392739 0
M  V30 5012 H 514.982 -1.17515 1.55487 0
M  V30 5013 H 514.078 -2.70286 1.56051 0
M  V30 5014 N 514.379 -1.04941 -1.1758 0
M  V30 5015 C 515.342 -0.652456 -2.19717 0
M  V30 5016 C 516.342 0.294745 -1.58076 0
M  V30 5017 O 517.532 0.0789579 -1.74021 0
M  V30 5018 C 514.664 0.0420712 -3.40874 0
M  V30 5019 H 515.857 -1.55642 -2.5635 0
M  V30 5020 H 513.41 -0.842995 -1.31618 0
M  V30 5021 H 514.145 0.95943 -3.09783 0
M  V30 5022 H 513.93 -0.638844 -3.86861 0
M  V30 5023 H 515.42 0.306 -4.16477 0
M  V30 5024 N 515.857 1.33968 -0.830081 0
M  V30 5025 C 517.103 1.98357 -0.422191 0
M  V30 5026 C 517.436 1.65633 1.01387 0
M  V30 5027 O 516.711 0.931648 1.70735 0
M  V30 5028 C 516.994 3.54492 -0.633043 0
M  V30 5029 C 516.847 3.96934 -2.11574 0
M  V30 5030 C 518.166 4.40039 -0.0735584 0
M  V30 5031 H 515.285 0.720544 -0.154871 0
M  V30 5032 H 517.927 1.58749 -1.04397 0
M  V30 5033 H 516.077 3.88361 -0.103775 0
M  V30 5034 H 517.749 3.73363 -2.7092 0
M  V30 5035 H 515.992 3.46984 -2.60354 0
M  V30 5036 H 516.663 5.05651 -2.21406 0
M  V30 5037 H 519.139 4.12764 -0.52585 0
M  V30 5038 H 518.015 5.48327 -0.250841 0
M  V30 5039 H 518.276 4.30124 1.02202 0
M  V30 5040 N 517.335 0.585699 1.46312 0
M  V30 5041 C 518.583 0.072278 2.01971 0
M  V30 5042 C 518.904 -1.29345 1.45928 0
M  V30 5043 O 518.174 -1.84973 0.645109 0
M  V30 5044 H 516.754 0.023729 0.746623 0
M  V30 5045 H 519.416 0.762155 1.7938 0
M  V30 5046 H 518.512 0.00552767 3.121 0
M  V30 5047 N 518.813 -1.54241 0.323641 0
M  V30 5048 C 519.776 -2.22997 -0.529602 0
M  V30 5049 C 520.776 -1.22345 -1.04347 0
M  V30 5050 O 521.966 -1.46924 -0.935889 0
M  V30 5051 C 519.098 -2.93409 -1.73562 0
M  V30 5052 H 520.291 -2.99815 0.0714518 0
M  V30 5053 H 517.844 -1.56121 0.0747258 0
M  V30 5054 H 518.579 -2.20729 -2.37591 0
M  V30 5055 H 518.364 -3.67217 -1.37456 0
M  V30 5056 H 519.854 -3.45794 -2.34128 0
M  V30 5057 N 520.291 -0.0518155 -1.57515 0
M  V30 5058 C 521.221 0.920283 -2.146 0
M  V30 5059 C 522.202 1.32406 -1.06783 0
M  V30 5060 O 523.387 1.39866 -1.34726 0
M  V30 5061 C 520.517 2.1949 -2.6915 0
M  V30 5062 C 519.471 1.93116 -3.81956 0
M  V30 5063 C 518.797 3.27037 -4.23026 0
M  V30 5064 C 520.097 1.25225 -5.07066 0
M  V30 5065 H 521.791 0.444801 -2.96077 0
M  V30 5066 H 519.337 0.212508 -1.42423 0
M  V30 5067 H 521.29 2.87894 -3.07725 0
M  V30 5068 H 520.014 2.69244 -1.84865 0
M  V30 5069 H 518.673 1.27123 -3.43854 0
M  V30 5070 H 518.321 3.74595 -3.3569 0
M  V30 5071 H 518.021 3.10189 -4.99056 0
M  V30 5072 H 519.545 3.96673 -4.64202 0
M  V30 5073 H 520.959 1.83666 -5.43083 0
M  V30 5074 H 519.356 1.18702 -5.88243 0
M  V30 5075 H 520.426 0.228382 -4.84362 0
M  V30 5076 N 521.769 1.56035 0.221574 0
M  V30 5077 C 522.679 1.95581 1.29558 0
M  V30 5078 C 523.695 0.859639 1.51282 0
M  V30 5079 O 524.871 1.16321 1.64413 0
M  V30 5080 C 521.936 2.26447 2.62531 0
M  V30 5081 C 520.997 3.49632 2.4911 0
M  V30 5082 C 520.23 3.79017 3.75742 0
M  V30 5083 O 520.453 3.10077 4.78757 0
M  V30 5084 O 519.387 4.72507 3.72855 0
M  V30 5085 H 523.213 2.8711 0.990035 0
M  V30 5086 H 520.798 1.43244 0.424434 0
M  V30 5087 H 522.68 2.47494 3.41064 0
M  V30 5088 H 521.355 1.38092 2.92766 0
M  V30 5089 H 520.262 3.33864 1.68777 0
M  V30 5090 H 521.595 4.3837 2.23814 0
M  V30 5091 N 523.247 -0.488276 1.49845 0
M  V30 5092 C 524.472 -1.26997 1.63971 0
M  V30 5093 C 524.897 -1.85427 0.315994 0
M  V30 5094 O 524.255 -1.66475 -0.718032 0
M  V30 5095 C 524.303 -2.36689 2.72049 0
M  V30 5096 O 523.407 -3.40882 2.32107 0
M  V30 5097 H 522.748 -0.374376 0.548396 0
M  V30 5098 H 525.278 -0.583104 1.96115 0
M  V30 5099 H 525.288 -2.82262 2.94605 0
M  V30 5100 H 523.963 -1.93529 3.68129 0
M  V30 5101 H 522.54 -3.01139 2.19931 0
M  V30 5102 N 524.725 -1.39134 -0.740242 0
M  V30 5103 C 525.971 -1.36273 -1.50192 0
M  V30 5104 C 526.304 0.0430136 -1.94152 0
M  V30 5105 O 525.579 1.00691 -1.66408 0
M  V30 5106 C 525.862 -2.33041 -2.74525 0
M  V30 5107 C 525.715 -3.82535 -2.36617 0
M  V30 5108 C 527.034 -2.27723 -3.76604 0
M  V30 5109 H 524.153 -0.496323 -0.544823 0
M  V30 5110 H 526.795 -1.70085 -0.846815 0
M  V30 5111 H 524.945 -2.04337 -3.30422 0
M  V30 5112 H 526.617 -4.21967 -1.86391 0
M  V30 5113 H 524.86 -3.99565 -1.68909 0
M  V30 5114 H 525.531 -4.45723 -3.2563 0
M  V30 5115 H 528.007 -2.53091 -3.30279 0
M  V30 5116 H 526.883 -2.97519 -4.61274 0
M  V30 5117 H 527.144 -1.28049 -4.2315 0
M  V30 5118 N 526.204 0.969867 -1.24223 0
M  V30 5119 C 527.134 2.08191 -1.05729 0
M  V30 5120 C 528.115 1.70075 0.0290765 0
M  V30 5121 O 529.3 1.93712 -0.137583 0
M  V30 5122 C 526.43 3.40991 -0.658995 0
M  V30 5123 C 525.384 3.93054 -1.69389 0
M  V30 5124 C 524.71 5.22171 -1.15072 0
M  V30 5125 C 526.01 4.21137 -3.08935 0
M  V30 5126 H 527.704 2.23921 -1.98746 0
M  V30 5127 H 525.25 1.07602 -0.956967 0
M  V30 5128 H 527.203 4.18221 -0.51662 0
M  V30 5129 H 525.927 3.25155 0.30686 0
M  V30 5130 H 524.586 3.17977 -1.82444 0
M  V30 5131 H 524.234 5.02694 -0.175539 0
M  V30 5132 H 523.934 5.57973 -1.84229 0
M  V30 5133 H 525.458 6.02013 -1.02042 0
M  V30 5134 H 526.872 4.8908 -2.99121 0
M  V30 5135 H 525.269 4.68163 -3.75425 0
M  V30 5136 H 526.339 3.27996 -3.57137 0
M  V30 5137 N 527.682 1.05563 1.17022 0
M  V30 5138 C 528.91 0.78845 1.91288 0
M  V30 5139 C 529.325 -0.656318 1.77025 0
M  V30 5140 O 528.682 -1.44869 1.10992 0
M  V30 5141 C 528.733 1.16444 3.42232 0
M  V30 5142 O 528.454 2.5525 3.5606 0
M  V30 5143 C 529.955 0.923937 4.33565 0
M  V30 5144 H 527.175 0.286389 0.606813 0
M  V30 5145 H 529.719 1.4073 1.48375 0
M  V30 5146 H 527.874 0.590266 3.82877 0
M  V30 5147 H 528.288 2.70097 4.49609 0
M  V30 5148 H 529.762 1.23672 5.37968 0
M  V30 5149 H 530.239 -0.140688 4.38975 0
M  V30 5150 H 530.845 1.48214 3.98639 0
M  V30 5151 N 529.16 -1.33526 0.837174 0
M  V30 5152 C 530.406 -1.9813 0.432704 0
M  V30 5153 C 530.739 -1.66168 -1.00508 0
M  V30 5154 O 530.014 -0.94069 -1.70239 0
M  V30 5155 C 530.297 -3.54151 0.651834 0
M  V30 5156 C 530.15 -3.95806 2.13676 0
M  V30 5157 C 531.469 -4.39993 0.0968937 0
M  V30 5158 H 528.588 -0.719713 0.15869 0
M  V30 5159 H 531.23 -1.58193 1.05237 0
M  V30 5160 H 529.38 -3.88301 0.124369 0
M  V30 5161 H 531.052 -3.71921 2.72896 0
M  V30 5162 H 529.295 -3.45599 2.62191 0
M  V30 5163 H 529.966 -5.0447 2.24084 0
M  V30 5164 H 532.442 -4.12479 0.547733 0
M  V30 5165 H 531.318 -5.48186 0.279917 0
M  V30 5166 H 531.579 -4.3066 -0.9992 0
M  V30 5167 N 530.638 -0.59345 -1.46 0
M  V30 5168 C 531.568 0.121192 -2.33185 0
M  V30 5169 C 532.549 0.872977 -1.4599 0
M  V30 5170 O 533.734 0.846321 -1.74789 0
M  V30 5171 C 530.864 1.12844 -3.28456 0
M  V30 5172 C 529.818 0.4908 -4.25177 0
M  V30 5173 C 529.144 1.60529 -5.10034 0
M  V30 5174 C 530.444 -0.578949 -5.19081 0
M  V30 5175 H 532.138 -0.606767 -2.93187 0
M  V30 5176 H 529.684 -0.293242 -1.40983 0
M  V30 5177 H 531.637 1.63684 -3.88311 0
M  V30 5178 H 530.361 1.88681 -2.66584 0
M  V30 5179 H 529.02 0.00339328 -3.666 0
M  V30 5180 H 528.668 2.35359 -4.44539 0
M  V30 5181 H 528.368 1.18422 -5.75543 0
M  V30 5182 H 529.892 2.11623 -5.72755 0
M  V30 5183 H 531.306 -0.155199 -5.7309 0
M  V30 5184 H 529.703 -0.920947 -5.92991 0
M  V30 5185 H 530.773 -1.46109 -4.62364 0
M  V30 5186 N 532.116 1.54067 -0.331816 0
M  V30 5187 C 533.344 2.05131 0.269996 0
M  V30 5188 C 533.759 1.20749 1.45138 0
M  V30 5189 O 533.116 0.240069 1.80914 0
M  V30 5190 C 533.167 3.54728 0.696456 0
M  V30 5191 O 532.888 4.35906 -0.43794 0
M  V30 5192 C 534.389 4.21916 1.36021 0
M  V30 5193 H 531.609 0.668807 0.0542042 0
M  V30 5194 H 534.153 1.98777 -0.4804 0
M  V30 5195 H 532.308 3.61342 1.39681 0
M  V30 5196 H 532.722 5.24404 -0.100334 0
M  V30 5197 H 534.196 5.28015 1.60947 0
M  V30 5198 H 534.673 3.73538 2.31011 0
M  V30 5199 H 535.279 4.19463 0.702212 0
M  V30 5200 N 533.594 0.0601682 1.57485 0
M  V30 5201 C 534.524 -0.90889 2.15085 0
M  V30 5202 C 535.505 -1.31838 1.07484 0
M  V30 5203 O 536.69 -1.3915 1.35466 0
M  V30 5204 C 533.82 -2.18059 2.7031 0
M  V30 5205 C 532.774 -1.91088 3.82974 0
M  V30 5206 C 532.1 -3.24789 4.24754 0
M  V30 5207 C 533.4 -1.22535 5.07723 0
M  V30 5208 H 535.094 -0.429093 2.96309 0
M  V30 5209 H 532.64 -0.204952 1.42534 0
M  V30 5210 H 534.593 -2.86258 3.09248 0
M  V30 5211 H 533.317 -2.6826 1.8629 0
M  V30 5212 H 531.976 -1.25297 3.44523 0
M  V30 5213 H 531.624 -3.72809 3.37672 0
M  V30 5214 H 531.324 -3.07538 5.00694 0
M  V30 5215 H 532.848 -3.94205 4.66299 0
M  V30 5216 H 534.262 -1.80783 5.4405 0
M  V30 5217 H 532.659 -1.1558 5.88864 0
M  V30 5218 H 533.729 -0.202692 4.84476 0
M  V30 5219 N 535.072 -1.5615 -0.213296 0
M  V30 5220 C 536.488 -1.49327 -0.56336 0
M  V30 5221 C 536.688 -0.756826 -1.86747 0
M  V30 5222 O 535.744 -0.299866 -2.50713 0
M  V30 5223 C 537.057 -2.9392 -0.634944 0
M  V30 5224 C 538.605 -3.04487 -0.725013 0
M  V30 5225 C 539.08 -4.50456 -0.82787 0
M  V30 5226 N 540.571 -4.54533 -0.891876 0
M  V30 5227 C 541.306 -5.64766 -0.991315 0
M  V30 5228 N 540.802 -6.84733 -1.05419 0
M  V30 5229 N 542.595 -5.52637 -1.02709 0
M  V30 5230 H 534.746 -2.02453 0.642366 0
M  V30 5231 H 537.009 -0.920548 0.226487 0
M  V30 5232 H 536.715 -3.50783 0.253859 0
M  V30 5233 H 536.589 -3.46274 -1.49579 0
M  V30 5234 H 538.976 -2.47685 -1.60425 0
M  V30 5235 H 539.057 -2.55289 0.161669 0
M  V30 5236 H 538.701 -5.07878 0.0469464 0
M  V30 5237 H 538.631 -4.97369 -1.73009 0
M  V30 5238 H 541.122 -3.68141 -0.85327 0
M  V30 5239 H 541.435 -7.64493 -1.13007 0
M  V30 5240 H 539.78 -6.87427 -1.02318 0
M  V30 5241 H 542.971 -4.5784 -0.974687 0
M  V30 5242 H 543.144 -6.38576 -1.10113 0
M  V30 5243 N 536.55 0.480323 -1.50102 0
M  V30 5244 C 537.827 1.24159 -1.51142 0
M  V30 5245 C 538.207 2.09605 -0.250818 0
M  V30 5246 O 537.555 2.15274 0.766118 0
M  V30 5247 C 537.765 2.08057 -2.80202 0
M  V30 5248 C 539.113 2.66556 -3.30504 0
M  V30 5249 O 540.137 2.18308 -2.81461 0
M  V30 5250 O 538.996 3.54442 -4.15973 0
M  V30 5251 H 536.09 0.562928 -0.605839 0
M  V30 5252 H 538.636 0.492899 -1.62384 0
M  V30 5253 H 537.408 1.45032 -3.6343 0
M  V30 5254 H 537.031 2.90079 -2.71919 0
M  V30 5255 N 538.028 1.39524 0.732853 0
M  V30 5256 C 539.276 1.36594 1.48951 0
M  V30 5257 C 539.597 -0.0367507 1.94965 0
M  V30 5258 O 538.867 -0.988391 1.69138 0
M  V30 5259 H 537.447 0.502673 0.552566 0
M  V30 5260 H 540.109 1.74411 0.869869 0
M  V30 5261 H 539.205 2.03 2.3706 0
M  V30 5262 N 539.506 -0.963266 1.24736 0
M  V30 5263 C 540.752 -1.70933 1.09131 0
M  V30 5264 C 541.085 -1.90676 -0.368273 0
M  V30 5265 O 540.36 -1.47147 -1.27193 0
M  V30 5266 C 540.643 -3.09744 1.83658 0
M  V30 5267 C 540.496 -2.97465 3.37394 0
M  V30 5268 C 541.815 -4.09483 1.61282 0
M  V30 5269 H 538.934 -0.620398 0.397838 0
M  V30 5270 H 541.576 -1.12028 1.53459 0
M  V30 5271 H 539.726 -3.60031 1.4598 0
M  V30 5272 H 541.398 -2.54571 3.84696 0
M  V30 5273 H 539.641 -2.33576 3.65547 0
M  V30 5274 H 540.312 -3.95822 3.84745 0
M  V30 5275 H 542.788 -3.68073 1.94066 0
M  V30 5276 H 541.664 -5.04666 2.15878 0
M  V30 5277 H 541.925 -4.38639 0.552102 0
M  V30 5278 N 540.985 -1.06182 -1.16461 0
M  V30 5279 C 542.234 -0.772927 -1.86303 0
M  V30 5280 C 542.547 0.703187 -1.82523 0
M  V30 5281 O 543.753 1.10641 -2.47933 0
M  V30 5282 C 542.209 -1.33249 -3.34324 0
M  V30 5283 C 541.817 -2.83876 -3.46581 0
M  V30 5284 C 543.561 -1.12108 -4.09429 0
M  V30 5285 C 541.468 -3.33082 -4.88682 0
M  V30 5286 H 540.398 -0.285452 -0.697878 0
M  V30 5287 H 543.049 -1.28039 -1.31447 0
M  V30 5288 H 541.431 -0.7528 -3.88779 0
M  V30 5289 H 542.605 -3.47786 -3.02293 0
M  V30 5290 H 540.92 -3.03671 -2.84909 0
M  V30 5291 H 543.517 -1.46361 -5.14279 0
M  V30 5292 H 543.86 -0.0593832 -4.16258 0
M  V30 5293 H 544.393 -1.6665 -3.6121 0
M  V30 5294 H 541.132 -4.38726 -4.87032 0
M  V30 5295 H 540.652 -2.73919 -5.33599 0
M  V30 5296 H 542.331 -3.28344 -5.57494 0
M  V30 5297 N 542.463 1.3308 -0.844243 0
M  V30 5298 C 543.874 1.7992 -0.498566 0
M  V30 5299 C 544.225 1.69808 0.982834 0
M  V30 5300 O 543.35 1.25051 1.7661 0
M  V30 5301 C 543.945 3.26677 -0.898204 0
M  V30 5302 C 542.504 3.71513 -0.604583 0
M  V30 5303 C 541.651 2.54393 -1.10362 0
M  V30 5304 H 544.602 1.20526 -1.03244 0
M  V30 5305 H 544.623 3.79918 -0.21039 0
M  V30 5306 H 544.135 3.34004 -1.97643 0
M  V30 5307 H 542.236 3.69708 0.46335 0
M  V30 5308 H 542.349 4.64755 -1.16358 0
M  V30 5309 H 540.713 2.49246 -0.524273 0
M  V30 5310 H 541.496 2.6448 -2.18873 0
M  V30 5311 N 543.941 0.601185 1.45683 0
M  V30 5312 C 545.352 0.179659 1.85834 0
M  V30 5313 C 545.703 -1.26189 1.50236 0
M  V30 5314 O 544.828 -1.95587 0.925987 0
M  V30 5315 C 545.423 0.319277 3.37292 0
M  V30 5316 C 543.982 -0.0475092 3.7637 0
M  V30 5317 C 543.129 0.646692 2.69654 0
M  V30 5318 H 546.08 0.808268 1.36575 0
M  V30 5319 H 546.101 -0.4503 3.77826 0
M  V30 5320 H 545.613 1.36855 3.6317 0
M  V30 5321 H 543.714 -1.0962 3.5611 0
M  V30 5322 H 543.827 0.34168 4.7788 0
M  V30 5323 H 542.191 0.0849971 2.54558 0
M  V30 5324 H 542.974 1.69797 2.98369 0
M  V30 5325 N 545.419 -1.53889 0.339982 0
M  V30 5326 C 546.647 -2.05271 -0.259114 0
M  V30 5327 C 547.062 -1.21517 -1.44496 0
M  V30 5328 O 546.419 -0.24966 -1.80784 0
M  V30 5329 C 546.47 -3.55092 -0.677634 0
M  V30 5330 O 546.191 -4.35667 0.461051 0
M  V30 5331 C 547.692 -4.22631 -1.33782 0
M  V30 5332 H 544.912 -0.669085 -0.0506566 0
M  V30 5333 H 547.456 -1.9852 0.490935 0
M  V30 5334 H 545.611 -3.62077 -1.37763 0
M  V30 5335 H 546.025 -5.24343 0.128144 0
M  V30 5336 H 547.499 -5.28861 -1.58145 0
M  V30 5337 H 547.976 -3.74758 -2.29027 0
M  V30 5338 H 548.582 -4.19829 -0.679957 0
M  V30 5339 N 546.897 -0.0685191 -1.57451 0
M  V30 5340 C 547.827 0.89747 -2.15564 0
M  V30 5341 C 548.808 1.31266 -1.08181 0
M  V30 5342 O 549.993 1.38429 -1.36202 0
M  V30 5343 C 547.123 2.16623 -2.71463 0
M  V30 5344 C 546.077 1.89054 -3.83982 0
M  V30 5345 C 545.403 3.22532 -4.26471 0
M  V30 5346 C 546.703 1.1984 -5.08366 0
M  V30 5347 H 548.397 0.413373 -2.96533 0
M  V30 5348 H 545.943 0.197391 -1.42641 0
M  V30 5349 H 547.896 2.84614 -3.10761 0
M  V30 5350 H 546.62 2.67269 -1.8771 0
M  V30 5351 H 545.279 1.23469 -3.45183 0
M  V30 5352 H 544.927 3.71013 -3.39644 0
M  V30 5353 H 544.627 3.04879 -5.02317 0
M  V30 5354 H 546.151 3.91727 -4.68383 0
M  V30 5355 H 547.565 1.77896 -5.45001 0
M  V30 5356 H 545.962 1.12456 -5.89469 0
M  V30 5357 H 547.032 0.176996 -4.84577 0
M  V30 5358 N 548.375 1.56261 0.205012 0
M  V30 5359 C 549.323 1.94631 1.27364 0
M  V30 5360 C 550.317 0.830434 1.47649 0
M  V30 5361 O 551.523 1.01538 1.48627 0
M  V30 5362 H 547.898 0.618755 0.427371 0
M  V30 5363 H 549.869 2.83768 0.922941 0
M  V30 5364 C 548.618 2.29358 2.61324 0
M  V30 5365 H 547.941 3.14744 2.46528 0
M  V30 5366 H 549.381 2.60076 3.34868 0
M  V30 5367 C 547.84 1.12461 3.17575 0
M  V30 5368 O 548.37 0.394407 3.99759 0
M  V30 5369 N 546.576 0.904036 2.7618 0
M  V30 5370 H 546.123 1.49956 2.09454 0
M  V30 5371 H 546.081 0.123662 3.14157 0
M  V30 5372 N 549.853 -0.472356 1.50355 0
M  V30 5373 C 551.083 -1.24603 1.64796 0
M  V30 5374 C 551.491 -1.86297 0.330156 0
M  V30 5375 O 550.834 -1.69934 -0.697728 0
M  V30 5376 C 550.896 -2.39578 2.68035 0
M  V30 5377 C 550.56 -1.98531 4.11624 0
M  V30 5378 C 551.557 -1.50856 4.97532 0
M  V30 5379 C 549.242 -2.0729 4.57532 0
M  V30 5380 C 551.236 -1.12481 6.27397 0
M  V30 5381 C 548.923 -1.68527 5.87403 0
M  V30 5382 C 549.921 -1.212 6.7216 0
M  V30 5383 O 549.609 -0.829728 7.99607 0
M  V30 5384 H 549.341 -0.383035 0.55701 0
M  V30 5385 H 551.895 -0.570392 1.97321 0
M  V30 5386 H 550.125 -3.10309 2.30749 0
M  V30 5387 H 551.814 -3.01544 2.71709 0
M  V30 5388 H 552.58 -1.43511 4.63281 0
M  V30 5389 H 548.459 -2.43076 3.91708 0
M  V30 5390 H 552.003 -0.754698 6.93506 0
M  V30 5391 H 547.9 -1.7553 6.21176 0
M  V30 5392 H 548.668 -0.958689 8.12866 0
M  V30 5393 N 551.331 -1.39911 -0.725443 0
M  V30 5394 C 552.241 -1.41688 -1.8698 0
M  V30 5395 C 553.257 -0.310579 -1.71206 0
M  V30 5396 O 554.433 -0.55359 -1.93642 0
M  V30 5397 C 551.498 -1.26811 -3.22676 0
M  V30 5398 C 550.559 -2.47497 -3.50776 0
M  V30 5399 C 549.792 -2.3332 -4.79997 0
M  V30 5400 O 550.015 -1.34175 -5.54394 0
M  V30 5401 O 548.949 -3.22498 -5.08211 0
M  V30 5402 H 552.775 -2.38171 -1.88436 0
M  V30 5403 H 550.36 -1.21128 -0.874548 0
M  V30 5404 H 552.242 -1.20684 -4.03749 0
M  V30 5405 H 550.917 -0.334289 -3.21969 0
M  V30 5406 H 549.824 -2.59201 -2.69751 0
M  V30 5407 H 551.157 -3.39606 -3.5627 0
M  V30 5408 N 552.809 0.956637 -1.25245 0
M  V30 5409 C 554.037 1.73571 -1.12608 0
M  V30 5410 C 554.452 1.86063 0.320324 0
M  V30 5411 O 553.809 1.35691 1.22042 0
M  V30 5412 C 553.86 3.15053 -1.77268 0
M  V30 5413 O 553.581 3.03174 -3.16255 0
M  V30 5414 C 555.082 4.09248 -1.70386 0
M  V30 5415 H 552.302 0.543955 -0.392879 0
M  V30 5416 H 554.846 1.20031 -1.65568 0
M  V30 5417 H 553.001 3.65543 -1.28284 0
M  V30 5418 H 553.415 3.9241 -3.48015 0
M  V30 5419 H 554.889 5.06138 -2.20291 0
M  V30 5420 H 555.366 4.34102 -0.667239 0
M  V30 5421 H 555.972 3.64672 -2.18849 0
M  V30 5422 N 554.287 1.06798 1.15896 0
M  V30 5423 C 555.698 0.811355 1.68149 0
M  V30 5424 C 556.049 -0.664339 1.8461 0
M  V30 5425 O 555.174 -1.51485 1.54535 0
M  V30 5426 C 555.769 1.46624 3.05429 0
M  V30 5427 C 554.328 1.25726 3.54781 0
M  V30 5428 C 553.475 1.53949 2.3064 0
M  V30 5429 H 556.426 1.23078 1.00187 0
M  V30 5430 H 556.447 0.88437 3.7008 0
M  V30 5431 H 555.959 2.54025 2.93416 0
M  V30 5432 H 554.06 0.20322 3.72045 0
M  V30 5433 H 554.173 1.97354 4.36564 0
M  V30 5434 H 552.537 0.96025 2.35905 0
M  V30 5435 H 553.32 2.6252 2.2122 0
M  V30 5436 N 555.766 -1.3263 0.851289 0
M  V30 5437 C 557.043 -1.91982 0.374448 0
M  V30 5438 C 557.423 -1.77568 -1.14161 0
M  V30 5439 O 556.771 -1.1717 -1.96172 0
M  V30 5440 C 556.981 -3.38862 0.835088 0
M  V30 5441 C 558.329 -4.15999 0.850309 0
M  V30 5442 O 559.353 -3.47566 0.779505 0
M  V30 5443 O 558.212 -5.38189 0.949481 0
M  V30 5444 H 555.306 -0.819846 0.10854 0
M  V30 5445 H 557.852 -1.41422 0.937966 0
M  V30 5446 H 556.624 -3.43281 1.87814 0
M  V30 5447 H 556.247 -3.96821 0.248833 0
M  V30 5448 N 557.244 -0.608902 -1.45362 0
M  V30 5449 C 558.655 -0.189511 -1.85736 0
M  V30 5450 C 559.006 1.2539 -1.50903 0
M  V30 5451 O 558.131 1.95094 -0.936347 0
M  V30 5452 C 558.726 -0.33716 -3.37118 0
M  V30 5453 C 557.285 0.0275487 -3.7639 0
M  V30 5454 C 556.432 -0.660983 -2.69307 0
M  V30 5455 H 559.383 -0.815499 -1.36144 0
M  V30 5456 H 559.404 0.430257 -3.7806 0
M  V30 5457 H 558.916 -1.38779 -3.62439 0
M  V30 5458 H 557.017 1.0773 -3.56686 0
M  V30 5459 H 557.13 -0.367018 -4.77692 0
M  V30 5460 H 555.494 -0.0984958 -2.54509 0
M  V30 5461 H 556.277 -1.71377 -2.97464 0
M  V30 5462 N 558.722 1.53707 -0.348139 0
M  V30 5463 C 559.632 2.28881 0.514857 0
M  V30 5464 C 560.648 1.34168 1.10793 0
M  V30 5465 O 561.824 1.6721 1.12262 0
M  V30 5466 C 558.889 3.05042 1.64774 0
M  V30 5467 C 557.95 4.15389 1.08398 0
M  V30 5468 C 557.183 4.87909 2.16287 0
M  V30 5469 O 557.406 4.60137 3.3709 0
M  V30 5470 O 556.34 5.74254 1.80323 0
M  V30 5471 H 560.166 3.03547 -0.0963699 0
M  V30 5472 H 557.751 1.48972 -0.113043 0
M  V30 5473 H 559.633 3.52656 2.30677 0
M  V30 5474 H 558.308 2.33228 2.24469 0
M  V30 5475 H 557.215 3.72068 0.389341 0
M  V30 5476 H 558.548 4.89318 0.531829 0
M  V30 5477 N 560.2 0.0768682 1.57412 0
M  V30 5478 C 561.449 -0.590679 1.92857 0
M  V30 5479 C 561.762 -1.70461 0.959293 0
M  V30 5480 O 562.968 -2.43207 1.20675 0
M  V30 5481 C 561.424 -1.10204 3.42612 0
M  V30 5482 C 561.032 -0.0188447 4.47996 0
M  V30 5483 C 562.776 -1.74336 3.87049 0
M  V30 5484 C 560.683 -0.544536 5.88888 0
M  V30 5485 H 559.613 -0.224411 0.71983 0
M  V30 5486 H 562.264 0.149924 1.82887 0
M  V30 5487 H 560.646 -1.89577 3.47673 0
M  V30 5488 H 561.82 0.755936 4.54557 0
M  V30 5489 H 560.135 0.526555 4.13057 0
M  V30 5490 H 562.732 -2.14708 4.89699 0
M  V30 5491 H 563.075 -2.60537 3.24694 0
M  V30 5492 H 563.608 -1.01577 3.84613 0
M  V30 5493 H 560.347 0.280426 6.549 0
M  V30 5494 H 559.867 -1.28673 5.85836 0
M  V30 5495 H 561.546 -1.01933 6.3892 0
M  V30 5496 N 561.678 -1.56367 -0.196722 0
M  V30 5497 C 562.955 -1.71359 -0.943159 0
M  V30 5498 C 563.335 -0.631192 -2.01443 0
M  V30 5499 O 562.683 0.358071 -2.25677 0
M  V30 5500 C 562.893 -3.13623 -1.53106 0
M  V30 5501 C 564.241 -3.73806 -2.01381 0
M  V30 5502 O 565.265 -3.16742 -1.62951 0
M  V30 5503 O 564.124 -4.73951 -2.7209 0
M  V30 5504 H 561.218 -0.698851 -0.442195 0
M  V30 5505 H 563.764 -1.68672 -0.186547 0
M  V30 5506 H 562.536 -3.83873 -0.758785 0
M  V30 5507 H 562.159 -3.20532 -2.35255 0
M  V30 5508 N 563.156 0.464375 -1.50603 0
M  V30 5509 C 564.086 1.56944 -1.72889 0
M  V30 5510 C 565.067 1.59979 -0.577997 0
M  V30 5511 O 566.252 1.76138 -0.817855 0
M  V30 5512 C 563.382 2.95225 -1.8292 0
M  V30 5513 C 562.336 3.07056 -2.98162 0
M  V30 5514 C 561.662 4.47051 -2.93343 0
M  V30 5515 C 562.962 2.83648 -4.38567 0
M  V30 5516 H 564.656 1.38547 -2.65415 0
M  V30 5517 H 562.202 0.665082 -1.27721 0
M  V30 5518 H 564.155 3.72467 -1.97095 0
M  V30 5519 H 562.879 3.14793 -0.870209 0
M  V30 5520 H 561.538 2.32248 -2.83648 0
M  V30 5521 H 561.186 4.63547 -1.95276 0
M  V30 5522 H 560.886 4.55902 -3.70712 0
M  V30 5523 H 562.41 5.26304 -3.09575 0
M  V30 5524 H 563.824 3.50636 -4.53572 0
M  V30 5525 H 562.221 3.03937 -5.17438 0
M  V30 5526 H 563.291 1.79451 -4.50472 0
M  V30 5527 N 564.634 1.40294 0.718013 0
M  V30 5528 C 565.911 1.2894 1.47084 0
M  V30 5529 C 566.291 -0.0933625 2.10893 0
M  V30 5530 O 565.639 -1.10598 1.99951 0
M  V30 5531 C 565.849 2.4264 2.50852 0
M  V30 5532 C 567.197 2.8276 3.16752 0
M  V30 5533 O 568.221 2.42215 2.61171 0
M  V30 5534 O 567.08 3.528 4.17366 0
M  V30 5535 H 564.174 0.506236 0.653952 0
M  V30 5536 H 566.72 1.52208 0.750394 0
M  V30 5537 H 565.492 3.35009 2.022 0
M  V30 5538 H 565.115 2.21129 3.30435 0
M  V30 5539 N 566.112 -0.949982 1.2575 0
M  V30 5540 C 567.358 -1.69766 1.10938 0
M  V30 5541 C 567.691 -1.91056 -0.348028 0
M  V30 5542 O 566.966 -1.48488 -1.25625 0
M  V30 5543 C 567.249 -3.07779 1.86933 0
M  V30 5544 C 567.102 -2.9387 3.4053 0
M  V30 5545 C 568.421 -4.07749 1.65616 0
M  V30 5546 H 565.54 -0.616144 0.404396 0
M  V30 5547 H 568.182 -1.10394 1.54639 0
M  V30 5548 H 566.332 -3.58462 1.4979 0
M  V30 5549 H 568.004 -2.50476 3.87375 0
M  V30 5550 H 566.247 -2.29686 3.68004 0
M  V30 5551 H 566.918 -3.91719 3.88922 0
M  V30 5552 H 569.394 -3.65994 1.97959 0
M  V30 5553 H 568.27 -5.02348 2.21218 0
M  V30 5554 H 568.531 -4.38029 0.598595 0
M  V30 5555 N 567.59 -1.07411 -1.15328 0
M  V30 5556 C 568.836 -0.798831 -1.86404 0
M  V30 5557 C 569.169 0.673433 -1.8215 0
M  V30 5558 O 568.444 1.49428 -1.24505 0
M  V30 5559 C 568.727 -1.30846 -3.35487 0
M  V30 5560 C 568.58 -2.84532 -3.4837 0
M  V30 5561 C 569.899 -0.925486 -4.30259 0
M  V30 5562 H 567.018 -0.291659 -0.676834 0
M  V30 5563 H 569.66 -1.332 -1.35491 0
M  V30 5564 H 567.81 -0.854916 -3.78977 0
M  V30 5565 H 569.482 -3.3818 -3.13739 0
M  V30 5566 H 567.725 -3.22699 -2.8991 0
M  V30 5567 H 568.396 -3.15259 -4.53118 0
M  V30 5568 H 570.872 -1.3163 -3.94731 0
M  V30 5569 H 569.748 -1.3094 -5.33053 0
M  V30 5570 H 570.009 0.168525 -4.41779 0
M  V30 5571 N 569.068 1.32177 -0.85831 0
M  V30 5572 C 570.031 2.27086 -0.310588 0
M  V30 5573 C 571.031 1.51751 0.531806 0
M  V30 5574 O 572.221 1.70794 0.34279 0
M  V30 5575 C 569.353 3.36266 0.560179 0
M  V30 5576 H 570.546 2.77045 -1.1483 0
M  V30 5577 H 568.099 1.42911 -0.632942 0
M  V30 5578 H 568.834 2.9158 1.41956 0
M  V30 5579 H 568.619 3.92077 -0.0428473 0
M  V30 5580 H 570.109 4.06974 0.936056 0
M  V30 5581 N 570.547 0.616602 1.45037 0
M  V30 5582 C 571.795 0.115103 2.01772 0
M  V30 5583 C 572.116 -1.2622 1.48639 0
M  V30 5584 O 571.386 -1.83563 0.684199 0
M  V30 5585 H 569.966 0.0395607 0.745952 0
M  V30 5586 H 572.628 0.800032 1.77723 0
M  V30 5587 H 571.724 0.0717274 3.12018 0
M  V30 5588 N 572.025 -1.5352 0.356285 0
M  V30 5589 C 572.935 -2.29151 -0.502712 0
M  V30 5590 C 573.951 -1.34753 -1.1008 0
M  V30 5591 O 575.127 -1.67803 -1.11374 0
M  V30 5592 C 572.192 -3.05911 -1.63154 0
M  V30 5593 C 571.253 -4.15958 -1.06194 0
M  V30 5594 C 570.486 -4.8905 -2.13696 0
M  V30 5595 O 570.709 -4.61919 -3.34645 0
M  V30 5596 O 569.643 -5.75202 -1.77275 0
M  V30 5597 H 573.469 -3.03492 0.112466 0
M  V30 5598 H 571.054 -1.4891 0.120942 0
M  V30 5599 H 572.936 -3.53874 -2.28804 0
M  V30 5600 H 571.611 -2.34415 -2.23229 0
M  V30 5601 H 570.518 -3.7227 -0.369603 0
M  V30 5602 H 571.851 -4.89593 -0.505872 0
M  V30 5603 N 573.503 -0.0852151 -1.57369 0
M  V30 5604 C 574.914 0.445428 -1.81309 0
M  V30 5605 C 575.265 1.68795 -1.00013 0
M  V30 5606 O 574.39 2.15211 -0.226573 0
M  V30 5607 C 574.985 0.814887 -3.28854 0
M  V30 5608 C 573.544 1.29032 -3.53592 0
M  V30 5609 C 572.691 0.282089 -2.75861 0
M  V30 5610 H 575.642 -0.310771 -1.55627 0
M  V30 5611 H 575.663 1.67524 -3.41637 0
M  V30 5612 H 575.175 -0.0896309 -3.87996 0
M  V30 5613 H 573.276 2.21289 -2.9977 0
M  V30 5614 H 573.389 1.25898 -4.62262 0
M  V30 5615 H 571.753 0.762182 -2.43029 0
M  V30 5616 H 572.536 -0.614936 -3.37748 0
M  V30 5617 N 574.981 1.5647 0.188427 0
M  V30 5618 C 576.397 1.50204 0.539532 0
M  V30 5619 C 576.597 0.78644 1.85519 0
M  V30 5620 O 575.653 0.339714 2.50204 0
M  V30 5621 C 576.966 2.94893 0.588103 0
M  V30 5622 C 578.514 3.05602 0.67648 0
M  V30 5623 C 578.989 4.51716 0.756101 0
M  V30 5624 N 580.48 4.55894 0.819451 0
M  V30 5625 C 581.215 5.66272 0.90134 0
M  V30 5626 N 580.711 6.86323 0.945118 0
M  V30 5627 N 582.504 5.54201 0.939043 0
M  V30 5628 H 574.655 2.01406 -0.674493 0
M  V30 5629 H 576.918 0.916828 -0.241103 0
M  V30 5630 H 576.624 3.50334 -0.309633 0
M  V30 5631 H 576.498 3.4861 1.44051 0
M  V30 5632 H 578.885 2.50206 1.56465 0
M  V30 5633 H 578.966 2.54999 -0.202262 0
M  V30 5634 H 578.61 5.07739 -0.12774 0
M  V30 5635 H 578.54 5.00058 1.65074 0
M  V30 5636 H 581.031 3.69452 0.794594 0
M  V30 5637 H 581.344 7.66194 1.0083 0
M  V30 5638 H 579.689 6.88968 0.913683 0
M  V30 5639 H 582.88 4.59333 0.901725 0
M  V30 5640 H 583.053 6.40247 0.999402 0
M  V30 5641 N 576.459 -0.456382 1.50847 0
M  V30 5642 C 577.689 -1.22848 1.66108 0
M  V30 5643 C 578.097 -1.85936 0.349897 0
M  V30 5644 O 577.44 -1.70664 -0.679665 0
M  V30 5645 C 577.502 -2.36722 2.70561 0
M  V30 5646 C 577.166 -1.94154 4.13707 0
M  V30 5647 C 578.163 -1.4557 4.99105 0
M  V30 5648 C 575.848 -2.02426 4.59705 0
M  V30 5649 C 577.842 -1.0582 6.28555 0
M  V30 5650 C 575.529 -1.62287 5.89157 0
M  V30 5651 C 576.527 -1.14064 6.73408 0
M  V30 5652 O 576.215 -0.744873 8.00442 0
M  V30 5653 H 575.947 -0.377105 0.561042 0
M  V30 5654 H 578.501 -0.549431 1.97915 0
M  V30 5655 H 576.731 -3.07844 2.34027 0
M  V30 5656 H 578.42 -2.98646 2.74892 0
M  V30 5657 H 579.186 -1.38589 4.64777 0
M  V30 5658 H 575.065 -2.38908 3.94264 0
M  V30 5659 H 578.609 -0.6811 6.94267 0
M  V30 5660 H 574.506 -1.68932 6.23003 0
M  V30 5661 H 575.274 -0.87242 8.13837 0
M  V30 5662 N 577.937 -1.40673 -0.710563 0
M  V30 5663 C 579.185 -1.38947 -1.46759 0
M  V30 5664 C 579.506 0.00572879 -1.94999 0
M  V30 5665 O 578.776 0.961358 -1.70689 0
M  V30 5666 H 577.356 -0.5114 -0.544499 0
M  V30 5667 H 580.018 -1.75773 -0.842012 0
M  V30 5668 H 579.114 -2.06745 -2.33801 0
M  V30 5669 N 579.415 0.9433 -1.26252 0
M  V30 5670 C 580.692 1.66639 -1.02424 0
M  V30 5671 C 581.072 2.06335 0.446006 0
M  V30 5672 O 580.42 1.78551 1.42589 0
M  V30 5673 C 580.63 2.88019 -1.97094 0
M  V30 5674 C 581.978 3.59718 -2.25584 0
M  V30 5675 O 583.002 2.9812 -1.94943 0
M  V30 5676 O 581.861 4.7066 -2.77743 0
M  V30 5677 H 578.955 0.729643 -0.389294 0
M  V30 5678 H 581.501 0.995218 -1.37454 0
M  V30 5679 H 580.273 2.5556 -2.96319 0
M  V30 5680 H 579.896 3.62863 -1.62532 0
M  V30 5681 N 580.893 1.08022 1.14757 0
M  V30 5682 C 582.123 0.827646 1.89298 0
M  V30 5683 C 582.531 -0.623506 1.78631 0
M  V30 5684 O 581.874 -1.43991 1.14071 0
M  V30 5685 C 581.936 1.16553 3.40082 0
M  V30 5686 C 581.6 2.61866 3.74533 0
M  V30 5687 C 582.597 3.60116 3.74984 0
M  V30 5688 C 580.282 2.97619 4.04633 0
M  V30 5689 C 582.276 4.92151 4.05051 0
M  V30 5690 C 579.963 4.2985 4.34364 0
M  V30 5691 C 580.961 5.26926 4.34555 0
M  V30 5692 O 580.649 6.5678 4.63568 0
M  V30 5693 H 580.381 0.298396 0.606577 0
M  V30 5694 H 582.935 1.44187 1.46285 0
M  V30 5695 H 581.165 0.494296 3.83528 0
M  V30 5696 H 582.854 0.894407 3.95923 0
M  V30 5697 H 583.62 3.33837 3.51821 0
M  V30 5698 H 579.499 2.22702 4.03639 0
M  V30 5699 H 583.043 5.67915 4.05115 0
M  V30 5700 H 578.94 4.55879 4.56995 0
M  V30 5701 H 579.708 6.62035 4.81303 0
M  V30 5702 N 582.371 -1.3172 0.865308 0
M  V30 5703 C 583.787 -1.4958 0.556596 0
M  V30 5704 C 583.987 -1.79763 -0.910353 0
M  V30 5705 O 583.043 -1.87351 -1.6928 0
M  V30 5706 C 584.356 -2.63277 1.45279 0
M  V30 5707 C 585.904 -2.77161 1.45433 0
M  V30 5708 C 586.379 -3.93949 2.33598 0
M  V30 5709 N 587.87 -4.01228 2.31453 0
M  V30 5710 C 588.605 -4.90855 2.96393 0
M  V30 5711 N 588.101 -5.85416 3.70486 0
M  V30 5712 N 589.894 -4.84063 2.85726 0
M  V30 5713 H 582.045 -1.10396 1.81456 0
M  V30 5714 H 584.308 -0.54507 0.775631 0
M  V30 5715 H 584.014 -2.47734 2.49641 0
M  V30 5716 H 583.888 -3.59309 1.14792 0
M  V30 5717 H 586.275 -2.9212 0.41831 0
M  V30 5718 H 586.356 -1.8181 1.79941 0
M  V30 5719 H 586 -3.79748 3.37274 0
M  V30 5720 H 585.93 -4.88598 1.96417 0
M  V30 5721 H 588.421 -3.3357 1.77593 0
M  V30 5722 H 588.734 -6.50525 4.17178 0
M  V30 5723 H 587.079 -5.85409 3.74594 0
M  V30 5724 H 590.27 -4.09163 2.27384 0
M  V30 5725 H 590.443 -5.53708 3.36617 0
M  V30 5726 N 583.85 -0.624285 -1.44708 0
M  V30 5727 C 585.08 -0.132726 -2.06173 0
M  V30 5728 C 585.488 1.19513 -1.46674 0
M  V30 5729 O 584.831 1.74254 -0.581491 0
M  V30 5730 C 584.893 0.0636732 -3.59444 0
M  V30 5731 C 584.557 -1.18496 -4.4137 0
M  V30 5732 C 585.553 -2.10706 -4.75288 0
M  V30 5733 C 583.239 -1.41846 -4.81856 0
M  V30 5734 C 585.233 -3.24582 -5.48567 0
M  V30 5735 C 582.92 -2.5602 -5.54885 0
M  V30 5736 C 583.918 -3.47215 -5.88159 0
M  V30 5737 O 583.606 -4.59399 -6.59703 0
M  V30 5738 H 583.338 -0.0737313 -0.671967 0
M  V30 5739 H 585.892 -0.856789 -1.86677 0
M  V30 5740 H 584.122 0.842809 -3.77404 0
M  V30 5741 H 585.811 0.508924 -4.02697 0
M  V30 5742 H 586.577 -1.93898 -4.44554 0
M  V30 5743 H 582.456 -0.717556 -4.55381 0
M  V30 5744 H 586 -3.95785 -5.74456 0
M  V30 5745 H 581.897 -2.72774 -5.85034 0
M  V30 5746 H 582.665 -4.58293 -6.78166 0
M  V30 5747 N 585.328 1.53329 -0.364422 0
M  V30 5748 C 586.291 2.24323 0.470292 0
M  V30 5749 C 587.291 1.25068 1.01067 0
M  V30 5750 O 588.481 1.49354 0.896605 0
M  V30 5751 C 585.613 2.97908 1.65722 0
M  V30 5752 H 586.806 2.9952 -0.150917 0
M  V30 5753 H 584.359 1.55868 -0.116092 0
M  V30 5754 H 585.094 2.2695 2.31655 0
M  V30 5755 H 584.879 3.70732 1.27671 0
M  V30 5756 H 586.369 3.5188 2.24878 0
M  V30 5757 N 586.806 0.0935595 1.57322 0
M  V30 5758 C 588.052 -0.571355 1.94585 0
M  V30 5759 C 588.385 -1.67929 0.975366 0
M  V30 5760 O 587.66 -1.94498 0.00816206 0
M  V30 5761 C 587.943 -1.12797 3.41978 0
M  V30 5762 C 587.796 -0.0251881 4.49793 0
M  V30 5763 C 589.115 -2.02682 3.90651 0
M  V30 5764 H 586.234 -0.206223 0.70756 0
M  V30 5765 H 588.876 0.163956 1.89291 0
M  V30 5766 H 587.026 -1.75461 3.4662 0
M  V30 5767 H 588.698 0.608979 4.57263 0
M  V30 5768 H 586.941 0.641399 4.29032 0
M  V30 5769 H 587.612 -0.455433 5.50118 0
M  V30 5770 H 590.088 -1.49925 3.88152 0
M  V30 5771 H 588.964 -2.38555 4.94351 0
M  V30 5772 H 589.225 -2.94362 3.29854 0
M  V30 5773 N 588.284 -1.56567 -0.180126 0
M  V30 5774 C 589.232 -1.96632 -1.24251 0
M  V30 5775 C 590.226 -0.853818 -1.46309 0
M  V30 5776 O 591.432 -1.0389 -1.46993 0
M  V30 5777 H 587.807 -0.625476 -0.417473 0
M  V30 5778 H 589.778 -2.85201 -0.877679 0
M  V30 5779 C 588.527 -2.33486 -2.57642 0
M  V30 5780 H 587.85 -3.18626 -2.4149 0
M  V30 5781 H 589.29 -2.65371 -3.30688 0
M  V30 5782 C 587.749 -1.17499 -3.15746 0
M  V30 5783 O 588.279 -0.457956 -3.99081 0
M  V30 5784 N 586.485 -0.94786 -2.74707 0
M  V30 5785 H 586.032 -1.53269 -2.07042 0
M  V30 5786 H 585.99 -0.173626 -3.1392 0
M  V30 5787 N 589.762 0.448376 -1.51087 0
M  V30 5788 C 590.71 1.56407 -1.72161 0
M  V30 5789 C 591.704 1.58878 -0.587721 0
M  V30 5790 O 592.91 1.62755 -0.768822 0
M  V30 5791 H 589.285 0.519423 -0.543786 0
M  V30 5792 H 591.256 1.35803 -2.65707 0
M  V30 5793 C 590.005 2.94163 -1.85373 0
M  V30 5794 H 589.328 2.9299 -2.72024 0
M  V30 5795 H 590.768 3.71625 -2.04135 0
M  V30 5796 C 589.227 3.31317 -0.610803 0
M  V30 5797 O 589.757 4.00985 0.239636 0
M  V30 5798 N 587.963 2.86966 -0.458127 0
M  V30 5799 H 587.51 2.30443 -1.15124 0
M  V30 5800 H 587.468 3.12188 0.372289 0
M  V30 5801 N 591.24 1.41047 0.703093 0
M  V30 5802 C 592.465 1.43537 1.49706 0
M  V30 5803 C 592.89 0.0401853 1.88057 0
M  V30 5804 O 592.248 -0.954785 1.54122 0
M  V30 5805 C 592.296 2.3433 2.74084 0
M  V30 5806 O 591.4 1.79515 3.71279 0
M  V30 5807 H 590.741 0.487454 0.450871 0
M  V30 5808 H 593.271 1.85422 0.86486 0
M  V30 5809 H 593.281 2.49947 3.22476 0
M  V30 5810 H 591.956 3.35708 2.45506 0
M  V30 5811 H 590.533 1.7331 3.30179 0
M  V30 5812 N 592.718 -0.936591 1.26751 0
M  V30 5813 C 593.965 -1.68331 1.12566 0
M  V30 5814 C 594.293 -1.91677 -0.330168 0
M  V30 5815 O 593.548 -1.49859 -1.2586 0
M  V30 5816 C 593.847 -3.06099 1.84494 0
M  V30 5817 C 593.513 -3.02493 3.34378 0
M  V30 5818 C 592.175 -3.01217 3.75262 0
M  V30 5819 C 594.527 -2.94453 4.30055 0
M  V30 5820 C 591.855 -2.89672 5.10203 0
M  V30 5821 C 594.207 -2.84449 5.65041 0
M  V30 5822 C 592.871 -2.81518 6.0523 0
M  V30 5823 H 592.141 -0.615965 0.411907 0
M  V30 5824 H 594.788 -1.09292 1.5725 0
M  V30 5825 H 593.093 -3.6879 1.32292 0
M  V30 5826 H 594.79 -3.62733 1.70955 0
M  V30 5827 H 591.38 -3.04269 3.01858 0
M  V30 5828 H 595.564 -2.94544 3.99447 0
M  V30 5829 H 590.82 -2.85783 5.40498 0
M  V30 5830 H 594.994 -2.77192 6.38856 0
M  V30 5831 H 592.621 -2.72329 7.09747 0
M  V30 5832 N 594.196 -1.08629 -1.14182 0
M  V30 5833 C 595.444 -0.815731 -1.84906 0
M  V30 5834 C 595.765 0.660441 -1.83475 0
M  V30 5835 O 595.035 1.47888 -1.28476 0
M  V30 5836 H 593.615 -0.298773 -0.684648 0
M  V30 5837 H 596.277 -1.37274 -1.38354 0
M  V30 5838 H 595.373 -1.16193 -2.89665 0
M  V30 5839 N 595.674 1.31259 -0.872281 0
M  V30 5840 C 596.921 1.96622 -0.484365 0
M  V30 5841 C 597.249 1.68939 0.963841 0
M  V30 5842 O 596.504 0.97974 1.6941 0
M  V30 5843 C 596.803 3.50659 -0.690889 0
M  V30 5844 C 596.469 3.98366 -2.11224 0
M  V30 5845 C 595.131 4.11104 -2.50094 0
M  V30 5846 C 597.483 4.23425 -3.0391 0
M  V30 5847 C 594.811 4.46254 -3.80887 0
M  V30 5848 C 597.163 4.60039 -4.3422 0
M  V30 5849 C 595.827 4.70984 -4.73001 0
M  V30 5850 H 595.097 0.71949 -0.177242 0
M  V30 5851 H 597.744 1.56353 -1.10571 0
M  V30 5852 H 596.049 3.91798 0.0135782 0
M  V30 5853 H 597.746 3.99284 -0.370534 0
M  V30 5854 H 594.336 3.88949 -1.80047 0
M  V30 5855 H 598.52 4.13075 -2.75104 0
M  V30 5856 H 593.776 4.52926 -4.10692 0
M  V30 5857 H 597.95 4.78381 -5.06088 0
M  V30 5858 H 595.577 4.97977 -5.7439 0
M  V30 5859 N 597.152 0.631951 1.44375 0
M  V30 5860 C 598.4 0.136497 2.01639 0
M  V30 5861 C 598.721 -1.24637 1.49969 0
M  V30 5862 O 597.991 -1.82827 0.70363 0
M  V30 5863 H 596.571 0.0474703 0.74549 0
M  V30 5864 H 599.233 0.818837 1.76865 0
M  V30 5865 H 598.329 0.104817 3.11924 0
M  V30 5866 N 598.631 -1.53133 0.372548 0
M  V30 5867 C 599.879 -2.00958 -0.214534 0
M  V30 5868 C 600.2 -1.26135 -1.48711 0
M  V30 5869 O 599.47 -0.376597 -1.92246 0
M  V30 5870 H 598.05 -0.742456 -0.0822664 0
M  V30 5871 H 600.712 -1.88367 0.500385 0
M  V30 5872 H 599.808 -3.09031 -0.436605 0
M  V30 5873 N 600.109 -0.101901 -1.5727 0
M  V30 5874 C 601.059 0.865346 -2.1094 0
M  V30 5875 C 602.043 1.2394 -1.02605 0
M  V30 5876 O 603.235 1.21334 -1.28868 0
M  V30 5877 C 600.364 2.12187 -2.69874 0
M  V30 5878 C 599.45 1.77295 -3.85263 0
M  V30 5879 N 599.841 1.12993 -4.93017 0
M  V30 5880 C 598.139 2.06862 -3.95126 0
M  V30 5881 C 598.84 0.968631 -5.73579 0
M  V30 5882 N 597.816 1.48814 -5.22834 0
M  V30 5883 H 601.618 0.364368 -2.91633 0
M  V30 5884 H 599.132 0.101104 -1.62085 0
M  V30 5885 H 601.129 2.82431 -3.06657 0
M  V30 5886 H 599.789 2.62844 -1.90639 0
M  V30 5887 H 600.8 0.795935 -5.11747 0
M  V30 5888 H 597.477 2.59686 -3.26909 0
M  V30 5889 H 598.867 0.465231 -6.70287 0
M  V30 5890 N 601.587 1.56661 0.17182 0
M  V30 5891 C 602.535 1.97289 1.23207 0
M  V30 5892 C 603.529 0.861566 1.45854 0
M  V30 5893 O 604.735 1.04668 1.4644 0
M  V30 5894 H 601.11 0.627681 0.41415 0
M  V30 5895 H 603.081 2.85662 0.862542 0
M  V30 5896 C 601.83 2.34849 2.564 0
M  V30 5897 H 601.153 3.19903 2.39797 0
M  V30 5898 H 602.593 2.67121 3.29276 0
M  V30 5899 C 601.052 1.19172 3.15119 0
M  V30 5900 O 601.582 0.479113 3.98833 0
M  V30 5901 N 599.788 0.962415 2.74201 0
M  V30 5902 H 599.335 1.54365 2.06226 0
M  V30 5903 H 599.293 0.190272 3.13824 0
M  V30 5904 N 603.065 -0.440357 1.51323 0
M  V30 5905 C 604.311 -1.19181 1.64085 0
M  V30 5906 C 604.644 -1.90936 0.354575 0
M  V30 5907 O 603.919 -1.8347 -0.645675 0
M  V30 5908 C 604.202 -2.2112 2.84215 0
M  V30 5909 C 604.055 -1.53468 4.22809 0
M  V30 5910 C 605.374 -3.22133 2.99864 0
M  V30 5911 H 602.493 -0.431924 0.597169 0
M  V30 5912 H 605.135 -0.481443 1.83799 0
M  V30 5913 H 603.285 -2.81703 2.67537 0
M  V30 5914 H 604.957 -0.962455 4.51148 0
M  V30 5915 H 603.2 -0.837086 4.25647 0
M  V30 5916 H 603.871 -2.27694 5.02852 0
M  V30 5917 H 606.347 -2.71601 3.15233 0
M  V30 5918 H 605.223 -3.90756 3.85488 0
M  V30 5919 H 605.484 -3.88061 2.11804 0
M  V30 5920 N 604.543 -1.41418 -0.695603 0
M  V30 5921 C 605.506 -1.42988 -1.79129 0
M  V30 5922 C 606.506 -0.320514 -1.57573 0
M  V30 5923 O 607.696 -0.58039 -1.64247 0
M  V30 5924 C 604.828 -1.24122 -3.175 0
M  V30 5925 H 606.021 -2.40526 -1.7913 0
M  V30 5926 H 603.574 -1.2756 -0.903225 0
M  V30 5927 H 604.309 -0.274253 -3.23138 0
M  V30 5928 H 604.094 -2.045 -3.34547 0
M  V30 5929 H 605.584 -1.28056 -3.97481 0
M  V30 5930 N 606.021 0.929856 -1.27246 0
M  V30 5931 C 606.951 2.04722 -1.12299 0
M  V30 5932 C 607.932 1.70082 -0.0250464 0
M  V30 5933 O 609.117 1.93176 -0.199141 0
M  V30 5934 C 606.247 3.38721 -0.767145 0
M  V30 5935 C 605.201 3.87466 -1.81808 0
M  V30 5936 C 604.527 5.18246 -1.31626 0
M  V30 5937 C 605.827 4.11095 -3.22177 0
M  V30 5938 H 607.521 2.17485 -2.05769 0
M  V30 5939 H 605.067 1.04503 -0.990715 0
M  V30 5940 H 607.02 4.16366 -0.649413 0
M  V30 5941 H 605.744 3.25967 0.203259 0
M  V30 5942 H 604.403 3.12012 -1.92468 0
M  V30 5943 H 604.051 5.01881 -0.335378 0
M  V30 5944 H 603.751 5.51829 -2.01887 0
M  V30 5945 H 605.275 5.98462 -1.21143 0
M  V30 5946 H 606.689 4.79316 -3.1453 0
M  V30 5947 H 605.086 4.55982 -3.90129 0
M  V30 5948 H 606.156 3.16468 -3.67391 0
M  V30 5949 N 607.499 1.09233 1.13605 0
M  V30 5950 C 608.462 0.733553 2.17144 0
M  V30 5951 C 609.462 -0.235873 1.59061 0
M  V30 5952 O 610.652 -0.0143167 1.74194 0
M  V30 5953 C 607.784 0.084471 3.40795 0
M  V30 5954 H 608.977 1.65049 2.50397 0
M  V30 5955 H 606.53 0.891264 1.28399 0
M  V30 5956 H 607.265 -0.843795 3.1313 0
M  V30 5957 H 607.05 0.781985 3.84223 0
M  V30 5958 H 608.54 -0.151216 4.17326 0
M  V30 5959 N 608.977 -1.30795 0.87923 0
M  V30 5960 C 610.224 -1.96362 0.494786 0
M  V30 5961 C 610.552 -1.69448 -0.954868 0
M  V30 5962 O 609.807 -0.988711 -1.68888 0
M  V30 5963 C 610.106 -3.50287 0.709476 0
M  V30 5964 C 609.772 -3.9724 2.13333 0
M  V30 5965 C 608.434 -4.09772 2.52271 0
M  V30 5966 C 610.786 -4.21807 3.06151 0
M  V30 5967 C 608.114 -4.44227 3.83248 0
M  V30 5968 C 610.466 -4.5773 4.36654 0
M  V30 5969 C 609.13 -4.68469 4.75492 0
M  V30 5970 H 608.4 -0.71854 0.181055 0
M  V30 5971 H 611.047 -1.55764 1.11399 0
M  V30 5972 H 609.352 -3.91799 0.0072 0
M  V30 5973 H 611.049 -3.99082 0.391703 0
M  V30 5974 H 607.639 -3.87988 1.82107 0
M  V30 5975 H 611.823 -4.11611 2.77291 0
M  V30 5976 H 607.079 -4.50741 4.13089 0
M  V30 5977 H 611.253 -4.7569 5.08617 0
M  V30 5978 H 608.88 -4.94923 5.77022 0
M  V30 5979 N 610.455 -0.639598 -1.44038 0
M  V30 5980 C 611.703 -0.147188 -2.01563 0
M  V30 5981 C 612.024 1.2384 -1.50628 0
M  V30 5982 O 611.294 1.82452 -0.713316 0
M  V30 5983 H 609.874 -0.0514231 -0.745228 0
M  V30 5984 H 612.536 -0.828205 -1.76428 0
M  V30 5985 H 611.632 -0.121358 -3.11864 0
M  V30 5986 N 611.933 1.52934 -0.380664 0
M  V30 5987 C 613.349 1.59571 -0.0302429 0
M  V30 5988 C 613.549 1.39509 1.45394 0
M  V30 5989 O 612.605 1.20777 2.21741 0
M  V30 5990 C 613.918 2.96519 -0.499691 0
M  V30 5991 C 615.466 3.09672 -0.455204 0
M  V30 5992 C 615.941 4.49056 -0.900703 0
M  V30 5993 N 617.432 4.55215 -0.856367 0
M  V30 5994 C 618.167 5.61282 -1.17259 0
M  V30 5995 N 617.663 6.75035 -1.55885 0
M  V30 5996 N 619.456 5.51343 -1.0944 0
M  V30 5997 H 611.607 1.64224 -1.347 0
M  V30 5998 H 613.87 0.771033 -0.551554 0
M  V30 5999 H 613.576 3.16388 -1.53595 0
M  V30 6000 H 613.45 3.77052 0.105789 0
M  V30 6001 H 615.837 2.89504 0.571949 0
M  V30 6002 H 615.918 2.31113 -1.09638 0
M  V30 6003 H 615.562 4.69964 -1.92604 0
M  V30 6004 H 615.492 5.26068 -0.236629 0
M  V30 6005 H 617.983 3.73546 -0.572013 0
M  V30 6006 H 618.296 7.51926 -1.784 0
M  V30 6007 H 616.641 6.76388 -1.59764 0
M  V30 6008 H 619.832 4.61356 -0.791713 0
M  V30 6009 H 620.005 6.33905 -1.34417 0
M  V30 6010 N 613.412 0.11024 1.57214 0
M  V30 6011 C 614.642 -0.557025 1.98949 0
M  V30 6012 C 615.05 -1.61317 0.988606 0
M  V30 6013 O 614.393 -1.83679 -0.0279159 0
M  V30 6014 C 614.455 -1.24956 3.37085 0
M  V30 6015 C 614.119 -0.342398 4.55716 0
M  V30 6016 C 615.116 0.415511 5.18237 0
M  V30 6017 C 612.801 -0.256029 5.01647 0
M  V30 6018 C 614.795 1.24761 6.25071 0
M  V30 6019 C 612.482 0.579713 6.08344 0
M  V30 6020 C 613.48 1.33017 6.69922 0
M  V30 6021 O 613.168 2.15205 7.74559 0
M  V30 6022 H 612.9 -0.152792 0.658506 0
M  V30 6023 H 615.454 0.19076 2.04512 0
M  V30 6024 H 613.684 -2.04424 3.2825 0
M  V30 6025 H 615.373 -1.81286 3.63167 0
M  V30 6026 H 616.139 0.358605 4.83672 0
M  V30 6027 H 612.018 -0.829831 4.5347 0
M  V30 6028 H 615.562 1.83386 6.73064 0
M  V30 6029 H 611.459 0.638044 6.42339 0
M  V30 6030 H 612.227 2.08052 7.91617 0
M  V30 6031 O 614.929 -1.61473 -0.0293866 0
M  V30 6032 H 615.62 -1.82469 -0.649975 0
M  V30 END ATOM
M  V30 BEGIN BOND
M  V30 END BOND
M  V30 END CTAB
M  END
$$$$
