drugbank_target|Q00169 Phosphatidylinositol transfer protein alpha isoform (DB02144; DB03690)
 OpenBabel12092119553D

  0  0  0     0  0            999 V3000
M  V30 BEGIN CTAB
M  V30 COUNTS 4447 4503 0 0 0
M  V30 BEGIN ATOM
M  V30 1 H -0.908 1.98254 -0.117106 0
M  V30 2 N 0 1.576 0 0
M  V30 3 C 0.933 2.03868 1.02534 0
M  V30 4 C 1.911 0.928543 1.3348 0
M  V30 5 O 3.095 1.19667 1.45644 0
M  V30 6 C 0.222 2.43627 2.35294 0
M  V30 7 C -0.732 3.65373 2.2001 0
M  V30 8 S 0.101 5.13292 1.52614 0
M  V30 9 C 1.257 5.56322 2.86805 0
M  V30 10 H 1.49 2.90518 0.631377 0
M  V30 11 H -0.977 1.52953 0.210867 0
M  V30 12 H 0.981 2.67203 3.11629 0
M  V30 13 H -0.358 1.57376 2.7183 0
M  V30 14 H -1.165 3.90944 3.18086 0
M  V30 15 H -1.563 3.418 1.51819 0
M  V30 16 H 0.729 5.58782 3.83104 0
M  V30 17 H 1.672 6.56266 2.65933 0
M  V30 18 H 2.08 4.83886 2.90714 0
M  V30 19 N 1.4781 -0.272755 1.55222 0
M  V30 20 C 2.7241 -1.00581 1.761 0
M  V30 21 C 3.0571 -1.85932 0.560625 0
M  V30 22 O 2.3321 -1.89416 -0.441801 0
M  V30 23 C 2.6151 -1.88816 3.06628 0
M  V30 24 C 2.4681 -1.06457 4.37021 0
M  V30 25 C 3.7871 -2.8752 3.33197 0
M  V30 26 H 0.9061 -0.364244 0.640699 0
M  V30 27 H 3.5481 -0.278189 1.87952 0
M  V30 28 H 1.6981 -2.50856 2.96654 0
M  V30 29 H 3.3701 -0.464863 4.58952 0
M  V30 30 H 1.6131 -0.368043 4.32236 0
M  V30 31 H 2.2841 -1.71514 5.24678 0
M  V30 32 H 4.7601 -2.35615 3.42965 0
M  V30 33 H 3.6361 -3.46399 4.25792 0
M  V30 34 H 3.8971 -3.62657 2.52849 0
M  V30 35 N 2.9562 -1.48159 -0.537278 0
M  V30 36 C 3.8862 -1.65029 -1.6519 0
M  V30 37 C 4.8672 -0.499281 -1.62607 0
M  V30 38 O 6.0522 -0.730972 -1.79918 0
M  V30 39 C 3.1822 -1.68303 -3.03795 0
M  V30 40 C 2.1362 -2.8283 -3.21234 0
M  V30 41 C 1.4622 -2.71189 -4.60826 0
M  V30 42 C 2.7622 -4.24211 -3.04701 0
M  V30 43 H 4.4562 -2.58341 -1.51328 0
M  V30 44 H 2.0022 -1.24325 -0.726585 0
M  V30 45 H 3.9552 -1.78693 -3.81637 0
M  V30 46 H 2.6792 -0.715635 -3.18663 0
M  V30 47 H 1.3382 -2.71983 -2.45807 0
M  V30 48 H 0.9862 -1.72435 -4.7252 0
M  V30 49 H 0.6862 -3.48035 -4.7344 0
M  V30 50 H 2.2102 -2.83537 -5.40777 0
M  V30 51 H 3.6242 -4.3593 -3.72341 0
M  V30 52 H 2.0212 -5.01998 -3.28813 0
M  V30 53 H 3.0912 -4.41184 -2.01209 0
M  V30 54 N 4.4343 0.785586 -1.36625 0
M  V30 55 C 5.3643 1.91259 -1.33949 0
M  V30 56 C 6.3453 1.68795 -0.210325 0
M  V30 57 O 7.5303 1.89854 -0.408561 0
M  V30 58 C 4.6603 3.28339 -1.13186 0
M  V30 59 C 3.6143 3.65335 -2.22967 0
M  V30 60 C 2.9403 5.00806 -1.87342 0
M  V30 61 C 4.2403 3.7352 -3.65075 0
M  V30 62 H 5.9343 1.93755 -2.28253 0
M  V30 63 H 3.4803 0.930788 -1.09874 0
M  V30 64 H 5.4333 4.06804 -1.09948 0
M  V30 65 H 4.1573 3.2624 -0.153332 0
M  V30 66 H 2.8163 2.89169 -2.25337 0
M  V30 67 H 2.4643 4.95233 -0.880545 0
M  V30 68 H 2.1643 5.26529 -2.60846 0
M  V30 69 H 3.6883 5.81687 -1.85667 0
M  V30 70 H 5.1023 4.42168 -3.64911 0
M  V30 71 H 3.4993 4.10731 -4.37516 0
M  V30 72 H 4.5693 2.74527 -3.99703 0
M  V30 73 N 5.9124 1.20967 1.01018 0
M  V30 74 C 6.8594 0.964281 2.09691 0
M  V30 75 C 7.8294 -0.107853 1.65749 0
M  V30 76 O 9.0144 0.0381987 1.90762 0
M  V30 77 C 6.1544 0.52943 3.41015 0
M  V30 78 C 5.2674 1.67043 3.98398 0
M  V30 79 C 4.4024 1.18525 5.17808 0
M  V30 80 C 3.4414 2.29892 5.67288 0
M  V30 81 N 2.5784 1.82546 6.77954 0
M  V30 82 H 7.4184 1.89463 2.30017 0
M  V30 83 H 4.9554 0.944289 1.1279 0
M  V30 84 H 6.9134 0.258588 4.16398 0
M  V30 85 H 5.5434 -0.363919 3.20742 0
M  V30 86 H 4.5954 2.05603 3.20049 0
M  V30 87 H 5.9074 2.50877 4.31117 0
M  V30 88 H 5.0614 0.870762 6.00419 0
M  V30 89 H 3.8004 0.316887 4.86669 0
M  V30 90 H 2.8054 2.6215 4.83278 0
M  V30 91 H 4.0304 3.17216 6.00459 0
M  V30 92 H 1.9764 0.980454 6.48632 0
M  V30 93 H 1.8934 2.59956 7.09901 0
M  V30 94 H 3.1614 1.54115 7.64113 0
M  V30 95 N 7.3905 -1.2043 1.01659 0
M  V30 96 C 8.3005 -2.2689 0.596484 0
M  V30 97 C 9.3165 -1.70107 -0.36599 0
M  V30 98 O 10.4925 -2.00117 -0.226942 0
M  V30 99 C 7.5575 -3.4665 -0.0586659 0
M  V30 100 C 6.6185 -4.18662 0.949751 0
M  V30 101 C 5.8515 -5.32705 0.32577 0
M  V30 102 O 6.0745 -5.63656 -0.874509 0
M  V30 103 O 5.0085 -5.92803 1.04249 0
M  V30 104 H 8.8345 -2.65041 1.4828 0
M  V30 105 H 6.4195 -1.27048 0.786082 0
M  V30 106 H 8.3015 -4.19256 -0.424564 0
M  V30 107 H 6.9765 -3.10375 -0.91918 0
M  V30 108 H 5.8835 -3.48229 1.36702 0
M  V30 109 H 7.2165 -4.58878 1.78023 0
M  V30 110 N 8.8686 -0.792821 -1.36206 0
M  V30 111 C 10.0986 -0.378275 -2.03107 0
M  V30 112 C 10.5066 1.01119 -1.59911 0
M  V30 113 O 9.8496 1.66052 -0.785658 0
M  V30 114 C 9.9116 -0.366535 -3.57627 0
M  V30 115 C 9.5756 -1.70416 -4.24037 0
M  V30 116 C 10.5726 -2.6602 -4.46687 0
M  V30 117 C 8.2576 -1.98439 -4.6144 0
M  V30 118 C 10.2516 -3.8784 -5.05825 0
M  V30 119 C 7.9386 -3.20525 -5.20295 0
M  V30 120 C 8.9366 -4.15044 -5.42427 0
M  V30 121 O 8.6246 -5.34978 -6.00045 0
M  V30 122 H 8.3566 -0.153543 -0.658332 0
M  V30 123 H 10.9106 -1.07383 -1.75094 0
M  V30 124 H 9.1406 0.385539 -3.84773 0
M  V30 125 H 10.8296 0.0238088 -4.05893 0
M  V30 126 H 11.5956 -2.45658 -4.18183 0
M  V30 127 H 7.4746 -1.25686 -4.43536 0
M  V30 128 H 11.0186 -4.61628 -5.23015 0
M  V30 129 H 6.9156 -3.40764 -5.48225 0
M  V30 130 H 7.6836 -5.36088 -6.18508 0
M  V30 131 N 10.3467 1.47872 -0.545128 0
M  V30 132 C 11.7627 1.5829 -0.204032 0
M  V30 133 C 11.9627 1.54529 1.29317 0
M  V30 134 O 11.0187 1.44232 2.07252 0
M  V30 135 C 12.3317 2.89304 -0.819987 0
M  V30 136 C 13.8797 3.02864 -0.790105 0
M  V30 137 C 14.3547 4.3656 -1.38491 0
M  V30 138 N 15.8457 4.43165 -1.34755 0
M  V30 139 C 16.5807 5.45153 -1.77753 0
M  V30 140 N 16.0767 6.54016 -2.2855 0
M  V30 141 N 17.8697 5.36125 -1.68897 0
M  V30 142 H 10.0207 1.4856 -1.51802 0
M  V30 143 H 12.2837 0.706305 -0.632327 0
M  V30 144 H 11.9897 2.97757 -1.87173 0
M  V30 145 H 11.8637 3.75957 -0.305915 0
M  V30 146 H 14.2507 2.94014 0.252913 0
M  V30 147 H 14.3317 2.17782 -1.34181 0
M  V30 148 H 13.9757 4.46164 -2.42693 0
M  V30 149 H 13.9057 5.20353 -0.808754 0
M  V30 150 H 16.3967 3.65083 -0.975855 0
M  V30 151 H 16.7097 7.27994 -2.59314 0
M  V30 152 H 15.0547 6.54938 -2.32553 0
M  V30 153 H 18.2457 4.49975 -1.28998 0
M  V30 154 H 18.4187 6.15472 -2.02726 0
M  V30 155 N 11.8248 0.280983 1.55075 0
M  V30 156 C 13.0708 -0.33461 2.00021 0
M  V30 157 C 13.4038 -1.55063 1.16915 0
M  V30 158 O 12.6788 -1.93006 0.240646 0
M  V30 159 C 12.9618 -0.711007 3.53011 0
M  V30 160 C 12.8148 0.512766 4.46868 0
M  V30 161 C 14.1338 -1.54522 4.12081 0
M  V30 162 H 11.2528 -0.120147 0.727141 0
M  V30 163 H 13.8948 0.389097 1.85973 0
M  V30 164 H 12.0448 -1.32761 3.65112 0
M  V30 165 H 13.7168 1.15131 4.46702 0
M  V30 166 H 11.9598 1.14975 4.18286 0
M  V30 167 H 12.6308 0.205556 5.51617 0
M  V30 168 H 15.1068 -1.02442 4.03293 0
M  V30 169 H 13.9828 -1.77739 5.19327 0
M  V30 170 H 14.2438 -2.52813 3.62682 0
M  V30 171 N 13.3029 -1.57598 0.00835791 0
M  V30 172 C 14.5519 -1.90107 -0.673968 0
M  V30 173 C 14.8649 -0.884275 -1.7447 0
M  V30 174 O 16.0709 -1.09987 -2.48224 0
M  V30 175 C 14.5269 -3.37497 -1.24995 0
M  V30 176 C 14.1349 -4.47491 -0.2136 0
M  V30 177 C 15.8789 -3.79104 -1.90999 0
M  V30 178 C 13.7859 -5.85963 -0.80005 0
M  V30 179 H 12.7159 -0.709393 -0.255495 0
M  V30 180 H 15.3669 -1.83365 0.0702693 0
M  V30 181 H 13.7489 -3.39102 -2.04513 0
M  V30 182 H 14.9229 -4.57414 0.557596 0
M  V30 183 H 13.2379 -4.14956 0.346474 0
M  V30 184 H 15.8349 -4.79901 -2.35795 0
M  V30 185 H 16.1779 -3.1306 -2.74407 0
M  V30 186 H 16.7109 -3.79833 -1.18203 0
M  V30 187 H 13.4499 -6.555 -0.00456708 0
M  V30 188 H 12.9699 -5.79687 -1.54021 0
M  V30 189 H 14.6489 -6.33884 -1.29615 0
M  V30 190 N 14.781 0.264519 -1.55364 0
M  V30 191 C 15.711 1.33121 -1.91836 0
M  V30 192 C 16.692 1.51101 -0.781192 0
M  V30 193 O 17.877 1.64003 -1.04003 0
M  V30 194 C 15.007 2.68921 -2.19769 0
M  V30 195 C 13.961 2.65661 -3.35571 0
M  V30 196 C 13.287 4.05093 -3.49004 0
M  V30 197 C 14.587 2.24187 -4.71739 0
M  V30 198 H 16.281 1.02844 -2.81182 0
M  V30 199 H 13.827 0.493286 -1.35287 0
M  V30 200 H 15.78 3.43663 -2.43872 0
M  V30 201 H 14.504 3.00799 -1.27231 0
M  V30 202 H 13.163 1.93377 -3.1145 0
M  V30 203 H 12.811 4.34206 -2.53917 0
M  V30 204 H 12.511 4.03804 -4.26868 0
M  V30 205 H 14.035 4.81561 -3.75408 0
M  V30 206 H 15.449 2.88654 -4.9533 0
M  V30 207 H 13.846 2.34044 -5.52579 0
M  V30 208 H 14.916 1.19327 -4.69988 0
M  V30 209 N 16.2591 1.48442 0.529413 0
M  V30 210 C 17.6701 1.5002 1.11134 0
M  V30 211 C 18.0211 0.27031 1.94329 0
M  V30 212 O 17.1461 -0.622507 2.07253 0
M  V30 213 C 17.7411 2.71834 2.02217 0
M  V30 214 C 16.3001 2.76283 2.55627 0
M  V30 215 C 15.4471 2.43542 1.326 0
M  V30 216 H 18.3981 1.5555 0.314641 0
M  V30 217 H 18.4191 2.50384 2.8651 0
M  V30 218 H 17.9311 3.61331 1.41639 0
M  V30 219 H 16.0321 1.90995 3.19924 0
M  V30 220 H 16.1451 3.77725 2.94721 0
M  V30 221 H 14.5091 1.94709 1.64196 0
M  V30 222 H 15.2921 3.3528 0.737734 0
M  V30 223 N 17.7372 -0.778329 1.37039 0
M  V30 224 C 18.9832 -1.53892 1.32079 0
M  V30 225 C 19.3162 -1.9396 -0.0965386 0
M  V30 226 O 18.5912 -1.63568 -1.05242 0
M  V30 227 C 18.8742 -2.80847 2.25382 0
M  V30 228 C 18.7272 -2.47076 3.75864 0
M  V30 229 C 20.0462 -3.82741 2.1725 0
M  V30 230 H 17.1652 -0.558303 0.48111 0
M  V30 231 H 19.8072 -0.893397 1.67685 0
M  V30 232 H 17.9572 -3.35931 1.95148 0
M  V30 233 H 19.6292 -1.97957 4.16666 0
M  V30 234 H 17.8722 -1.79863 3.94755 0
M  V30 235 H 18.5432 -3.37798 4.36574 0
M  V30 236 H 21.0192 -3.37133 2.43887 0
M  V30 237 H 19.8952 -4.69303 2.84686 0
M  V30 238 H 20.1562 -4.2652 1.16331 0
M  V30 239 N 19.2153 -1.21501 -1.00376 0
M  V30 240 C 20.4403 -1.05977 -1.78279 0
M  V30 241 C 20.8653 0.385994 -1.84097 0
M  V30 242 O 20.2233 1.27849 -1.28547 0
M  V30 243 C 20.2713 -1.66302 -3.19963 0
M  V30 244 O 19.3753 -0.909333 -4.0225 0
M  V30 245 H 18.7163 -0.372906 -0.549397 0
M  V30 246 H 21.2463 -1.6107 -1.26165 0
M  V30 247 H 21.2563 -1.70574 -3.70632 0
M  V30 248 H 19.9313 -2.71515 -3.15043 0
M  V30 249 H 18.5083 -0.941795 -3.60811 0
M  V30 250 N 20.6934 1.19889 -1.02296 0
M  V30 251 C 21.9394 1.89701 -0.717033 0
M  V30 252 C 22.2724 1.7905 0.751989 0
M  V30 253 O 21.5474 1.17891 1.547 0
M  V30 254 C 21.8304 3.40858 -1.16136 0
M  V30 255 C 21.6834 3.60411 -2.69117 0
M  V30 256 C 23.0024 4.33876 -0.737549 0
M  V30 257 H 20.1214 0.688874 -0.261957 0
M  V30 258 H 22.7634 1.41154 -1.27183 0
M  V30 259 H 20.9134 3.82335 -0.689342 0
M  V30 260 H 22.5854 3.28145 -3.2422 0
M  V30 261 H 20.8284 3.03665 -3.0979 0
M  V30 262 H 21.4994 4.66396 -2.95261 0
M  V30 263 H 23.9754 4.00081 -1.14344 0
M  V30 264 H 22.8514 5.38242 -1.0764 0
M  V30 265 H 23.1124 4.40628 0.360436 0
M  V30 266 N 22.1715 0.800033 1.35784 0
M  V30 267 C 23.4485 0.30088 1.93272 0
M  V30 268 C 23.8285 -1.20857 1.73081 0
M  V30 269 O 23.1765 -2.00502 1.09596 0
M  V30 270 C 23.3865 0.70511 3.41803 0
M  V30 271 C 24.7345 0.690871 4.18942 0
M  V30 272 O 25.7585 0.646244 3.50289 0
M  V30 273 O 24.6175 0.74332 5.41421 0
M  V30 274 H 21.7115 0.0771605 0.823393 0
M  V30 275 H 24.2575 0.88329 1.449 0
M  V30 276 H 23.0295 1.74571 3.50201 0
M  V30 277 H 22.6525 0.0971541 3.97481 0
M  V30 278 N 23.6496 -1.47581 0.552962 0
M  V30 279 C 24.5596 -2.33743 -0.200353 0
M  V30 280 C 25.5756 -1.47928 -0.916151 0
M  V30 281 O 26.7516 -1.80865 -0.885993 0
M  V30 282 C 23.8166 -3.24536 -1.21973 0
M  V30 283 C 22.8776 -4.26238 -0.511819 0
M  V30 284 C 22.1106 -5.12693 -1.48263 0
M  V30 285 O 22.3336 -5.01525 -2.71714 0
M  V30 286 O 21.2676 -5.93375 -1.00945 0
M  V30 287 H 25.0936 -2.9945 0.506304 0
M  V30 288 H 22.6786 -1.46071 0.313622 0
M  V30 289 H 24.5606 -3.80631 -1.80827 0
M  V30 290 H 23.2356 -2.61462 -1.90839 0
M  V30 291 H 22.1426 -3.73914 0.117799 0
M  V30 292 H 23.4756 -4.92014 0.135308 0
M  V30 293 N 25.1277 -0.289203 -1.54924 0
M  V30 294 C 26.3577 0.325989 -2.04012 0
M  V30 295 C 26.7657 1.48961 -1.1665 0
M  V30 296 O 26.1087 1.82794 -0.1822 0
M  V30 297 C 26.1707 0.856112 -3.49158 0
M  V30 298 C 25.8347 -0.180697 -4.56643 0
M  V30 299 C 26.8317 -1.0051 -5.10092 0
M  V30 300 C 24.5167 -0.318998 -5.01286 0
M  V30 301 C 26.5107 -1.95385 -6.06715 0
M  V30 302 C 24.1977 -1.27121 -5.97732 0
M  V30 303 C 25.1957 -2.08713 -6.50329 0
M  V30 304 O 24.8837 -3.02322 -7.44887 0
M  V30 305 H 24.6157 0.0765276 -0.671654 0
M  V30 306 H 27.1697 -0.423254 -2.00992 0
M  V30 307 H 25.3997 1.65567 -3.49463 0
M  V30 308 H 27.0887 1.38591 -3.81507 0
M  V30 309 H 27.8547 -0.90906 -4.76404 0
M  V30 310 H 23.7337 0.306108 -4.59983 0
M  V30 311 H 27.2777 -2.59111 -6.47694 0
M  V30 312 H 23.1747 -1.36801 -6.30837 0
M  V30 313 H 23.9427 -2.97165 -7.6265 0
M  V30 314 N 26.6058 1.57591 -0.0167156 0
M  V30 315 C 27.5378 2.06343 0.997753 0
M  V30 316 C 28.5508 0.984469 1.29661 0
M  V30 317 O 29.7398 1.26093 1.26344 0
M  V30 318 C 26.8398 2.46255 2.32834 0
M  V30 319 C 26.0128 3.77083 2.21646 0
M  V30 320 C 25.0718 4.0368 3.37534 0
M  V30 321 O 24.0978 4.7411 3.14973 0
M  V30 322 N 25.2998 3.52881 4.60929 0
M  V30 323 H 28.0648 2.93997 0.581875 0
M  V30 324 H 25.6258 1.61002 0.170316 0
M  V30 325 H 27.6178 2.61149 3.09166 0
M  V30 326 H 26.1878 1.64032 2.66106 0
M  V30 327 H 25.4078 3.72106 1.30119 0
M  V30 328 H 26.6958 4.62822 2.11361 0
M  V30 329 H 26.0938 2.95878 4.82154 0
M  V30 330 H 24.6508 3.73076 5.34469 0
M  V30 331 N 28.0839 -0.256276 1.55502 0
M  V30 332 C 29.3299 -0.987079 1.77157 0
M  V30 333 C 29.6629 -1.85327 0.580315 0
M  V30 334 O 28.9379 -1.89874 -0.421686 0
M  V30 335 C 29.2209 -1.85553 3.08613 0
M  V30 336 C 29.0739 -1.01816 4.38125 0
M  V30 337 C 30.3929 -2.8397 3.36228 0
M  V30 338 H 27.5119 -0.357428 0.644526 0
M  V30 339 H 30.1539 -0.258239 1.88237 0
M  V30 340 H 28.3039 -2.47695 2.99298 0
M  V30 341 H 29.9759 -0.416159 4.59419 0
M  V30 342 H 28.2189 -0.322178 4.32602 0
M  V30 343 H 28.8899 -1.65939 5.26468 0
M  V30 344 H 31.3659 -2.31964 3.45445 0
M  V30 345 H 30.2419 -3.41864 4.29442 0
M  V30 346 H 30.5029 -3.59955 2.56681 0
M  V30 347 N 29.562 -1.4872 -0.521534 0
M  V30 348 C 30.81 -1.56857 -1.27437 0
M  V30 349 C 31.131 -0.247982 -1.93417 0
M  V30 350 O 30.401 0.731151 -1.81744 0
M  V30 351 H 28.981 -0.577885 -0.473347 0
M  V30 352 H 31.643 -1.85233 -0.606205 0
M  V30 353 H 30.739 -2.35402 -2.0492 0
M  V30 354 N 31.0401 0.771051 -1.3745 0
M  V30 355 C 31.9721 1.89352 -1.29146 0
M  V30 356 C 32.9851 1.61477 -0.207124 0
M  V30 357 O 34.1741 1.72382 -0.463324 0
M  V30 358 C 31.2741 3.24596 -0.974195 0
M  V30 359 C 30.4471 3.80111 -2.16413 0
M  V30 360 C 29.5061 4.93832 -1.81703 0
M  V30 361 O 28.5321 5.09382 -2.54006 0
M  V30 362 N 29.7341 5.75483 -0.761573 0
M  V30 363 H 32.4991 1.96991 -2.25864 0
M  V30 364 H 30.0601 0.950191 -1.31084 0
M  V30 365 H 32.0521 3.98193 -0.722828 0
M  V30 366 H 30.6221 3.12454 -0.0955527 0
M  V30 367 H 29.8421 2.98284 -2.57721 0
M  V30 368 H 31.1301 4.13932 -2.95867 0
M  V30 369 H 30.5281 5.65469 -0.161609 0
M  V30 370 H 29.0851 6.49302 -0.570064 0
M  V30 371 N 32.5182 1.22032 0.997298 0
M  V30 372 C 33.4482 1.01065 2.10495 0
M  V30 373 C 34.4292 -0.0669542 1.69968 0
M  V30 374 O 35.6142 0.0943987 1.9397 0
M  V30 375 C 32.7442 0.582874 3.42374 0
M  V30 376 C 31.6982 1.60592 3.96729 0
M  V30 377 C 31.0242 1.03412 5.24605 0
M  V30 378 C 32.3242 2.99478 4.27914 0
M  V30 379 H 34.0182 1.93708 2.28292 0
M  V30 380 H 31.5642 0.932761 1.09707 0
M  V30 381 H 33.5172 0.423332 4.19268 0
M  V30 382 H 32.2412 -0.379213 3.24391 0
M  V30 383 H 30.9002 1.75316 3.21963 0
M  V30 384 H 30.5482 0.063518 5.0296 0
M  V30 385 H 30.2482 1.71754 5.61938 0
M  V30 386 H 31.7722 0.886066 6.04137 0
M  V30 387 H 33.1862 2.88153 4.95622 0
M  V30 388 H 31.5832 3.64903 4.76409 0
M  V30 389 H 32.6532 3.49742 3.3587 0
M  V30 390 N 33.9963 -1.19345 1.0293 0
M  V30 391 C 35.2263 -1.92717 0.744563 0
M  V30 392 C 35.6343 -1.75751 -0.700579 0
M  V30 393 O 34.9773 -1.07703 -1.48815 0
M  V30 394 C 35.0393 -3.44828 1.01657 0
M  V30 395 C 34.7033 -3.85564 2.45335 0
M  V30 396 C 35.7003 -3.90286 3.43472 0
M  V30 397 C 33.3853 -4.1719 2.79746 0
M  V30 398 C 35.3793 -4.26065 4.74075 0
M  V30 399 C 33.0663 -4.52642 4.10559 0
M  V30 400 C 34.0643 -4.57054 5.07534 0
M  V30 401 O 33.7523 -4.91685 6.36004 0
M  V30 402 H 33.4843 -0.618977 0.271742 0
M  V30 403 H 36.0383 -1.52415 1.37691 0
M  V30 404 H 34.2683 -3.85314 0.327084 0
M  V30 405 H 35.9573 -3.99437 0.721427 0
M  V30 406 H 36.7233 -3.66002 3.18225 0
M  V30 407 H 32.6023 -4.1294 2.04943 0
M  V30 408 H 36.1463 -4.29423 5.49765 0
M  V30 409 H 32.0433 -4.76383 4.35579 0
M  V30 410 H 32.8113 -5.09631 6.40483 0
M  V30 411 N 35.4744 -0.807222 -1.35358 0
M  V30 412 C 36.6994 -0.399309 -2.0352 0
M  V30 413 C 37.1244 0.981986 -1.60433 0
M  V30 414 O 36.4824 1.63601 -0.781299 0
M  V30 415 C 36.5304 -0.491552 -3.57234 0
M  V30 416 O 35.6344 0.494754 -4.09421 0
M  V30 417 H 34.9754 -0.166682 -0.642739 0
M  V30 418 H 37.5054 -1.09328 -1.72941 0
M  V30 419 H 37.5154 -0.361588 -4.06395 0
M  V30 420 H 36.1904 -1.49907 -3.87944 0
M  V30 421 H 34.7674 0.324977 -3.71481 0
M  V30 422 N 36.9525 1.47285 -0.560781 0
M  V30 423 C 38.1985 2.02764 -0.0381184 0
M  V30 424 C 38.5315 1.43384 1.30976 0
M  V30 425 O 37.8065 0.590733 1.85312 0
M  V30 426 C 38.0895 3.60064 0.0511427 0
M  V30 427 C 37.9425 4.2987 -1.32408 0
M  V30 428 C 39.2615 4.33439 0.762795 0
M  V30 429 H 36.3805 0.736841 -0.0153264 0
M  V30 430 H 39.0225 1.75675 -0.723759 0
M  V30 431 H 37.1725 3.83274 0.635065 0
M  V30 432 H 38.8445 4.17989 -1.95148 0
M  V30 433 H 37.0875 3.90085 -1.8978 0
M  V30 434 H 37.7585 5.38478 -1.21431 0
M  V30 435 H 40.2345 4.15243 0.266965 0
M  V30 436 H 39.1105 5.43124 0.794221 0
M  V30 437 H 39.3715 4.02915 1.81966 0
M  V30 438 N 38.4306 0.297415 1.54768 0
M  V30 439 C 39.3936 -0.567375 2.22066 0
M  V30 440 C 40.3936 -1.06409 1.20556 0
M  V30 441 O 41.5836 -0.960691 1.45315 0
M  V30 442 C 38.7156 -1.78517 2.90421 0
M  V30 443 H 39.9086 0.0205534 2.99893 0
M  V30 444 H 37.4616 0.0482163 1.56226 0
M  V30 445 H 38.1966 -2.41303 2.16664 0
M  V30 446 H 37.9816 -1.43669 3.64831 0
M  V30 447 H 39.4716 -2.39964 3.41771 0
M  V30 448 N 39.9087 -1.5758 0.0250728 0
M  V30 449 C 40.8187 -2.1343 -0.973905 0
M  V30 450 C 41.8347 -1.08556 -1.35984 0
M  V30 451 O 43.0107 -1.40592 -1.44207 0
M  V30 452 C 40.0757 -2.64703 -2.23904 0
M  V30 453 C 39.1367 -3.84276 -1.91391 0
M  V30 454 C 38.3697 -4.33095 -3.11873 0
M  V30 455 O 38.5927 -3.81107 -4.24398 0
M  V30 456 O 37.5267 -5.24984 -2.94406 0
M  V30 457 H 41.3527 -2.99057 -0.529036 0
M  V30 458 H 38.9377 -1.48118 -0.195288 0
M  V30 459 H 40.8197 -2.97769 -2.98181 0
M  V30 460 H 39.4947 -1.82161 -2.6758 0
M  V30 461 H 38.4017 -3.56143 -1.14511 0
M  V30 462 H 39.7347 -4.67968 -1.52534 0
M  V30 463 N 41.3868 0.248026 -1.55636 0
M  V30 464 C 42.3498 1.29044 -1.89421 0
M  V30 465 C 43.3498 1.41134 -0.770581 0
M  V30 466 O 44.5398 1.39854 -1.03858 0
M  V30 467 C 41.6718 2.66831 -2.12165 0
M  V30 468 H 42.8648 1.00305 -2.82629 0
M  V30 469 H 40.4178 0.487265 -1.48511 0
M  V30 470 H 41.1528 3.00711 -1.21422 0
M  V30 471 H 40.9378 2.59438 -2.93997 0
M  V30 472 H 42.4278 3.42103 -2.3949 0
M  V30 473 N 42.8649 1.48995 0.513639 0
M  V30 474 C 44.0899 1.61792 1.29762 0
M  V30 475 C 44.5149 0.284475 1.85936 0
M  V30 476 O 43.8729 -0.746185 1.65232 0
M  V30 477 C 43.9209 2.67993 2.41272 0
M  V30 478 O 43.0249 2.26287 3.44772 0
M  V30 479 H 42.3659 0.541963 0.38363 0
M  V30 480 H 44.8959 1.95097 0.616307 0
M  V30 481 H 44.9059 2.89772 2.87221 0
M  V30 482 H 43.5809 3.64791 1.9975 0
M  V30 483 H 42.1579 2.14788 3.04829 0
M  V30 484 N 44.343 -0.763751 1.37857 0
M  V30 485 C 45.29 -1.87726 1.34267 0
M  V30 486 C 46.26 -1.64807 0.206879 0
M  V30 487 O 47.445 -1.86613 0.397508 0
M  V30 488 C 44.585 -3.24896 1.16346 0
M  V30 489 C 43.698 -3.59716 2.39225 0
M  V30 490 C 42.833 -4.86137 2.14114 0
M  V30 491 C 41.872 -5.13711 3.32817 0
M  V30 492 N 41.009 -6.31323 3.07206 0
M  V30 493 H 45.849 -1.90129 2.29466 0
M  V30 494 H 43.386 -0.929433 1.14017 0
M  V30 495 H 45.344 -4.04036 1.03975 0
M  V30 496 H 43.974 -3.21847 0.247909 0
M  V30 497 H 43.026 -2.75498 2.62307 0
M  V30 498 H 44.338 -3.76027 3.27728 0
M  V30 499 H 43.492 -5.73198 1.9882 0
M  V30 500 H 42.231 -4.71945 1.22961 0
M  V30 501 H 41.236 -4.25123 3.48641 0
M  V30 502 H 42.461 -5.29807 4.24832 0
M  V30 503 H 40.407 -6.18474 2.1869 0
M  V30 504 H 40.324 -6.48087 3.89254 0
M  V30 505 H 41.592 -7.213 2.95546 0
M  V30 506 N 45.8211 -1.22559 -0.990812 0
M  V30 507 C 46.7691 -0.994798 -2.10253 0
M  V30 508 C 47.7631 0.0627798 -1.69284 0
M  V30 509 O 48.9691 -0.0898392 -1.79776 0
M  V30 510 H 45.3441 -0.304527 -0.687581 0
M  V30 511 H 47.3151 -1.93812 -2.26891 0
M  V30 512 C 46.0641 -0.591439 -3.42633 0
M  V30 513 H 45.3871 -1.3969 -3.74602 0
M  V30 514 H 46.8271 -0.469385 -4.21394 0
M  V30 515 C 45.2861 0.699232 -3.29564 0
M  V30 516 O 45.8161 1.75112 -3.61523 0
M  V30 517 N 44.0221 0.671182 -2.82743 0
M  V30 518 H 43.5691 -0.185136 -2.56934 0
M  V30 519 H 43.5271 1.53502 -2.7438 0
M  V30 520 N 47.2992 1.18797 -1.03562 0
M  V30 521 C 48.2092 2.25913 -0.632505 0
M  V30 522 C 49.2252 1.70668 0.338882 0
M  V30 523 O 50.4012 2.00453 0.195076 0
M  V30 524 C 47.4662 3.467 0.00350942 0
M  V30 525 C 46.5272 4.17098 -1.01624 0
M  V30 526 C 45.7602 5.32119 -0.410478 0
M  V30 527 O 45.9832 5.64976 0.784725 0
M  V30 528 O 44.9172 5.9107 -1.13667 0
M  V30 529 H 48.7432 2.62648 -1.52478 0
M  V30 530 H 46.3282 1.25781 -0.806195 0
M  V30 531 H 48.2102 4.19878 0.35781 0
M  V30 532 H 46.8852 3.11798 0.869686 0
M  V30 533 H 45.7922 3.4601 -1.42224 0
M  V30 534 H 47.1252 4.55987 -1.85301 0
M  V30 535 N 48.7773 0.814389 1.34928 0
M  V30 536 C 50.0053 0.411136 2.02774 0
M  V30 537 C 50.4203 -0.980316 1.61354 0
M  V30 538 O 49.7773 -1.63299 0.814847 0
M  V30 539 C 49.8283 0.493865 3.58111 0
M  V30 540 O 49.5493 1.83047 3.98027 0
M  V30 541 C 51.0503 0.0844174 4.4322 0
M  V30 542 H 48.2703 0.166037 0.650133 0
M  V30 543 H 50.8143 1.10018 1.72384 0
M  V30 544 H 48.9693 -0.147006 3.87121 0
M  V30 545 H 49.3833 1.79872 4.92693 0
M  V30 546 H 50.8573 0.193404 5.51661 0
M  V30 547 H 51.3343 -0.97113 4.28329 0
M  V30 548 H 51.9403 0.69875 4.19521 0
M  V30 549 N 50.2554 -1.46986 0.568584 0
M  V30 550 C 51.5034 -2.02041 0.0487022 0
M  V30 551 C 51.8244 -1.44408 -1.31039 0
M  V30 552 O 51.0944 -0.623477 -1.85714 0
M  V30 553 H 49.6744 -0.746849 0.015014 0
M  V30 554 H 52.3364 -1.80257 0.741168 0
M  V30 555 H 51.4324 -3.12085 -0.0308961 0
M  V30 556 N 51.7335 -0.305618 -1.54608 0
M  V30 557 C 52.9815 0.301701 -1.99835 0
M  V30 558 C 53.3025 1.54054 -1.19551 0
M  V30 559 O 52.5725 1.93702 -0.292658 0
M  V30 560 H 51.1525 0.114468 -0.738178 0
M  V30 561 H 53.8145 -0.418016 -1.90364 0
M  V30 562 H 52.9105 0.570548 -3.06841 0
M  V30 563 N 53.2116 1.57565 -0.0334293 0
M  V30 564 C 54.4596 1.91598 0.642999 0
M  V30 565 C 54.7806 0.910847 1.7242 0
M  V30 566 O 54.0506 -0.0469931 1.95844 0
M  V30 567 H 52.6306 0.707228 0.240496 0
M  V30 568 H 55.2926 1.94726 -0.0822488 0
M  V30 569 H 54.3886 2.92336 1.09298 0
M  V30 570 N 54.6897 -0.239769 1.55765 0
M  V30 571 C 55.5997 -1.31831 1.94056 0
M  V30 572 C 56.6157 -1.52275 0.841925 0
M  V30 573 O 57.7917 -1.65759 1.14394 0
M  V30 574 C 54.8567 -2.65156 2.23368 0
M  V30 575 C 53.9177 -2.53173 3.46701 0
M  V30 576 C 53.1507 -3.8014 3.74606 0
M  V30 577 O 53.3737 -4.82343 3.04469 0
M  V30 578 O 52.3077 -3.78344 4.68123 0
M  V30 579 H 56.1337 -1.02347 2.85935 0
M  V30 580 H 53.7187 -0.441123 1.42739 0
M  V30 581 H 55.6007 -3.43929 2.43497 0
M  V30 582 H 54.2757 -2.94358 1.34666 0
M  V30 583 H 53.1827 -1.72662 3.31871 0
M  V30 584 H 54.5157 -2.28915 4.35728 0
M  V30 585 N 56.1678 -1.49265 -0.50573 0
M  V30 586 C 57.4158 -1.582 -1.25766 0
M  V30 587 C 57.7368 -0.268482 -1.93143 0
M  V30 588 O 57.0068 0.711833 -1.8251 0
M  V30 589 H 55.5868 -0.582873 -0.467191 0
M  V30 590 H 58.2488 -1.85865 -0.586525 0
M  V30 591 H 57.3448 -2.37563 -2.02412 0
M  V30 592 N 57.6459 0.756429 -1.3826 0
M  V30 593 C 58.8919 1.51772 -1.34511 0
M  V30 594 C 59.2249 1.94089 0.0656691 0
M  V30 595 O 58.4999 1.65221 1.02626 0
M  V30 596 C 58.7829 2.77226 -2.29821 0
M  V30 597 C 58.6359 2.41065 -3.79747 0
M  V30 598 C 59.9549 3.79236 -2.23312 0
M  V30 599 H 57.0739 0.550578 -0.489931 0
M  V30 600 H 59.7159 0.866607 -1.69086 0
M  V30 601 H 57.8659 3.32784 -2.00467 0
M  V30 602 H 59.5379 1.91303 -4.19763 0
M  V30 603 H 57.7809 1.7356 -3.97567 0
M  V30 604 H 58.4519 3.3081 -4.41892 0
M  V30 605 H 60.9279 3.3321 -2.49219 0
M  V30 606 H 59.8039 4.64714 -2.92116 0
M  V30 607 H 60.0649 4.24615 -1.23102 0
M  V30 608 N 59.124 1.23083 0.984299 0
M  V30 609 C 60.034 1.02515 2.11016 0
M  V30 610 C 61.05 -0.0291702 1.73976 0
M  V30 611 O 62.226 0.165434 2.00719 0
M  V30 612 C 59.291 0.614673 3.41208 0
M  V30 613 C 58.352 1.74359 3.92297 0
M  V30 614 C 57.585 1.35261 5.16275 0
M  V30 615 O 57.808 0.235136 5.69915 0
M  V30 616 O 56.742 2.17227 5.61334 0
M  V30 617 H 60.568 1.96862 2.31255 0
M  V30 618 H 58.153 1.01753 1.09392 0
M  V30 619 H 60.035 0.396518 4.1953 0
M  V30 620 H 58.71 -0.299851 3.22308 0
M  V30 621 H 57.617 2.01635 3.1511 0
M  V30 622 H 58.95 2.63629 4.15645 0
M  V30 623 N 60.6021 -1.18246 1.0419 0
M  V30 624 C 61.8481 -1.88536 0.747122 0
M  V30 625 C 62.1811 -1.80223 -0.723409 0
M  V30 626 O 61.4561 -1.20337 -1.52804 0
M  V30 627 C 61.7391 -3.38968 1.21544 0
M  V30 628 C 61.5921 -3.56084 2.74816 0
M  V30 629 C 62.9111 -4.32648 0.806482 0
M  V30 630 H 60.0301 -0.684619 0.272883 0
M  V30 631 H 62.6721 -1.39113 1.29413 0
M  V30 632 H 60.8221 -3.8119 0.750081 0
M  V30 633 H 62.4941 -3.22946 3.29399 0
M  V30 634 H 60.7371 -2.98699 3.14582 0
M  V30 635 H 61.4081 -4.61639 3.02644 0
M  V30 636 H 63.8841 -3.98211 1.20695 0
M  V30 637 H 62.7601 -5.36462 1.1619 0
M  V30 638 H 63.0211 -4.41146 -0.29029 0
M  V30 639 N 62.0802 -0.821533 -1.34494 0
M  V30 640 C 63.0102 -0.257138 -2.3208 0
M  V30 641 C 63.9912 0.625645 -1.58176 0
M  V30 642 O 65.1762 0.552811 -1.86166 0
M  V30 643 C 62.3062 0.582958 -3.42372 0
M  V30 644 C 61.2602 -0.202571 -4.2752 0
M  V30 645 C 60.5862 0.760179 -5.29269 0
M  V30 646 C 61.8862 -1.40998 -5.02908 0
M  V30 647 H 63.5802 -1.07247 -2.79532 0
M  V30 648 H 61.1262 -0.517163 -1.34393 0
M  V30 649 H 63.0792 0.987972 -4.09655 0
M  V30 650 H 61.8032 1.43133 -2.93565 0
M  V30 651 H 60.4622 -0.588936 -3.61838 0
M  V30 652 H 60.1102 1.60447 -4.76724 0
M  V30 653 H 59.8102 0.238809 -5.87115 0
M  V30 654 H 61.3342 1.16308 -5.9942 0
M  V30 655 H 62.7482 -1.07905 -5.63054 0
M  V30 656 H 61.1452 -1.86689 -5.70322 0
M  V30 657 H 62.2152 -2.1889 -4.32684 0
M  V30 658 N 63.5583 1.46682 -0.576371 0
M  V30 659 C 64.8043 2.02712 -0.0596221 0
M  V30 660 C 65.1373 1.44765 1.29448 0
M  V30 661 O 64.4123 0.610355 1.84675 0
M  V30 662 C 64.6953 3.60098 0.0129503 0
M  V30 663 C 64.5483 4.28441 -1.3696 0
M  V30 664 C 65.8673 4.34224 0.71678 0
M  V30 665 H 62.9863 0.736637 -0.0231407 0
M  V30 666 H 65.6283 1.74898 -0.742351 0
M  V30 667 H 63.7783 3.83926 0.594378 0
M  V30 668 H 65.4503 4.15896 -1.9957 0
M  V30 669 H 63.6933 3.8805 -1.93907 0
M  V30 670 H 64.3643 5.3716 -1.27135 0
M  V30 671 H 66.8403 4.15503 0.222908 0
M  V30 672 H 65.7163 5.43936 0.73657 0
M  V30 673 H 65.9773 4.04823 1.77682 0
M  V30 674 N 65.0364 0.313813 1.54444 0
M  V30 675 C 65.9844 -0.572171 2.25453 0
M  V30 676 C 66.9784 -1.12657 1.2651 0
M  V30 677 O 68.1844 -1.07573 1.44319 0
M  V30 678 H 64.5594 -0.203146 0.724041 0
M  V30 679 H 66.5304 0.0491145 2.9836 0
M  V30 680 C 65.2794 -1.72626 3.0182 0
M  V30 681 H 64.6024 -1.30891 3.77767 0
M  V30 682 H 66.0424 -2.32199 3.54767 0
M  V30 683 C 64.5014 -2.63806 2.09542 0
M  V30 684 O 65.0314 -3.65256 1.67185 0
M  V30 685 N 63.2374 -2.31824 1.75232 0
M  V30 686 H 62.7844 -1.49368 2.09873 0
M  V30 687 H 62.7424 -2.93095 1.13767 0
M  V30 688 N 66.5145 -1.57545 0.0417849 0
M  V30 689 C 67.4245 -2.14451 -0.951213 0
M  V30 690 C 68.4405 -1.09992 -1.34825 0
M  V30 691 O 69.6165 -1.42114 -1.42708 0
M  V30 692 C 66.6815 -2.67063 -2.21084 0
M  V30 693 C 65.7425 -3.86284 -1.87304 0
M  V30 694 C 64.9755 -4.36378 -3.07261 0
M  V30 695 O 65.1985 -3.85587 -4.20332 0
M  V30 696 O 64.1325 -5.28077 -2.88822 0
M  V30 697 H 67.9585 -2.99601 -0.497287 0
M  V30 698 H 65.5435 -1.48317 -0.179567 0
M  V30 699 H 67.4255 -3.00914 -2.95006 0
M  V30 700 H 66.1005 -1.84989 -2.65633 0
M  V30 701 H 65.0075 -3.57338 -1.10727 0
M  V30 702 H 66.3405 -4.6956 -1.47562 0
M  V30 703 N 67.9926 0.231505 -1.5589 0
M  V30 704 C 69.4036 0.799327 -1.68724 0
M  V30 705 C 69.7546 1.85398 -0.642022 0
M  V30 706 O 68.8796 2.1539 0.208784 0
M  V30 707 C 69.4746 1.45664 -3.05888 0
M  V30 708 C 68.0336 1.97197 -3.20609 0
M  V30 709 C 67.1806 0.828552 -2.64632 0
M  V30 710 H 70.1316 0.00702616 -1.58698 0
M  V30 711 H 70.1526 2.32517 -3.01191 0
M  V30 712 H 69.6646 0.688808 -3.81939 0
M  V30 713 H 67.7656 2.76813 -2.4941 0
M  V30 714 H 67.8786 2.15878 -4.27707 0
M  V30 715 H 66.2426 1.23321 -2.22854 0
M  V30 716 H 67.0256 0.0735544 -3.43221 0
M  V30 717 N 69.4707 1.49531 0.497807 0
M  V30 718 C 70.7007 1.62657 1.27382 0
M  V30 719 C 71.1087 0.298488 1.86831 0
M  V30 720 O 70.4517 -0.72647 1.68725 0
M  V30 721 C 70.5137 2.6393 2.44093 0
M  V30 722 C 70.1777 4.08195 2.05489 0
M  V30 723 C 71.1747 4.949 1.59279 0
M  V30 724 C 68.8597 4.53948 2.15026 0
M  V30 725 C 70.8537 6.25397 1.23113 0
M  V30 726 C 68.5407 5.84458 1.78473 0
M  V30 727 C 69.5387 6.70006 1.32591 0
M  V30 728 O 69.2267 7.98083 0.965327 0
M  V30 729 H 68.9587 0.550429 0.392434 0
M  V30 730 H 71.5127 1.96325 0.603801 0
M  V30 731 H 69.7427 2.25449 3.14181 0
M  V30 732 H 71.4317 2.66552 3.06113 0
M  V30 733 H 72.1977 4.60779 1.51354 0
M  V30 734 H 68.0767 3.87525 2.4969 0
M  V30 735 H 71.6207 6.92125 0.872299 0
M  V30 736 H 67.5177 6.18107 1.86048 0
M  V30 737 H 68.2857 8.11122 1.09652 0
M  V30 738 N 70.9488 -0.749086 1.3866 0
M  V30 739 C 71.8588 -1.89358 1.38494 0
M  V30 740 C 72.8748 -1.71708 0.281476 0
M  V30 741 O 74.0508 -1.94554 0.520643 0
M  V30 742 C 71.1158 -3.24782 1.21316 0
M  V30 743 C 70.1768 -3.54926 2.41508 0
M  V30 744 C 69.4098 -4.83888 2.2514 0
M  V30 745 O 69.6328 -5.56592 1.24746 0
M  V30 746 O 68.5668 -5.13612 3.13826 0
M  V30 747 H 72.3928 -1.92452 2.34938 0
M  V30 748 H 69.9778 -0.894981 1.19626 0
M  V30 749 H 71.8598 -4.05739 1.13814 0
M  V30 750 H 70.5348 -3.2249 0.279592 0
M  V30 751 H 69.4418 -2.74112 2.54585 0
M  V30 752 H 70.7748 -3.61983 3.3351 0
M  V30 753 N 72.4269 -1.23603 -0.977757 0
M  V30 754 C 73.3739 -1.01954 -2.07061 0
M  V30 755 C 74.3439 0.0638697 -1.65977 0
M  V30 756 O 75.5289 -0.0887624 -1.90593 0
M  V30 757 C 72.6689 -0.619658 -3.39491 0
M  V30 758 C 71.7819 -1.77547 -3.93829 0
M  V30 759 C 70.9169 -1.32212 -5.14484 0
M  V30 760 C 69.9559 -2.44852 -5.60994 0
M  V30 761 N 69.0929 -2.00456 -6.72876 0
M  V30 762 H 73.9329 -1.95495 -2.24913 0
M  V30 763 H 71.4699 -0.973861 -1.10247 0
M  V30 764 H 73.4279 -0.368898 -4.15566 0
M  V30 765 H 72.0579 0.278752 -3.21594 0
M  V30 766 H 71.1099 -2.14016 -3.14486 0
M  V30 767 H 72.4219 -2.62219 -4.24314 0
M  V30 768 H 71.5759 -1.02965 -5.97899 0
M  V30 769 H 70.3149 -0.445808 -4.85658 0
M  V30 770 H 69.3199 -2.74871 -4.76157 0
M  V30 771 H 70.5449 -3.33024 -5.91837 0
M  V30 772 H 68.4909 -1.15208 -6.45804 0
M  V30 773 H 68.4079 -2.78687 -7.02759 0
M  V30 774 H 69.6759 -1.7432 -7.59758 0
M  V30 775 N 73.905 1.17692 -1.04816 0
M  V30 776 C 75.182 1.83768 -0.669963 0
M  V30 777 C 75.562 1.93232 0.849986 0
M  V30 778 O 74.91 1.46397 1.75443 0
M  V30 779 C 75.12 3.21641 -1.35455 0
M  V30 780 C 76.468 3.97592 -1.49017 0
M  V30 781 O 77.492 3.31107 -1.31326 0
M  V30 782 O 76.351 5.16729 -1.77914 0
M  V30 783 H 73.445 0.792799 -0.235368 0
M  V30 784 H 75.991 1.25021 -1.14751 0
M  V30 785 H 74.763 3.097 -2.39168 0
M  V30 786 H 74.386 3.88052 -0.866107 0
M  V30 787 N 75.3831 0.828654 1.34056 0
M  V30 788 C 76.6311 0.41863 1.97717 0
M  V30 789 C 76.9521 -1.02314 1.66002 0
M  V30 790 O 76.2221 -1.71119 0.953683 0
M  V30 791 H 74.8021 0.151809 0.731412 0
M  V30 792 H 77.4641 1.05936 1.63596 0
M  V30 793 H 76.5601 0.542318 3.07352 0
M  V30 794 N 76.8612 -1.46375 0.584142 0
M  V30 795 C 77.7712 -2.34115 -0.150728 0
M  V30 796 C 78.7872 -1.49838 -0.884567 0
M  V30 797 O 79.9632 -1.82704 -0.847429 0
M  V30 798 C 77.0282 -3.2705 -1.15062 0
M  V30 799 C 76.0892 -4.27228 -0.421293 0
M  V30 800 C 75.3222 -5.15722 -1.37355 0
M  V30 801 O 75.5452 -5.07176 -2.61014 0
M  V30 802 O 74.4792 -5.95383 -0.883355 0
M  V30 803 H 78.3052 -2.98309 0.569708 0
M  V30 804 H 75.8902 -1.45373 0.344535 0
M  V30 805 H 77.7722 -3.84381 -1.72712 0
M  V30 806 H 76.4472 -2.65451 -1.8525 0
M  V30 807 H 75.3542 -3.7358 0.197085 0
M  V30 808 H 76.6872 -4.91616 0.239641 0
M  V30 809 N 78.3393 -0.321999 -1.54275 0
M  V30 810 C 79.2863 0.544664 -2.24281 0
M  V30 811 C 80.2563 1.1129 -1.23303 0
M  V30 812 O 81.4413 1.15354 -1.51981 0
M  V30 813 C 78.5813 1.70045 -3.00298 0
M  V30 814 C 77.6943 1.16159 -4.1609 0
M  V30 815 C 76.8293 2.28293 -4.79641 0
M  V30 816 C 75.8683 1.71648 -5.8754 0
M  V30 817 N 75.0053 2.77438 -6.44959 0
M  V30 818 H 79.8453 -0.0588907 -2.97942 0
M  V30 819 H 77.3823 -0.0408345 -1.47043 0
M  V30 820 H 79.3403 2.38054 -3.42616 0
M  V30 821 H 77.9703 2.27531 -2.28975 0
M  V30 822 H 77.0223 0.373092 -3.78566 0
M  V30 823 H 78.3343 0.707087 -4.93763 0
M  V30 824 H 77.4883 3.0421 -5.2492 0
M  V30 825 H 76.2273 2.77079 -4.01346 0
M  V30 826 H 75.2323 0.942282 -5.41665 0
M  V30 827 H 76.4573 1.23741 -6.67731 0
M  V30 828 H 74.4033 3.25519 -5.69538 0
M  V30 829 H 74.3203 2.36547 -7.1804 0
M  V30 830 H 75.5883 3.53189 -6.94894 0
M  V30 831 N 79.8174 1.5752 -0.0501392 0
M  V30 832 C 81.0654 1.9227 0.622642 0
M  V30 833 C 81.3864 0.929083 1.71444 0
M  V30 834 O 80.6564 -0.0262186 1.95882 0
M  V30 835 H 79.2364 0.709739 0.232981 0
M  V30 836 H 81.8984 1.94628 -0.102898 0
M  V30 837 H 80.9944 2.93479 1.06191 0
M  V30 838 N 81.2955 -0.223234 1.56011 0
M  V30 839 C 82.2275 -1.30006 1.88762 0
M  V30 840 C 83.2405 -1.43129 0.775746 0
M  V30 841 O 84.4295 -1.44057 1.05403 0
M  V30 842 C 81.5295 -2.67589 2.07965 0
M  V30 843 C 80.7025 -2.76434 3.38973 0
M  V30 844 C 79.7615 -3.95019 3.47629 0
M  V30 845 O 78.7875 -3.83436 4.20672 0
M  V30 846 N 79.9895 -5.09249 2.78649 0
M  V30 847 H 82.7545 -1.02238 2.81722 0
M  V30 848 H 80.3155 -0.413278 1.56536 0
M  V30 849 H 82.3075 -3.45297 2.11073 0
M  V30 850 H 80.8775 -2.87964 1.21638 0
M  V30 851 H 80.0975 -1.85216 3.47978 0
M  V30 852 H 81.3855 -2.79313 4.25278 0
M  V30 853 H 80.7835 -5.21556 2.19081 0
M  V30 854 H 79.3405 -5.85007 2.8742 0
M  V30 855 N 82.7736 -1.49793 -0.48987 0
M  V30 856 C 84.0036 -1.6333 -1.26518 0
M  V30 857 C 84.4116 -0.308392 -1.8667 0
M  V30 858 O 83.7546 0.717512 -1.69108 0
M  V30 859 C 83.8166 -2.6522 -2.4269 0
M  V30 860 C 83.4806 -4.09279 -2.03321 0
M  V30 861 C 84.4776 -4.95738 -1.56652 0
M  V30 862 C 82.1626 -4.55082 -2.12616 0
M  V30 863 C 84.1566 -6.26041 -1.19795 0
M  V30 864 C 81.8436 -5.85396 -1.75371 0
M  V30 865 C 82.8416 -6.707 -1.29036 0
M  V30 866 O 82.5296 -7.98584 -0.92299 0
M  V30 867 H 82.2616 -0.552502 -0.389509 0
M  V30 868 H 84.8156 -1.96642 -0.593381 0
M  V30 869 H 83.0456 -2.27112 -3.12981 0
M  V30 870 H 84.7346 -2.68171 -3.04695 0
M  V30 871 H 85.5006 -4.61575 -1.48908 0
M  V30 872 H 81.3796 -3.88844 -2.47631 0
M  V30 873 H 84.9236 -6.92578 -0.835582 0
M  V30 874 H 80.8206 -6.19085 -1.82768 0
M  V30 875 H 81.5886 -8.11692 -1.05349 0
M  V30 876 N 84.2517 0.741722 -1.39055 0
M  V30 877 C 85.4797 1.53098 -1.39171 0
M  V30 878 C 85.8947 1.88794 0.0155099 0
M  V30 879 O 85.2517 1.53626 0.985159 0
M  V30 880 C 85.3027 2.82274 -2.2584 0
M  V30 881 O 85.0237 2.48097 -3.61081 0
M  V30 882 C 86.5247 3.76343 -2.34266 0
M  V30 883 H 83.7447 0.473335 -0.4756 0
M  V30 884 H 86.2887 0.917045 -1.82785 0
M  V30 885 H 84.4437 3.40015 -1.85656 0
M  V30 886 H 84.8577 3.31029 -4.06842 0
M  V30 887 H 86.3317 4.63898 -2.9917 0
M  V30 888 H 86.8087 4.17619 -1.35982 0
M  V30 889 H 87.4147 3.24523 -2.74891 0
M  V30 890 N 85.7298 1.2412 0.971189 0
M  V30 891 C 86.6798 0.997551 2.05019 0
M  V30 892 C 87.6638 -0.0597747 1.60789 0
M  V30 893 O 88.8558 0.153516 1.76333 0
M  V30 894 C 85.9848 0.600557 3.38006 0
M  V30 895 C 85.0708 1.69377 3.88809 0
M  V30 896 N 85.4618 2.92586 4.12586 0
M  V30 897 C 83.7598 1.57048 4.17435 0
M  V30 898 C 84.4608 3.63431 4.54195 0
M  V30 899 N 83.4368 2.90979 4.59165 0
M  V30 900 H 87.2388 1.93316 2.21374 0
M  V30 901 H 84.7528 1.14194 1.1547 0
M  V30 902 H 86.7498 0.40725 4.14906 0
M  V30 903 H 85.4098 -0.327903 3.2304 0
M  V30 904 H 86.4208 3.288 4.00139 0
M  V30 905 H 83.0978 0.709798 4.11422 0
M  V30 906 H 84.4878 4.69102 4.81033 0
M  V30 907 N 87.2079 -1.17134 1.05439 0
M  V30 908 C 88.1549 -2.21235 0.657539 0
M  V30 909 C 89.1249 -1.62551 -0.341543 0
M  V30 910 O 90.3099 -1.89379 -0.232393 0
M  V30 911 C 87.4499 -3.45076 0.0410575 0
M  V30 912 C 86.5629 -4.18042 1.08927 0
M  V30 913 C 85.6979 -5.29376 0.439848 0
M  V30 914 C 84.7369 -5.94132 1.4722 0
M  V30 915 N 83.8739 -6.96975 0.846756 0
M  V30 916 H 88.7139 -2.54534 1.54972 0
M  V30 917 H 86.2509 -1.25028 0.775006 0
M  V30 918 H 88.2089 -4.15862 -0.33383 0
M  V30 919 H 86.8389 -3.12353 -0.814568 0
M  V30 920 H 85.8909 -3.45945 1.58196 0
M  V30 921 H 87.2029 -4.62306 1.87282 0
M  V30 922 H 86.3569 -6.06699 0.0115125 0
M  V30 923 H 85.0959 -4.86251 -0.375656 0
M  V30 924 H 84.1009 -5.15538 1.91052 0
M  V30 925 H 85.3259 -6.39337 2.28965 0
M  V30 926 H 83.2719 -6.5598 0.0518075 0
M  V30 927 H 83.1889 -7.39565 1.5678 0
M  V30 928 H 84.4569 -7.78239 0.443277 0
M  V30 929 N 88.686 -0.835752 -1.33615 0
M  V30 930 C 89.935 -0.426289 -1.97144 0
M  V30 931 C 90.248 1.01912 -1.66953 0
M  V30 932 O 91.454 1.53311 -2.24072 0
M  V30 933 C 89.91 -0.711321 -3.52801 0
M  V30 934 C 89.518 -2.1712 -3.91871 0
M  V30 935 C 91.262 -0.368654 -4.22896 0
M  V30 936 C 89.169 -2.40044 -5.40493 0
M  V30 937 H 88.099 -0.15567 -0.737755 0
M  V30 938 H 90.75 -1.0239 -1.52278 0
M  V30 939 H 89.132 -0.0433766 -3.95976 0
M  V30 940 H 90.306 -2.87936 -3.59763 0
M  V30 941 H 88.621 -2.47654 -3.34749 0
M  V30 942 H 91.218 -0.517601 -5.32189 0
M  V30 943 H 91.561 0.688078 -4.10574 0
M  V30 944 H 92.094 -0.991702 -3.8524 0
M  V30 945 H 88.833 -3.44271 -5.57815 0
M  V30 946 H 88.353 -1.73785 -5.74072 0
M  V30 947 H 90.032 -2.23042 -6.0734 0
M  V30 948 N 90.1641 1.46063 -0.591896 0
M  V30 949 C 91.3941 2.06418 -0.0867676 0
M  V30 950 C 91.8021 1.43975 1.22751 0
M  V30 951 O 91.1451 0.542531 1.75506 0
M  V30 952 C 91.2071 3.59213 0.143725 0
M  V30 953 C 90.8711 4.439 -1.08635 0
M  V30 954 C 91.8681 4.79864 -2.00067 0
M  V30 955 C 89.5531 4.84896 -1.31077 0
M  V30 956 C 91.5471 5.55661 -3.12282 0
M  V30 957 C 89.2341 5.6045 -2.43596 0
M  V30 958 C 90.2321 5.95747 -3.34027 0
M  V30 959 O 89.9201 6.69772 -4.4459 0
M  V30 960 H 89.6521 0.673443 -0.0587447 0
M  V30 961 H 92.2061 1.88539 -0.814994 0
M  V30 962 H 90.4361 3.75433 0.926668 0
M  V30 963 H 92.1251 4.01463 0.5985 0
M  V30 964 H 92.8911 4.48763 -1.83947 0
M  V30 965 H 88.7701 4.56867 -0.61594 0
M  V30 966 H 92.3141 5.8313 -3.82891 0
M  V30 967 H 88.2111 5.90965 -2.59674 0
M  V30 968 H 88.9791 6.88207 -4.43073 0
M  V30 969 N 91.6422 0.330177 1.54103 0
M  V30 970 C 92.5922 -0.548456 2.21305 0
M  V30 971 C 93.5762 -1.07651 1.19583 0
M  V30 972 O 94.7682 -1.01243 1.45186 0
M  V30 973 C 91.8972 -1.70559 2.97934 0
M  V30 974 C 90.9832 -1.19212 4.07 0
M  V30 975 N 91.3742 -0.398831 5.04225 0
M  V30 976 C 89.6722 -1.47024 4.2107 0
M  V30 977 C 90.3732 -0.121761 5.81573 0
M  V30 978 N 89.3492 -0.709722 5.38947 0
M  V30 979 H 93.1512 0.0648483 2.93828 0
M  V30 980 H 90.6652 0.136363 1.61826 0
M  V30 981 H 92.6622 -2.34688 3.44568 0
M  V30 982 H 91.3222 -2.32231 2.26934 0
M  V30 983 H 92.3332 -0.0410869 5.17884 0
M  V30 984 H 89.0102 -2.09232 3.61287 0
M  V30 985 H 90.4002 0.517298 6.69906 0
M  V30 986 N 93.1203 -1.57491 0.0584922 0
M  V30 987 C 94.0503 -2.14988 -0.911178 0
M  V30 988 C 95.0313 -1.07343 -1.31952 0
M  V30 989 O 96.2163 -1.35318 -1.39294 0
M  V30 990 C 93.3463 -2.70078 -2.18347 0
M  V30 991 C 92.3003 -3.82771 -1.91495 0
M  V30 992 C 91.6263 -4.24408 -3.25241 0
M  V30 993 C 92.9263 -5.07592 -1.23075 0
M  V30 994 H 94.6203 -2.96263 -0.432246 0
M  V30 995 H 92.1663 -1.42512 -0.206469 0
M  V30 996 H 94.1193 -3.08943 -2.86587 0
M  V30 997 H 92.8433 -1.86005 -2.68458 0
M  V30 998 H 91.5023 -3.44389 -1.25664 0
M  V30 999 H 91.1503 -3.37275 -3.73168 0
M  V30 1000 H 90.8503 -5.00366 -3.08071 0
M  V30 1001 H 92.3743 -4.65879 -3.94701 0
M  V30 1002 H 93.7883 -5.43857 -1.81362 0
M  V30 1003 H 92.1853 -5.88741 -1.16207 0
M  V30 1004 H 93.2553 -4.84454 -0.207847 0
M  V30 1005 N 94.5984 0.214957 -1.56127 0
M  V30 1006 C 95.5304 1.29004 -1.89448 0
M  V30 1007 C 96.5434 1.42716 -0.783326 0
M  V30 1008 O 97.7324 1.43496 -1.06166 0
M  V30 1009 C 94.8324 2.66482 -2.09381 0
M  V30 1010 C 94.0054 2.74633 -3.40434 0
M  V30 1011 C 93.0644 3.9317 -3.49719 0
M  V30 1012 O 92.0904 3.812 -4.227 0
M  V30 1013 N 93.2924 5.07765 -2.81346 0
M  V30 1014 H 96.0574 1.00743 -2.82261 0
M  V30 1015 H 93.6184 0.40497 -1.56753 0
M  V30 1016 H 95.6104 3.44173 -2.12901 0
M  V30 1017 H 94.1804 2.87314 -1.23163 0
M  V30 1018 H 93.4004 1.83368 -3.48955 0
M  V30 1019 H 94.6884 2.77054 -4.26754 0
M  V30 1020 H 94.0864 5.20386 -2.21843 0
M  V30 1021 H 92.6434 5.83474 -2.90519 0
M  V30 1022 N 96.0765 1.50051 0.48192 0
M  V30 1023 C 97.3015 1.64508 1.26301 0
M  V30 1024 C 97.7265 0.323851 1.85291 0
M  V30 1025 O 97.0845 -0.710969 1.66778 0
M  V30 1026 C 97.1325 2.7305 2.35533 0
M  V30 1027 O 96.2365 2.3355 3.39895 0
M  V30 1028 H 95.5775 0.549978 0.372048 0
M  V30 1029 H 98.1075 1.9636 0.574786 0
M  V30 1030 H 98.1175 2.95799 2.8101 0
M  V30 1031 H 96.7925 3.68946 1.91967 0
M  V30 1032 H 95.3695 2.21205 3.00204 0
M  V30 1033 N 97.5546 -0.734337 1.39446 0
M  V30 1034 C 98.5016 -1.84835 1.38219 0
M  V30 1035 C 99.4716 -1.64331 0.24179 0
M  V30 1036 O 100.657 -1.85728 0.437002 0
M  V30 1037 C 97.7966 -3.22355 1.23212 0
M  V30 1038 C 96.9096 -3.5456 2.46801 0
M  V30 1039 C 96.0446 -4.81485 2.24377 0
M  V30 1040 C 95.0836 -5.06536 3.43639 0
M  V30 1041 N 94.2206 -6.24665 3.20528 0
M  V30 1042 H 99.0606 -1.85219 2.33448 0
M  V30 1043 H 96.5976 -0.905039 1.15963 0
M  V30 1044 H 98.5556 -4.0174 1.12522 0
M  V30 1045 H 97.1856 -3.21248 0.316121 0
M  V30 1046 H 96.2376 -2.69872 2.68092 0
M  V30 1047 H 97.5496 -3.6899 3.3563 0
M  V30 1048 H 96.7036 -5.68852 2.10933 0
M  V30 1049 H 95.4426 -4.6923 1.32944 0
M  V30 1050 H 94.4476 -4.17632 3.5758 0
M  V30 1051 H 95.6726 -5.20676 4.35974 0
M  V30 1052 H 93.6186 -6.13696 2.3176 0
M  V30 1053 H 93.5356 -6.39685 4.02913 0
M  V30 1054 H 94.8036 -7.14868 3.10779 0
M  V30 1055 N 99.0327 -1.24633 -0.964593 0
M  V30 1056 C 100.279 -1.08949 -1.71049 0
M  V30 1057 C 100.612 0.370302 -1.90637 0
M  V30 1058 O 99.8867 1.27349 -1.47011 0
M  V30 1059 C 100.17 -1.83329 -3.0994 0
M  V30 1060 C 100.023 -3.37077 -2.97824 0
M  V30 1061 C 101.342 -1.60846 -4.09654 0
M  V30 1062 H 98.4607 -0.397178 -0.620821 0
M  V30 1063 H 101.103 -1.5334 -1.12191 0
M  V30 1064 H 99.2527 -1.45597 -3.60186 0
M  V30 1065 H 100.925 -3.84425 -2.5498 0
M  V30 1066 H 99.1677 -3.65298 -2.33965 0
M  V30 1067 H 99.8387 -3.84324 -3.96231 0
M  V30 1068 H 102.315 -1.93674 -3.68279 0
M  V30 1069 H 101.191 -2.1534 -5.04896 0
M  V30 1070 H 101.452 -0.547434 -4.38698 0
M  V30 1071 N 100.511 1.16574 -1.06058 0
M  V30 1072 C 101.922 1.68662 -0.800632 0
M  V30 1073 C 102.273 1.84184 0.67608 0
M  V30 1074 O 101.398 1.53568 1.52466 0
M  V30 1075 C 101.993 3.06356 -1.44676 0
M  V30 1076 C 100.552 3.55575 -1.23465 0
M  V30 1077 C 99.6988 2.31616 -1.52477 0
M  V30 1078 H 102.65 1.00969 -1.22438 0
M  V30 1079 H 102.671 3.70636 -0.860788 0
M  V30 1080 H 102.183 2.95027 -2.52152 0
M  V30 1081 H 100.284 3.72167 -0.179527 0
M  V30 1082 H 100.397 4.37812 -1.94571 0
M  V30 1083 H 98.7608 2.36512 -0.945209 0
M  V30 1084 H 99.5438 2.22887 -2.61106 0
M  V30 1085 N 101.989 0.842826 1.3317 0
M  V30 1086 C 103.217 0.454055 2.01856 0
M  V30 1087 C 103.632 -0.94587 1.63397 0
M  V30 1088 O 102.989 -1.61534 0.849302 0
M  V30 1089 C 103.04 0.569715 3.56982 0
M  V30 1090 O 102.761 1.91448 3.94055 0
M  V30 1091 C 104.262 0.178412 4.42941 0
M  V30 1092 H 101.482 0.17979 0.646465 0
M  V30 1093 H 104.026 1.1365 1.70012 0
M  V30 1094 H 102.181 -0.0648587 3.87346 0
M  V30 1095 H 102.595 1.90282 4.88767 0
M  V30 1096 H 104.069 0.310376 5.51127 0
M  V30 1097 H 104.546 -0.880056 4.30293 0
M  V30 1098 H 105.152 0.787579 4.17944 0
M  V30 1099 N 103.467 -1.45747 0.599634 0
M  V30 1100 C 104.714 -2.02292 0.0917284 0
M  V30 1101 C 105.042 -1.46906 -1.27472 0
M  V30 1102 O 104.297 -0.630652 -1.8526 0
M  V30 1103 C 104.596 -3.57399 -0.00602758 0
M  V30 1104 C 104.262 -4.31902 1.29503 0
M  V30 1105 C 102.924 -4.51974 1.65144 0
M  V30 1106 C 105.276 -4.74551 2.15525 0
M  V30 1107 C 102.604 -5.11949 2.86574 0
M  V30 1108 C 104.956 -5.35868 3.36196 0
M  V30 1109 C 103.62 -5.54165 3.72099 0
M  V30 1110 H 102.89 -0.740239 0.0335658 0
M  V30 1111 H 105.537 -1.7491 0.779661 0
M  V30 1112 H 103.842 -3.84014 -0.777183 0
M  V30 1113 H 105.539 -3.98846 -0.415038 0
M  V30 1114 H 102.129 -4.16588 1.00761 0
M  V30 1115 H 106.313 -4.58784 1.8929 0
M  V30 1116 H 101.569 -5.24305 3.14507 0
M  V30 1117 H 105.743 -5.6787 4.03109 0
M  V30 1118 H 103.37 -6.00406 4.6628 0
M  V30 1119 N 104.945 -0.338344 -1.53925 0
M  V30 1120 C 106.191 0.260143 -2.01125 0
M  V30 1121 C 106.524 1.50617 -1.22589 0
M  V30 1122 O 105.799 1.91979 -0.312113 0
M  V30 1123 C 106.082 0.579499 -3.55407 0
M  V30 1124 C 105.935 -0.678264 -4.44657 0
M  V30 1125 C 107.254 1.39122 -4.17532 0
M  V30 1126 H 104.373 0.0930772 -0.731099 0
M  V30 1127 H 107.015 -0.457852 -1.84401 0
M  V30 1128 H 105.165 1.19118 -3.69788 0
M  V30 1129 H 106.837 -1.31631 -4.42121 0
M  V30 1130 H 105.08 -1.3042 -4.13731 0
M  V30 1131 H 105.751 -0.410143 -5.50474 0
M  V30 1132 H 108.227 0.874035 -4.06817 0
M  V30 1133 H 107.103 1.58342 -5.25565 0
M  V30 1134 H 107.364 2.39178 -3.71815 0
M  V30 1135 N 106.423 1.57458 -0.0668435 0
M  V30 1136 C 107.839 1.56947 0.289772 0
M  V30 1137 C 108.039 1.07584 1.70376 0
M  V30 1138 O 107.095 0.739486 2.41429 0
M  V30 1139 C 108.408 3.0052 0.103943 0
M  V30 1140 C 109.956 3.12517 0.173857 0
M  V30 1141 C 110.431 4.57997 0.0163682 0
M  V30 1142 N 111.922 4.63144 0.0721352 0
M  V30 1143 C 112.657 5.73394 -0.0253794 0
M  V30 1144 N 112.153 6.92576 -0.176133 0
M  V30 1145 N 113.946 5.62091 0.0313305 0
M  V30 1146 H 106.097 1.87863 -0.991027 0
M  V30 1147 H 108.36 0.86583 -0.38606 0
M  V30 1148 H 108.066 3.40729 -0.871572 0
M  V30 1149 H 107.94 3.67304 0.858366 0
M  V30 1150 H 110.327 2.72197 1.13985 0
M  V30 1151 H 110.408 2.48381 -0.611586 0
M  V30 1152 H 110.052 4.99005 -0.946374 0
M  V30 1153 H 109.982 5.20158 0.821153 0
M  V30 1154 H 112.473 3.77436 0.187263 0
M  V30 1155 H 112.786 7.72418 -0.242821 0
M  V30 1156 H 111.131 6.94678 -0.211429 0
M  V30 1157 H 114.322 4.67867 0.147773 0
M  V30 1158 H 114.495 6.47982 -0.048121 0
M  V30 1159 N 107.901 -0.206675 1.56239 0
M  V30 1160 C 108.834 -1.28383 1.88661 0
M  V30 1161 C 109.812 -1.44504 0.745481 0
M  V30 1162 O 110.996 -1.60079 0.995336 0
M  V30 1163 C 108.123 -2.65211 2.10667 0
M  V30 1164 C 107.169 -2.66025 3.33366 0
M  V30 1165 S 108.002 -2.18609 4.88846 0
M  V30 1166 C 109.158 -3.57283 5.13906 0
M  V30 1167 H 109.391 -1.00691 2.7973 0
M  V30 1168 H 106.924 -0.409627 1.48867 0
M  V30 1169 H 108.882 -3.43979 2.24029 0
M  V30 1170 H 107.543 -2.90121 1.20369 0
M  V30 1171 H 106.736 -3.66607 3.45855 0
M  V30 1172 H 106.338 -1.95331 3.18938 0
M  V30 1173 H 108.63 -4.53074 5.03717 0
M  V30 1174 H 109.573 -3.49699 6.15724 0
M  V30 1175 H 109.981 -3.51659 4.41583 0
M  V30 1176 N 109.379 -1.50304 -0.473955 0
M  V30 1177 C 110.309 -1.71886 -1.58042 0
M  V30 1178 C 111.29 -0.567799 -1.60344 0
M  V30 1179 O 112.475 -0.806623 -1.76656 0
M  V30 1180 C 109.605 -1.81036 -2.96384 0
M  V30 1181 C 108.559 -2.962 -3.08949 0
M  V30 1182 C 107.885 -2.9049 -4.48909 0
M  V30 1183 C 109.185 -4.36752 -2.86434 0
M  V30 1184 H 110.879 -2.64527 -1.40234 0
M  V30 1185 H 108.425 -1.27295 -0.673201 0
M  V30 1186 H 110.378 -1.94719 -3.73714 0
M  V30 1187 H 109.102 -0.850147 -3.15341 0
M  V30 1188 H 107.761 -2.82164 -2.3405 0
M  V30 1189 H 107.409 -1.92321 -4.64781 0
M  V30 1190 H 107.109 -3.67802 -4.58253 0
M  V30 1191 H 108.633 -3.06218 -5.28264 0
M  V30 1192 H 110.047 -4.5133 -3.53517 0
M  V30 1193 H 108.444 -5.15493 -3.07225 0
M  V30 1194 H 109.514 -4.49321 -1.82316 0
M  V30 1195 N 110.857 0.726932 -1.39834 0
M  V30 1196 C 111.82 1.82269 -1.38962 0
M  V30 1197 C 112.82 1.58248 -0.285334 0
M  V30 1198 O 114.01 1.65499 -0.54366 0
M  V30 1199 C 111.142 3.20186 -1.17019 0
M  V30 1200 H 112.335 1.84443 -2.36476 0
M  V30 1201 H 109.888 0.931416 -1.25516 0
M  V30 1202 H 110.623 3.23669 -0.202204 0
M  V30 1203 H 110.408 3.3902 -1.96998 0
M  V30 1204 H 111.898 4.00235 -1.1917 0
M  V30 1205 N 112.336 1.25143 0.95797 0
M  V30 1206 C 113.747 1.08851 1.51685 0
M  V30 1207 C 114.098 -0.33687 1.93286 0
M  V30 1208 O 113.223 -1.22644 1.7829 0
M  V30 1209 C 113.818 1.96978 2.75654 0
M  V30 1210 C 112.377 1.84881 3.27866 0
M  V30 1211 C 111.524 1.91329 2.0072 0
M  V30 1212 H 114.475 1.38478 0.77522 0
M  V30 1213 H 114.496 1.5078 3.4935 0
M  V30 1214 H 114.008 3.00712 2.45345 0
M  V30 1215 H 112.109 0.840182 3.63004 0
M  V30 1216 H 112.222 2.6951 3.96107 0
M  V30 1217 H 110.586 1.35174 2.15871 0
M  V30 1218 H 111.369 2.96661 1.72764 0
M  V30 1219 N 113.814 -1.1601 1.06675 0
M  V30 1220 C 114.724 -2.24156 0.692179 0
M  V30 1221 C 115.74 -1.71507 -0.293513 0
M  V30 1222 O 116.916 -2.009 -0.141861 0
M  V30 1223 C 113.981 -3.46587 0.0884131 0
M  V30 1224 C 113.042 -4.14257 1.12646 0
M  V30 1225 C 112.275 -5.30844 0.551416 0
M  V30 1226 O 112.498 -5.66858 -0.634656 0
M  V30 1227 O 111.432 -5.87848 1.29298 0
M  V30 1228 H 115.258 -2.58513 1.59388 0
M  V30 1229 H 112.843 -1.23599 0.83926 0
M  V30 1230 H 114.725 -4.20679 -0.246361 0
M  V30 1231 H 113.4 -3.13994 -0.786712 0
M  V30 1232 H 112.307 -3.42118 1.51348 0
M  V30 1233 H 113.64 -4.50914 1.97325 0
M  V30 1234 N 115.292 -0.849877 -1.32721 0
M  V30 1235 C 116.54 -0.450032 -1.97026 0
M  V30 1236 C 116.861 0.996604 -1.67609 0
M  V30 1237 O 116.131 1.6958 -0.980786 0
M  V30 1238 H 114.711 -0.163426 -0.728904 0
M  V30 1239 H 117.373 -1.08526 -1.6189 0
M  V30 1240 H 116.469 -0.591146 -3.0645 0
M  V30 1241 N 116.77 1.45427 -0.607355 0
M  V30 1242 C 117.733 2.28974 0.101693 0
M  V30 1243 C 118.733 1.39754 0.795329 0
M  V30 1244 O 119.923 1.61878 0.643527 0
M  V30 1245 C 117.055 3.20768 1.15414 0
M  V30 1246 H 118.248 2.93147 -0.632844 0
M  V30 1247 H 115.801 1.51945 -0.366391 0
M  V30 1248 H 116.536 2.61395 1.91945 0
M  V30 1249 H 116.321 3.86489 0.66098 0
M  V30 1250 H 117.811 3.83589 1.65073 0
M  V30 1251 N 118.248 0.346503 1.53744 0
M  V30 1252 C 119.178 -0.501193 2.28058 0
M  V30 1253 C 120.159 -1.10014 1.29734 0
M  V30 1254 O 121.344 -1.12097 1.58581 0
M  V30 1255 C 118.474 -1.65078 3.05559 0
M  V30 1256 C 117.428 -1.18003 4.11411 0
M  V30 1257 C 116.754 -2.41837 4.76884 0
M  V30 1258 C 118.054 -0.278394 5.21558 0
M  V30 1259 H 119.748 0.11875 2.99164 0
M  V30 1260 H 117.294 0.0585531 1.43881 0
M  V30 1261 H 119.247 -2.25028 3.56287 0
M  V30 1262 H 117.971 -2.29767 2.32109 0
M  V30 1263 H 116.63 -0.603331 3.61601 0
M  V30 1264 H 116.278 -3.0494 4.00026 0
M  V30 1265 H 115.978 -2.1102 5.48402 0
M  V30 1266 H 117.502 -3.02508 5.30397 0
M  V30 1267 H 118.916 -0.784823 5.67903 0
M  V30 1268 H 117.313 -0.0619707 6.00068 0
M  V30 1269 H 118.383 0.684677 4.80042 0
M  V30 1270 N 119.726 -1.57421 0.075193 0
M  V30 1271 C 120.674 -2.14124 -0.908508 0
M  V30 1272 C 121.668 -1.07898 -1.30592 0
M  V30 1273 O 122.874 -1.26273 -1.28277 0
M  V30 1274 H 119.249 -0.684707 -0.310935 0
M  V30 1275 H 121.22 -2.95634 -0.405374 0
M  V30 1276 C 119.969 -2.72044 -2.16535 0
M  V30 1277 H 119.292 -3.53456 -1.86839 0
M  V30 1278 H 120.732 -3.15311 -2.83469 0
M  V30 1279 C 119.191 -1.66968 -2.92615 0
M  V30 1280 O 119.721 -1.0967 -3.86439 0
M  V30 1281 N 117.927 -1.37923 -2.55784 0
M  V30 1282 H 117.474 -1.84706 -1.79559 0
M  V30 1283 H 117.432 -0.67852 -3.06991 0
M  V30 1284 N 121.204 0.198386 -1.56346 0
M  V30 1285 C 122.453 0.917451 -1.79627 0
M  V30 1286 C 122.766 1.8456 -0.64784 0
M  V30 1287 O 123.972 2.60504 -0.764859 0
M  V30 1288 C 122.428 1.68175 -3.18191 0
M  V30 1289 C 122.036 0.798589 -4.40825 0
M  V30 1290 C 123.78 2.39065 -3.50782 0
M  V30 1291 C 121.687 1.56157 -5.70411 0
M  V30 1292 H 120.617 0.346317 -0.669762 0
M  V30 1293 H 123.268 0.170801 -1.82703 0
M  V30 1294 H 121.65 2.47216 -3.09354 0
M  V30 1295 H 122.824 0.0470665 -4.60776 0
M  V30 1296 H 121.139 0.200686 -4.15916 0
M  V30 1297 H 123.736 2.96692 -4.44835 0
M  V30 1298 H 124.079 3.13091 -2.74371 0
M  V30 1299 H 124.612 1.66993 -3.61052 0
M  V30 1300 H 121.351 0.864142 -6.49779 0
M  V30 1301 H 120.871 2.2871 -5.54483 0
M  V30 1302 H 122.55 2.11622 -6.11412 0
M  V30 1303 N 122.682 1.50554 0.465978 0
M  V30 1304 C 123.632 1.66177 1.56106 0
M  V30 1305 C 124.616 0.516265 1.52393 0
M  V30 1306 O 125.808 0.770906 1.5933 0
M  V30 1307 C 122.937 1.76396 2.94515 0
M  V30 1308 C 122.023 2.9664 3.03093 0
M  V30 1309 N 122.414 4.20245 2.81474 0
M  V30 1310 C 120.712 2.95304 3.34233 0
M  V30 1311 C 121.413 5.01259 2.95151 0
M  V30 1312 N 120.389 4.35318 3.25576 0
M  V30 1313 H 124.191 2.59434 1.38099 0
M  V30 1314 H 121.705 1.47808 0.6728 0
M  V30 1315 H 123.702 1.85694 3.73261 0
M  V30 1316 H 122.362 0.843017 3.13565 0
M  V30 1317 H 123.373 4.4966 2.56956 0
M  V30 1318 H 120.05 2.12729 3.59239 0
M  V30 1319 H 121.44 6.09564 2.82632 0
M  V30 1320 N 124.16 -0.719506 1.40217 0
M  V30 1321 C 125.07 -1.86378 1.42479 0
M  V30 1322 C 126.086 -1.71073 0.317834 0
M  V30 1323 O 127.262 -1.93406 0.561794 0
M  V30 1324 C 124.327 -3.22136 1.28178 0
M  V30 1325 C 123.388 -3.49723 2.48982 0
M  V30 1326 C 122.621 -4.79004 2.35353 0
M  V30 1327 O 122.844 -5.53821 1.36524 0
M  V30 1328 O 121.778 -5.06839 3.2465 0
M  V30 1329 H 125.604 -1.87425 2.38968 0
M  V30 1330 H 123.189 -0.869405 1.21498 0
M  V30 1331 H 125.071 -4.03234 1.22395 0
M  V30 1332 H 123.746 -3.21825 0.347934 0
M  V30 1333 H 122.653 -2.6865 2.60342 0
M  V30 1334 H 123.986 -3.54828 3.41113 0
M  V30 1335 N 125.638 -1.25649 -0.95132 0
M  V30 1336 C 126.585 -1.06323 -2.04851 0
M  V30 1337 C 127.555 0.0286491 -1.66075 0
M  V30 1338 O 128.74 -0.12917 -1.90362 0
M  V30 1339 C 125.88 -0.691529 -3.381 0
M  V30 1340 C 124.993 -1.85861 -3.89974 0
M  V30 1341 C 124.128 -1.43096 -5.11563 0
M  V30 1342 C 123.167 -2.56696 -5.55674 0
M  V30 1343 N 122.304 -2.14684 -6.68472 0
M  V30 1344 H 127.144 -2.00222 -2.20715 0
M  V30 1345 H 124.681 -0.997027 -1.08156 0
M  V30 1346 H 126.639 -0.456963 -4.1469 0
M  V30 1347 H 125.269 0.210474 -3.22113 0
M  V30 1348 H 124.321 -2.20639 -3.09875 0
M  V30 1349 H 125.633 -2.71161 -4.18657 0
M  V30 1350 H 124.787 -1.15624 -5.9558 0
M  V30 1351 H 123.526 -0.548722 -4.84603 0
M  V30 1352 H 122.531 -2.84909 -4.7022 0
M  V30 1353 H 123.756 -3.45503 -5.8464 0
M  V30 1354 H 121.702 -1.28881 -6.43215 0
M  V30 1355 H 121.619 -2.9353 -6.96689 0
M  V30 1356 H 122.887 -1.90397 -7.5589 0
M  V30 1357 N 127.117 1.15442 -1.07289 0
M  V30 1358 C 128.08 2.18358 -0.696591 0
M  V30 1359 C 129.08 1.58637 0.262837 0
M  V30 1360 O 130.27 1.74145 0.0438809 0
M  V30 1361 C 127.402 3.4089 -0.0266151 0
M  V30 1362 H 128.595 2.53162 -1.60776 0
M  V30 1363 H 126.148 1.29893 -0.869342 0
M  V30 1364 H 126.883 3.11653 0.896822 0
M  V30 1365 H 126.668 3.85495 -0.716657 0
M  V30 1366 H 128.158 4.17009 0.222028 0
M  V30 1367 N 128.595 0.856903 1.32268 0
M  V30 1368 C 129.841 0.471355 1.97863 0
M  V30 1369 C 130.196 -0.962896 1.66572 0
M  V30 1370 O 129.489 -1.66686 0.944797 0
M  V30 1371 C 129.683 0.649919 3.51441 0
M  V30 1372 C 129.512 2.09997 3.97657 0
M  V30 1373 C 128.282 2.73893 4.2463 0
M  V30 1374 C 130.48 3.07081 4.1256 0
M  V30 1375 N 128.462 4.09786 4.57109 0
M  V30 1376 C 129.833 4.27968 4.48602 0
M  V30 1377 C 131.888 3.03247 3.949 0
M  V30 1378 C 130.591 5.45521 4.68827 0
M  V30 1379 C 132.617 4.20046 4.16311 0
M  V30 1380 C 131.979 5.39692 4.52672 0
M  V30 1381 H 128.078 0.221263 0.750044 0
M  V30 1382 H 130.662 1.10876 1.60045 0
M  V30 1383 H 128.833 0.0421938 3.88377 0
M  V30 1384 H 130.565 0.234044 4.04023 0
M  V30 1385 H 127.32 2.24918 4.16784 0
M  V30 1386 H 127.744 4.7989 4.7753 0
M  V30 1387 H 132.386 2.11863 3.65888 0
M  V30 1388 H 130.104 6.37434 4.96693 0
M  V30 1389 H 133.69 4.18517 4.04147 0
M  V30 1390 H 132.57 6.28566 4.68907 0
M  V30 1391 N 130.073 -1.45103 0.615059 0
M  V30 1392 C 131.021 -2.32331 -0.111791 0
M  V30 1393 C 132.015 -1.46409 -0.852102 0
M  V30 1394 O 133.221 -1.62849 -0.766821 0
M  V30 1395 H 129.596 -0.749993 -0.0549072 0
M  V30 1396 H 131.567 -2.91407 0.642225 0
M  V30 1397 C 130.316 -3.3015 -1.09071 0
M  V30 1398 H 129.639 -3.96265 -0.530485 0
M  V30 1399 H 131.079 -3.93898 -1.56908 0
M  V30 1400 C 129.538 -2.57875 -2.168 0
M  V30 1401 O 130.068 -2.36567 -3.24652 0
M  V30 1402 N 128.274 -2.17884 -1.92289 0
M  V30 1403 H 127.821 -2.35413 -1.04587 0
M  V30 1404 H 127.779 -1.6985 -2.64572 0
M  V30 1405 N 131.551 -0.354651 -1.53558 0
M  V30 1406 C 132.514 0.484566 -2.24019 0
M  V30 1407 C 133.514 1.01861 -1.24422 0
M  V30 1408 O 134.704 0.906097 -1.4878 0
M  V30 1409 C 131.836 1.67615 -2.96847 0
M  V30 1410 H 133.029 -0.131843 -2.9961 0
M  V30 1411 H 130.582 -0.106165 -1.55939 0
M  V30 1412 H 131.317 2.33095 -2.25471 0
M  V30 1413 H 131.102 1.30029 -3.69912 0
M  V30 1414 H 132.592 2.27114 -3.50441 0
M  V30 1415 N 133.029 1.57378 -0.0835403 0
M  V30 1416 C 134.259 1.97975 0.590713 0
M  V30 1417 C 134.667 0.961083 1.62972 0
M  V30 1418 O 134.01 -0.0590879 1.83605 0
M  V30 1419 C 134.072 3.34915 1.3066 0
M  V30 1420 C 133.736 4.55069 0.419698 0
M  V30 1421 C 134.733 5.18868 -0.32749 0
M  V30 1422 C 132.418 5.0114 0.341137 0
M  V30 1423 C 134.412 6.27098 -1.14134 0
M  V30 1424 C 132.099 6.0924 -0.476374 0
M  V30 1425 C 133.097 6.72083 -1.21627 0
M  V30 1426 O 132.785 7.781 -2.02028 0
M  V30 1427 H 132.517 0.655818 0.163947 0
M  V30 1428 H 135.071 2.04807 -0.156021 0
M  V30 1429 H 133.301 3.24733 2.09966 0
M  V30 1430 H 134.99 3.60037 1.87424 0
M  V30 1431 H 135.756 4.84211 -0.276459 0
M  V30 1432 H 131.635 4.51996 0.90668 0
M  V30 1433 H 135.179 6.7608 -1.71935 0
M  V30 1434 H 131.076 6.43329 -0.528927 0
M  V30 1435 H 131.844 7.95034 -1.94586 0
M  V30 1436 N 134.507 -0.190092 1.56449 0
M  V30 1437 C 135.918 -0.754312 1.70784 0
M  V30 1438 C 136.269 -1.83631 0.690951 0
M  V30 1439 O 135.394 -2.15868 -0.151604 0
M  V30 1440 C 135.989 -1.37503 3.09642 0
M  V30 1441 C 134.548 -1.88628 3.25725 0
M  V30 1442 C 133.695 -0.758098 2.66736 0
M  V30 1443 H 136.646 0.0350524 1.58661 0
M  V30 1444 H 136.667 -2.2445 3.0725 0
M  V30 1445 H 136.179 -0.587302 3.83631 0
M  V30 1446 H 134.28 -2.70103 2.56661 0
M  V30 1447 H 134.393 -2.04462 4.3328 0
M  V30 1448 H 132.757 -1.17369 2.26046 0
M  V30 1449 H 133.54 0.0174705 3.43296 0
M  V30 1450 N 135.985 -1.50799 -0.457987 0
M  V30 1451 C 137.215 -1.65977 -1.23025 0
M  V30 1452 C 137.623 -0.347918 -1.85974 0
M  V30 1453 O 136.966 0.68148 -1.70592 0
M  V30 1454 C 137.028 -2.70309 -2.3701 0
M  V30 1455 C 136.692 -4.135 -1.94594 0
M  V30 1456 C 137.689 -4.98949 -1.46101 0
M  V30 1457 C 135.374 -4.5949 -2.02915 0
M  V30 1458 C 137.368 -6.28442 -1.06489 0
M  V30 1459 C 135.055 -5.88984 -1.62914 0
M  V30 1460 C 136.053 -6.73286 -1.1478 0
M  V30 1461 O 135.741 -8.00362 -0.75339 0
M  V30 1462 H 135.473 -0.56064 -0.377702 0
M  V30 1463 H 138.027 -1.97857 -0.551537 0
M  V30 1464 H 136.257 -2.337 -3.08093 0
M  V30 1465 H 137.946 -2.74574 -2.98938 0
M  V30 1466 H 138.712 -4.6463 -1.39084 0
M  V30 1467 H 134.591 -3.94009 -2.39328 0
M  V30 1468 H 138.135 -6.94194 -0.688488 0
M  V30 1469 H 134.032 -6.22822 -1.69595 0
M  V30 1470 H 134.8 -8.13744 -0.88108 0
M  V30 1471 N 137.463 0.71206 -1.40597 0
M  V30 1472 C 138.703 1.48438 -1.40519 0
M  V30 1473 C 139.067 1.91998 -0.00767611 0
M  V30 1474 O 140.268 2.6854 0.118239 0
M  V30 1475 C 138.539 2.67514 -2.37004 0
M  V30 1476 S 140.098 3.56875 -2.55315 0
M  V30 1477 H 136.916 0.507457 -0.498005 0
M  V30 1478 H 139.518 0.832355 -1.76896 0
M  V30 1479 H 138.222 2.33689 -3.37368 0
M  V30 1480 H 137.753 3.37625 -2.01923 0
M  V30 1481 H 139.768 4.62081 -1.8082 0
M  V30 1482 N 138.941 1.26152 0.944643 0
M  V30 1483 C 140.357 1.03189 1.21754 0
M  V30 1484 C 140.557 -0.245112 2.00004 0
M  V30 1485 O 139.613 -0.955176 2.33736 0
M  V30 1486 C 140.926 2.26119 1.98219 0
M  V30 1487 C 142.474 2.30984 2.11224 0
M  V30 1488 C 142.949 3.53597 2.91089 0
M  V30 1489 N 144.44 3.54053 2.98664 0
M  V30 1490 C 145.175 4.45593 3.60881 0
M  V30 1491 N 144.671 5.47416 4.24626 0
M  V30 1492 N 146.464 4.33252 3.58119 0
M  V30 1493 H 138.615 2.08177 0.421437 0
M  V30 1494 H 140.878 0.914723 0.248969 0
M  V30 1495 H 140.584 3.18984 1.48128 0
M  V30 1496 H 140.458 2.3009 2.98895 0
M  V30 1497 H 142.845 1.38635 2.60508 0
M  V30 1498 H 142.926 2.31026 1.09821 0
M  V30 1499 H 142.57 4.46273 2.42493 0
M  V30 1500 H 142.5 3.50802 3.92741 0
M  V30 1501 H 144.991 2.80403 2.53343 0
M  V30 1502 H 145.304 6.13459 4.69987 0
M  V30 1503 H 143.649 5.51278 4.23223 0
M  V30 1504 H 146.84 3.52924 3.0751 0
M  V30 1505 H 147.013 5.04786 4.06319 0
M  V30 1506 N 140.419 -1.14872 1.07899 0
M  V30 1507 C 141.647 -1.89661 0.82683 0
M  V30 1508 C 142.062 -1.78312 -0.620519 0
M  V30 1509 O 141.419 -1.13888 -1.42604 0
M  V30 1510 C 141.47 -3.39817 1.23316 0
M  V30 1511 O 141.191 -3.50845 2.62372 0
M  V30 1512 C 142.692 -4.31615 1.0111 0
M  V30 1513 H 139.912 -0.60092 0.298557 0
M  V30 1514 H 142.456 -1.4551 1.43691 0
M  V30 1515 H 140.611 -3.8161 0.667286 0
M  V30 1516 H 141.025 -4.44076 2.79101 0
M  V30 1517 H 142.499 -5.35367 1.34486 0
M  V30 1518 H 142.976 -4.39169 -0.0522168 0
M  V30 1519 H 143.582 -3.95572 1.56215 0
M  V30 1520 N 141.898 -0.863906 -1.31812 0
M  V30 1521 C 143.144 -0.472535 -1.97218 0
M  V30 1522 C 143.477 0.971394 -1.68159 0
M  V30 1523 O 142.752 1.68309 -0.974798 0
M  V30 1524 C 143.035 -0.723054 -3.52766 0
M  V30 1525 C 142.888 -2.21608 -3.91421 0
M  V30 1526 C 144.207 -0.185522 -4.39709 0
M  V30 1527 H 141.326 -0.173158 -0.71637 0
M  V30 1528 H 143.968 -1.08403 -1.56041 0
M  V30 1529 H 142.118 -0.202577 -3.87971 0
M  V30 1530 H 143.79 -2.80334 -3.66347 0
M  V30 1531 H 142.033 -2.691 -3.40246 0
M  V30 1532 H 142.704 -2.34203 -4.99853 0
M  V30 1533 H 145.18 -0.630726 -4.11292 0
M  V30 1534 H 144.056 -0.390306 -5.47511 0
M  V30 1535 H 144.317 0.912229 -4.32586 0
M  V30 1536 N 143.376 1.44774 -0.622745 0
M  V30 1537 C 144.625 2.01334 -0.121397 0
M  V30 1538 C 144.938 1.49505 1.26125 0
M  V30 1539 O 146.144 1.98139 1.85616 0
M  V30 1540 C 144.6 3.59516 -0.166298 0
M  V30 1541 C 144.208 4.20342 -1.54974 0
M  V30 1542 C 145.952 4.23582 0.279021 0
M  V30 1543 C 143.859 5.70721 -1.55021 0
M  V30 1544 H 142.789 0.752851 -0.0416172 0
M  V30 1545 H 145.44 1.66083 -0.780309 0
M  V30 1546 H 143.822 3.92027 0.559557 0
M  V30 1547 H 144.996 3.99381 -2.29851 0
M  V30 1548 H 143.311 3.68529 -1.93843 0
M  V30 1549 H 145.908 5.33868 0.298083 0
M  V30 1550 H 146.251 3.95327 1.30471 0
M  V30 1551 H 146.784 3.95843 -0.394063 0
M  V30 1552 H 143.523 6.03698 -2.55399 0
M  V30 1553 H 143.043 5.93829 -0.844245 0
M  V30 1554 H 144.722 6.34203 -1.28047 0
M  V30 1555 N 144.854 0.36279 1.53368 0
M  V30 1556 C 146.082 -0.228613 2.05633 0
M  V30 1557 C 146.497 -1.42676 1.23649 0
M  V30 1558 O 145.854 -1.80394 0.27647 0
M  V30 1559 C 145.905 -0.624845 3.56059 0
M  V30 1560 O 145.626 0.525675 4.34935 0
M  V30 1561 C 147.127 -1.27493 4.24571 0
M  V30 1562 H 144.347 -0.0407183 0.669763 0
M  V30 1563 H 146.891 0.520352 1.97769 0
M  V30 1564 H 145.046 -1.32373 3.64083 0
M  V30 1565 H 145.46 0.205969 5.24095 0
M  V30 1566 H 146.934 -1.50277 5.31151 0
M  V30 1567 H 147.411 -2.23439 3.78116 0
M  V30 1568 H 148.017 -0.617558 4.20792 0
M  V30 1569 N 146.332 -1.57332 0.0918853 0
M  V30 1570 C 147.28 -2.15075 -0.885747 0
M  V30 1571 C 148.274 -1.09277 -1.29441 0
M  V30 1572 O 149.48 -1.27627 -1.26931 0
M  V30 1573 H 145.855 -0.687966 -0.303656 0
M  V30 1574 H 147.826 -2.96047 -0.373995 0
M  V30 1575 C 146.575 -2.74325 -2.13638 0
M  V30 1576 H 145.898 -3.55418 -1.8308 0
M  V30 1577 H 147.338 -3.183 -2.80109 0
M  V30 1578 C 145.797 -1.70062 -2.90827 0
M  V30 1579 O 146.327 -1.13763 -3.85254 0
M  V30 1580 N 144.533 -1.40628 -2.54307 0
M  V30 1581 H 144.08 -1.866 -1.7759 0
M  V30 1582 H 144.038 -0.711043 -3.06254 0
M  V30 1583 N 147.81 0.181792 -1.56548 0
M  V30 1584 C 148.72 1.24538 -1.98815 0
M  V30 1585 C 149.736 1.49045 -0.897861 0
M  V30 1586 O 150.912 1.61399 -1.20467 0
M  V30 1587 C 147.977 2.56683 -2.33055 0
M  V30 1588 C 147.038 2.40131 -3.55859 0
M  V30 1589 C 146.271 3.65975 -3.88456 0
M  V30 1590 O 146.494 4.70711 -3.22161 0
M  V30 1591 O 145.428 3.6071 -4.81842 0
M  V30 1592 H 149.254 0.916647 -2.89536 0
M  V30 1593 H 146.839 0.387842 -1.44278 0
M  V30 1594 H 148.721 3.34655 -2.56094 0
M  V30 1595 H 147.396 2.89157 -1.45498 0
M  V30 1596 H 146.303 1.60226 -3.38051 0
M  V30 1597 H 147.636 2.12585 -4.43924 0
M  V30 1598 N 149.288 1.51039 0.449983 0
M  V30 1599 C 150.518 1.66627 1.22143 0
M  V30 1600 C 150.926 0.357776 1.85786 0
M  V30 1601 O 150.269 -0.672424 1.70951 0
M  V30 1602 C 150.331 2.71562 2.35573 0
M  V30 1603 C 149.995 4.14526 1.92399 0
M  V30 1604 C 150.992 4.99717 1.43453 0
M  V30 1605 C 148.677 4.60559 2.00475 0
M  V30 1606 C 150.671 6.28998 1.03155 0
M  V30 1607 C 148.358 5.8984 1.59788 0
M  V30 1608 C 149.356 6.73886 1.11208 0
M  V30 1609 O 149.044 8.0075 0.710935 0
M  V30 1610 H 148.776 0.562635 0.374724 0
M  V30 1611 H 151.33 1.98146 0.541036 0
M  V30 1612 H 149.56 2.3533 3.06849 0
M  V30 1613 H 151.249 2.76156 2.97478 0
M  V30 1614 H 152.015 4.65361 1.36618 0
M  V30 1615 H 147.894 3.95273 2.37235 0
M  V30 1616 H 151.438 6.9455 0.651663 0
M  V30 1617 H 147.335 6.23713 1.66289 0
M  V30 1618 H 148.103 8.142 0.837913 0
M  V30 1619 N 150.766 -0.704594 1.40972 0
M  V30 1620 C 151.699 -1.82861 1.36518 0
M  V30 1621 C 152.677 -1.6091 0.23382 0
M  V30 1622 O 153.861 -1.83778 0.419271 0
M  V30 1623 C 150.988 -3.1939 1.12729 0
M  V30 1624 C 150.034 -3.60148 2.28463 0
M  V30 1625 S 150.867 -3.65994 3.90907 0
M  V30 1626 C 152.023 -5.05264 3.69403 0
M  V30 1627 H 152.256 -1.86361 2.3164 0
M  V30 1628 H 149.789 -0.872439 1.27389 0
M  V30 1629 H 151.747 -3.98211 0.996893 0
M  V30 1630 H 150.408 -3.1351 0.192427 0
M  V30 1631 H 149.601 -4.59309 2.07489 0
M  V30 1632 H 149.203 -2.88612 2.37863 0
M  V30 1633 H 151.495 -5.92504 3.28551 0
M  V30 1634 H 152.438 -5.31278 4.68134 0
M  V30 1635 H 152.846 -4.76377 3.02862 0
M  V30 1636 N 152.244 -1.26651 -0.937939 0
M  V30 1637 C 153.191 -1.0849 -2.03712 0
M  V30 1638 C 154.161 0.011033 -1.66096 0
M  V30 1639 O 155.346 -0.149353 -1.90215 0
M  V30 1640 C 152.486 -0.72735 -3.37348 0
M  V30 1641 C 151.599 -1.89986 -3.87981 0
M  V30 1642 C 150.734 -1.48513 -5.10017 0
M  V30 1643 C 149.773 -2.62575 -5.5292 0
M  V30 1644 N 148.91 -2.21762 -6.66158 0
M  V30 1645 H 153.75 -2.02551 -2.18579 0
M  V30 1646 H 151.287 -1.00844 -1.07093 0
M  V30 1647 H 153.245 -0.50092 -4.14182 0
M  V30 1648 H 151.875 0.176298 -3.22318 0
M  V30 1649 H 150.927 -2.23913 -3.07518 0
M  V30 1650 H 152.239 -2.75586 -4.15757 0
M  V30 1651 H 151.393 -1.21934 -5.94321 0
M  V30 1652 H 150.132 -0.60009 -4.83994 0
M  V30 1653 H 149.137 -2.8988 -4.67172 0
M  V30 1654 H 150.362 -3.51685 -5.80943 0
M  V30 1655 H 148.308 -1.35696 -6.41812 0
M  V30 1656 H 148.225 -3.00903 -6.93537 0
M  V30 1657 H 149.493 -1.98403 -7.53828 0
M  V30 1658 N 153.722 1.14298 -1.08507 0
M  V30 1659 C 154.632 2.23027 -0.727753 0
M  V30 1660 C 155.648 1.71952 0.26619 0
M  V30 1661 O 156.824 2.011 0.109882 0
M  V30 1662 C 153.889 3.46403 -0.143541 0
M  V30 1663 C 152.95 4.12413 -1.19223 0
M  V30 1664 C 152.183 5.29899 -0.635798 0
M  V30 1665 O 152.406 5.67796 0.544393 0
M  V30 1666 O 151.34 5.85717 -1.38634 0
M  V30 1667 H 155.166 2.55945 -1.63481 0
M  V30 1668 H 152.751 1.22248 -0.858817 0
M  V30 1669 H 154.633 4.21018 0.179404 0
M  V30 1670 H 153.308 3.15206 0.736659 0
M  V30 1671 H 152.215 3.39667 -1.56772 0
M  V30 1672 H 153.548 4.47718 -2.04474 0
M  V30 1673 N 155.201 0.870884 1.31352 0
M  V30 1674 C 156.478 0.402907 1.91405 0
M  V30 1675 C 156.858 -1.11512 1.79244 0
M  V30 1676 O 156.206 -1.94411 1.2007 0
M  V30 1677 C 156.416 0.885301 3.37585 0
M  V30 1678 C 157.764 0.911971 4.14691 0
M  V30 1679 O 158.788 0.831016 3.46371 0
M  V30 1680 O 157.647 1.02927 5.3672 0
M  V30 1681 H 154.741 0.120698 0.818145 0
M  V30 1682 H 157.287 0.958857 1.40014 0
M  V30 1683 H 156.059 1.92889 3.40455 0
M  V30 1684 H 155.682 0.307714 3.96407 0
M  V30 1685 N 156.679 -1.44442 0.630414 0
M  V30 1686 C 157.926 -2.02052 0.134617 0
M  V30 1687 C 158.254 -1.49576 -1.24327 0
M  V30 1688 O 157.509 -0.669806 -1.83881 0
M  V30 1689 C 157.808 -3.57332 0.0697835 0
M  V30 1690 C 157.474 -4.29058 1.38635 0
M  V30 1691 C 156.136 -4.4837 1.74694 0
M  V30 1692 C 158.488 -4.69872 2.25543 0
M  V30 1693 C 155.816 -5.05756 2.97369 0
M  V30 1694 C 158.168 -5.28616 3.47487 0
M  V30 1695 C 156.832 -5.46147 3.8377 0
M  V30 1696 H 156.102 -0.739361 0.0492598 0
M  V30 1697 H 158.749 -1.73217 0.816586 0
M  V30 1698 H 157.054 -3.85577 -0.695553 0
M  V30 1699 H 158.751 -3.99637 -0.330344 0
M  V30 1700 H 155.341 -4.14357 1.09574 0
M  V30 1701 H 159.525 -4.54666 1.98979 0
M  V30 1702 H 154.781 -5.17515 3.25558 0
M  V30 1703 H 158.955 -5.59192 4.15063 0
M  V30 1704 H 156.582 -5.9038 4.7891 0
M  V30 1705 N 158.157 -0.370918 -1.53173 0
M  V30 1706 C 159.087 0.464847 -2.28826 0
M  V30 1707 C 160.068 1.07936 -1.31468 0
M  V30 1708 O 161.253 1.0956 -1.60344 0
M  V30 1709 C 158.383 1.60196 -3.08147 0
M  V30 1710 C 157.337 1.11443 -4.13237 0
M  V30 1711 C 156.663 2.3422 -4.80672 0
M  V30 1712 C 157.963 0.195384 -5.21934 0
M  V30 1713 H 159.657 -0.166329 -2.98938 0
M  V30 1714 H 157.203 -0.0814359 -1.4377 0
M  V30 1715 H 159.156 2.19332 -3.59822 0
M  V30 1716 H 157.88 2.26045 -2.35735 0
M  V30 1717 H 156.539 0.545727 -3.62515 0
M  V30 1718 H 156.187 2.98537 -4.04827 0
M  V30 1719 H 155.887 2.02269 -5.51689 0
M  V30 1720 H 157.411 2.94032 -5.35143 0
M  V30 1721 H 158.825 0.694375 -5.69079 0
M  V30 1722 H 157.222 -0.0335027 -6.00091 0
M  V30 1723 H 158.292 -0.760961 -4.78892 0
M  V30 1724 N 159.635 1.57281 -0.100228 0
M  V30 1725 C 160.884 1.93713 0.561984 0
M  V30 1726 C 161.197 0.984492 1.69018 0
M  V30 1727 O 162.403 1.24273 2.41389 0
M  V30 1728 C 160.859 3.4421 1.05106 0
M  V30 1729 C 160.467 4.47975 -0.0476628 0
M  V30 1730 C 162.211 3.89595 1.68571 0
M  V30 1731 C 160.118 5.89631 0.457055 0
M  V30 1732 H 159.048 0.723082 0.2137 0
M  V30 1733 H 161.699 1.82644 -0.177057 0
M  V30 1734 H 160.081 3.50449 1.84395 0
M  V30 1735 H 161.255 4.53385 -0.823333 0
M  V30 1736 H 159.57 4.1223 -0.587816 0
M  V30 1737 H 162.167 4.92832 2.07414 0
M  V30 1738 H 162.51 3.28526 2.55688 0
M  V30 1739 H 163.043 3.86078 0.958562 0
M  V30 1740 H 159.782 6.54411 -0.377616 0
M  V30 1741 H 159.302 5.87681 1.19962 0
M  V30 1742 H 160.981 6.40363 0.92437 0
M  V30 1743 N 161.113 -0.173488 1.56642 0
M  V30 1744 C 162.06 -1.21482 1.96242 0
M  V30 1745 C 163.03 -1.44104 0.826027 0
M  V30 1746 O 164.215 -1.5688 1.08597 0
M  V30 1747 C 161.355 -2.54964 2.32567 0
M  V30 1748 C 160.468 -2.39739 3.59373 0
M  V30 1749 C 159.603 -3.66072 3.84921 0
M  V30 1750 C 158.642 -3.45771 5.05083 0
M  V30 1751 N 157.779 -4.64169 5.26775 0
M  V30 1752 H 162.619 -0.870123 2.85014 0
M  V30 1753 H 160.156 -0.418245 1.41029 0
M  V30 1754 H 162.114 -3.32758 2.5165 0
M  V30 1755 H 160.744 -2.87433 1.46908 0
M  V30 1756 H 159.796 -1.53131 3.48217 0
M  V30 1757 H 161.108 -2.20683 4.47326 0
M  V30 1758 H 160.262 -4.52303 4.0436 0
M  V30 1759 H 159.001 -3.88105 2.9534 0
M  V30 1760 H 158.006 -2.57927 4.85545 0
M  V30 1761 H 159.231 -3.25163 5.96193 0
M  V30 1762 H 157.177 -4.86425 4.40144 0
M  V30 1763 H 157.094 -4.48019 6.08946 0
M  V30 1764 H 158.362 -5.51689 5.5069 0
M  V30 1765 N 162.591 -1.51276 -0.441967 0
M  V30 1766 C 163.84 -1.6295 -1.18871 0
M  V30 1767 C 164.153 -0.349312 -1.92456 0
M  V30 1768 O 165.359 -0.345355 -2.69295 0
M  V30 1769 C 163.815 -2.87759 -2.16155 0
M  V30 1770 C 163.423 -4.22764 -1.48239 0
M  V30 1771 C 165.167 -3.08788 -2.91291 0
M  V30 1772 C 163.074 -5.38728 -2.4398 0
M  V30 1773 H 162.004 -0.606913 -0.447406 0
M  V30 1774 H 164.655 -1.77739 -0.456205 0
M  V30 1775 H 163.037 -2.66593 -2.92821 0
M  V30 1776 H 164.211 -4.54293 -0.771635 0
M  V30 1777 H 162.526 -4.07575 -0.852741 0
M  V30 1778 H 165.123 -3.92599 -3.63002 0
M  V30 1779 H 165.466 -2.21679 -3.5237 0
M  V30 1780 H 165.999 -3.30272 -2.21733 0
M  V30 1781 H 162.738 -6.28082 -1.87598 0
M  V30 1782 H 162.258 -5.1158 -3.13123 0
M  V30 1783 H 163.937 -5.70489 -3.05207 0
M  V30 1784 N 164.069 0.697108 -1.41344 0
M  V30 1785 C 164.979 1.84088 -1.45427 0
M  V30 1786 C 165.995 1.70545 -0.34501 0
M  V30 1787 O 167.171 1.92488 -0.592492 0
M  V30 1788 C 164.236 3.20056 -1.33286 0
M  V30 1789 C 163.297 3.45718 -2.54514 0
M  V30 1790 C 162.53 4.75199 -2.42944 0
M  V30 1791 O 162.753 5.51579 -1.45318 0
M  V30 1792 O 161.687 5.0161 -3.32672 0
M  V30 1793 H 165.513 1.836 -2.41919 0
M  V30 1794 H 163.098 0.849966 -1.22866 0
M  V30 1795 H 164.98 4.01236 -1.28794 0
M  V30 1796 H 163.655 3.2123 -0.39909 0
M  V30 1797 H 162.562 2.64474 -2.64583 0
M  V30 1798 H 163.895 3.49356 -3.46715 0
M  V30 1799 N 165.547 1.27147 0.931209 0
M  V30 1800 C 166.775 1.16082 1.71267 0
M  V30 1801 C 167.19 -0.282772 1.8667 0
M  V30 1802 O 166.547 -1.19283 1.38122 0
M  V30 1803 C 166.598 1.8358 3.11417 0
M  V30 1804 O 166.319 3.22299 2.96741 0
M  V30 1805 C 167.82 1.78597 4.05732 0
M  V30 1806 H 165.04 0.403758 0.535929 0
M  V30 1807 H 167.584 1.67953 1.16671 0
M  V30 1808 H 165.739 1.35623 3.62885 0
M  V30 1809 H 166.153 3.55851 3.85319 0
M  V30 1810 H 167.627 2.30444 5.01597 0
M  V30 1811 H 168.104 0.754564 4.3267 0
M  V30 1812 H 168.71 2.26152 3.60188 0
M  V30 1813 N 167.025 -1.13721 1.09112 0
M  V30 1814 C 168.271 -1.85413 0.836283 0
M  V30 1815 C 168.626 -1.8175 -0.631249 0
M  V30 1816 O 167.919 -1.24238 -1.45861 0
M  V30 1817 C 168.113 -3.32861 1.30146 0
M  V30 1818 C 167.942 -3.50882 2.81268 0
M  V30 1819 C 166.712 -3.65312 3.49106 0
M  V30 1820 C 168.91 -3.47196 3.7942 0
M  V30 1821 N 166.892 -3.71563 4.88686 0
M  V30 1822 C 168.263 -3.59777 5.04936 0
M  V30 1823 C 170.318 -3.30577 3.72321 0
M  V30 1824 C 169.021 -3.57455 6.24194 0
M  V30 1825 C 171.047 -3.29562 4.91063 0
M  V30 1826 C 170.409 -3.42691 6.15421 0
M  V30 1827 H 166.508 -0.694812 0.358832 0
M  V30 1828 H 169.092 -1.36246 1.39087 0
M  V30 1829 H 167.263 -3.80602 0.774361 0
M  V30 1830 H 168.995 -3.92346 0.99229 0
M  V30 1831 H 165.75 -3.6685 2.9953 0
M  V30 1832 H 166.174 -3.78387 5.61384 0
M  V30 1833 H 170.816 -3.19332 2.77105 0
M  V30 1834 H 168.534 -3.67475 7.19714 0
M  V30 1835 H 172.12 -3.17905 4.87266 0
M  V30 1836 H 171 -3.41862 7.05762 0
M  V30 1837 N 168.503 -0.877838 -1.30888 0
M  V30 1838 C 169.453 -0.310872 -2.25871 0
M  V30 1839 C 170.437 0.556596 -1.50966 0
M  V30 1840 O 171.629 0.402187 -1.7237 0
M  V30 1841 C 168.758 0.479821 -3.3993 0
M  V30 1842 C 167.844 -0.401333 -4.22197 0
M  V30 1843 N 168.235 -1.49848 -4.83093 0
M  V30 1844 C 166.533 -0.195167 -4.45573 0
M  V30 1845 C 167.234 -2.0425 -5.44662 0
M  V30 1846 N 166.21 -1.33843 -5.26865 0
M  V30 1847 H 170.012 -1.1493 -2.70496 0
M  V30 1848 H 167.526 -0.726458 -1.45246 0
M  V30 1849 H 169.523 0.902582 -4.07012 0
M  V30 1850 H 168.183 1.31577 -2.96846 0
M  V30 1851 H 169.194 -1.88137 -4.82519 0
M  V30 1852 H 165.871 0.604192 -4.13105 0
M  V30 1853 H 167.261 -2.96345 -6.03017 0
M  V30 1854 N 169.982 1.44106 -0.638065 0
M  V30 1855 C 170.929 2.30715 0.062701 0
M  V30 1856 C 171.899 1.43882 0.829883 0
M  V30 1857 O 173.084 1.72775 0.809532 0
M  V30 1858 C 170.224 3.29258 1.03358 0
M  V30 1859 C 169.337 4.31192 0.26409 0
M  V30 1860 C 168.472 5.16825 1.22741 0
M  V30 1861 C 167.511 6.10462 0.447475 0
M  V30 1862 N 166.648 6.8877 1.36161 0
M  V30 1863 H 171.488 2.90096 -0.681781 0
M  V30 1864 H 169.025 1.42925 -0.347988 0
M  V30 1865 H 170.983 3.84886 1.60992 0
M  V30 1866 H 169.613 2.71562 1.74511 0
M  V30 1867 H 168.665 3.77981 -0.428295 0
M  V30 1868 H 169.977 4.97619 -0.343052 0
M  V30 1869 H 169.131 5.77004 1.87487 0
M  V30 1870 H 167.87 4.50488 1.86847 0
M  V30 1871 H 166.875 5.49386 -0.213433 0
M  V30 1872 H 168.1 6.78837 -0.188968 0
M  V30 1873 H 166.046 6.25096 1.98975 0
M  V30 1874 H 165.963 7.51663 0.808656 0
M  V30 1875 H 167.231 7.53467 1.99769 0
M  V30 1876 N 171.46 0.379036 1.52974 0
M  V30 1877 C 172.871 -0.0972525 1.86447 0
M  V30 1878 C 173.222 -1.47027 1.29914 0
M  V30 1879 O 172.347 -2.07135 0.626433 0
M  V30 1880 C 172.942 -0.183248 3.38304 0
M  V30 1881 C 171.501 -0.603812 3.71525 0
M  V30 1882 C 170.648 0.240632 2.76254 0
M  V30 1883 H 173.599 0.597316 1.4703 0
M  V30 1884 H 173.62 -1.00432 3.67006 0
M  V30 1885 H 173.132 0.816191 3.79421 0
M  V30 1886 H 171.233 -1.61099 3.35973 0
M  V30 1887 H 171.346 -0.369086 4.77676 0
M  V30 1888 H 169.71 -0.292548 2.53014 0
M  V30 1889 H 170.493 1.23786 3.20206 0
M  V30 1890 N 172.938 -1.57226 0.108567 0
M  V30 1891 C 174.215 -1.86333 -0.594939 0
M  V30 1892 C 174.595 -1.00788 -1.85486 0
M  V30 1893 O 173.943 -0.0839293 -2.28346 0
M  V30 1894 C 174.153 -3.37265 -0.897405 0
M  V30 1895 C 175.501 -4.05629 -1.25501 0
M  V30 1896 O 176.525 -3.42224 -0.987998 0
M  V30 1897 O 175.384 -5.17531 -1.75567 0
M  V30 1898 H 172.478 -0.771018 -0.2991 0
M  V30 1899 H 175.024 -1.69102 0.142283 0
M  V30 1900 H 173.796 -3.913 -0.00413806 0
M  V30 1901 H 173.419 -3.59889 -1.69014 0
M  V30 1902 N 174.416 0.165178 -1.56732 0
M  V30 1903 C 175.346 1.20651 -1.99914 0
M  V30 1904 C 176.327 1.45827 -0.875705 0
M  V30 1905 O 177.512 1.57057 -1.14223 0
M  V30 1906 C 174.642 2.54401 -2.36427 0
M  V30 1907 C 173.596 2.43782 -3.51787 0
M  V30 1908 C 172.922 3.82078 -3.7406 0
M  V30 1909 C 174.222 1.93732 -4.85041 0
M  V30 1910 H 175.916 0.847534 -2.87154 0
M  V30 1911 H 173.462 0.40625 -1.38151 0
M  V30 1912 H 175.415 3.27458 -2.65234 0
M  V30 1913 H 174.139 2.92098 -1.46103 0
M  V30 1914 H 172.798 1.73178 -3.23117 0
M  V30 1915 H 172.446 4.17179 -2.81017 0
M  V30 1916 H 172.146 3.7584 -4.51684 0
M  V30 1917 H 173.67 4.56712 -4.05274 0
M  V30 1918 H 175.084 2.56569 -5.12684 0
M  V30 1919 H 173.481 1.98428 -5.66345 0
M  V30 1920 H 174.551 0.891962 -4.76626 0
M  V30 1921 N 175.894 1.51508 0.433938 0
M  V30 1922 C 177.142 1.6402 1.18075 0
M  V30 1923 C 177.463 0.360328 1.91642 0
M  V30 1924 O 176.733 -0.623945 1.85698 0
M  V30 1925 H 175.313 0.6045 0.43885 0
M  V30 1926 H 177.975 1.88452 0.497178 0
M  V30 1927 H 177.071 2.46949 1.90847 0
M  V30 1928 N 177.372 -0.689602 1.41712 0
M  V30 1929 C 178.6 -1.47827 1.44758 0
M  V30 1930 C 179.015 -1.88721 0.0545703 0
M  V30 1931 O 178.372 -1.57176 -0.927463 0
M  V30 1932 C 178.423 -2.73698 2.3616 0
M  V30 1933 O 178.144 -2.34524 3.7004 0
M  V30 1934 C 179.645 -3.67389 2.48072 0
M  V30 1935 H 176.865 -0.455357 0.49284 0
M  V30 1936 H 179.409 -0.848574 1.86063 0
M  V30 1937 H 177.564 -3.32891 1.98148 0
M  V30 1938 H 177.978 -3.15701 4.18847 0
M  V30 1939 H 179.452 -4.52475 3.16181 0
M  V30 1940 H 179.929 -4.12284 1.51388 0
M  V30 1941 H 180.535 -3.14097 2.86746 0
M  V30 1942 N 178.85 -1.27639 -0.924453 0
M  V30 1943 C 179.782 -1.06442 -2.02985 0
M  V30 1944 C 180.795 -0.0194771 -1.62788 0
M  V30 1945 O 181.984 -0.261388 -1.76576 0
M  V30 1946 C 179.084 -0.59327 -3.33667 0
M  V30 1947 C 178.257 -1.71123 -4.02537 0
M  V30 1948 C 177.316 -1.23527 -5.11495 0
M  V30 1949 O 176.342 -1.93553 -5.35281 0
M  V30 1950 N 177.544 -0.0926678 -5.80426 0
M  V30 1951 H 180.309 -2.01633 -2.2173 0
M  V30 1952 H 177.87 -1.19248 -1.09505 0
M  V30 1953 H 179.862 -0.258686 -4.03872 0
M  V30 1954 H 178.432 0.265502 -3.1147 0
M  V30 1955 H 177.652 -2.21593 -3.26022 0
M  V30 1956 H 178.94 -2.46145 -4.45298 0
M  V30 1957 H 178.338 0.491741 -5.63559 0
M  V30 1958 H 176.895 0.182714 -6.51544 0
M  V30 1959 N 180.328 1.1314 -1.09713 0
M  V30 1960 C 181.238 2.22242 -0.751367 0
M  V30 1961 C 182.254 1.72224 0.247938 0
M  V30 1962 O 183.43 2.01205 0.0885463 0
M  V30 1963 C 180.495 3.46231 -0.180274 0
M  V30 1964 C 179.556 4.11125 -1.2359 0
M  V30 1965 C 178.789 5.29195 -0.691966 0
M  V30 1966 O 179.012 5.68342 0.48414 0
M  V30 1967 O 177.946 5.84214 -1.44838 0
M  V30 1968 H 181.772 2.54197 -1.66186 0
M  V30 1969 H 179.357 1.21331 -0.871735 0
M  V30 1970 H 181.239 4.21185 0.134739 0
M  V30 1971 H 179.914 3.1597 0.703185 0
M  V30 1972 H 178.821 3.37985 -1.60366 0
M  V30 1973 H 180.154 4.45524 -2.09211 0
M  V30 1974 N 181.806 0.884767 1.30421 0
M  V30 1975 C 182.754 0.340869 2.30089 0
M  V30 1976 C 183.748 -0.55201 1.60154 0
M  V30 1977 O 184.954 -0.436467 1.74628 0
M  V30 1978 H 181.329 0.0915739 0.746404 0
M  V30 1979 H 183.3 1.19513 2.73421 0
M  V30 1980 C 182.049 -0.429779 3.45034 0
M  V30 1981 H 181.372 0.248024 3.9903 0
M  V30 1982 H 182.812 -0.775445 4.16849 0
M  V30 1983 C 181.271 -1.62677 2.95022 0
M  V30 1984 O 181.801 -2.72614 2.95033 0
M  V30 1985 N 180.007 -1.46387 2.51036 0
M  V30 1986 H 179.554 -0.569506 2.51226 0
M  V30 1987 H 179.512 -2.26612 2.17932 0
M  V30 1988 N 183.284 -1.43765 0.645699 0
M  V30 1989 C 184.53 -2.02197 0.156271 0
M  V30 1990 C 184.863 -1.50776 -1.22393 0
M  V30 1991 O 184.138 -0.697771 -1.81553 0
M  V30 1992 C 184.421 -3.59749 0.158872 0
M  V30 1993 C 184.274 -4.21419 1.57245 0
M  V30 1994 C 185.593 -4.37149 -0.50879 0
M  V30 1995 H 182.712 -0.734694 0.0582602 0
M  V30 1996 H 185.354 -1.71157 0.824951 0
M  V30 1997 H 183.504 -3.86325 -0.410525 0
M  V30 1998 H 185.176 -4.059 2.19186 0
M  V30 1999 H 183.419 -3.78356 2.122 0
M  V30 2000 H 184.09 -5.30482 1.52619 0
M  V30 2001 H 186.566 -4.16093 -0.024412 0
M  V30 2002 H 185.442 -5.4683 -0.476213 0
M  V30 2003 H 185.703 -4.12839 -1.58165 0
M  V30 2004 N 184.763 -0.387143 -1.52771 0
M  V30 2005 C 185.713 0.465942 -2.23188 0
M  V30 2006 C 186.697 1.03138 -1.23496 0
M  V30 2007 O 187.889 0.957845 -1.48843 0
M  V30 2008 C 185.018 1.59384 -3.04059 0
M  V30 2009 C 184.104 1.04024 -4.11144 0
M  V30 2010 N 184.495 0.211416 -5.05358 0
M  V30 2011 C 182.793 1.31295 -4.26237 0
M  V30 2012 C 183.494 -0.0941698 -5.81624 0
M  V30 2013 N 182.47 0.509207 -5.4121 0
M  V30 2014 H 186.272 -0.173856 -2.93385 0
M  V30 2015 H 183.786 -0.19633 -1.61209 0
M  V30 2016 H 185.783 2.21738 -3.53041 0
M  V30 2017 H 184.443 2.23648 -2.35397 0
M  V30 2018 H 185.454 -0.151151 -5.17679 0
M  V30 2019 H 182.131 1.95679 -3.68803 0
M  V30 2020 H 183.521 -0.765572 -6.67524 0
M  V30 2021 N 186.241 1.57166 -0.116904 0
M  V30 2022 C 187.188 2.15202 0.83408 0
M  V30 2023 C 188.158 1.07644 1.26499 0
M  V30 2024 O 189.343 1.35541 1.34288 0
M  V30 2025 C 186.483 2.75405 2.07957 0
M  V30 2026 C 185.596 3.97264 1.69721 0
M  V30 2027 C 184.731 4.45561 2.89221 0
M  V30 2028 C 183.77 5.59956 2.47215 0
M  V30 2029 N 182.907 6.03006 3.59622 0
M  V30 2030 H 187.747 2.96141 0.332335 0
M  V30 2031 H 185.284 1.46309 0.152349 0
M  V30 2032 H 187.242 3.08439 2.80929 0
M  V30 2033 H 185.872 1.97159 2.55594 0
M  V30 2034 H 184.924 3.70404 0.866316 0
M  V30 2035 H 186.236 4.80226 1.34849 0
M  V30 2036 H 185.39 4.80493 3.7042 0
M  V30 2037 H 184.129 3.61544 3.27318 0
M  V30 2038 H 183.134 5.2463 1.64448 0
M  V30 2039 H 184.359 6.45738 2.10238 0
M  V30 2040 H 182.305 5.21931 3.97396 0
M  V30 2041 H 182.222 6.80819 3.28667 0
M  V30 2042 H 183.49 6.42576 4.41267 0
M  V30 2043 N 187.719 -0.156864 1.56817 0
M  V30 2044 C 188.649 -1.19589 2.00551 0
M  V30 2045 C 189.63 -1.4536 0.883426 0
M  V30 2046 O 190.815 -1.56449 1.15054 0
M  V30 2047 C 187.945 -2.53143 2.37773 0
M  V30 2048 C 186.899 -2.41913 3.53075 0
M  V30 2049 C 186.225 -3.80088 3.76081 0
M  V30 2050 C 187.525 -1.91157 4.86062 0
M  V30 2051 H 189.219 -0.832293 2.87599 0
M  V30 2052 H 186.765 -0.398918 1.38364 0
M  V30 2053 H 188.718 -3.26047 2.66967 0
M  V30 2054 H 187.442 -2.91319 1.4765 0
M  V30 2055 H 186.101 -1.71462 3.24031 0
M  V30 2056 H 185.749 -4.15683 2.83225 0
M  V30 2057 H 185.449 -3.73439 4.53671 0
M  V30 2058 H 186.973 -4.54556 4.0769 0
M  V30 2059 H 188.387 -2.53846 5.14038 0
M  V30 2060 H 186.784 -1.95422 5.67389 0
M  V30 2061 H 187.854 -0.866673 4.77092 0
M  V30 2062 N 189.197 -1.51736 -0.425897 0
M  V30 2063 C 190.107 -1.76738 -1.54275 0
M  V30 2064 C 191.123 -0.65211 -1.61318 0
M  V30 2065 O 192.299 -0.935654 -1.78346 0
M  V30 2066 C 189.364 -1.89755 -2.90162 0
M  V30 2067 C 188.425 -3.13633 -2.93143 0
M  V30 2068 C 187.658 -3.2602 -4.22548 0
M  V30 2069 O 187.881 -2.44067 -5.15546 0
M  V30 2070 O 186.815 -4.19071 -4.32046 0
M  V30 2071 H 190.641 -2.71502 -1.36089 0
M  V30 2072 H 188.226 -1.36376 -0.610069 0
M  V30 2073 H 190.108 -2.00236 -3.70788 0
M  V30 2074 H 188.783 -0.981785 -3.08452 0
M  V30 2075 H 187.69 -3.08622 -2.11431 0
M  V30 2076 H 189.023 -4.04936 -2.798 0
M  V30 2077 N 190.675 0.682077 -1.42076 0
M  V30 2078 C 192.086 1.26246 -1.37546 0
M  V30 2079 C 192.437 1.96092 -0.0651481 0
M  V30 2080 O 191.562 1.99587 0.836297 0
M  V30 2081 C 192.157 2.29594 -2.49143 0
M  V30 2082 C 190.716 2.83175 -2.47969 0
M  V30 2083 C 189.863 1.57395 -2.28303 0
M  V30 2084 H 192.814 0.475937 -1.51395 0
M  V30 2085 H 192.835 3.11175 -2.18976 0
M  V30 2086 H 192.347 1.78729 -3.44496 0
M  V30 2087 H 190.448 3.3818 -1.56413 0
M  V30 2088 H 190.561 3.32687 -3.44755 0
M  V30 2089 H 188.925 1.83699 -1.76428 0
M  V30 2090 H 189.708 1.08507 -3.25701 0
M  V30 2091 N 192.153 1.28127 0.917671 0
M  V30 2092 C 193.063 1.13556 2.05286 0
M  V30 2093 C 194.079 0.0630914 1.73886 0
M  V30 2094 O 195.255 0.271598 1.9956 0
M  V30 2095 C 192.32 0.794676 3.3747 0
M  V30 2096 C 191.381 1.94909 3.82504 0
M  V30 2097 C 190.614 1.62437 5.0838 0
M  V30 2098 O 190.837 0.536905 5.67867 0
M  V30 2099 O 189.771 2.46677 5.4903 0
M  V30 2100 H 193.597 2.08844 2.20495 0
M  V30 2101 H 191.182 1.07409 1.03845 0
M  V30 2102 H 193.064 0.618344 4.16839 0
M  V30 2103 H 191.739 -0.128581 3.23445 0
M  V30 2104 H 190.646 2.18055 3.03978 0
M  V30 2105 H 191.979 2.85291 4.01086 0
M  V30 2106 N 193.631 -1.12557 1.10312 0
M  V30 2107 C 194.594 -2.16434 0.75424 0
M  V30 2108 C 195.594 -1.59278 -0.220685 0
M  V30 2109 O 196.784 -1.742 0.00230591 0
M  V30 2110 C 193.916 -3.40699 0.116987 0
M  V30 2111 H 195.109 -2.48811 1.67431 0
M  V30 2112 H 192.662 -1.27542 0.903475 0
M  V30 2113 H 193.397 -3.13921 -0.813877 0
M  V30 2114 H 193.182 -3.83459 0.818613 0
M  V30 2115 H 194.672 -4.17451 -0.111387 0
M  V30 2116 N 195.109 -0.891671 -1.2995 0
M  V30 2117 C 196.355 -0.523649 -1.96544 0
M  V30 2118 C 196.71 0.918394 -1.69066 0
M  V30 2119 O 196.003 1.64122 -0.988659 0
M  V30 2120 C 196.197 -0.742868 -3.49594 0
M  V30 2121 C 196.026 -2.20467 -3.9195 0
M  V30 2122 C 194.796 -2.85055 -4.17219 0
M  V30 2123 C 196.994 -3.17912 -4.04273 0
M  V30 2124 N 194.976 -4.21762 -4.46083 0
M  V30 2125 C 196.347 -4.39712 -4.37097 0
M  V30 2126 C 198.402 -3.1361 -3.86721 0
M  V30 2127 C 197.105 -5.5776 -4.54199 0
M  V30 2128 C 199.131 -4.30936 -4.05028 0
M  V30 2129 C 198.493 -5.51504 -4.38204 0
M  V30 2130 H 194.592 -0.241072 -0.743914 0
M  V30 2131 H 197.176 -1.15081 -1.5705 0
M  V30 2132 H 195.347 -0.14515 -3.88129 0
M  V30 2133 H 197.079 -0.341081 -4.0326 0
M  V30 2134 H 193.834 -2.35889 -4.10674 0
M  V30 2135 H 194.258 -4.92382 -4.64638 0
M  V30 2136 H 198.9 -2.21489 -3.60142 0
M  V30 2137 H 196.618 -6.50379 -4.79618 0
M  V30 2138 H 200.204 -4.29085 -3.92909 0
M  V30 2139 H 199.084 -6.40778 -4.52077 0
M  V30 2140 N 196.587 1.43421 -0.653314 0
M  V30 2141 C 197.534 2.30768 0.0382271 0
M  V30 2142 C 198.504 1.44755 0.814576 0
M  V30 2143 O 199.689 1.73624 0.791162 0
M  V30 2144 C 196.829 3.30336 0.998599 0
M  V30 2145 C 195.942 4.31448 0.218342 0
M  V30 2146 C 195.077 5.18098 1.17252 0
M  V30 2147 C 194.116 6.10902 0.382702 0
M  V30 2148 N 193.253 6.90176 1.28848 0
M  V30 2149 H 198.093 2.89357 -0.712511 0
M  V30 2150 H 195.63 1.42548 -0.363128 0
M  V30 2151 H 197.588 3.86572 1.56901 0
M  V30 2152 H 196.218 2.73397 1.71621 0
M  V30 2153 H 195.27 3.77506 -0.46836 0
M  V30 2154 H 196.582 4.97227 -0.395812 0
M  V30 2155 H 195.736 5.7896 1.81356 0
M  V30 2156 H 194.475 4.52444 1.82058 0
M  V30 2157 H 193.48 5.49128 -0.27169 0
M  V30 2158 H 194.705 6.78598 -0.260957 0
M  V30 2159 H 192.651 6.27171 1.92334 0
M  V30 2160 H 192.568 7.52478 0.728887 0
M  V30 2161 H 193.836 7.55543 1.91766 0
M  V30 2162 N 198.065 0.39524 1.52563 0
M  V30 2163 C 199.015 -0.4541 2.23432 0
M  V30 2164 C 199.999 -1.02482 1.24042 0
M  V30 2165 O 201.191 -0.949938 1.49349 0
M  V30 2166 C 198.32 -1.57769 3.049 0
M  V30 2167 C 197.406 -1.01842 4.1169 0
M  V30 2168 N 197.797 -0.184613 5.05463 0
M  V30 2169 C 196.095 -1.29033 4.26927 0
M  V30 2170 C 196.796 0.125013 5.81566 0
M  V30 2171 N 195.772 -0.480498 5.41472 0
M  V30 2172 H 199.574 0.189413 2.93289 0
M  V30 2173 H 197.088 0.204877 1.61102 0
M  V30 2174 H 199.085 -2.19862 3.54212 0
M  V30 2175 H 197.745 -2.22397 2.36579 0
M  V30 2176 H 198.756 0.178602 5.17592 0
M  V30 2177 H 195.433 -1.93721 3.69836 0
M  V30 2178 H 196.823 0.800962 6.67109 0
M  V30 2179 N 199.544 -1.57102 0.125237 0
M  V30 2180 C 200.79 -1.95697 -0.532035 0
M  V30 2181 C 201.123 -1.009 -1.6593 0
M  V30 2182 O 200.398 -0.047347 -1.94442 0
M  V30 2183 C 200.681 -3.44181 -1.05884 0
M  V30 2184 C 200.534 -4.49752 0.0654392 0
M  V30 2185 C 201.853 -3.94655 -1.9477 0
M  V30 2186 H 198.972 -0.711571 -0.191925 0
M  V30 2187 H 201.614 -1.88923 0.20206 0
M  V30 2188 H 199.764 -3.50085 -1.68442 0
M  V30 2189 H 201.436 -4.55943 0.700982 0
M  V30 2190 H 199.679 -4.27653 0.727709 0
M  V30 2191 H 200.35 -5.50924 -0.344505 0
M  V30 2192 H 202.826 -3.91094 -1.42074 0
M  V30 2193 H 201.702 -4.99057 -2.28546 0
M  V30 2194 H 201.963 -3.35718 -2.87656 0
M  V30 2195 N 201.022 0.148545 -1.56898 0
M  V30 2196 C 201.932 1.20293 -2.01412 0
M  V30 2197 C 202.948 1.47107 -0.929273 0
M  V30 2198 O 204.124 1.58807 -1.23863 0
M  V30 2199 C 201.189 2.51682 -2.38447 0
M  V30 2200 C 200.25 2.32529 -3.60872 0
M  V30 2201 C 199.483 3.57653 -3.96132 0
M  V30 2202 O 199.706 4.63771 -3.32073 0
M  V30 2203 O 198.64 3.50408 -4.89385 0
M  V30 2204 H 202.466 0.855025 -2.91416 0
M  V30 2205 H 200.051 0.357151 -1.45068 0
M  V30 2206 H 201.933 3.29147 -2.63135 0
M  V30 2207 H 200.608 2.86006 -1.51599 0
M  V30 2208 H 199.515 1.53019 -3.41373 0
M  V30 2209 H 200.848 2.03121 -4.48333 0
M  V30 2210 N 202.5 1.5196 0.417844 0
M  V30 2211 C 203.463 1.74065 1.49111 0
M  V30 2212 C 204.463 0.610537 1.48758 0
M  V30 2213 O 205.653 0.87832 1.50437 0
M  V30 2214 C 202.785 1.81502 2.88565 0
M  V30 2215 H 203.978 2.69869 1.30807 0
M  V30 2216 H 201.531 1.42244 0.647785 0
M  V30 2217 H 202.266 0.875813 3.1225 0
M  V30 2218 H 202.051 2.63651 2.90225 0
M  V30 2219 H 203.541 2.00376 3.66387 0
M  V30 2220 N 203.978 -0.674533 1.42435 0
M  V30 2221 C 205.224 -1.43671 1.43131 0
M  V30 2222 C 205.557 -1.94142 0.0476021 0
M  V30 2223 O 204.832 -1.70924 -0.928188 0
M  V30 2224 C 205.115 -2.63355 2.45594 0
M  V30 2225 C 204.968 -2.18514 3.93156 0
M  V30 2226 C 206.287 -3.65571 2.45043 0
M  V30 2227 H 203.406 -0.521077 0.521198 0
M  V30 2228 H 206.048 -0.766551 1.7385 0
M  V30 2229 H 204.198 -3.2053 2.19528 0
M  V30 2230 H 205.87 -1.66504 4.30202 0
M  V30 2231 H 204.113 -1.50086 4.07009 0
M  V30 2232 H 204.784 -3.04484 4.60428 0
M  V30 2233 H 207.26 -3.18113 2.68223 0
M  V30 2234 H 206.136 -4.46893 3.18713 0
M  V30 2235 H 206.397 -4.16716 1.47649 0
M  V30 2236 N 205.456 -1.28612 -0.910864 0
M  V30 2237 C 206.686 -1.1862 -1.69153 0
M  V30 2238 C 207.094 0.257324 -1.87442 0
M  V30 2239 O 206.437 1.18543 -1.40332 0
M  V30 2240 C 206.499 -1.81606 -3.10257 0
M  V30 2241 C 206.163 -3.30864 -3.15243 0
M  V30 2242 C 207.16 -4.27256 -2.96223 0
M  V30 2243 C 204.845 -3.71871 -3.37664 0
M  V30 2244 C 206.839 -5.62631 -2.99541 0
M  V30 2245 C 204.526 -5.07371 -3.40614 0
M  V30 2246 C 205.524 -6.02561 -3.21573 0
M  V30 2247 O 205.212 -7.35589 -3.2429 0
M  V30 2248 H 204.944 -0.412633 -0.535453 0
M  V30 2249 H 207.498 -1.70306 -1.14827 0
M  V30 2250 H 205.728 -1.24418 -3.66138 0
M  V30 2251 H 207.417 -1.66092 -3.70362 0
M  V30 2252 H 208.183 -3.9691 -2.78725 0
M  V30 2253 H 204.062 -2.98241 -3.5153 0
M  V30 2254 H 207.606 -6.36907 -2.84597 0
M  V30 2255 H 203.503 -5.37366 -3.57642 0
M  V30 2256 H 204.271 -7.44252 -3.40633 0
M  V30 2257 N 206.934 1.1197 -1.10907 0
M  V30 2258 C 208.183 1.82947 -0.849302 0
M  V30 2259 C 208.496 1.85275 0.627112 0
M  V30 2260 O 209.702 2.52296 1.00295 0
M  V30 2261 C 208.158 3.28529 -1.46959 0
M  V30 2262 C 207.766 3.34546 -2.97965 0
M  V30 2263 C 209.51 4.04443 -1.28942 0
M  V30 2264 C 207.417 4.74491 -3.53004 0
M  V30 2265 H 206.347 0.685477 -0.314065 0
M  V30 2266 H 208.998 1.2604 -1.33365 0
M  V30 2267 H 207.38 3.85333 -0.912917 0
M  V30 2268 H 208.554 2.87654 -3.59989 0
M  V30 2269 H 206.869 2.72108 -3.15192 0
M  V30 2270 H 209.466 5.07787 -1.67502 0
M  V30 2271 H 209.809 4.15656 -0.231456 0
M  V30 2272 H 210.342 3.5401 -1.81443 0
M  V30 2273 H 207.081 4.68474 -4.58489 0
M  V30 2274 H 206.601 5.21816 -2.9575 0
M  V30 2275 H 208.28 5.4344 -3.51115 0
M  V30 2276 N 208.412 0.89855 1.29475 0
M  V30 2277 C 209.689 0.443416 1.90508 0
M  V30 2278 C 210.069 -1.07685 1.81569 0
M  V30 2279 O 209.417 -1.9182 1.24166 0
M  V30 2280 C 209.627 0.956708 3.35631 0
M  V30 2281 C 210.975 0.999728 4.12663 0
M  V30 2282 O 211.999 0.904299 3.4453 0
M  V30 2283 O 210.858 1.14289 5.34416 0
M  V30 2284 H 207.952 0.138025 0.815401 0
M  V30 2285 H 210.498 0.98834 1.37949 0
M  V30 2286 H 209.27 2.00067 3.36287 0
M  V30 2287 H 208.893 0.391728 3.95666 0
M  V30 2288 N 209.89 -1.43072 0.660911 0
M  V30 2289 C 211.139 -2.00942 0.174735 0
M  V30 2290 C 211.452 -1.52797 -1.22117 0
M  V30 2291 O 212.658 -2.02991 -1.80297 0
M  V30 2292 C 211.114 -3.58948 0.261559 0
M  V30 2293 C 210.722 -4.16085 1.66064 0
M  V30 2294 C 212.466 -4.24173 -0.166617 0
M  V30 2295 C 210.373 -5.6641 1.70098 0
M  V30 2296 H 209.303 -0.751483 0.0615631 0
M  V30 2297 H 211.954 -1.63955 0.824069 0
M  V30 2298 H 210.336 -3.93372 -0.455421 0
M  V30 2299 H 211.51 -3.93147 2.40359 0
M  V30 2300 H 209.825 -3.6326 2.03546 0
M  V30 2301 H 212.422 -5.34471 -0.156433 0
M  V30 2302 H 212.765 -3.98647 -1.19943 0
M  V30 2303 H 213.298 -3.94659 0.498875 0
M  V30 2304 H 210.037 -5.96715 2.71315 0
M  V30 2305 H 209.557 -5.91382 1.00139 0
M  V30 2306 H 211.236 -6.30585 1.44816 0
M  V30 2307 N 211.368 -0.403325 -1.52352 0
M  V30 2308 C 212.331 0.413051 -2.25447 0
M  V30 2309 C 213.331 0.978513 -1.276 0
M  V30 2310 O 214.521 0.858305 -1.51587 0
M  V30 2311 C 211.653 1.58087 -3.02029 0
M  V30 2312 H 212.846 -0.227094 -2.99039 0
M  V30 2313 H 210.399 -0.155722 -1.55522 0
M  V30 2314 H 211.134 2.25804 -2.32772 0
M  V30 2315 H 210.919 1.18195 -3.73861 0
M  V30 2316 H 212.409 2.1585 -3.57489 0
M  V30 2317 N 212.846 1.57033 -0.133567 0
M  V30 2318 C 214.123 1.87256 0.56522 0
M  V30 2319 C 214.503 1.03726 1.83859 0
M  V30 2320 O 213.851 0.120247 2.28183 0
M  V30 2321 C 214.061 3.3865 0.843636 0
M  V30 2322 C 215.409 4.07574 1.19032 0
M  V30 2323 O 216.433 3.43752 0.933429 0
M  V30 2324 O 215.292 5.20259 1.67312 0
M  V30 2325 H 212.386 0.775678 0.286796 0
M  V30 2326 H 214.932 1.68855 -0.169168 0
M  V30 2327 H 213.704 3.91257 -0.0581149 0
M  V30 2328 H 213.327 3.62532 1.63268 0
M  V30 2329 N 214.325 -0.140222 1.56975 0
M  V30 2330 C 215.741 -0.493088 1.51792 0
M  V30 2331 C 215.941 -1.83013 0.843116 0
M  V30 2332 O 214.997 -2.49041 0.416493 0
M  V30 2333 C 216.31 -0.497144 2.96562 0
M  V30 2334 C 217.858 -0.582186 3.07538 0
M  V30 2335 C 218.333 -0.616838 4.53827 0
M  V30 2336 N 219.824 -0.678873 4.58198 0
M  V30 2337 C 220.559 -0.726782 5.68775 0
M  V30 2338 N 220.055 -0.733623 6.88905 0
M  V30 2339 N 221.848 -0.768179 5.56826 0
M  V30 2340 H 213.999 0.736108 1.99237 0
M  V30 2341 H 216.262 0.269182 0.90898 0
M  V30 2342 H 215.968 0.417217 3.49217 0
M  V30 2343 H 215.842 -1.33263 3.52875 0
M  V30 2344 H 218.229 -1.48697 2.54899 0
M  V30 2345 H 218.31 0.280581 2.54257 0
M  V30 2346 H 217.954 0.283812 5.07106 0
M  V30 2347 H 217.884 -1.49619 5.04898 0
M  V30 2348 H 220.375 -0.68061 3.7172 0
M  V30 2349 H 220.688 -0.772215 7.68932 0
M  V30 2350 H 219.033 -0.701389 6.91452 0
M  V30 2351 H 222.224 -0.760051 4.61888 0
M  V30 2352 H 222.397 -0.80205 6.43017 0
M  V30 2353 N 215.803 -1.52179 -0.40978 0
M  V30 2354 C 217.028 -1.70347 -1.18308 0
M  V30 2355 C 217.453 -0.411887 -1.83535 0
M  V30 2356 O 216.811 0.630587 -1.6998 0
M  V30 2357 C 216.859 -2.83977 -2.22238 0
M  V30 2358 O 215.963 -2.495 -3.28365 0
M  V30 2359 H 215.304 -0.567103 -0.345384 0
M  V30 2360 H 217.834 -1.98879 -0.480445 0
M  V30 2361 H 217.844 -3.0887 -2.66577 0
M  V30 2362 H 216.519 -3.77685 -1.74146 0
M  V30 2363 H 215.096 -2.35277 -2.89308 0
M  V30 2364 N 217.281 0.66697 -1.42791 0
M  V30 2365 C 218.213 1.7925 -1.42836 0
M  V30 2366 C 219.226 1.59496 -0.326333 0
M  V30 2367 O 220.415 1.6847 -0.589916 0
M  V30 2368 C 217.515 3.16476 -1.21229 0
M  V30 2369 C 216.688 3.63011 -2.44013 0
M  V30 2370 C 215.747 4.78993 -2.17834 0
M  V30 2371 O 214.773 4.89137 -2.91091 0
M  V30 2372 N 215.975 5.68248 -1.18635 0
M  V30 2373 H 218.74 1.79695 -2.39854 0
M  V30 2374 H 216.301 0.850338 -1.37771 0
M  V30 2375 H 218.293 3.91734 -1.01621 0
M  V30 2376 H 216.863 3.10884 -0.32706 0
M  V30 2377 H 216.083 2.78346 -2.79137 0
M  V30 2378 H 217.371 3.90845 -3.25757 0
M  V30 2379 H 216.769 5.62712 -0.580615 0
M  V30 2380 H 215.326 6.43285 -1.05013 0
M  V30 2381 N 218.759 1.29093 0.90403 0
M  V30 2382 C 220.005 1.16986 1.65656 0
M  V30 2383 C 220.338 -0.278925 1.92186 0
M  V30 2384 O 219.613 -1.2019 1.5292 0
M  V30 2385 C 219.896 1.97908 3.0084 0
M  V30 2386 C 219.749 3.50903 2.81403 0
M  V30 2387 C 221.068 1.80208 4.01513 0
M  V30 2388 H 218.187 0.426346 0.601164 0
M  V30 2389 H 220.829 1.58518 1.04747 0
M  V30 2390 H 218.979 1.62616 3.52829 0
M  V30 2391 H 220.651 3.96153 2.36348 0
M  V30 2392 H 218.894 3.76045 2.1627 0
M  V30 2393 H 219.565 4.02791 3.77443 0
M  V30 2394 H 222.041 2.11025 3.58619 0
M  V30 2395 H 220.917 2.39184 4.94047 0
M  V30 2396 H 221.178 0.756119 4.35586 0
M  V30 2397 N 220.237 -1.11381 1.11499 0
M  V30 2398 C 221.167 -2.19509 0.796125 0
M  V30 2399 C 222.148 -1.68458 -0.235796 0
M  V30 2400 O 223.333 -1.93947 -0.0991344 0
M  V30 2401 C 220.463 -3.46475 0.239205 0
M  V30 2402 C 219.417 -4.10744 1.20307 0
M  V30 2403 C 218.743 -5.32293 0.50683 0
M  V30 2404 C 220.043 -4.55597 2.55399 0
M  V30 2405 H 221.737 -2.46439 1.70024 0
M  V30 2406 H 219.283 -1.18446 0.818935 0
M  V30 2407 H 221.236 -4.214 0.00392006 0
M  V30 2408 H 219.96 -3.19006 -0.700206 0
M  V30 2409 H 218.619 -3.37813 1.42399 0
M  V30 2410 H 218.267 -5.01095 -0.437408 0
M  V30 2411 H 217.967 -5.76243 1.1497 0
M  V30 2412 H 219.491 -6.09956 0.280351 0
M  V30 2413 H 220.905 -5.21841 2.37391 0
M  V30 2414 H 219.302 -5.10363 3.15673 0
M  V30 2415 H 220.372 -3.69013 3.14575 0
M  V30 2416 N 221.715 -0.905404 -1.28997 0
M  V30 2417 C 222.94 -0.549175 -1.99997 0
M  V30 2418 C 223.365 0.860276 -1.67275 0
M  V30 2419 O 222.723 1.57355 -0.900502 0
M  V30 2420 C 222.771 -0.755185 -3.52604 0
M  V30 2421 O 221.875 0.189692 -4.11964 0
M  V30 2422 H 221.216 -0.213899 -0.628604 0
M  V30 2423 H 223.746 -1.21856 -1.64354 0
M  V30 2424 H 223.756 -0.662045 -4.02593 0
M  V30 2425 H 222.431 -1.78271 -3.75755 0
M  V30 2426 H 221.008 0.0485257 -3.72868 0
M  V30 2427 N 223.193 1.4272 -0.668489 0
M  V30 2428 C 224.14 2.30796 0.0137489 0
M  V30 2429 C 225.11 1.4561 0.799177 0
M  V30 2430 O 226.295 1.74453 0.772702 0
M  V30 2431 C 223.435 3.31377 0.963507 0
M  V30 2432 C 222.548 4.31655 0.172569 0
M  V30 2433 C 221.683 5.19312 1.1175 0
M  V30 2434 C 220.722 6.11274 0.317886 0
M  V30 2435 N 219.859 6.91504 1.2152 0
M  V30 2436 H 224.699 2.88585 -0.743161 0
M  V30 2437 H 222.236 1.42154 -0.378226 0
M  V30 2438 H 224.194 3.88214 1.52792 0
M  V30 2439 H 222.824 2.75202 1.68712 0
M  V30 2440 H 221.876 3.76988 -0.508374 0
M  V30 2441 H 223.188 4.96779 -0.448527 0
M  V30 2442 H 222.342 5.80851 1.75206 0
M  V30 2443 H 221.081 4.5435 1.77249 0
M  V30 2444 H 220.086 5.48809 -0.329918 0
M  V30 2445 H 221.311 6.78283 -0.332917 0
M  V30 2446 H 219.257 6.29176 1.85671 0
M  V30 2447 H 219.174 7.53209 0.649036 0
M  V30 2448 H 220.442 7.57535 1.83742 0
M  V30 2449 N 224.671 0.411399 1.52136 0
M  V30 2450 C 225.948 -0.222308 1.94333 0
M  V30 2451 C 226.328 -1.6242 1.34844 0
M  V30 2452 O 225.676 -2.22384 0.525145 0
M  V30 2453 C 225.886 -0.226345 3.48265 0
M  V30 2454 C 227.234 -0.444592 4.22266 0
M  V30 2455 O 228.258 -0.305602 3.54887 0
M  V30 2456 O 227.117 -0.718749 5.41753 0
M  V30 2457 H 224.211 -0.143907 0.814383 0
M  V30 2458 H 226.757 0.467506 1.63133 0
M  V30 2459 H 225.529 0.75475 3.83952 0
M  V30 2460 H 225.152 -0.960163 3.85832 0
M  V30 2461 N 226.149 -1.5696 0.141893 0
M  V30 2462 C 227.379 -2.00031 -0.516828 0
M  V30 2463 C 227.787 -1.02091 -1.59293 0
M  V30 2464 O 227.13 -0.00909657 -1.83698 0
M  V30 2465 C 227.192 -3.39534 -1.1814 0
M  V30 2466 C 226.856 -4.56313 -0.250513 0
M  V30 2467 C 227.853 -5.17295 0.519839 0
M  V30 2468 C 225.538 -5.02061 -0.154907 0
M  V30 2469 C 227.532 -6.2243 1.3733 0
M  V30 2470 C 225.219 -6.07053 0.702161 0
M  V30 2471 C 226.217 -6.67106 1.46487 0
M  V30 2472 O 225.905 -7.70066 2.30767 0
M  V30 2473 H 225.637 -0.661451 -0.139493 0
M  V30 2474 H 228.191 -2.04086 0.231926 0
M  V30 2475 H 226.421 -3.32302 -1.97769 0
M  V30 2476 H 228.11 -3.66745 -1.73933 0
M  V30 2477 H 228.876 -4.82852 0.45598 0
M  V30 2478 H 224.755 -4.5505 -0.7383 0
M  V30 2479 H 228.299 -6.69233 1.96909 0
M  V30 2480 H 224.196 -6.40923 0.76733 0
M  V30 2481 H 224.964 -7.87264 2.23959 0
M  V30 2482 N 227.627 0.131896 -1.57047 0
M  V30 2483 C 228.574 1.16236 -1.99393 0
M  V30 2484 C 229.544 1.41863 -0.863943 0
M  V30 2485 O 230.729 1.53946 -1.12718 0
M  V30 2486 C 227.869 2.48708 -2.39245 0
M  V30 2487 C 226.982 2.30127 -3.65603 0
M  V30 2488 C 226.117 3.55738 -3.94492 0
M  V30 2489 C 225.156 3.32259 -5.14073 0
M  V30 2490 N 224.293 4.50039 -5.38896 0
M  V30 2491 H 229.133 0.794251 -2.87221 0
M  V30 2492 H 226.67 0.380707 -1.42088 0
M  V30 2493 H 228.628 3.25969 -2.60384 0
M  V30 2494 H 227.258 2.83437 -1.54478 0
M  V30 2495 H 226.31 1.43845 -3.52154 0
M  V30 2496 H 227.622 2.08746 -4.5302 0
M  V30 2497 H 226.776 4.41423 -4.1621 0
M  V30 2498 H 225.515 3.80138 -3.05526 0
M  V30 2499 H 224.52 2.44963 -4.92212 0
M  V30 2500 H 225.745 3.09242 -6.04604 0
M  V30 2501 H 223.691 4.74584 -4.52886 0
M  V30 2502 H 223.608 4.31716 -6.2061 0
M  V30 2503 H 224.876 5.36895 -5.65123 0
M  V30 2504 N 229.106 1.52395 0.401703 0
M  V30 2505 C 230.069 1.75636 1.47257 0
M  V30 2506 C 231.069 0.62628 1.48103 0
M  V30 2507 O 232.259 0.894227 1.49497 0
M  V30 2508 C 229.391 1.84553 2.86624 0
M  V30 2509 H 230.584 2.71241 1.27938 0
M  V30 2510 H 228.137 1.42923 0.632662 0
M  V30 2511 H 228.872 0.908882 3.11303 0
M  V30 2512 H 228.657 2.66715 2.87412 0
M  V30 2513 H 230.147 2.04251 3.64241 0
M  V30 2514 N 230.584 -0.659388 1.43143 0
M  V30 2515 C 231.494 -1.80167 1.50256 0
M  V30 2516 C 232.51 -1.69571 0.390106 0
M  V30 2517 O 233.686 -1.90849 0.643319 0
M  V30 2518 C 230.751 -3.16409 1.41725 0
M  V30 2519 C 229.812 -3.38848 2.63591 0
M  V30 2520 C 229.045 -4.68591 2.55458 0
M  V30 2521 O 229.268 -5.47532 1.59891 0
M  V30 2522 O 228.202 -4.92614 3.45854 0
M  V30 2523 H 232.028 -1.77121 2.46702 0
M  V30 2524 H 229.613 -0.817092 1.25076 0
M  V30 2525 H 231.495 -3.9768 1.39387 0
M  V30 2526 H 230.17 -3.20059 0.484118 0
M  V30 2527 H 229.077 -2.57366 2.71502 0
M  V30 2528 H 230.41 -3.4004 3.55856 0
M  V30 2529 N 232.062 -1.29571 -0.897171 0
M  V30 2530 C 232.972 -1.16808 -2.03453 0
M  V30 2531 C 233.988 -0.0907471 -1.73763 0
M  V30 2532 O 235.164 -0.303312 -1.99103 0
M  V30 2533 C 232.229 -0.848264 -3.36163 0
M  V30 2534 C 231.29 -2.0097 -3.79354 0
M  V30 2535 C 230.523 -1.70505 -5.05731 0
M  V30 2536 O 230.746 -0.62718 -5.66941 0
M  V30 2537 O 229.68 -2.5538 -5.45036 0
M  V30 2538 H 233.506 -2.12325 -2.17144 0
M  V30 2539 H 231.091 -1.09047 -1.02123 0
M  V30 2540 H 232.973 -0.684581 -4.15802 0
M  V30 2541 H 231.648 0.0771071 -3.23608 0
M  V30 2542 H 230.555 -2.22863 -3.00471 0
M  V30 2543 H 231.888 -2.91636 -3.96496 0
M  V30 2544 N 233.54 1.10788 -1.12088 0
M  V30 2545 C 234.817 1.79136 -0.785476 0
M  V30 2546 C 235.197 1.98246 0.725377 0
M  V30 2547 O 234.545 1.57258 1.65778 0
M  V30 2548 C 234.755 3.12375 -1.55636 0
M  V30 2549 C 236.103 3.8731 -1.74001 0
M  V30 2550 O 237.127 3.22085 -1.52117 0
M  V30 2551 O 235.986 5.04369 -2.10415 0
M  V30 2552 H 233.08 0.776226 -0.285311 0
M  V30 2553 H 235.626 1.1747 -1.2247 0
M  V30 2554 H 234.398 2.93863 -2.5838 0
M  V30 2555 H 234.021 3.81758 -1.11114 0
M  V30 2556 N 235.018 0.912232 1.28515 0
M  V30 2557 C 236.429 0.591352 1.77087 0
M  V30 2558 C 236.78 -0.8933 1.74684 0
M  V30 2559 O 235.905 -1.69876 1.34056 0
M  V30 2560 C 236.5 1.06668 3.2157 0
M  V30 2561 C 235.059 0.79675 3.67871 0
M  V30 2562 C 234.206 1.23427 2.48316 0
M  V30 2563 H 237.157 1.09365 1.15 0
M  V30 2564 H 237.178 0.407455 3.78312 0
M  V30 2565 H 236.69 2.14726 3.23287 0
M  V30 2566 H 234.791 -0.270679 3.71616 0
M  V30 2567 H 234.904 1.40343 4.58084 0
M  V30 2568 H 233.268 0.653036 2.46186 0
M  V30 2569 H 234.051 2.32316 2.52753 0
M  V30 2570 N 236.496 -1.42363 0.676048 0
M  V30 2571 C 237.459 -2.29199 0.00766941 0
M  V30 2572 C 238.459 -1.43389 -0.727745 0
M  V30 2573 O 239.649 -1.64764 -0.56556 0
M  V30 2574 C 236.781 -3.2591 -0.999785 0
M  V30 2575 H 237.974 -2.89794 0.771988 0
M  V30 2576 H 235.527 -1.50024 0.438468 0
M  V30 2577 H 236.262 -2.70256 -1.79255 0
M  V30 2578 H 236.047 -3.89202 -0.475829 0
M  V30 2579 H 237.537 -3.91028 -1.46583 0
M  V30 2580 N 237.974 -0.419461 -1.51915 0
M  V30 2581 C 238.921 0.400927 -2.27291 0
M  V30 2582 C 239.891 1.03224 -1.30131 0
M  V30 2583 O 241.076 1.05455 -1.59009 0
M  V30 2584 C 238.216 1.50603 -3.10504 0
M  V30 2585 C 237.329 0.89462 -4.22635 0
M  V30 2586 C 236.464 1.97328 -4.93189 0
M  V30 2587 C 235.503 1.33935 -5.97267 0
M  V30 2588 N 234.64 2.3586 -6.61298 0
M  V30 2589 H 239.48 -0.248251 -2.96964 0
M  V30 2590 H 237.017 -0.134266 -1.46486 0
M  V30 2591 H 238.975 2.15783 -3.57062 0
M  V30 2592 H 237.605 2.12509 -2.42981 0
M  V30 2593 H 236.657 0.131583 -3.80172 0
M  V30 2594 H 237.969 0.391641 -4.9726 0
M  V30 2595 H 237.123 2.70211 -5.43204 0
M  V30 2596 H 235.862 2.50994 -4.18155 0
M  V30 2597 H 234.867 0.595896 -5.46561 0
M  V30 2598 H 236.092 0.810252 -6.74249 0
M  V30 2599 H 234.038 2.88639 -5.89087 0
M  V30 2600 H 233.955 1.90403 -7.3163 0
M  V30 2601 H 235.223 3.08282 -7.15949 0
M  V30 2602 N 239.452 1.56882 -0.150215 0
M  V30 2603 C 240.699 1.96228 0.500093 0
M  V30 2604 C 241.027 1.03522 1.64661 0
M  V30 2605 O 240.282 0.0650683 1.95592 0
M  V30 2606 C 240.581 3.41801 1.04437 0
M  V30 2607 C 240.247 4.50897 0.0159671 0
M  V30 2608 C 238.909 4.8046 -0.266731 0
M  V30 2609 C 241.261 5.16703 -0.683192 0
M  V30 2610 C 238.589 5.73135 -1.25434 0
M  V30 2611 C 240.941 6.10441 -1.65964 0
M  V30 2612 C 239.605 6.38382 -1.95 0
M  V30 2613 H 238.875 0.718048 0.182997 0
M  V30 2614 H 241.522 1.90019 -0.237724 0
M  V30 2615 H 239.827 3.44857 1.85959 0
M  V30 2616 H 241.524 3.69573 1.55618 0
M  V30 2617 H 238.114 4.27891 0.246485 0
M  V30 2618 H 242.298 4.93993 -0.477983 0
M  V30 2619 H 237.554 5.93074 -1.48571 0
M  V30 2620 H 241.728 6.60507 -2.20689 0
M  V30 2621 H 239.355 7.09996 -2.71679 0
M  V30 2622 N 240.93 -0.123565 1.57115 0
M  V30 2623 C 241.877 -1.15177 2.00007 0
M  V30 2624 C 242.847 -1.41403 0.871454 0
M  V30 2625 O 244.032 -1.53346 1.13533 0
M  V30 2626 C 241.172 -2.47436 2.40561 0
M  V30 2627 C 240.285 -2.28184 3.66819 0
M  V30 2628 C 239.42 -3.53641 3.96373 0
M  V30 2629 C 238.459 -3.29528 5.15827 0
M  V30 2630 N 237.596 -4.47175 5.41275 0
M  V30 2631 H 242.436 -0.779008 2.87638 0
M  V30 2632 H 239.973 -0.373166 1.42288 0
M  V30 2633 H 241.931 -3.24584 2.62109 0
M  V30 2634 H 240.561 -2.82614 1.55978 0
M  V30 2635 H 239.613 -1.41976 3.52912 0
M  V30 2636 H 240.925 -2.0634 4.5412 0
M  V30 2637 H 240.079 -4.39209 4.18545 0
M  V30 2638 H 238.818 -3.78512 3.07538 0
M  V30 2639 H 237.823 -2.42349 4.93505 0
M  V30 2640 H 239.048 -3.06031 6.06236 0
M  V30 2641 H 236.994 -4.72175 4.55397 0
M  V30 2642 H 236.911 -4.28419 6.22891 0
M  V30 2643 H 238.179 -5.3389 5.67963 0
M  V30 2644 N 242.408 -1.52605 -0.393616 0
M  V30 2645 C 243.633 -1.71592 -1.16495 0
M  V30 2646 C 244.058 -0.43133 -1.83088 0
M  V30 2647 O 243.416 0.612523 -1.7064 0
M  V30 2648 C 243.464 -2.86318 -2.19213 0
M  V30 2649 O 242.568 -2.52969 -3.257 0
M  V30 2650 H 241.909 -0.570734 -0.33935 0
M  V30 2651 H 244.439 -1.99377 -0.459324 0
M  V30 2652 H 244.449 -3.1168 -2.63286 0
M  V30 2653 H 243.124 -3.79511 -1.7013 0
M  V30 2654 H 241.701 -2.38332 -2.86797 0
M  V30 2655 N 243.887 0.651787 -1.4349 0
M  V30 2656 C 245.136 1.40754 -1.44469 0
M  V30 2657 C 245.449 1.95463 -0.0731845 0
M  V30 2658 O 246.655 2.71471 0.0395721 0
M  V30 2659 C 245.111 2.54735 -2.5424 0
M  V30 2660 C 244.719 2.06628 -3.97504 0
M  V30 2661 C 246.463 3.32092 -2.64414 0
M  V30 2662 C 244.37 3.17829 -4.98737 0
M  V30 2663 H 243.3 0.528862 -0.53742 0
M  V30 2664 H 245.951 0.703365 -1.69485 0
M  V30 2665 H 244.333 3.2763 -2.22428 0
M  V30 2666 H 245.507 1.40734 -4.38783 0
M  V30 2667 H 243.822 1.42146 -3.91387 0
M  V30 2668 H 246.419 4.14952 -3.37223 0
M  V30 2669 H 246.762 3.80217 -1.69532 0
M  V30 2670 H 247.295 2.66279 -2.95534 0
M  V30 2671 H 244.034 2.74671 -5.95177 0
M  V30 2672 H 243.554 3.82429 -4.62069 0
M  V30 2673 H 245.233 3.82937 -5.21505 0
M  V30 2674 N 245.365 1.30045 0.890287 0
M  V30 2675 C 246.312 1.15976 1.99545 0
M  V30 2676 C 247.282 0.0506202 1.66023 0
M  V30 2677 O 248.467 0.219847 1.89529 0
M  V30 2678 C 245.607 0.852054 3.34416 0
M  V30 2679 C 244.72 2.04255 3.80662 0
M  V30 2680 C 243.855 1.6734 5.04154 0
M  V30 2681 C 242.894 2.82916 5.42794 0
M  V30 2682 N 242.031 2.46333 6.57468 0
M  V30 2683 H 246.871 2.10524 2.10911 0
M  V30 2684 H 244.408 1.04749 1.03276 0
M  V30 2685 H 246.366 0.654296 4.12037 0
M  V30 2686 H 244.996 -0.0565502 3.2275 0
M  V30 2687 H 244.048 2.35172 2.98995 0
M  V30 2688 H 245.36 2.90826 4.05242 0
M  V30 2689 H 244.514 1.43908 5.89386 0
M  V30 2690 H 243.253 0.779308 4.81433 0
M  V30 2691 H 242.258 3.0702 4.56091 0
M  V30 2692 H 243.483 3.73004 5.6749 0
M  V30 2693 H 241.429 1.59423 6.36334 0
M  V30 2694 H 241.346 3.26436 6.81891 0
M  V30 2695 H 242.614 2.26244 7.45945 0
M  V30 2696 N 246.843 -1.10192 1.12674 0
M  V30 2697 C 248.071 -1.85983 0.906527 0
M  V30 2698 C 248.486 -1.80783 -0.544333 0
M  V30 2699 O 247.843 -1.19834 -1.37645 0
M  V30 2700 C 247.894 -3.34281 1.37618 0
M  V30 2701 O 247.615 -3.39401 2.77017 0
M  V30 2702 C 249.116 -4.26938 1.19325 0
M  V30 2703 H 246.336 -0.587716 0.323775 0
M  V30 2704 H 248.88 -1.39284 1.49734 0
M  V30 2705 H 247.035 -3.78436 0.828539 0
M  V30 2706 H 247.449 -4.31838 2.97684 0
M  V30 2707 H 248.923 -5.29181 1.57071 0
M  V30 2708 H 249.4 -4.38995 0.134097 0
M  V30 2709 H 250.006 -3.8859 1.72852 0
M  V30 2710 N 248.321 -0.919034 -1.28029 0
M  V30 2711 C 249.569 -0.553838 -1.94363 0
M  V30 2712 C 249.89 0.906357 -1.72656 0
M  V30 2713 O 249.16 1.64143 -1.0693 0
M  V30 2714 H 247.74 -0.201834 -0.719216 0
M  V30 2715 H 250.402 -1.16954 -1.55909 0
M  V30 2716 H 249.498 -0.752758 -3.02886 0
M  V30 2717 N 249.799 1.42003 -0.683588 0
M  V30 2718 C 251.215 1.55625 -0.353976 0
M  V30 2719 C 251.415 1.66151 1.14 0
M  V30 2720 O 250.471 1.63329 1.92561 0
M  V30 2721 C 251.784 2.80171 -1.092 0
M  V30 2722 C 253.332 2.93954 -1.07518 0
M  V30 2723 C 253.807 4.21372 -1.79471 0
M  V30 2724 N 255.298 4.28303 -1.76381 0
M  V30 2725 C 256.033 5.25729 -2.28904 0
M  V30 2726 N 255.529 6.29254 -2.89846 0
M  V30 2727 N 257.322 5.17586 -2.19228 0
M  V30 2728 H 249.473 1.33415 -1.6527 0
M  V30 2729 H 251.736 0.64282 -0.696769 0
M  V30 2730 H 251.442 2.78561 -2.14701 0
M  V30 2731 H 251.316 3.7133 -0.662862 0
M  V30 2732 H 253.703 2.95086 -0.028475 0
M  V30 2733 H 253.784 2.04002 -1.54328 0
M  V30 2734 H 253.428 4.21001 -2.84114 0
M  V30 2735 H 253.358 5.10275 -1.30104 0
M  V30 2736 H 255.849 3.54119 -1.31939 0
M  V30 2737 H 256.162 6.99964 -3.27522 0
M  V30 2738 H 254.507 6.29791 -2.93919 0
M  V30 2739 H 257.698 4.35631 -1.71299 0
M  V30 2740 H 257.871 5.93348 -2.60466 0
M  V30 2741 N 251.277 0.427512 1.51691 0
M  V30 2742 C 252.525 -0.141948 2.01601 0
M  V30 2743 C 252.846 -1.44067 1.31414 0
M  V30 2744 O 252.116 -1.90763 0.445658 0
M  V30 2745 H 250.696 -0.0554468 0.744939 0
M  V30 2746 H 253.358 0.567968 1.86441 0
M  V30 2747 H 252.454 -0.324913 3.10404 0
M  V30 2748 N 252.755 -1.56801 0.158532 0
M  V30 2749 C 254.166 -1.83189 -0.360366 0
M  V30 2750 C 254.517 -1.07778 -1.63946 0
M  V30 2751 O 253.642 -0.326718 -2.13919 0
M  V30 2752 C 254.237 -3.32297 -0.660595 0
M  V30 2753 C 252.796 -3.59227 -1.12398 0
M  V30 2754 C 251.943 -2.76877 -0.153097 0
M  V30 2755 H 254.894 -1.54008 0.383031 0
M  V30 2756 H 254.915 -3.4908 -1.51405 0
M  V30 2757 H 254.427 -3.87156 0.270527 0
M  V30 2758 H 252.528 -3.09766 -2.07064 0
M  V30 2759 H 252.641 -4.67632 -1.04197 0
M  V30 2760 H 251.005 -2.46319 -0.647983 0
M  V30 2761 H 251.788 -3.34511 0.77182 0
M  V30 2762 N 254.233 0.115231 -1.57178 0
M  V30 2763 C 255.163 1.1423 -2.03651 0
M  V30 2764 C 256.144 1.42967 -0.921655 0
M  V30 2765 O 257.329 1.53343 -1.19162 0
M  V30 2766 C 254.459 2.4675 -2.44401 0
M  V30 2767 C 253.413 2.32467 -3.59365 0
M  V30 2768 C 252.739 3.69984 -3.86026 0
M  V30 2769 C 254.039 1.78203 -4.90959 0
M  V30 2770 H 255.733 0.755749 -2.89705 0
M  V30 2771 H 253.279 0.362093 -1.39373 0
M  V30 2772 H 255.232 3.18854 -2.75517 0
M  V30 2773 H 253.956 2.87302 -1.55322 0
M  V30 2774 H 252.615 1.62811 -3.28463 0
M  V30 2775 H 252.263 4.08028 -2.94147 0
M  V30 2776 H 251.963 3.61279 -4.63412 0
M  V30 2777 H 253.487 4.43587 -4.19599 0
M  V30 2778 H 254.901 2.40128 -5.20587 0
M  V30 2779 H 253.298 1.8031 -5.72371 0
M  V30 2780 H 254.368 0.739876 -4.79222 0
M  V30 2781 N 255.711 1.52812 0.385517 0
M  V30 2782 C 256.959 1.67694 1.12797 0
M  V30 2783 C 257.28 0.421115 1.90399 0
M  V30 2784 O 256.55 -0.564551 1.87589 0
M  V30 2785 H 255.13 0.618155 0.419396 0
M  V30 2786 H 257.792 1.89938 0.436972 0
M  V30 2787 H 256.888 2.52896 1.82894 0
M  V30 2788 N 257.189 -0.644168 1.43834 0
M  V30 2789 C 258.6 -1.22554 1.40845 0
M  V30 2790 C 258.951 -1.9585 0.117115 0
M  V30 2791 O 258.076 -2.01734 -0.783086 0
M  V30 2792 C 258.671 -2.22907 2.55143 0
M  V30 2793 C 257.23 -2.76501 2.5539 0
M  V30 2794 C 256.377 -1.51287 2.32396 0
M  V30 2795 H 259.328 -0.43563 1.52604 0
M  V30 2796 H 259.349 -3.05259 2.2715 0
M  V30 2797 H 258.861 -1.69533 3.49114 0
M  V30 2798 H 256.962 -3.33914 1.65324 0
M  V30 2799 H 257.075 -3.23429 3.53455 0
M  V30 2800 H 255.439 -1.78957 1.81236 0
M  V30 2801 H 256.222 -0.998336 3.28463 0
M  V30 2802 N 258.668 -1.30515 -0.883378 0
M  V30 2803 C 259.616 -1.16941 -2.01066 0
M  V30 2804 C 260.61 -0.0809148 -1.69207 0
M  V30 2805 O 261.816 -0.241877 -1.78367 0
M  V30 2806 H 258.191 -0.361705 -0.659298 0
M  V30 2807 H 260.162 -2.12344 -2.09649 0
M  V30 2808 C 258.911 -0.879694 -3.36388 0
M  V30 2809 H 258.234 -1.70936 -3.61415 0
M  V30 2810 H 259.674 -0.82483 -4.159 0
M  V30 2811 C 258.133 0.417409 -3.34304 0
M  V30 2812 O 258.663 1.43843 -3.75063 0
M  V30 2813 N 256.869 0.429141 -2.87414 0
M  V30 2814 H 256.416 -0.402222 -2.5444 0
M  V30 2815 H 256.374 1.29696 -2.86403 0
M  V30 2816 N 260.146 1.09593 -1.13257 0
M  V30 2817 C 261.392 1.82181 -0.904521 0
M  V30 2818 C 261.747 1.83967 0.563358 0
M  V30 2819 O 261.04 1.29566 1.41149 0
M  V30 2820 C 261.234 3.27802 -1.42411 0
M  V30 2821 C 261.063 3.40201 -2.94097 0
M  V30 2822 C 259.833 3.52104 -3.62424 0
M  V30 2823 C 262.031 3.32875 -3.92044 0
M  V30 2824 N 260.013 3.53169 -5.0214 0
M  V30 2825 C 261.384 3.40789 -5.17941 0
M  V30 2826 C 263.439 3.16531 -3.84334 0
M  V30 2827 C 262.142 3.34042 -6.37031 0
M  V30 2828 C 264.168 3.11109 -5.02956 0
M  V30 2829 C 263.53 3.19614 -6.27715 0
M  V30 2830 H 259.629 0.681015 -0.384373 0
M  V30 2831 H 262.213 1.3099 -1.44048 0
M  V30 2832 H 260.384 3.77466 -0.915086 0
M  V30 2833 H 262.116 3.88393 -1.13722 0
M  V30 2834 H 258.871 3.5548 -3.12939 0
M  V30 2835 H 259.295 3.57291 -5.75041 0
M  V30 2836 H 263.937 3.08827 -2.88766 0
M  V30 2837 H 261.655 3.4051 -7.32857 0
M  V30 2838 H 265.241 2.99601 -4.98729 0
M  V30 2839 H 264.121 3.15432 -7.17964 0
M  V30 2840 N 261.624 0.925811 1.2754 0
M  V30 2841 C 262.571 0.422045 2.26908 0
M  V30 2842 C 263.541 -0.510029 1.58076 0
M  V30 2843 O 264.726 -0.429599 1.85901 0
M  V30 2844 C 261.866 -0.320837 3.43605 0
M  V30 2845 C 260.979 0.64513 4.27156 0
M  V30 2846 C 260.114 -0.117405 5.3107 0
M  V30 2847 C 259.153 0.841391 6.0629 0
M  V30 2848 N 258.29 0.111604 7.02011 0
M  V30 2849 H 263.13 1.27441 2.69375 0
M  V30 2850 H 260.667 0.639697 1.32462 0
M  V30 2851 H 262.625 -0.76785 4.10073 0
M  V30 2852 H 261.255 -1.13745 3.02096 0
M  V30 2853 H 260.307 1.21067 3.6062 0
M  V30 2854 H 261.619 1.37797 4.79389 0
M  V30 2855 H 260.773 -0.624422 6.03478 0
M  V30 2856 H 259.512 -0.883219 4.79636 0
M  V30 2857 H 258.517 1.35967 5.32722 0
M  V30 2858 H 259.742 1.60696 6.59813 0
M  V30 2859 H 257.688 -0.635999 6.5291 0
M  V30 2860 H 257.605 0.784044 7.51923 0
M  V30 2861 H 258.873 -0.374823 7.78598 0
M  V30 2862 N 263.102 -1.41638 0.69111 0
M  V30 2863 C 264.034 -2.29194 -0.0161523 0
M  V30 2864 C 265.047 -1.44549 -0.748955 0
M  V30 2865 O 266.236 -1.681 -0.6004 0
M  V30 2866 C 263.336 -3.22325 -1.0469 0
M  V30 2867 C 262.509 -4.35706 -0.384621 0
M  V30 2868 C 261.568 -5.09443 -1.31737 0
M  V30 2869 O 260.594 -5.63386 -0.811451 0
M  V30 2870 N 261.796 -5.16487 -2.64993 0
M  V30 2871 H 264.561 -2.90534 0.735523 0
M  V30 2872 H 262.122 -1.52742 0.53679 0
M  V30 2873 H 264.114 -3.68522 -1.67252 0
M  V30 2874 H 262.684 -2.62323 -1.70015 0
M  V30 2875 H 261.904 -3.91948 0.420804 0
M  V30 2876 H 263.192 -5.08743 0.0760765 0
M  V30 2877 H 262.59 -4.741 -3.08619 0
M  V30 2878 H 261.147 -5.66276 -3.22761 0
M  V30 2879 N 264.58 -0.43555 -1.51462 0
M  V30 2880 C 265.49 0.383001 -2.31453 0
M  V30 2881 C 266.506 1.02931 -1.4029 0
M  V30 2882 O 267.682 1.02507 -1.73362 0
M  V30 2883 C 264.747 1.47043 -3.13973 0
M  V30 2884 C 263.808 0.844433 -4.20913 0
M  V30 2885 C 263.041 1.88004 -4.9949 0
M  V30 2886 O 263.264 3.10199 -4.78678 0
M  V30 2887 O 262.198 1.47157 -5.83634 0
M  V30 2888 H 266.024 -0.269964 -3.02498 0
M  V30 2889 H 263.609 -0.19813 -1.4808 0
M  V30 2890 H 265.491 2.10113 -3.65281 0
M  V30 2891 H 264.166 2.10751 -2.45695 0
M  V30 2892 H 263.073 0.175729 -3.73687 0
M  V30 2893 H 264.406 0.250869 -4.9156 0
M  V30 2894 N 266.058 1.56714 -0.166846 0
M  V30 2895 C 266.988 2.20754 0.760913 0
M  V30 2896 C 267.969 1.16178 1.24244 0
M  V30 2897 O 269.154 1.44592 1.29641 0
M  V30 2898 C 266.284 2.84478 1.99223 0
M  V30 2899 C 265.238 3.95053 1.64672 0
M  V30 2900 C 264.564 4.45805 2.95232 0
M  V30 2901 C 265.864 5.14865 0.878155 0
M  V30 2902 H 267.558 2.98537 0.22713 0
M  V30 2903 H 265.104 1.43596 0.107805 0
M  V30 2904 H 267.057 3.27951 2.64624 0
M  V30 2905 H 265.781 2.04056 2.55007 0
M  V30 2906 H 264.44 3.52228 1.01641 0
M  V30 2907 H 264.088 3.62181 3.49047 0
M  V30 2908 H 263.788 5.204 2.7287 0
M  V30 2909 H 265.312 4.91962 3.6167 0
M  V30 2910 H 266.726 5.55059 1.43466 0
M  V30 2911 H 265.123 5.95348 0.753738 0
M  V30 2912 H 266.193 4.84735 -0.126377 0
M  V30 2913 N 267.536 -0.106894 1.57237 0
M  V30 2914 C 268.782 -0.81373 1.85759 0
M  V30 2915 C 269.115 -1.78952 0.754315 0
M  V30 2916 O 268.39 -1.93029 -0.23879 0
M  V30 2917 C 268.673 -1.55293 3.24894 0
M  V30 2918 C 268.526 -0.595929 4.45835 0
M  V30 2919 C 269.845 -2.5063 3.61763 0
M  V30 2920 H 266.964 -0.294369 0.67566 0
M  V30 2921 H 269.606 -0.0776472 1.89841 0
M  V30 2922 H 267.756 -2.1804 3.21544 0
M  V30 2923 H 269.428 0.0236262 4.61294 0
M  V30 2924 H 267.671 0.0916191 4.33703 0
M  V30 2925 H 268.342 -1.15004 5.39887 0
M  V30 2926 H 270.818 -1.97982 3.65981 0
M  V30 2927 H 269.694 -2.99376 4.60071 0
M  V30 2928 H 269.955 -3.3385 2.89821 0
M  V30 2929 N 269.014 -1.53014 -0.377408 0
M  V30 2930 C 269.962 -1.7927 -1.48206 0
M  V30 2931 C 270.956 -0.661195 -1.55963 0
M  V30 2932 O 272.162 -0.843908 -1.58991 0
M  V30 2933 H 268.537 -0.567425 -0.493491 0
M  V30 2934 H 270.508 -2.71753 -1.2326 0
M  V30 2935 C 269.257 -1.98894 -2.85196 0
M  V30 2936 H 268.58 -2.85395 -2.79981 0
M  V30 2937 H 270.02 -2.21249 -3.61698 0
M  V30 2938 C 268.479 -0.764691 -3.28107 0
M  V30 2939 O 269.009 0.0523226 -4.01666 0
M  V30 2940 N 267.215 -0.591493 -2.84517 0
M  V30 2941 H 266.762 -1.25749 -2.24822 0
M  V30 2942 H 266.72 0.226253 -3.13585 0
M  V30 2943 N 270.492 0.636531 -1.44174 0
M  V30 2944 C 271.424 1.7618 -1.46606 0
M  V30 2945 C 272.437 1.58768 -0.360091 0
M  V30 2946 O 273.626 1.67181 -0.625518 0
M  V30 2947 C 270.726 3.13833 -1.27915 0
M  V30 2948 C 269.899 3.57753 -2.51658 0
M  V30 2949 C 268.958 4.74265 -2.27945 0
M  V30 2950 O 267.984 4.82852 -3.01401 0
M  V30 2951 N 269.186 5.65604 -1.30662 0
M  V30 2952 H 271.951 1.74567 -2.43612 0
M  V30 2953 H 269.512 0.820924 -1.39544 0
M  V30 2954 H 271.504 3.8949 -1.09907 0
M  V30 2955 H 270.074 3.10121 -0.39293 0
M  V30 2956 H 269.294 2.72362 -2.84978 0
M  V30 2957 H 270.582 3.83847 -3.33974 0
M  V30 2958 H 269.98 5.61354 -0.699844 0
M  V30 2959 H 268.537 6.40913 -1.18634 0
M  V30 2960 N 271.97 1.30982 0.876444 0
M  V30 2961 C 272.917 1.18085 1.98304 0
M  V30 2962 C 273.887 0.0682263 1.6596 0
M  V30 2963 O 275.072 0.239937 1.89285 0
M  V30 2964 C 272.212 0.887475 3.33493 0
M  V30 2965 C 271.325 2.08281 3.78475 0
M  V30 2966 C 270.46 1.72678 5.0235 0
M  V30 2967 C 269.499 2.88657 5.39762 0
M  V30 2968 N 268.636 2.53292 6.54819 0
M  V30 2969 H 273.476 2.1275 2.08666 0
M  V30 2970 H 271.013 1.05839 1.02159 0
M  V30 2971 H 272.971 0.697961 4.1132 0
M  V30 2972 H 271.601 -0.022315 3.22792 0
M  V30 2973 H 270.653 2.3833 2.96484 0
M  V30 2974 H 271.965 2.95108 4.02135 0
M  V30 2975 H 271.119 1.50151 5.87826 0
M  V30 2976 H 269.858 0.830327 4.8058 0
M  V30 2977 H 268.863 3.1184 4.52809 0
M  V30 2978 H 270.088 3.79002 5.63502 0
M  V30 2979 H 268.034 1.66163 6.34607 0
M  V30 2980 H 267.951 3.3365 6.7839 0
M  V30 2981 H 269.219 2.34143 7.43503 0
M  V30 2982 N 273.449 -1.08991 1.13837 0
M  V30 2983 C 274.726 -1.77863 0.813876 0
M  V30 2984 C 275.106 -1.99375 -0.693746 0
M  V30 2985 O 274.454 -1.59875 -1.63255 0
M  V30 2986 C 274.664 -3.0986 1.60586 0
M  V30 2987 C 276.012 -3.84493 1.8014 0
M  V30 2988 O 277.036 -3.19624 1.57222 0
M  V30 2989 O 275.895 -5.00957 2.18413 0
M  V30 2990 H 272.989 -0.771589 0.297624 0
M  V30 2991 H 275.535 -1.15507 1.24323 0
M  V30 2992 H 274.307 -2.89715 2.63022 0
M  V30 2993 H 273.93 -3.79942 1.17173 0
M  V30 2994 N 274.927 -0.932562 -1.27047 0
M  V30 2995 C 276.167 -0.582919 -1.95912 0
M  V30 2996 C 276.531 0.860629 -1.71631 0
M  V30 2997 O 277.732 1.31878 -2.34225 0
M  V30 2998 C 276.003 -0.905673 -3.45734 0
M  V30 2999 S 277.562 -0.665277 -4.33727 0
M  V30 3000 H 274.38 -0.215 -0.677714 0
M  V30 3001 H 276.982 -1.20204 -1.54179 0
M  V30 3002 H 275.686 -1.95386 -3.60905 0
M  V30 3003 H 275.217 -0.275939 -3.92431 0
M  V30 3004 H 277.232 0.474635 -4.93925 0
M  V30 3005 N 276.405 1.4127 -0.698611 0
M  V30 3006 C 277.816 1.84187 -0.305289 0
M  V30 3007 C 278.167 1.58449 1.15708 0
M  V30 3008 O 277.292 1.05651 1.88856 0
M  V30 3009 C 277.887 3.3435 -0.547314 0
M  V30 3010 C 276.446 3.75826 -0.207878 0
M  V30 3011 C 275.593 2.64647 -0.828099 0
M  V30 3012 H 278.544 1.30778 -0.89904 0
M  V30 3013 H 278.565 3.8001 0.192998 0
M  V30 3014 H 278.077 3.53051 -1.61172 0
M  V30 3015 H 276.178 3.62725 0.852143 0
M  V30 3016 H 276.291 4.74462 -0.665021 0
M  V30 3017 H 274.655 2.53395 -0.257458 0
M  V30 3018 H 275.438 2.86165 -1.89643 0
M  V30 3019 N 277.883 0.443576 1.51229 0
M  V30 3020 C 279.113 -0.119117 2.06256 0
M  V30 3021 C 279.521 -1.36471 1.31043 0
M  V30 3022 O 278.864 -1.80034 0.365151 0
M  V30 3023 C 278.926 -0.500546 3.55998 0
M  V30 3024 C 278.59 0.639125 4.52509 0
M  V30 3025 C 279.587 1.51311 4.97394 0
M  V30 3026 C 277.272 0.821632 4.95535 0
M  V30 3027 C 279.266 2.55425 5.83984 0
M  V30 3028 C 276.953 1.86603 5.81913 0
M  V30 3029 C 277.951 2.73072 6.26036 0
M  V30 3030 O 277.639 3.75718 7.10698 0
M  V30 3031 H 277.371 -0.00857665 0.675946 0
M  V30 3032 H 279.925 0.623288 1.95715 0
M  V30 3033 H 278.155 -1.29575 3.64345 0
M  V30 3034 H 279.844 -0.995116 3.93513 0
M  V30 3035 H 280.61 1.38367 4.64844 0
M  V30 3036 H 276.489 0.158149 4.60729 0
M  V30 3037 H 280.033 3.22949 6.18344 0
M  V30 3038 H 275.93 1.99564 6.13876 0
M  V30 3039 H 276.698 3.72374 7.2889 0
M  V30 3040 N 279.361 -1.56624 0.175154 0
M  V30 3041 C 280.294 -2.14 -0.792412 0
M  V30 3042 C 281.272 -1.07114 -1.22333 0
M  V30 3043 O 282.456 -1.35112 -1.31442 0
M  V30 3044 C 279.583 -2.68268 -2.0676 0
M  V30 3045 C 278.629 -3.87562 -1.7804 0
M  V30 3046 S 279.462 -5.27074 -0.946222 0
M  V30 3047 C 280.618 -5.8475 -2.23199 0
M  V30 3048 H 280.851 -2.95736 -0.304588 0
M  V30 3049 H 278.384 -1.54349 -0.0395705 0
M  V30 3050 H 280.342 -3.00182 -2.80002 0
M  V30 3051 H 279.003 -1.86612 -2.52656 0
M  V30 3052 H 278.196 -4.23874 -2.72666 0
M  V30 3053 H 277.798 -3.56555 -1.12891 0
M  V30 3054 H 280.09 -5.97898 -3.18629 0
M  V30 3055 H 281.033 -6.81756 -1.91349 0
M  V30 3056 H 281.441 -5.13198 -2.35134 0
M  V30 3057 N 280.839 0.0985539 -1.57292 0
M  V30 3058 C 282.079 0.808332 -1.87737 0
M  V30 3059 C 282.443 1.7607 -0.76572 0
M  V30 3060 O 283.644 2.51358 -0.952499 0
M  V30 3061 C 281.915 1.52093 -3.23423 0
M  V30 3062 S 283.474 2.26947 -3.75554 0
M  V30 3063 H 280.292 0.269377 -0.657995 0
M  V30 3064 H 282.894 0.0656269 -1.9539 0
M  V30 3065 H 281.598 0.81363 -4.02254 0
M  V30 3066 H 281.129 2.30361 -3.189 0
M  V30 3067 H 283.144 3.53027 -3.48692 0
M  V30 3068 N 282.317 1.53212 0.369288 0
M  V30 3069 C 283.28 1.7872 1.43498 0
M  V30 3070 C 284.28 0.657554 1.46741 0
M  V30 3071 O 285.47 0.925736 1.47566 0
M  V30 3072 C 282.602 1.90591 2.82645 0
M  V30 3073 H 283.795 2.73894 1.22156 0
M  V30 3074 H 281.348 1.44233 0.602203 0
M  V30 3075 H 282.083 0.974709 3.09306 0
M  V30 3076 H 281.868 2.72751 2.8169 0
M  V30 3077 H 283.358 2.11931 3.59826 0
M  V30 3078 N 283.795 -0.628877 1.44509 0
M  V30 3079 C 285.025 -1.41349 1.50678 0
M  V30 3080 C 285.433 -1.88745 0.131075 0
M  V30 3081 O 284.776 -1.61592 -0.87371 0
M  V30 3082 C 284.838 -2.66608 2.41165 0
M  V30 3083 C 284.502 -2.40993 3.88293 0
M  V30 3084 C 285.499 -2.0268 4.78766 0
M  V30 3085 C 283.184 -2.54563 4.33016 0
M  V30 3086 C 285.178 -1.78269 6.11963 0
M  V30 3087 C 282.865 -2.29766 5.6626 0
M  V30 3088 C 283.863 -1.91678 6.55552 0
M  V30 3089 O 283.551 -1.67158 7.86329 0
M  V30 3090 H 283.283 -0.439851 0.51333 0
M  V30 3091 H 285.837 -0.776084 1.90174 0
M  V30 3092 H 284.067 -3.32994 1.96601 0
M  V30 3093 H 285.756 -3.28615 2.38259 0
M  V30 3094 H 286.522 -1.91751 4.45485 0
M  V30 3095 H 282.401 -2.83179 3.63773 0
M  V30 3096 H 285.945 -1.48465 6.81619 0
M  V30 3097 H 281.842 -2.40306 5.99102 0
M  V30 3098 H 282.61 -1.81386 7.98149 0
M  V30 3099 N 285.273 -1.31445 -0.869486 0
M  V30 3100 C 286.22 -1.19135 -1.97675 0
M  V30 3101 C 287.19 -0.0770266 -1.65921 0
M  V30 3102 O 288.375 -0.249972 -1.89155 0
M  V30 3103 C 285.515 -0.905149 -3.33018 0
M  V30 3104 C 284.628 -2.10285 -3.77365 0
M  V30 3105 C 283.763 -1.75339 -5.01427 0
M  V30 3106 C 282.802 -2.91515 -5.38224 0
M  V30 3107 N 281.939 -2.56762 -6.53466 0
M  V30 3108 H 286.779 -2.13853 -2.07535 0
M  V30 3109 H 284.316 -1.06379 -1.01597 0
M  V30 3110 H 286.274 -0.719765 -4.10944 0
M  V30 3111 H 284.904 0.00519624 -3.228 0
M  V30 3112 H 283.956 -2.39899 -2.95216 0
M  V30 3113 H 285.268 -2.97237 -4.00564 0
M  V30 3114 H 284.422 -1.53266 -5.87022 0
M  V30 3115 H 283.161 -0.855801 -4.80133 0
M  V30 3116 H 282.166 -3.14237 -4.51149 0
M  V30 3117 H 283.391 -3.81985 -5.61484 0
M  V30 3118 H 281.337 -1.69526 -6.33717 0
M  V30 3119 H 281.254 -3.37243 -6.76612 0
M  V30 3120 H 282.522 -2.38083 -7.42251 0
M  V30 3121 N 286.751 1.08385 -1.14413 0
M  V30 3122 C 287.681 2.17321 -0.854044 0
M  V30 3123 C 288.662 1.69024 0.191049 0
M  V30 3124 O 289.847 1.94141 0.0476779 0
M  V30 3125 C 286.977 3.45719 -0.330983 0
M  V30 3126 C 285.931 4.07409 -1.31155 0
M  V30 3127 C 285.257 5.30762 -0.64778 0
M  V30 3128 C 286.557 4.48665 -2.67388 0
M  V30 3129 H 288.251 2.41845 -1.76498 0
M  V30 3130 H 285.797 1.16233 -0.850051 0
M  V30 3131 H 287.75 4.21241 -0.115645 0
M  V30 3132 H 286.474 3.2075 0.615381 0
M  V30 3133 H 285.133 3.33919 -1.51306 0
M  V30 3134 H 284.781 5.02078 0.304398 0
M  V30 3135 H 284.481 5.72992 -1.30207 0
M  V30 3136 H 286.005 6.08998 -0.441972 0
M  V30 3137 H 287.419 5.15364 -2.51143 0
M  V30 3138 H 285.816 5.01814 -3.29093 0
M  V30 3139 H 286.886 3.60543 -3.24248 0
M  V30 3140 N 288.23 0.939286 1.26551 0
M  V30 3141 C 289.476 0.586715 1.94128 0
M  V30 3142 C 289.809 -0.8717 1.73537 0
M  V30 3143 O 289.084 -1.62339 1.07127 0
M  V30 3144 C 289.367 0.927497 3.4795 0
M  V30 3145 C 289.22 2.44052 3.77834 0
M  V30 3146 C 290.539 0.441569 4.37879 0
M  V30 3147 H 287.658 0.21463 0.705055 0
M  V30 3148 H 290.3 1.17316 1.49455 0
M  V30 3149 H 288.45 0.428431 3.8613 0
M  V30 3150 H 290.122 3.01216 3.4938 0
M  V30 3151 H 288.365 2.8848 3.23978 0
M  V30 3152 H 289.036 2.62947 4.85348 0
M  V30 3153 H 291.512 0.869448 4.06915 0
M  V30 3154 H 290.388 0.708856 5.44304 0
M  V30 3155 H 290.649 -0.658467 4.37169 0
M  V30 3156 N 289.708 -1.40897 0.706093 0
M  V30 3157 C 290.936 -2.05373 0.250887 0
M  V30 3158 C 291.351 -1.53172 -1.10381 0
M  V30 3159 O 290.708 -0.684305 -1.69185 0
M  V30 3160 C 290.759 -3.6088 0.211571 0
M  V30 3161 O 290.48 -4.11153 1.51276 0
M  V30 3162 C 291.981 -4.42517 -0.263346 0
M  V30 3163 H 289.201 -0.66115 0.114552 0
M  V30 3164 H 291.745 -1.80479 0.961635 0
M  V30 3165 H 289.9 -3.84777 -0.450073 0
M  V30 3166 H 290.314 -5.05279 1.40689 0
M  V30 3167 H 291.788 -5.51479 -0.239718 0
M  V30 3168 H 292.265 -4.19396 -1.30397 0
M  V30 3169 H 292.871 -4.23708 0.367677 0
M  V30 3170 N 291.186 -0.45159 -1.50991 0
M  V30 3171 C 292.432 0.110237 -2.025 0
M  V30 3172 C 292.765 1.41109 -1.33424 0
M  V30 3173 O 292.04 1.89135 -0.453659 0
M  V30 3174 C 292.323 0.314271 -3.58726 0
M  V30 3175 C 292.176 -1.00623 -4.38401 0
M  V30 3176 C 293.495 1.07767 -4.26702 0
M  V30 3177 H 290.614 0.0385897 -0.735989 0
M  V30 3178 H 293.256 -0.593374 -1.80497 0
M  V30 3179 H 291.406 0.913601 -3.77605 0
M  V30 3180 H 293.078 -1.64064 -4.31139 0
M  V30 3181 H 291.321 -1.6075 -4.02917 0
M  V30 3182 H 291.992 -0.817341 -5.45915 0
M  V30 3183 H 294.468 0.56986 -4.12179 0
M  V30 3184 H 293.344 1.18921 -5.35863 0
M  V30 3185 H 293.605 2.10939 -3.88532 0
M  V30 3186 N 292.664 1.56529 -0.183458 0
M  V30 3187 C 293.611 2.18546 0.742055 0
M  V30 3188 C 294.581 1.12912 1.2182 0
M  V30 3189 O 295.766 1.41115 1.28418 0
M  V30 3190 C 292.906 2.83977 1.96089 0
M  V30 3191 C 292.019 4.04105 1.52719 0
M  V30 3192 C 291.154 4.57427 2.70063 0
M  V30 3193 C 290.193 5.69938 2.23243 0
M  V30 3194 N 289.33 6.17717 3.33722 0
M  V30 3195 H 294.17 2.97284 0.206432 0
M  V30 3196 H 291.707 1.46823 0.0901571 0
M  V30 3197 H 293.665 3.20077 2.67594 0
M  V30 3198 H 292.295 2.07822 2.47002 0
M  V30 3199 H 291.347 3.73745 0.708436 0
M  V30 3200 H 292.659 4.85513 1.1436 0
M  V30 3201 H 291.813 4.95772 3.49708 0
M  V30 3202 H 290.552 3.75101 3.11689 0
M  V30 3203 H 289.557 5.31133 1.42048 0
M  V30 3204 H 290.782 6.54073 1.82661 0
M  V30 3205 H 288.728 5.38317 3.74902 0
M  V30 3206 H 288.645 6.94146 2.99495 0
M  V30 3207 H 289.913 6.60713 4.13616 0
M  V30 3208 N 294.142 -0.090211 1.57342 0
M  V30 3209 C 295.389 -0.792807 1.86335 0
M  V30 3210 C 295.717 -1.78494 0.772662 0
M  V30 3211 O 294.972 -1.94305 -0.233258 0
M  V30 3212 C 295.271 -1.55222 3.21933 0
M  V30 3213 C 294.937 -0.701765 4.45406 0
M  V30 3214 C 293.599 -0.467334 4.78925 0
M  V30 3215 C 295.951 -0.11086 5.21082 0
M  V30 3216 C 293.279 0.367785 5.85546 0
M  V30 3217 C 295.631 0.711609 6.28585 0
M  V30 3218 C 294.295 0.956086 6.60617 0
M  V30 3219 H 293.565 -0.290109 0.681849 0
M  V30 3220 H 296.212 -0.0541332 1.91423 0
M  V30 3221 H 294.517 -2.3626 3.12551 0
M  V30 3222 H 296.214 -2.10032 3.41595 0
M  V30 3223 H 292.804 -0.894598 4.1916 0
M  V30 3224 H 296.988 -0.279129 4.95514 0
M  V30 3225 H 292.244 0.566128 6.08773 0
M  V30 3226 H 296.418 1.17632 6.86393 0
M  V30 3227 H 294.045 1.60499 7.43064 0
M  V30 3228 N 295.62 -1.53406 -0.361157 0
M  V30 3229 C 296.567 -1.80156 -1.44265 0
M  V30 3230 C 297.537 -0.646183 -1.53015 0
M  V30 3231 O 298.722 -0.888818 -1.68833 0
M  V30 3232 C 295.862 -2.00116 -2.81154 0
M  V30 3233 C 294.975 -3.27833 -2.81335 0
M  V30 3234 C 294.11 -3.37957 -4.09828 0
M  V30 3235 C 293.149 -4.59689 -4.04168 0
M  V30 3236 N 292.286 -4.66942 -5.24318 0
M  V30 3237 H 297.126 -2.72438 -1.20754 0
M  V30 3238 H 294.663 -1.34954 -0.585296 0
M  V30 3239 H 296.621 -2.09677 -3.60682 0
M  V30 3240 H 295.251 -1.11167 -3.03054 0
M  V30 3241 H 294.303 -3.27204 -1.94014 0
M  V30 3242 H 295.615 -4.17442 -2.73027 0
M  V30 3243 H 294.769 -3.46853 -4.97773 0
M  V30 3244 H 293.508 -2.46372 -4.20894 0
M  V30 3245 H 292.513 -4.50889 -3.14609 0
M  V30 3246 H 293.738 -5.5262 -3.947 0
M  V30 3247 H 291.684 -3.7826 -5.35962 0
M  V30 3248 H 291.601 -5.50462 -5.18197 0
M  V30 3249 H 292.869 -4.80127 -6.14084 0
M  V30 3250 N 297.098 0.621204 -1.44841 0
M  V30 3251 C 298.344 1.38073 -1.49357 0
M  V30 3252 C 298.699 1.91973 -0.128115 0
M  V30 3253 O 297.992 1.71311 0.858087 0
M  V30 3254 C 298.186 2.55675 -2.4973 0
M  V30 3255 C 298.015 2.13289 -3.95901 0
M  V30 3256 C 296.785 2.001 -4.63991 0
M  V30 3257 C 298.983 1.7159 -4.84831 0
M  V30 3258 N 296.965 1.51381 -5.94943 0
M  V30 3259 C 298.336 1.34188 -6.05304 0
M  V30 3260 C 300.391 1.59059 -4.7181 0
M  V30 3261 C 299.094 0.855085 -7.14199 0
M  V30 3262 C 301.12 1.11784 -5.8074 0
M  V30 3263 C 300.482 0.753385 -7.0036 0
M  V30 3264 H 296.581 0.499675 -0.601539 0
M  V30 3265 H 299.165 0.711609 -1.8123 0
M  V30 3266 H 297.336 3.20201 -2.19832 0
M  V30 3267 H 299.068 3.22509 -2.4448 0
M  V30 3268 H 295.823 2.20863 -4.18947 0
M  V30 3269 H 296.247 1.29293 -6.64539 0
M  V30 3270 H 300.889 1.85865 -3.79755 0
M  V30 3271 H 298.607 0.574552 -8.06055 0
M  V30 3272 H 302.193 1.02533 -5.72694 0
M  V30 3273 H 301.073 0.393183 -7.83214 0
M  V30 3274 N 298.576 1.31904 0.862503 0
M  V30 3275 C 299.822 1.23207 1.61838 0
M  V30 3276 C 300.177 -0.206062 1.91293 0
M  V30 3277 O 299.47 -1.14162 1.53875 0
M  V30 3278 C 299.664 2.01713 2.95037 0
M  V30 3279 C 299.493 3.53014 2.78588 0
M  V30 3280 C 298.263 4.22359 2.77382 0
M  V30 3281 C 300.461 4.47819 2.52909 0
M  V30 3282 N 298.443 5.59766 2.52062 0
M  V30 3283 C 299.814 5.72947 2.36922 0
M  V30 3284 C 301.869 4.37162 2.38314 0
M  V30 3285 C 300.572 6.88623 2.07823 0
M  V30 3286 C 302.598 5.5263 2.10604 0
M  V30 3287 C 301.96 6.76752 1.95411 0
M  V30 3288 H 298.059 0.505984 0.596242 0
M  V30 3289 H 300.643 1.66179 1.01452 0
M  V30 3290 H 298.814 1.61098 3.53415 0
M  V30 3291 H 300.546 1.84975 3.59953 0
M  V30 3292 H 297.301 3.74401 2.90036 0
M  V30 3293 H 297.725 6.32135 2.42352 0
M  V30 3294 H 302.367 3.41857 2.48784 0
M  V30 3295 H 300.085 7.83948 1.9609 0
M  V30 3296 H 303.671 5.46307 2.00101 0
M  V30 3297 H 302.551 7.6459 1.74274 0
M  V30 3298 N 300.054 -1.07777 1.14986 0
M  V30 3299 C 301.302 -1.79934 0.920235 0
M  V30 3300 C 301.623 -1.86955 -0.554336 0
M  V30 3301 O 300.893 -1.36731 -1.40291 0
M  V30 3302 H 299.473 -0.666424 0.337473 0
M  V30 3303 H 302.135 -1.3027 1.44968 0
M  V30 3304 H 301.231 -2.82539 1.32583 0
M  V30 3305 N 301.532 -0.945985 -1.26051 0
M  V30 3306 C 302.462 -0.477172 -2.28572 0
M  V30 3307 C 303.443 0.472032 -1.63419 0
M  V30 3308 O 304.628 0.372853 -1.90587 0
M  V30 3309 C 301.758 0.253975 -3.4637 0
M  V30 3310 C 300.712 -0.609135 -4.23643 0
M  V30 3311 C 300.038 0.252252 -5.34105 0
M  V30 3312 C 301.338 -1.8829 -4.8718 0
M  V30 3313 H 303.032 -1.33402 -2.68038 0
M  V30 3314 H 300.578 -0.642904 -1.28852 0
M  V30 3315 H 302.531 0.593016 -4.17207 0
M  V30 3316 H 301.255 1.145 -3.05871 0
M  V30 3317 H 299.914 -0.931138 -3.54578 0
M  V30 3318 H 299.562 1.14278 -4.89846 0
M  V30 3319 H 299.262 -0.32188 -5.86718 0
M  V30 3320 H 300.786 0.586454 -6.07777 0
M  V30 3321 H 302.2 -1.61081 -5.50205 0
M  V30 3322 H 300.597 -2.40199 -5.49931 0
M  V30 3323 H 301.667 -2.59134 -4.09851 0
M  V30 3324 N 303.011 1.40521 -0.713556 0
M  V30 3325 C 303.943 2.29191 -0.0203126 0
M  V30 3326 C 304.956 1.45723 0.725864 0
M  V30 3327 O 306.145 1.69033 0.573581 0
M  V30 3328 C 303.245 3.2395 0.995486 0
M  V30 3329 C 302.418 4.36262 0.315256 0
M  V30 3330 C 301.477 5.11474 1.23616 0
M  V30 3331 O 300.503 5.64606 0.721719 0
M  V30 3332 N 301.705 5.20638 2.56743 0
M  V30 3333 H 304.47 2.89327 -0.781652 0
M  V30 3334 H 302.031 1.51869 -0.561022 0
M  V30 3335 H 304.023 3.71137 1.61368 0
M  V30 3336 H 302.593 2.64995 1.6582 0
M  V30 3337 H 301.813 3.91228 -0.483106 0
M  V30 3338 H 303.101 5.08558 -0.157004 0
M  V30 3339 H 302.499 4.7895 3.01037 0
M  V30 3340 H 301.056 5.71339 3.13712 0
M  V30 3341 N 304.489 0.459591 1.5075 0
M  V30 3342 C 305.437 -0.354678 2.2988 0
M  V30 3343 C 306.431 -1.00086 1.36672 0
M  V30 3344 O 307.637 -0.933277 1.53915 0
M  V30 3345 H 304.012 -0.13321 0.740107 0
M  V30 3346 H 305.983 0.333269 2.96533 0
M  V30 3347 C 304.732 -1.43073 3.169 0
M  V30 3348 H 304.055 -0.942882 3.88523 0
M  V30 3349 H 305.495 -1.97328 3.75284 0
M  V30 3350 C 303.954 -2.42633 2.33732 0
M  V30 3351 O 304.484 -3.47658 2.01238 0
M  V30 3352 N 302.69 -2.14066 1.9653 0
M  V30 3353 H 302.237 -1.28685 2.23155 0
M  V30 3354 H 302.195 -2.80917 1.41185 0
M  V30 3355 N 305.967 -1.56429 0.191757 0
M  V30 3356 C 306.914 -2.18936 -0.730454 0
M  V30 3357 C 307.884 -1.13557 -1.21219 0
M  V30 3358 O 309.069 -1.41794 -1.27668 0
M  V30 3359 C 306.209 -2.85013 -1.9458 0
M  V30 3360 C 305.322 -4.04909 -1.50574 0
M  V30 3361 C 304.457 -4.58853 -2.67634 0
M  V30 3362 C 303.496 -5.71114 -2.20217 0
M  V30 3363 N 302.633 -6.19478 -3.30442 0
M  V30 3364 H 307.473 -2.97389 -0.190664 0
M  V30 3365 H 305.01 -1.46869 -0.0823694 0
M  V30 3366 H 306.968 -3.21492 -2.65893 0
M  V30 3367 H 305.598 -2.09129 -2.45896 0
M  V30 3368 H 304.65 -3.74115 -0.688605 0
M  V30 3369 H 305.962 -4.86113 -1.11784 0
M  V30 3370 H 305.116 -4.97619 -3.47074 0
M  V30 3371 H 303.855 -3.76749 -3.09696 0
M  V30 3372 H 302.86 -5.31879 -1.3923 0
M  V30 3373 H 304.085 -6.55033 -1.79189 0
M  V30 3374 H 302.031 -5.40297 -3.72041 0
M  V30 3375 H 301.948 -6.95725 -2.9581 0
M  V30 3376 H 303.216 -6.62898 -4.10106 0
M  V30 3377 N 307.445 0.0818655 -1.57387 0
M  V30 3378 C 308.691 0.784074 -1.8703 0
M  V30 3379 C 309.024 1.77729 -0.782689 0
M  V30 3380 O 308.299 1.93384 0.208051 0
M  V30 3381 C 308.582 1.50105 -3.27323 0
M  V30 3382 C 308.435 0.524925 -4.46727 0
M  V30 3383 C 309.754 2.44843 -3.65705 0
M  V30 3384 H 306.873 0.283582 -0.680257 0
M  V30 3385 H 309.515 0.0474352 -1.89941 0
M  V30 3386 H 307.665 2.12897 -3.24972 0
M  V30 3387 H 309.337 -0.0970111 -4.61198 0
M  V30 3388 H 307.58 -0.160606 -4.33503 0
M  V30 3389 H 308.251 1.064 -5.41648 0
M  V30 3390 H 310.727 1.92135 -3.69085 0
M  V30 3391 H 309.603 2.92018 -4.64776 0
M  V30 3392 H 309.864 3.29197 -2.95096 0
M  V30 3393 N 308.923 1.53595 0.353017 0
M  V30 3394 C 309.833 1.83897 1.45667 0
M  V30 3395 C 310.849 0.728334 1.58023 0
M  V30 3396 O 312.025 1.01968 1.73679 0
M  V30 3397 C 309.09 2.03383 2.80778 0
M  V30 3398 C 308.151 3.27262 2.77845 0
M  V30 3399 C 307.384 3.45809 4.06512 0
M  V30 3400 O 307.607 2.68387 5.03314 0
M  V30 3401 O 306.541 4.39207 4.11559 0
M  V30 3402 H 310.367 2.77686 1.2298 0
M  V30 3403 H 307.952 1.39132 0.544308 0
M  V30 3404 H 309.834 2.17698 3.60812 0
M  V30 3405 H 308.509 1.12783 3.03417 0
M  V30 3406 H 307.416 3.18359 1.96465 0
M  V30 3407 H 308.749 4.17824 2.60161 0
M  V30 3408 N 310.401 -0.613514 1.45168 0
M  V30 3409 C 311.349 -1.74572 1.53712 0
M  V30 3410 C 312.343 -1.64426 0.407505 0
M  V30 3411 O 313.549 -1.70291 0.583176 0
M  V30 3412 H 309.924 -0.576641 0.48269 0
M  V30 3413 H 311.895 -1.64492 2.48968 0
M  V30 3414 C 310.644 -3.12943 1.51532 0
M  V30 3415 H 309.967 -3.21407 2.37776 0
M  V30 3416 H 311.407 -3.9201 1.61569 0
M  V30 3417 C 309.866 -3.36053 0.238798 0
M  V30 3418 O 310.396 -3.95837 -0.6838 0
M  V30 3419 N 308.602 -2.9028 0.136359 0
M  V30 3420 H 308.149 -2.41811 0.887999 0
M  V30 3421 H 308.107 -3.06116 -0.716944 0
M  V30 3422 N 311.879 -1.3236 -0.855495 0
M  V30 3423 C 313.126 -1.22872 -1.60962 0
M  V30 3424 C 313.454 0.209658 -1.93367 0
M  V30 3425 O 312.709 1.16243 -1.57436 0
M  V30 3426 C 313.008 -2.03275 -2.93963 0
M  V30 3427 C 312.674 -3.5264 -2.80991 0
M  V30 3428 C 311.336 -3.93364 -2.7716 0
M  V30 3429 C 313.688 -4.47626 -2.66983 0
M  V30 3430 C 311.016 -5.27319 -2.572 0
M  V30 3431 C 313.368 -5.81723 -2.48558 0
M  V30 3432 C 312.032 -6.2165 -2.4312 0
M  V30 3433 H 311.302 -0.44962 -0.589001 0
M  V30 3434 H 313.949 -1.63777 -0.992442 0
M  V30 3435 H 312.254 -1.55095 -3.59795 0
M  V30 3436 H 313.951 -1.93303 -3.51333 0
M  V30 3437 H 310.541 -3.20295 -2.84797 0
M  V30 3438 H 314.725 -4.17084 -2.68988 0
M  V30 3439 H 309.981 -5.57311 -2.51424 0
M  V30 3440 H 314.155 -6.5494 -2.36699 0
M  V30 3441 H 311.782 -7.25388 -2.27412 0
M  V30 3442 N 313.357 1.07166 -1.15556 0
M  V30 3443 C 314.606 1.79181 -0.926132 0
M  V30 3444 C 314.919 1.87768 0.547967 0
M  V30 3445 O 316.125 2.56323 0.895036 0
M  V30 3446 C 314.581 3.22 -1.60761 0
M  V30 3447 C 314.189 3.21607 -3.11886 0
M  V30 3448 C 315.933 3.9861 -1.4598 0
M  V30 3449 C 313.84 4.59092 -3.72812 0
M  V30 3450 H 312.77 0.67154 -0.342856 0
M  V30 3451 H 315.421 1.2027 -1.3859 0
M  V30 3452 H 313.803 3.81115 -1.07553 0
M  V30 3453 H 314.977 2.72127 -3.71865 0
M  V30 3454 H 313.292 2.58495 -3.2645 0
M  V30 3455 H 315.889 5.00225 -1.88888 0
M  V30 3456 H 316.232 4.143 -0.407541 0
M  V30 3457 H 316.765 3.45996 -1.96295 0
M  V30 3458 H 313.504 4.48606 -4.77946 0
M  V30 3459 H 313.024 5.08803 -3.17616 0
M  V30 3460 H 314.703 5.28059 -3.73848 0
M  V30 3461 N 314.835 0.952656 1.25548 0
M  V30 3462 C 315.785 0.442033 2.23674 0
M  V30 3463 C 316.769 -0.467632 1.53955 0
M  V30 3464 O 317.961 -0.301006 1.74422 0
M  V30 3465 C 315.09 -0.280816 3.4215 0
M  V30 3466 C 314.176 0.646803 4.19139 0
M  V30 3467 N 314.567 1.77759 4.73535 0
M  V30 3468 C 312.865 0.454617 4.43677 0
M  V30 3469 C 313.566 2.35658 5.31827 0
M  V30 3470 N 312.542 1.64333 5.18166 0
M  V30 3471 H 316.344 1.30505 2.63336 0
M  V30 3472 H 313.858 0.809904 1.40763 0
M  V30 3473 H 315.855 -0.663747 4.11582 0
M  V30 3474 H 314.515 -1.14046 3.04012 0
M  V30 3475 H 315.526 2.15949 4.7073 0
M  V30 3476 H 312.203 -0.362312 4.15925 0
M  V30 3477 H 313.593 3.30998 5.84713 0
M  V30 3478 N 316.313 -1.40141 0.720998 0
M  V30 3479 C 317.26 -2.30688 0.071919 0
M  V30 3480 C 318.23 -1.48476 -0.744584 0
M  V30 3481 O 319.415 -1.77201 -0.707423 0
M  V30 3482 C 316.555 -3.34724 -0.839855 0
M  V30 3483 C 315.668 -4.31998 -0.0122438 0
M  V30 3484 C 314.803 -5.23102 -0.923995 0
M  V30 3485 C 313.842 -6.12033 -0.0907969 0
M  V30 3486 N 312.979 -6.95537 -0.957718 0
M  V30 3487 H 317.819 -2.85628 0.849755 0
M  V30 3488 H 315.356 -1.40653 0.430726 0
M  V30 3489 H 317.314 -3.93618 -1.38279 0
M  V30 3490 H 315.944 -2.81274 -1.58381 0
M  V30 3491 H 314.996 -3.74841 0.64794 0
M  V30 3492 H 316.308 -4.94772 0.632595 0
M  V30 3493 H 315.462 -5.86953 -1.53527 0
M  V30 3494 H 314.201 -4.60615 -1.60264 0
M  V30 3495 H 313.206 -5.47207 0.533377 0
M  V30 3496 H 314.431 -6.76581 0.584428 0
M  V30 3497 H 312.377 -6.35633 -1.62192 0
M  V30 3498 H 312.294 -7.55099 -0.36904 0
M  V30 3499 H 313.562 -7.63832 -1.555 0
M  V30 3500 N 317.792 -0.46758 -1.50504 0
M  V30 3501 C 318.724 0.364655 -2.26281 0
M  V30 3502 C 319.737 0.960151 -1.31472 0
M  V30 3503 O 320.926 0.849153 -1.57008 0
M  V30 3504 C 318.026 1.52509 -3.02645 0
M  V30 3505 C 317.199 1.04302 -4.24782 0
M  V30 3506 C 316.258 2.07709 -4.8347 0
M  V30 3507 O 315.284 1.65913 -5.44483 0
M  V30 3508 N 316.486 3.40485 -4.70159 0
M  V30 3509 H 319.251 -0.28495 -2.98342 0
M  V30 3510 H 316.812 -0.298163 -1.59131 0
M  V30 3511 H 318.804 2.21371 -3.38787 0
M  V30 3512 H 317.374 2.07945 -2.33404 0
M  V30 3513 H 316.594 0.180393 -3.93787 0
M  V30 3514 H 317.882 0.698798 -5.03978 0
M  V30 3515 H 317.28 3.77155 -4.21629 0
M  V30 3516 H 315.837 4.05156 -5.1058 0
M  V30 3517 N 319.27 1.56325 -0.20005 0
M  V30 3518 C 320.18 2.22931 0.730668 0
M  V30 3519 C 321.196 1.22997 1.23076 0
M  V30 3520 O 322.372 1.55748 1.27689 0
M  V30 3521 C 319.437 2.87948 1.93098 0
M  V30 3522 C 318.498 4.03166 1.47497 0
M  V30 3523 C 317.731 4.65073 2.61807 0
M  V30 3524 O 317.954 4.25913 3.79413 0
M  V30 3525 O 316.888 5.54452 2.34237 0
M  V30 3526 H 320.714 3.03084 0.193391 0
M  V30 3527 H 318.299 1.49371 0.0294621 0
M  V30 3528 H 320.181 3.29063 2.6324 0
M  V30 3529 H 318.856 2.10771 2.45677 0
M  V30 3530 H 317.763 3.66664 0.742201 0
M  V30 3531 H 319.096 4.82022 0.995796 0
M  V30 3532 N 320.748 -0.0735177 1.57428 0
M  V30 3533 C 322.164 -0.428264 1.53747 0
M  V30 3534 C 322.364 -1.79272 0.91998 0
M  V30 3535 O 321.42 -2.47051 0.521745 0
M  V30 3536 C 322.733 -0.370914 2.98404 0
M  V30 3537 C 324.281 -0.451224 3.0973 0
M  V30 3538 C 324.756 -0.4238 4.56035 0
M  V30 3539 N 326.247 -0.483925 4.60665 0
M  V30 3540 C 326.982 -0.484891 5.71346 0
M  V30 3541 N 326.478 -0.440775 6.91396 0
M  V30 3542 N 328.271 -0.531319 5.59583 0
M  V30 3543 H 320.422 0.819949 1.95935 0
M  V30 3544 H 322.685 0.307493 0.896745 0
M  V30 3545 H 322.391 0.564956 3.47133 0
M  V30 3546 H 322.265 -1.18176 3.5821 0
M  V30 3547 H 324.652 -1.37752 2.60976 0
M  V30 3548 H 324.733 0.388167 2.52838 0
M  V30 3549 H 324.377 0.498638 5.05446 0
M  V30 3550 H 324.307 -1.2807 5.10789 0
M  V30 3551 H 326.798 -0.522338 3.74273 0
M  V30 3552 H 327.111 -0.44539 7.71515 0
M  V30 3553 H 325.456 -0.40749 6.93804 0
M  V30 3554 H 328.647 -0.563464 4.64696 0
M  V30 3555 H 328.82 -0.528603 6.4584 0
M  V30 3556 N 322.226 -1.5378 -0.344866 0
M  V30 3557 C 323.642 -1.44015 -0.687888 0
M  V30 3558 C 323.842 -0.595834 -1.92489 0
M  V30 3559 O 322.898 -0.0863064 -2.52352 0
M  V30 3560 C 324.211 -2.87481 -0.881758 0
M  V30 3561 C 325.759 -2.97247 -0.980459 0
M  V30 3562 C 326.234 -4.41819 -1.20665 0
M  V30 3563 N 327.725 -4.45339 -1.27389 0
M  V30 3564 C 328.46 -5.54333 -1.46639 0
M  V30 3565 N 327.956 -6.73335 -1.63071 0
M  V30 3566 N 329.749 -5.41944 -1.49176 0
M  V30 3567 H 321.9 -2.07169 0.468475 0
M  V30 3568 H 324.163 -0.93643 0.147655 0
M  V30 3569 H 323.869 -3.51672 -0.0443444 0
M  V30 3570 H 323.743 -3.32352 -1.78388 0
M  V30 3571 H 326.13 -2.33197 -1.8084 0
M  V30 3572 H 326.211 -2.5574 -0.0552713 0
M  V30 3573 H 325.855 -5.06449 -0.383652 0
M  V30 3574 H 325.785 -4.80917 -2.14539 0
M  V30 3575 H 328.276 -3.59585 -1.1622 0
M  V30 3576 H 328.589 -7.52165 -1.77391 0
M  V30 3577 H 326.934 -6.76282 -1.60209 0
M  V30 3578 H 330.125 -4.47932 -1.3592 0
M  V30 3579 H 330.298 -6.26946 -1.63837 0
M  V30 3580 N 323.704 0.605807 -1.45491 0
M  V30 3581 C 324.634 1.72709 -1.57143 0
M  V30 3582 C 325.615 1.6476 -0.422884 0
M  V30 3583 O 326.8 1.83132 -0.646247 0
M  V30 3584 C 323.93 3.11316 -1.53948 0
M  V30 3585 C 322.884 3.34077 -2.67537 0
M  V30 3586 C 322.21 4.72975 -2.49397 0
M  V30 3587 C 323.51 3.24158 -4.09535 0
M  V30 3588 H 325.204 1.63214 -2.51001 0
M  V30 3589 H 322.75 0.78379 -1.208 0
M  V30 3590 H 324.703 3.89557 -1.60696 0
M  V30 3591 H 323.427 3.21655 -0.566205 0
M  V30 3592 H 322.086 2.58227 -2.6022 0
M  V30 3593 H 321.734 4.8005 -1.50205 0
M  V30 3594 H 321.434 4.8916 -3.25571 0
M  V30 3595 H 322.958 5.53414 -2.58002 0
M  V30 3596 H 324.372 3.92271 -4.18086 0
M  V30 3597 H 322.769 3.51872 -4.86113 0
M  V30 3598 H 323.839 2.2157 -4.31317 0
M  V30 3599 N 325.182 1.32811 0.848464 0
M  V30 3600 C 326.429 1.23724 1.60308 0
M  V30 3601 C 326.757 -0.1994 1.93475 0
M  V30 3602 O 326.012 -1.15406 1.5805 0
M  V30 3603 C 326.311 2.04831 2.92881 0
M  V30 3604 C 325.977 3.54125 2.79117 0
M  V30 3605 C 324.639 3.94829 2.7507 0
M  V30 3606 C 326.991 4.49036 2.64606 0
M  V30 3607 C 324.319 5.28675 2.544 0
M  V30 3608 C 326.671 5.83033 2.4547 0
M  V30 3609 C 325.335 6.22931 2.39819 0
M  V30 3610 H 324.605 0.452737 0.586609 0
M  V30 3611 H 327.252 1.64301 0.983743 0
M  V30 3612 H 325.557 1.57001 3.58968 0
M  V30 3613 H 327.254 1.95164 3.50303 0
M  V30 3614 H 323.844 3.21801 2.83094 0
M  V30 3615 H 328.028 4.18505 2.66772 0
M  V30 3616 H 323.284 5.58637 2.48465 0
M  V30 3617 H 327.458 6.56186 2.33222 0
M  V30 3618 H 325.085 7.26584 2.23562 0
M  V30 3619 N 326.66 -1.06551 1.16123 0
M  V30 3620 C 327.888 -1.83005 0.965237 0
M  V30 3621 C 328.303 -1.82423 -0.486542 0
M  V30 3622 O 327.66 -1.24152 -1.33763 0
M  V30 3623 C 327.711 -3.29733 1.48183 0
M  V30 3624 O 327.432 -3.30416 2.87674 0
M  V30 3625 C 328.933 -4.22926 1.32848 0
M  V30 3626 H 326.153 -0.577118 0.342309 0
M  V30 3627 H 328.697 -1.3445 1.54089 0
M  V30 3628 H 326.852 -3.75609 0.948517 0
M  V30 3629 H 327.266 -4.22149 3.11272 0
M  V30 3630 H 328.74 -5.23916 1.73827 0
M  V30 3631 H 329.217 -4.38346 0.273692 0
M  V30 3632 H 329.823 -3.82894 1.85127 0
M  V30 3633 N 328.138 -0.959301 -1.25041 0
M  V30 3634 C 329.086 -0.474437 -2.2771 0
M  V30 3635 C 330.08 0.457697 -1.631 0
M  V30 3636 O 331.286 0.333912 -1.76876 0
M  V30 3637 H 327.661 -0.134936 -0.739795 0
M  V30 3638 H 329.632 -1.35251 -2.65988 0
M  V30 3639 C 328.381 0.227884 -3.46952 0
M  V30 3640 H 327.704 -0.480248 -3.96905 0
M  V30 3641 H 329.144 0.531091 -4.20661 0
M  V30 3642 C 327.603 1.452 -3.04004 0
M  V30 3643 O 328.133 2.54949 -3.10426 0
M  V30 3644 N 326.339 1.31502 -2.59144 0
M  V30 3645 H 325.886 0.422065 -2.54119 0
M  V30 3646 H 325.844 2.13521 -2.30773 0
M  V30 3647 N 329.616 1.39756 -0.72842 0
M  V30 3648 C 330.863 2.00645 -0.273487 0
M  V30 3649 C 331.191 1.57786 1.13727 0
M  V30 3650 O 330.446 0.794886 1.7883 0
M  V30 3651 C 330.745 3.56002 -0.315776 0
M  V30 3652 C 330.411 4.18489 -1.67863 0
M  V30 3653 C 329.073 4.3527 -2.05166 0
M  V30 3654 C 331.425 4.53219 -2.57375 0
M  V30 3655 C 328.753 4.84069 -3.31503 0
M  V30 3656 C 331.105 5.03423 -3.83077 0
M  V30 3657 C 329.769 5.18413 -4.20481 0
M  V30 3658 H 329.039 0.734211 -0.100076 0
M  V30 3659 H 331.686 1.6718 -0.933972 0
M  V30 3660 H 329.991 3.89452 0.428285 0
M  V30 3661 H 331.688 4.00963 0.0542575 0
M  V30 3662 H 328.278 4.05824 -1.37858 0
M  V30 3663 H 332.462 4.39878 -2.29827 0
M  V30 3664 H 327.718 4.93859 -3.60435 0
M  V30 3665 H 331.892 5.2927 -4.52599 0
M  V30 3666 H 329.519 5.55987 -5.18443 0
M  V30 3667 N 331.094 0.475555 1.50254 0
M  V30 3668 C 332.044 -0.335025 2.25525 0
M  V30 3669 C 333.028 -0.957625 1.29299 0
M  V30 3670 O 334.22 -0.869436 1.54175 0
M  V30 3671 C 331.349 -1.41385 3.12834 0
M  V30 3672 C 330.435 -0.798762 4.1651 0
M  V30 3673 N 330.826 0.0835815 5.05731 0
M  V30 3674 C 329.124 -1.06221 4.33166 0
M  V30 3675 C 329.825 0.433113 5.80085 0
M  V30 3676 N 328.801 -0.1928 5.43258 0
M  V30 3677 H 332.603 0.344612 2.91873 0
M  V30 3678 H 330.117 0.289986 1.5979 0
M  V30 3679 H 332.114 -2.00777 3.65368 0
M  V30 3680 H 330.774 -2.09543 2.48036 0
M  V30 3681 H 331.785 0.452715 5.15918 0
M  V30 3682 H 328.462 -1.73844 3.79585 0
M  V30 3683 H 329.852 1.15346 6.61925 0
M  V30 3684 N 332.573 -1.56217 0.208337 0
M  V30 3685 C 333.989 -1.58919 -0.14729 0
M  V30 3686 C 334.189 -1.22486 -1.59998 0
M  V30 3687 O 333.245 -0.953849 -2.3379 0
M  V30 3688 C 334.558 -3.00236 0.167048 0
M  V30 3689 C 336.106 -3.12813 0.108219 0
M  V30 3690 C 336.581 -4.56284 0.396049 0
M  V30 3691 N 338.072 -4.61912 0.345142 0
M  V30 3692 C 338.807 -5.70837 0.541523 0
M  V30 3693 N 338.303 -6.88178 0.798968 0
M  V30 3694 N 340.096 -5.60091 0.474867 0
M  V30 3695 H 332.247 -1.78177 1.15614 0
M  V30 3696 H 334.51 -0.827555 0.462446 0
M  V30 3697 H 334.216 -3.31499 1.1748 0
M  V30 3698 H 334.09 -3.7354 -0.524184 0
M  V30 3699 H 336.477 -2.81354 -0.890157 0
M  V30 3700 H 336.558 -2.41866 0.832729 0
M  V30 3701 H 336.202 -4.88458 1.3918 0
M  V30 3702 H 336.132 -5.25439 -0.349502 0
M  V30 3703 H 338.623 -3.77589 0.153316 0
M  V30 3704 H 338.936 -7.67095 0.93727 0
M  V30 3705 H 337.281 -6.89953 0.836013 0
M  V30 3706 H 340.472 -4.67297 0.274064 0
M  V30 3707 H 340.645 -6.44917 0.631326 0
M  V30 3708 N 334.051 0.0651679 -1.57465 0
M  V30 3709 C 334.983 1.10359 -2.00882 0
M  V30 3710 C 335.996 1.346 -0.915788 0
M  V30 3711 O 337.185 1.32723 -1.1936 0
M  V30 3712 C 334.285 2.45312 -2.33828 0
M  V30 3713 C 333.458 2.40934 -3.65061 0
M  V30 3714 C 332.517 3.58047 -3.85602 0
M  V30 3715 O 331.543 3.39175 -4.57109 0
M  V30 3716 N 332.745 4.78637 -3.28462 0
M  V30 3717 H 335.51 0.733807 -2.90578 0
M  V30 3718 H 333.071 0.253719 -1.599 0
M  V30 3719 H 335.063 3.22314 -2.44737 0
M  V30 3720 H 333.633 2.74267 -1.49988 0
M  V30 3721 H 332.853 1.49273 -3.64844 0
M  V30 3722 H 334.141 2.35117 -4.51218 0
M  V30 3723 H 333.539 4.96872 -2.70433 0
M  V30 3724 H 332.096 5.53127 -3.44809 0
M  V30 3725 N 335.529 1.53961 0.336706 0
M  V30 3726 C 336.459 1.85417 1.41925 0
M  V30 3727 C 337.44 0.709856 1.5458 0
M  V30 3728 O 338.625 0.962396 1.68676 0
M  V30 3729 C 335.755 2.06985 2.78881 0
M  V30 3730 C 334.709 3.22813 2.81026 0
M  V30 3731 C 334.035 3.29727 4.20932 0
M  V30 3732 C 335.335 4.60767 2.45949 0
M  V30 3733 H 337.029 2.76079 1.15848 0
M  V30 3734 H 334.575 1.32839 0.555859 0
M  V30 3735 H 336.528 2.27575 3.54665 0
M  V30 3736 H 335.252 1.13061 3.06406 0
M  V30 3737 H 333.911 3.0209 2.07695 0
M  V30 3738 H 333.559 2.33385 4.45579 0
M  V30 3739 H 333.259 4.07566 4.23277 0
M  V30 3740 H 334.783 3.52536 4.98549 0
M  V30 3741 H 336.197 4.81325 3.11446 0
M  V30 3742 H 334.594 5.4106 2.59566 0
M  V30 3743 H 335.664 4.6391 1.41122 0
M  V30 3744 N 337.007 -0.598083 1.45811 0
M  V30 3745 C 338.254 -1.35681 1.50323 0
M  V30 3746 C 338.582 -1.9393 0.148739 0
M  V30 3747 O 337.837 -1.76094 -0.853787 0
M  V30 3748 C 338.136 -2.51669 2.53766 0
M  V30 3749 C 337.802 -2.11508 3.98215 0
M  V30 3750 C 336.464 -2.0027 4.37545 0
M  V30 3751 C 338.816 -1.80308 4.89018 0
M  V30 3752 C 336.144 -1.56067 5.65562 0
M  V30 3753 C 338.496 -1.37589 6.17456 0
M  V30 3754 C 337.16 -1.24916 6.55708 0
M  V30 3755 H 336.43 -0.496492 0.550069 0
M  V30 3756 H 339.077 -0.675052 1.79207 0
M  V30 3757 H 337.382 -3.25225 2.18486 0
M  V30 3758 H 339.079 -3.09895 2.54492 0
M  V30 3759 H 335.669 -2.21185 3.67117 0
M  V30 3760 H 339.853 -1.87884 4.59362 0
M  V30 3761 H 335.109 -1.44886 5.93985 0
M  V30 3762 H 339.283 -1.12495 6.87254 0
M  V30 3763 H 336.91 -0.904386 7.54801 0
M  V30 3764 N 338.485 -1.33259 -0.841409 0
M  V30 3765 C 339.725 -1.25902 -1.61022 0
M  V30 3766 C 340.089 0.173325 -1.91216 0
M  V30 3767 O 341.29 0.370824 -2.6623 0
M  V30 3768 C 339.561 -2.10735 -2.88662 0
M  V30 3769 S 341.12 -2.20541 -3.79351 0
M  V30 3770 H 337.938 -0.447958 -0.552137 0
M  V30 3771 H 340.54 -1.68263 -0.995382 0
M  V30 3772 H 339.244 -3.1384 -2.64448 0
M  V30 3773 H 338.775 -1.69201 -3.55154 0
M  V30 3774 H 340.79 -1.36462 -4.77067 0
M  V30 3775 N 339.963 1.05934 -1.16686 0
M  V30 3776 C 341.209 1.79211 -0.962023 0
M  V30 3777 C 341.564 1.85667 0.504545 0
M  V30 3778 O 340.857 1.33991 1.36956 0
M  V30 3779 C 341.051 3.23105 -1.52767 0
M  V30 3780 C 340.88 3.30673 -3.04771 0
M  V30 3781 C 339.65 3.40395 -3.73442 0
M  V30 3782 C 341.848 3.20234 -4.02436 0
M  V30 3783 N 339.83 3.37015 -5.13122 0
M  V30 3784 C 341.201 3.24138 -5.28521 0
M  V30 3785 C 343.256 3.04143 -3.9421 0
M  V30 3786 C 341.959 3.13607 -6.47336 0
M  V30 3787 C 343.985 2.94951 -5.12599 0
M  V30 3788 C 343.347 2.99481 -6.37566 0
M  V30 3789 H 339.446 0.668442 -0.405844 0
M  V30 3790 H 342.03 1.26341 -1.48142 0
M  V30 3791 H 340.201 3.74364 -1.03471 0
M  V30 3792 H 341.933 3.84579 -1.26021 0
M  V30 3793 H 338.688 3.45344 -3.2409 0
M  V30 3794 H 339.112 3.38815 -5.86117 0
M  V30 3795 H 343.754 2.99484 -2.98445 0
M  V30 3796 H 341.472 3.17022 -7.43319 0
M  V30 3797 H 345.058 2.83583 -5.08008 0
M  V30 3798 H 343.938 2.92431 -7.27636 0
M  V30 3799 N 341.441 0.965919 1.2453 0
M  V30 3800 C 342.371 0.513476 2.27784 0
M  V30 3801 C 343.352 -0.445974 1.6415 0
M  V30 3802 O 344.537 -0.342485 1.91156 0
M  V30 3803 C 341.667 -0.198839 3.4673 0
M  V30 3804 C 340.621 0.676456 4.2262 0
M  V30 3805 C 339.947 -0.167248 5.34438 0
M  V30 3806 C 341.247 1.96017 4.84123 0
M  V30 3807 H 342.941 1.3765 2.65881 0
M  V30 3808 H 340.487 0.663321 1.27813 0
M  V30 3809 H 342.44 -0.526567 4.18097 0
M  V30 3810 H 341.164 -1.0962 3.07654 0
M  V30 3811 H 339.823 0.98743 3.53052 0
M  V30 3812 H 339.471 -1.0647 4.91603 0
M  V30 3813 H 339.171 0.415181 5.86131 0
M  V30 3814 H 340.695 -0.489688 6.08633 0
M  V30 3815 H 342.109 1.69814 5.47573 0
M  V30 3816 H 340.506 2.48918 5.4604 0
M  V30 3817 H 341.576 2.65622 4.05676 0
M  V30 3818 N 342.919 -1.39368 0.735821 0
M  V30 3819 C 344.196 -1.94465 0.210395 0
M  V30 3820 C 344.576 -1.67254 -1.28799 0
M  V30 3821 O 343.924 -1.00123 -2.05396 0
M  V30 3822 C 344.134 -3.4472 0.544897 0
M  V30 3823 C 345.482 -4.21708 0.494689 0
M  V30 3824 O 346.506 -3.52922 0.482136 0
M  V30 3825 O 345.365 -5.44299 0.489947 0
M  V30 3826 H 342.459 -0.826096 0.0386666 0
M  V30 3827 H 345.005 -1.48863 0.814735 0
M  V30 3828 H 343.777 -3.57963 1.58045 0
M  V30 3829 H 343.4 -3.97502 -0.08837 0
M  V30 3830 N 344.397 -0.483516 -1.5 0
M  V30 3831 C 345.344 0.304164 -2.28787 0
M  V30 3832 C 346.314 0.976114 -1.34392 0
M  V30 3833 O 347.499 0.986156 -1.63339 0
M  V30 3834 C 344.639 1.37298 -3.16612 0
M  V30 3835 C 343.752 0.714561 -4.26049 0
M  V30 3836 C 342.887 1.76232 -5.01114 0
M  V30 3837 C 341.926 1.08483 -6.0241 0
M  V30 3838 N 341.063 2.076 -6.70706 0
M  V30 3839 H 345.903 -0.373981 -2.95644 0
M  V30 3840 H 343.44 -0.196275 -1.45785 0
M  V30 3841 H 345.398 2.00445 -3.65893 0
M  V30 3842 H 344.028 2.02012 -2.51776 0
M  V30 3843 H 343.08 -0.0297798 -3.80388 0
M  V30 3844 H 344.392 0.180383 -4.98474 0
M  V30 3845 H 343.546 2.46929 -5.54176 0
M  V30 3846 H 342.285 2.33033 -4.28424 0
M  V30 3847 H 341.29 0.363545 -5.48597 0
M  V30 3848 H 342.515 0.523551 -6.77079 0
M  V30 3849 H 340.461 2.63394 -6.00799 0
M  V30 3850 H 340.378 1.59201 -7.39047 0
M  V30 3851 H 341.646 2.77639 -7.2838 0
M  V30 3852 N 345.875 1.56104 -0.216619 0
M  V30 3853 C 347.121 1.99219 0.410301 0
M  V30 3854 C 347.476 1.10169 1.57735 0
M  V30 3855 O 346.769 0.150598 1.91007 0
M  V30 3856 C 346.963 3.45923 0.898464 0
M  V30 3857 C 346.792 4.49163 -0.219748 0
M  V30 3858 C 345.562 5.00642 -0.684516 0
M  V30 3859 C 347.76 5.03751 -1.03629 0
M  V30 3860 N 345.742 5.87579 -1.7783 0
M  V30 3861 C 347.113 5.87566 -1.97904 0
M  V30 3862 C 349.168 4.86128 -1.07629 0
M  V30 3863 C 347.871 6.5564 -2.95851 0
M  V30 3864 C 349.897 5.54958 -2.04392 0
M  V30 3865 C 349.259 6.38536 -2.97407 0
M  V30 3866 H 345.358 0.773206 0.11695 0
M  V30 3867 H 347.942 1.9193 -0.327258 0
M  V30 3868 H 346.113 3.53669 1.6054 0
M  V30 3869 H 347.845 3.75963 1.49779 0
M  V30 3870 H 344.6 4.72807 -0.27399 0
M  V30 3871 H 345.024 6.3575 -2.32705 0
M  V30 3872 H 349.666 4.21168 -0.371099 0
M  V30 3873 H 347.384 7.19785 -3.67335 0
M  V30 3874 H 350.97 5.43289 -2.08154 0
M  V30 3875 H 349.85 6.90858 -3.71059 0
M  V30 3876 N 347.353 -0.0568162 1.57498 0
M  V30 3877 C 348.599 -0.75422 1.88253 0
M  V30 3878 C 348.932 -1.76461 0.810865 0
M  V30 3879 O 348.207 -1.93691 -0.177259 0
M  V30 3880 C 348.49 -1.44878 3.2967 0
M  V30 3881 C 348.343 -0.453789 4.47505 0
M  V30 3882 C 349.662 -2.38994 3.69554 0
M  V30 3883 H 346.781 -0.272724 0.684683 0
M  V30 3884 H 349.423 -0.0172113 1.89992 0
M  V30 3885 H 347.573 -2.077 3.28318 0
M  V30 3886 H 349.245 0.170371 4.60985 0
M  V30 3887 H 347.488 0.229552 4.33192 0
M  V30 3888 H 348.159 -0.977699 5.43273 0
M  V30 3889 H 350.635 -1.86239 3.72095 0
M  V30 3890 H 349.511 -2.84587 4.69363 0
M  V30 3891 H 349.772 -3.24461 3.00296 0
M  V30 3892 N 348.832 -1.54138 -0.328536 0
M  V30 3893 C 350.109 -1.62749 -1.08499 0
M  V30 3894 C 350.489 -0.458198 -2.06067 0
M  V30 3895 O 349.837 0.548046 -2.2183 0
M  V30 3896 C 350.047 -2.99519 -1.79135 0
M  V30 3897 C 351.395 -3.55394 -2.32337 0
M  V30 3898 O 352.419 -3.01792 -1.89209 0
M  V30 3899 O 351.278 -4.49186 -3.11279 0
M  V30 3900 H 348.372 -0.65886 -0.499832 0
M  V30 3901 H 350.918 -1.66484 -0.328826 0
M  V30 3902 H 349.69 -3.76061 -1.08139 0
M  V30 3903 H 349.313 -2.99441 -2.61574 0
M  V30 3904 N 350.31 0.590341 -1.46126 0
M  V30 3905 C 351.24 1.71032 -1.58966 0
M  V30 3906 C 352.221 1.64302 -0.440335 0
M  V30 3907 O 353.406 1.82436 -0.665634 0
M  V30 3908 C 350.536 3.09665 -1.57241 0
M  V30 3909 C 349.49 3.31221 -2.71066 0
M  V30 3910 C 348.816 4.70303 -2.54399 0
M  V30 3911 C 350.116 3.19796 -4.1295 0
M  V30 3912 H 351.81 1.60543 -2.52718 0
M  V30 3913 H 349.356 0.770933 -1.21625 0
M  V30 3914 H 351.309 3.87831 -1.64819 0
M  V30 3915 H 350.033 3.21036 -0.600289 0
M  V30 3916 H 348.692 2.55452 -2.62944 0
M  V30 3917 H 348.34 4.78429 -1.55288 0
M  V30 3918 H 348.04 4.85679 -3.30741 0
M  V30 3919 H 349.564 5.50647 -2.63857 0
M  V30 3920 H 350.978 3.87815 -4.22223 0
M  V30 3921 H 349.375 3.46696 -4.89818 0
M  V30 3922 H 350.445 2.16983 -4.33643 0
M  V30 3923 N 351.788 1.33704 0.83433 0
M  V30 3924 C 353.016 1.28467 1.62185 0
M  V30 3925 C 353.431 -0.143526 1.88254 0
M  V30 3926 O 352.788 -1.08709 1.4659 0
M  V30 3927 C 352.839 2.06174 2.96942 0
M  V30 3928 O 352.56 3.43422 2.72016 0
M  V30 3929 C 354.061 2.08201 3.91366 0
M  V30 3930 H 351.281 0.4424 0.504503 0
M  V30 3931 H 353.825 1.76145 1.03891 0
M  V30 3932 H 351.98 1.62167 3.51825 0
M  V30 3933 H 352.394 3.83453 3.57861 0
M  V30 3934 H 353.868 2.67017 4.83121 0
M  V30 3935 H 354.345 1.07343 4.2588 0
M  V30 3936 H 354.951 2.52246 3.42421 0
M  V30 3937 N 353.266 -1.05314 1.17247 0
M  V30 3938 C 354.199 -2.12512 0.831507 0
M  V30 3939 C 355.177 -1.61351 -0.201168 0
M  V30 3940 O 356.361 -1.88317 -0.0829831 0
M  V30 3941 C 353.488 -3.37848 0.24015 0
M  V30 3942 C 352.534 -4.07832 1.24801 0
M  V30 3943 S 353.367 -4.56537 2.79882 0
M  V30 3944 C 354.523 -5.85122 2.22223 0
M  V30 3945 H 354.756 -2.41106 1.7394 0
M  V30 3946 H 352.289 -1.17896 0.996988 0
M  V30 3947 H 354.247 -4.10391 -0.0945588 0
M  V30 3948 H 352.908 -3.07392 -0.645668 0
M  V30 3949 H 352.101 -4.97883 0.78287 0
M  V30 3950 H 351.703 -3.41348 1.52831 0
M  V30 3951 H 353.995 -6.58408 1.59703 0
M  V30 3952 H 354.938 -6.36381 3.10523 0
M  V30 3953 H 355.346 -5.39626 1.65722 0
M  V30 3954 N 354.744 -0.972509 -1.24016 0
M  V30 3955 C 356.021 -0.553733 -1.87598 0
M  V30 3956 C 356.401 0.969158 -1.87538 0
M  V30 3957 O 355.749 1.84255 -1.35139 0
M  V30 3958 C 355.959 -1.15076 -3.29482 0
M  V30 3959 C 357.307 -1.23862 -4.06132 0
M  V30 3960 O 358.331 -1.10363 -3.38672 0
M  V30 3961 O 357.19 -1.45252 -5.26844 0
M  V30 3962 H 354.284 -0.185331 -0.805966 0
M  V30 3963 H 356.83 -1.06709 -1.31952 0
M  V30 3964 H 355.602 -2.19333 -3.2405 0
M  V30 3965 H 355.225 -0.621746 -3.92709 0
M  V30 3966 N 356.222 1.38976 -0.743202 0
M  V30 3967 C 357.499 1.94351 -0.220705 0
M  V30 3968 C 357.879 1.67935 1.2791 0
M  V30 3969 O 357.227 1.01211 2.04862 0
M  V30 3970 C 357.437 3.44426 -0.563171 0
M  V30 3971 C 358.785 4.2144 -0.517046 0
M  V30 3972 O 359.809 3.52661 -0.500846 0
M  V30 3973 O 358.668 5.44032 -0.518806 0
M  V30 3974 H 355.762 0.825879 -0.043047 0
M  V30 3975 H 358.308 1.48429 -0.822618 0
M  V30 3976 H 357.08 3.5712 -1.59941 0
M  V30 3977 H 356.703 3.97543 0.0672883 0
M  V30 3978 N 357.7 0.491464 1.49741 0
M  V30 3979 C 358.949 -0.0582189 2.01616 0
M  V30 3980 C 359.262 -1.38927 1.3769 0
M  V30 3981 O 360.468 -2.02509 1.80838 0
M  V30 3982 C 358.924 -0.154235 3.59569 0
M  V30 3983 C 358.532 1.1696 4.32463 0
M  V30 3984 C 360.276 -0.65479 4.1942 0
M  V30 3985 C 358.183 1.03627 5.8225 0
M  V30 3986 H 357.113 -0.0255317 0.753568 0
M  V30 3987 H 359.764 0.629445 1.72367 0
M  V30 3988 H 358.146 -0.906138 3.85493 0
M  V30 3989 H 359.32 1.93405 4.18248 0
M  V30 3990 H 357.635 1.60285 3.84315 0
M  V30 3991 H 360.232 -0.771903 5.29099 0
M  V30 3992 H 360.575 -1.65127 3.8215 0
M  V30 3993 H 361.108 0.040304 3.9778 0
M  V30 3994 H 357.847 2.00672 6.24028 0
M  V30 3995 H 357.367 0.312546 5.98985 0
M  V30 3996 H 359.046 0.711114 6.4308 0
M  V30 3997 N 359.178 -1.55987 0.224894 0
M  V30 3998 C 360.594 -1.59066 -0.130426 0
M  V30 3999 C 360.794 -1.24176 -1.5869 0
M  V30 4000 O 359.85 -0.978592 -2.32766 0
M  V30 4001 C 361.163 -3.00042 0.198883 0
M  V30 4002 C 362.711 -3.1268 0.141391 0
M  V30 4003 C 363.186 -4.55839 0.444422 0
M  V30 4004 N 364.677 -4.6152 0.394115 0
M  V30 4005 C 365.412 -5.70231 0.602038 0
M  V30 4006 N 364.908 -6.87291 0.871914 0
M  V30 4007 N 366.701 -5.59555 0.534245 0
M  V30 4008 H 358.852 -1.76941 1.17497 0
M  V30 4009 H 361.115 -0.822604 0.471197 0
M  V30 4010 H 360.821 -3.30234 1.2099 0
M  V30 4011 H 360.695 -3.74075 -0.484535 0
M  V30 4012 H 363.082 -2.82283 -0.860265 0
M  V30 4013 H 363.163 -2.40969 0.858335 0
M  V30 4014 H 362.807 -4.86954 1.44353 0
M  V30 4015 H 362.737 -5.2578 -0.293752 0
M  V30 4016 H 365.228 -3.77405 0.193356 0
M  V30 4017 H 365.541 -7.66058 1.01858 0
M  V30 4018 H 363.886 -6.89028 0.909145 0
M  V30 4019 H 367.077 -4.6698 0.323612 0
M  V30 4020 H 367.25 -6.44211 0.699693 0
M  V30 4021 N 360.656 0.0484629 -1.57525 0
M  V30 4022 C 362.072 0.40375 -1.54409 0
M  V30 4023 C 362.272 1.77786 -0.948384 0
M  V30 4024 O 361.328 2.46189 -0.560983 0
M  V30 4025 C 362.641 0.323394 -2.98956 0
M  V30 4026 C 364.189 0.401892 -3.10409 0
M  V30 4027 C 364.664 0.351195 -4.56652 0
M  V30 4028 N 366.155 0.410576 -4.61377 0
M  V30 4029 C 366.89 0.393933 -5.72045 0
M  V30 4030 N 366.386 0.330724 -6.9201 0
M  V30 4031 N 368.179 0.442227 -5.60358 0
M  V30 4032 H 360.33 -0.851016 -1.94606 0
M  V30 4033 H 362.593 -0.321721 -0.89174 0
M  V30 4034 H 362.299 -0.62011 -3.4619 0
M  V30 4035 H 362.173 1.12463 -3.60044 0
M  V30 4036 H 364.56 1.33582 -2.63134 0
M  V30 4037 H 364.641 -0.428342 -2.52188 0
M  V30 4038 H 364.285 -0.578987 -5.04589 0
M  V30 4039 H 364.215 1.19928 -5.12762 0
M  V30 4040 H 366.706 0.462729 -3.75056 0
M  V30 4041 H 367.019 0.322592 -7.72126 0
M  V30 4042 H 365.364 0.29706 -6.94365 0
M  V30 4043 H 368.555 0.489464 -4.65534 0
M  V30 4044 H 368.728 0.425788 -6.466 0
M  V30 4045 N 362.134 1.5431 0.320358 0
M  V30 4046 C 363.067 1.78769 1.41834 0
M  V30 4047 C 364.045 0.63783 1.49568 0
M  V30 4048 O 365.229 0.875628 1.66928 0
M  V30 4049 C 362.356 1.90712 2.79905 0
M  V30 4050 C 361.402 3.13023 2.89687 0
M  V30 4051 S 362.235 4.71554 2.53766 0
M  V30 4052 C 363.391 4.86408 3.93902 0
M  V30 4053 H 363.624 2.71619 1.20874 0
M  V30 4054 H 361.157 1.45474 0.517377 0
M  V30 4055 H 363.115 1.98279 3.59438 0
M  V30 4056 H 361.776 0.988343 2.98145 0
M  V30 4057 H 360.969 3.18124 3.90913 0
M  V30 4058 H 360.571 3.03803 2.18128 0
M  V30 4059 H 362.863 4.69241 4.88691 0
M  V30 4060 H 363.806 5.88508 3.93782 0
M  V30 4061 H 364.214 4.14689 3.83005 0
M  V30 4062 N 363.613 -0.582584 1.46437 0
M  V30 4063 C 364.523 -1.71949 1.59595 0
M  V30 4064 C 365.539 -1.67264 0.479443 0
M  V30 4065 O 366.715 -1.87171 0.743579 0
M  V30 4066 C 363.78 -3.08452 1.58298 0
M  V30 4067 C 362.841 -3.244 2.81182 0
M  V30 4068 C 362.074 -4.54391 2.79937 0
M  V30 4069 O 362.297 -5.38287 1.8869 0
M  V30 4070 O 361.231 -4.73588 3.71481 0
M  V30 4071 H 365.057 -1.63795 2.55744 0
M  V30 4072 H 362.642 -0.749643 1.29231 0
M  V30 4073 H 364.524 -3.89732 1.60271 0
M  V30 4074 H 363.199 -3.17043 0.653094 0
M  V30 4075 H 362.106 -2.42613 2.84763 0
M  V30 4076 H 363.439 -3.20699 3.7338 0
M  V30 4077 N 365.091 -1.34144 -0.827227 0
M  V30 4078 C 366.001 -1.27428 -1.96975 0
M  V30 4079 C 367.017 -0.182728 -1.73038 0
M  V30 4080 O 368.193 -0.408426 -1.97215 0
M  V30 4081 C 365.258 -1.02526 -3.31194 0
M  V30 4082 C 364.319 -2.20796 -3.68168 0
M  V30 4083 C 363.552 -1.97073 -4.95982 0
M  V30 4084 O 363.775 -0.926822 -5.6282 0
M  V30 4085 O 362.709 -2.83912 -5.30733 0
M  V30 4086 H 366.535 -2.23537 -2.05584 0
M  V30 4087 H 364.12 -1.14307 -0.961989 0
M  V30 4088 H 366.002 -0.904026 -4.11589 0
M  V30 4089 H 364.677 -0.0945389 -3.23562 0
M  V30 4090 H 363.584 -2.38477 -2.88235 0
M  V30 4091 H 364.917 -3.12243 -3.8048 0
M  V30 4092 N 366.569 1.04691 -1.17803 0
M  V30 4093 C 367.479 2.16057 -0.914151 0
M  V30 4094 C 368.495 1.73589 0.119503 0
M  V30 4095 O 369.671 2.01308 -0.0609468 0
M  V30 4096 C 366.736 3.4394 -0.436603 0
M  V30 4097 C 365.797 4.00825 -1.53746 0
M  V30 4098 C 365.03 5.22604 -1.0826 0
M  V30 4099 O 365.253 5.70367 0.0612244 0
M  V30 4100 O 364.187 5.7186 -1.87775 0
M  V30 4101 H 368.013 2.41169 -1.84584 0
M  V30 4102 H 365.598 1.1453 -0.959334 0
M  V30 4103 H 367.48 4.21024 -0.178057 0
M  V30 4104 H 366.155 3.20316 0.466869 0
M  V30 4105 H 365.062 3.25158 -1.84995 0
M  V30 4106 H 366.395 4.28778 -2.41683 0
M  V30 4107 N 368.047 0.979072 1.23499 0
M  V30 4108 C 369.275 0.665202 1.95915 0
M  V30 4109 C 369.69 -0.767571 1.72493 0
M  V30 4110 O 369.047 -1.51635 1.01554 0
M  V30 4111 C 369.098 0.944438 3.48945 0
M  V30 4112 O 368.819 2.3209 3.71572 0
M  V30 4113 C 370.32 0.646336 4.38563 0
M  V30 4114 H 367.54 0.247218 0.623798 0
M  V30 4115 H 370.084 1.31009 1.57025 0
M  V30 4116 H 368.239 0.345575 3.85856 0
M  V30 4117 H 368.653 2.40957 4.65876 0
M  V30 4118 H 370.127 0.892091 5.44744 0
M  V30 4119 H 370.604 -0.419575 4.37191 0
M  V30 4120 H 371.21 1.22562 4.07258 0
M  V30 4121 N 369.525 -1.3858 0.750561 0
M  V30 4122 C 370.472 -2.30483 0.120835 0
M  V30 4123 C 371.442 -1.50022 -0.712923 0
M  V30 4124 O 372.627 -1.78662 -0.669676 0
M  V30 4125 C 369.767 -3.36431 -0.768666 0
M  V30 4126 C 368.88 -4.31927 0.0793922 0
M  V30 4127 C 368.015 -5.24944 -0.81283 0
M  V30 4128 C 367.054 -6.12088 0.0390447 0
M  V30 4129 N 366.191 -6.97412 -0.809969 0
M  V30 4130 H 371.031 -2.83761 0.91015 0
M  V30 4131 H 368.568 -1.39707 0.460463 0
M  V30 4132 H 370.526 -3.96462 -1.29898 0
M  V30 4133 H 369.156 -2.8457 -1.5238 0
M  V30 4134 H 368.208 -3.73382 0.727303 0
M  V30 4135 H 369.52 -4.93319 0.737401 0
M  V30 4136 H 368.674 -5.90078 -1.41042 0
M  V30 4137 H 367.413 -4.63911 -1.50458 0
M  V30 4138 H 366.418 -5.45952 0.649328 0
M  V30 4139 H 367.643 -6.75189 0.727809 0
M  V30 4140 H 365.589 -6.38931 -1.48672 0
M  V30 4141 H 365.506 -7.55712 -0.208789 0
M  V30 4142 H 366.774 -7.66959 -1.39263 0
M  V30 4143 N 371.003 -0.499398 -1.49478 0
M  V30 4144 C 372.419 -0.155261 -1.58843 0
M  V30 4145 C 372.619 1.34008 -1.50479 0
M  V30 4146 O 371.675 2.11589 -1.37791 0
M  V30 4147 C 372.988 -0.730636 -2.91689 0
M  V30 4148 C 374.536 -0.696599 -3.0515 0
M  V30 4149 C 375.011 -1.25001 -4.40612 0
M  V30 4150 N 376.502 -1.21064 -4.47099 0
M  V30 4151 C 377.237 -1.60905 -5.50361 0
M  V30 4152 N 376.733 -2.08331 -6.60735 0
M  V30 4153 N 378.526 -1.52331 -5.41065 0
M  V30 4154 H 370.677 -1.47162 -1.53158 0
M  V30 4155 H 372.94 -0.610309 -0.725415 0
M  V30 4156 H 372.646 -1.77928 -3.03372 0
M  V30 4157 H 372.52 -0.190161 -3.7672 0
M  V30 4158 H 374.907 0.343204 -2.93097 0
M  V30 4159 H 374.988 -1.2742 -2.21806 0
M  V30 4160 H 374.632 -2.28859 -4.53416 0
M  V30 4161 H 374.562 -0.64836 -5.22593 0
M  V30 4162 H 377.053 -0.863128 -3.67911 0
M  V30 4163 H 377.366 -2.36805 -7.35624 0
M  V30 4164 H 375.711 -2.12304 -6.6178 0
M  V30 4165 H 378.902 -1.151 -4.53729 0
M  V30 4166 H 379.075 -1.83704 -6.21415 0
M  V30 4167 N 372.481 1.55866 -0.233164 0
M  V30 4168 C 373.413 2.18099 0.704668 0
M  V30 4169 C 374.426 1.15334 1.14899 0
M  V30 4170 O 375.615 1.42262 1.07814 0
M  V30 4171 C 372.715 2.7592 1.96777 0
M  V30 4172 C 371.888 4.03969 1.67713 0
M  V30 4173 C 370.947 4.46242 2.78845 0
M  V30 4174 O 369.973 5.12903 2.46818 0
M  V30 4175 N 371.175 4.12886 4.08051 0
M  V30 4176 H 373.94 2.99205 0.172258 0
M  V30 4177 H 371.501 1.61815 -0.0525945 0
M  V30 4178 H 373.493 3.01165 2.70337 0
M  V30 4179 H 372.063 1.99051 2.41034 0
M  V30 4180 H 371.283 3.86459 0.777391 0
M  V30 4181 H 372.571 4.8748 1.4574 0
M  V30 4182 H 371.969 3.59342 4.3691 0
M  V30 4183 H 370.526 4.42997 4.78118 0
M  V30 4184 N 373.959 -0.0401083 1.57549 0
M  V30 4185 C 374.889 -1.04384 2.08869 0
M  V30 4186 C 375.87 -1.38407 0.988817 0
M  V30 4187 O 377.055 -1.47483 1.26342 0
M  V30 4188 C 374.185 -2.34808 2.55895 0
M  V30 4189 C 373.139 -2.15057 3.70047 0
M  V30 4190 C 372.465 -3.51145 4.03239 0
M  V30 4191 C 373.765 -1.54576 4.98902 0
M  V30 4192 H 375.459 -0.616666 2.92981 0
M  V30 4193 H 373.005 -0.295184 1.40942 0
M  V30 4194 H 374.958 -3.05346 2.90417 0
M  V30 4195 H 373.682 -2.79565 1.68853 0
M  V30 4196 H 372.341 -1.46954 3.35857 0
M  V30 4197 H 371.989 -3.93529 3.13279 0
M  V30 4198 H 371.689 -3.38758 4.80122 0
M  V30 4199 H 373.213 -4.23062 4.40285 0
M  V30 4200 H 374.627 -2.15017 5.31451 0
M  V30 4201 H 373.024 -1.52796 5.80322 0
M  V30 4202 H 374.094 -0.51039 4.82206 0
M  V30 4203 N 375.437 -1.54477 -0.31217 0
M  V30 4204 C 376.714 -1.63891 -1.06767 0
M  V30 4205 C 377.094 -0.480028 -2.0557 0
M  V30 4206 O 376.442 0.524487 -2.22399 0
M  V30 4207 C 376.652 -3.01402 -1.75948 0
M  V30 4208 C 378 -3.57838 -2.28554 0
M  V30 4209 O 379.024 -3.03782 -1.85998 0
M  V30 4210 O 377.883 -4.52462 -3.06497 0
M  V30 4211 H 374.977 -0.664125 -0.492816 0
M  V30 4212 H 377.523 -1.66823 -0.311149 0
M  V30 4213 H 376.295 -3.77187 -1.04144 0
M  V30 4214 H 375.918 -3.02199 -2.58383 0
M  V30 4215 N 376.915 0.57481 -1.46744 0
M  V30 4216 C 377.825 1.711 -1.60505 0
M  V30 4217 C 378.841 1.67008 -0.488307 0
M  V30 4218 O 380.017 1.86774 -0.753495 0
M  V30 4219 C 377.082 3.07608 -1.59932 0
M  V30 4220 C 376.143 3.22904 -2.82898 0
M  V30 4221 C 375.376 4.529 -2.82343 0
M  V30 4222 O 375.599 5.37278 -1.91542 0
M  V30 4223 O 374.533 4.71611 -3.73987 0
M  V30 4224 H 378.359 1.62436 -2.56609 0
M  V30 4225 H 375.944 0.742779 -1.29627 0
M  V30 4226 H 377.826 3.88877 -1.62336 0
M  V30 4227 H 376.501 3.16692 -0.669898 0
M  V30 4228 H 375.408 2.41099 -2.86046 0
M  V30 4229 H 376.741 3.18715 -3.75076 0
M  V30 4230 N 378.394 1.34581 0.820102 0
M  V30 4231 C 379.327 1.20735 1.93644 0
M  V30 4232 C 380.305 0.0983343 1.62302 0
M  V30 4233 O 381.489 0.263997 1.86642 0
M  V30 4234 C 378.616 0.856037 3.27704 0
M  V30 4235 C 377.662 1.97521 3.78005 0
M  V30 4236 S 378.495 3.58906 3.97425 0
M  V30 4237 C 379.651 3.25822 5.34407 0
M  V30 4238 H 379.884 2.15231 2.05093 0
M  V30 4239 H 377.417 1.1964 0.97599 0
M  V30 4240 H 379.375 0.660133 4.05157 0
M  V30 4241 H 378.036 -0.0706253 3.14021 0
M  V30 4242 H 377.229 1.68321 4.75062 0
M  V30 4243 H 376.831 2.12875 3.07507 0
M  V30 4244 H 379.123 2.77812 6.17922 0
M  V30 4245 H 380.066 4.22029 5.68592 0
M  V30 4246 H 380.474 2.61932 5.00052 0
M  V30 4247 N 379.872 -1.04064 1.18357 0
M  V30 4248 C 381.288 -1.2947 0.933258 0
M  V30 4249 C 381.488 -1.97466 -0.401169 0
M  V30 4250 O 380.544 -2.25528 -1.13549 0
M  V30 4251 C 381.857 -2.15337 2.09882 0
M  V30 4252 C 383.405 -2.28683 2.13712 0
M  V30 4253 C 383.88 -3.17917 3.29686 0
M  V30 4254 N 385.371 -3.25504 3.29547 0
M  V30 4255 C 386.106 -3.94706 4.15926 0
M  V30 4256 N 385.602 -4.66239 5.12439 0
M  V30 4257 N 387.395 -3.90986 4.0384 0
M  V30 4258 H 379.546 -0.583359 2.04232 0
M  V30 4259 H 381.809 -0.319921 0.892387 0
M  V30 4260 H 381.515 -1.72682 3.06389 0
M  V30 4261 H 381.389 -3.16015 2.05947 0
M  V30 4262 H 383.776 -2.70575 1.17784 0
M  V30 4263 H 383.857 -1.27596 2.21705 0
M  V30 4264 H 383.501 -2.76736 4.25887 0
M  V30 4265 H 383.431 -4.19036 3.1893 0
M  V30 4266 H 385.922 -2.74547 2.59677 0
M  V30 4267 H 386.235 -5.16638 5.74722 0
M  V30 4268 H 384.58 -4.65143 5.16398 0
M  V30 4269 H 387.771 -3.34234 3.27727 0
M  V30 4270 H 387.944 -4.44646 4.71375 0
M  V30 4271 N 381.35 -0.985608 -1.22978 0
M  V30 4272 C 382.282 -0.488154 -2.23941 0
M  V30 4273 C 383.295 0.41282 -1.57479 0
M  V30 4274 O 384.484 0.216121 -1.77187 0
M  V30 4275 C 381.584 0.312611 -3.37455 0
M  V30 4276 C 380.757 -0.582741 -4.33501 0
M  V30 4277 C 379.816 0.165064 -5.25941 0
M  V30 4278 O 378.842 -0.447077 -5.67442 0
M  V30 4279 N 380.044 1.44953 -5.62111 0
M  V30 4280 H 382.809 -1.3563 -2.67254 0
M  V30 4281 H 380.37 -0.859477 -1.37203 0
M  V30 4282 H 382.362 0.821357 -3.96277 0
M  V30 4283 H 380.932 1.0818 -2.93285 0
M  V30 4284 H 380.152 -1.27225 -3.73105 0
M  V30 4285 H 381.44 -1.19275 -4.94622 0
M  V30 4286 H 380.838 1.9683 -5.30353 0
M  V30 4287 H 379.395 1.90361 -6.23383 0
M  V30 4288 N 382.828 1.3818 -0.7579 0
M  V30 4289 C 383.775 2.30416 -0.133057 0
M  V30 4290 C 384.745 1.50398 0.704957 0
M  V30 4291 O 385.93 1.79014 0.660192 0
M  V30 4292 C 383.07 3.36834 0.750813 0
M  V30 4293 C 382.183 4.31879 -0.102297 0
M  V30 4294 C 381.318 5.25368 0.784979 0
M  V30 4295 C 380.357 6.12058 -0.0715046 0
M  V30 4296 N 379.494 6.97832 0.772972 0
M  V30 4297 H 384.334 2.83274 -0.925186 0
M  V30 4298 H 381.871 1.39461 -0.467866 0
M  V30 4299 H 383.829 3.97145 1.27794 0
M  V30 4300 H 382.459 2.85374 1.50868 0
M  V30 4301 H 381.511 3.72991 -0.747095 0
M  V30 4302 H 382.823 4.92921 -0.763552 0
M  V30 4303 H 381.977 5.90818 1.37911 0
M  V30 4304 H 380.716 4.64703 1.47996 0
M  V30 4305 H 379.721 5.456 -0.678272 0
M  V30 4306 H 380.946 6.74793 -0.763606 0
M  V30 4307 H 378.892 6.3971 1.45282 0
M  V30 4308 H 378.809 7.55812 0.168709 0
M  V30 4309 H 380.077 7.67687 1.35194 0
M  V30 4310 N 384.306 0.507319 1.49211 0
M  V30 4311 C 385.583 -0.0982702 1.95353 0
M  V30 4312 C 385.963 -1.53516 1.449 0
M  V30 4313 O 385.311 -2.18594 0.66551 0
M  V30 4314 C 385.521 -0.00440283 3.49 0
M  V30 4315 C 386.869 -0.175147 4.24239 0
M  V30 4316 O 387.893 -0.0792891 3.56112 0
M  V30 4317 O 386.752 -0.37276 5.45227 0
M  V30 4318 H 383.846 -0.0918236 0.821887 0
M  V30 4319 H 386.392 0.570307 1.5983 0
M  V30 4320 H 385.164 0.997402 3.78375 0
M  V30 4321 H 384.787 -0.712845 3.91158 0
M  V30 4322 N 385.784 -1.5574 0.241426 0
M  V30 4323 C 387.195 -1.84842 -0.262755 0
M  V30 4324 C 387.546 -1.16317 -1.58003 0
M  V30 4325 O 386.671 -0.439653 -2.11887 0
M  V30 4326 C 387.266 -3.35332 -0.483523 0
M  V30 4327 C 385.825 -3.6468 -0.931977 0
M  V30 4328 C 384.972 -2.77299 -0.0061151 0
M  V30 4329 H 387.923 -1.51761 0.464129 0
M  V30 4330 H 387.944 -3.56615 -1.32688 0
M  V30 4331 H 387.456 -3.85178 0.47537 0
M  V30 4332 H 385.557 -3.20307 -1.90353 0
M  V30 4333 H 385.67 -4.72498 -0.792628 0
M  V30 4334 H 384.034 -2.49408 -0.516503 0
M  V30 4335 H 384.817 -3.2995 0.948052 0
M  V30 4336 N 387.262 0.0317525 -1.57568 0
M  V30 4337 C 388.508 0.724175 -1.8943 0
M  V30 4338 C 388.841 1.75149 -0.838836 0
M  V30 4339 O 388.116 1.93948 0.146422 0
M  V30 4340 C 388.399 1.39615 -3.31933 0
M  V30 4341 C 388.252 0.382537 -4.4817 0
M  V30 4342 C 389.571 2.33084 -3.73309 0
M  V30 4343 H 386.69 0.261797 -0.688935 0
M  V30 4344 H 389.332 -0.013017 -1.89996 0
M  V30 4345 H 387.482 2.02451 -3.31581 0
M  V30 4346 H 389.154 -0.243689 -4.60656 0
M  V30 4347 H 387.397 -0.29844 -4.32772 0
M  V30 4348 H 388.068 0.891145 -5.44759 0
M  V30 4349 H 390.544 1.80295 -3.7501 0
M  V30 4350 H 389.42 2.77084 -4.73831 0
M  V30 4351 H 389.681 3.19643 -3.05419 0
M  V30 4352 N 388.74 1.54641 0.303973 0
M  V30 4353 C 389.687 1.85386 1.37479 0
M  V30 4354 C 390.657 0.702528 1.50512 0
M  V30 4355 O 391.842 0.950867 1.65418 0
M  V30 4356 C 388.982 2.10413 2.73533 0
M  V30 4357 C 388.095 3.38049 2.68974 0
M  V30 4358 C 387.23 3.52934 3.97002 0
M  V30 4359 C 386.269 4.74373 3.86829 0
M  V30 4360 N 385.406 4.8608 5.06627 0
M  V30 4361 H 390.246 2.76732 1.1056 0
M  V30 4362 H 387.783 1.37034 0.534805 0
M  V30 4363 H 389.741 2.22919 3.52652 0
M  V30 4364 H 388.371 1.22338 2.98719 0
M  V30 4365 H 387.423 3.3418 1.81736 0
M  V30 4366 H 388.735 4.27288 2.57346 0
M  V30 4367 H 387.889 3.65088 4.84557 0
M  V30 4368 H 386.628 2.61824 4.1146 0
M  V30 4369 H 385.633 4.62255 2.97658 0
M  V30 4370 H 386.858 5.66888 3.73918 0
M  V30 4371 H 384.804 3.97891 5.21554 0
M  V30 4372 H 384.721 5.69315 4.9741 0
M  V30 4373 H 385.989 5.02587 5.95841 0
M  V30 4374 N 390.218 -0.567019 1.47046 0
M  V30 4375 C 391.466 -1.322 1.52864 0
M  V30 4376 C 391.787 -1.94088 0.188388 0
M  V30 4377 O 391.057 -1.7941 -0.786693 0
M  V30 4378 H 389.637 -0.490894 0.563056 0
M  V30 4379 H 392.299 -0.662879 1.83281 0
M  V30 4380 H 391.395 -2.12062 2.2899 0
M  V30 4381 N 391.696 -1.35014 -0.812953 0
M  V30 4382 C 392.629 -1.21761 -1.93001 0
M  V30 4383 C 393.607 -0.10694 -1.62248 0
M  V30 4384 O 394.791 -0.273891 -1.865 0
M  V30 4385 C 391.918 -0.873404 -3.27245 0
M  V30 4386 C 390.964 -1.99523 -3.76952 0
M  V30 4387 S 391.797 -3.61009 -3.95516 0
M  V30 4388 C 392.953 -3.28651 -5.32672 0
M  V30 4389 H 393.186 -2.16315 -2.03948 0
M  V30 4390 H 390.719 -1.20156 -0.969631 0
M  V30 4391 H 392.677 -0.68161 -4.04802 0
M  V30 4392 H 391.338 0.053971 -3.14054 0
M  V30 4393 H 390.531 -1.70838 -4.74163 0
M  V30 4394 H 390.133 -2.14503 -3.06373 0
M  V30 4395 H 392.425 -2.81085 -6.1644 0
M  V30 4396 H 393.368 -4.25039 -5.66346 0
M  V30 4397 H 393.776 -2.6458 -4.98656 0
M  V30 4398 N 393.175 1.03435 -1.18907 0
M  V30 4399 C 394.403 1.80381 -1.01342 0
M  V30 4400 C 394.818 1.83649 0.438005 0
M  V30 4401 O 394.175 1.27655 1.30424 0
M  V30 4402 C 394.226 3.25689 -1.56873 0
M  V30 4403 O 393.947 3.22673 -2.96334 0
M  V30 4404 C 395.448 4.19255 -1.44014 0
M  V30 4405 H 392.668 0.56784 -0.35749 0
M  V30 4406 H 395.212 1.30317 -1.576 0
M  V30 4407 H 393.367 3.72962 -1.04777 0
M  V30 4408 H 393.781 4.13748 -3.22355 0
M  V30 4409 H 395.255 5.19123 -1.87657 0
M  V30 4410 H 395.732 4.37467 -0.389815 0
M  V30 4411 H 396.338 3.77851 -1.95214 0
M  V30 4412 N 394.653 0.992116 1.22453 0
M  V30 4413 C 395.616 0.546883 2.2258 0
M  V30 4414 C 396.616 -0.369829 1.56489 0
M  V30 4415 O 397.806 -0.161896 1.73446 0
M  V30 4416 C 394.938 -0.204659 3.40285 0
M  V30 4417 H 396.131 1.43234 2.63484 0
M  V30 4418 H 393.684 0.779239 1.3549 0
M  V30 4419 H 394.419 -1.10614 3.04853 0
M  V30 4420 H 394.204 0.45354 3.89468 0
M  V30 4421 H 395.694 -0.504358 4.14543 0
M  V30 4422 N 396.131 -1.37776 0.765217 0
M  V30 4423 C 397.408 -1.93975 0.251596 0
M  V30 4424 C 397.788 -1.69949 -1.25222 0
M  V30 4425 O 397.136 -1.04457 -2.03226 0
M  V30 4426 C 397.346 -3.43487 0.617895 0
M  V30 4427 C 398.694 -4.20564 0.584029 0
M  V30 4428 O 399.718 -3.5182 0.556888 0
M  V30 4429 O 398.577 -5.43138 0.605291 0
M  V30 4430 H 395.671 -0.82509 0.0561806 0
M  V30 4431 H 398.217 -1.47101 0.846128 0
M  V30 4432 H 396.989 -3.5453 1.65602 0
M  V30 4433 H 396.612 -3.976 -0.00403411 0
M  V30 4434 N 397.609 -0.515225 -1.4894 0
M  V30 4435 C 398.886 0.0879088 -1.95402 0
M  V30 4436 C 399.266 1.52745 -1.45712 0
M  V30 4437 O 398.614 2.18238 -0.677093 0
M  V30 4438 C 398.824 -0.0141055 -3.48997 0
M  V30 4439 C 400.172 0.152646 -4.24326 0
M  V30 4440 O 401.196 0.0604025 -3.56149 0
M  V30 4441 O 400.055 0.34384 -5.45417 0
M  V30 4442 H 397.149 0.0874636 -0.822362 0
M  V30 4443 H 399.695 -0.578775 -1.59525 0
M  V30 4444 H 398.467 -1.01745 -3.77841 0
M  V30 4445 H 398.09 0.692091 -3.9153 0
M  V30 4446 O 399.126 1.56684 -0.391475 0
M  V30 4447 H 399.817 1.93093 0.153177 0
M  V30 END ATOM
M  V30 BEGIN BOND
M  V30 END BOND
M  V30 END CTAB
M  END
$$$$
