drugbank_target|Q00496 Botulinum neurotoxin type E (DB13897)
 OpenBabel12092121133D

  0  0  0     0  0            999 V3000
M  V30 BEGIN CTAB
M  V30 COUNTS 20156 20359 0 0 0
M  V30 BEGIN ATOM
M  V30 1 H -0.908 1.98254 -0.117106 0
M  V30 2 N 0 1.576 0 0
M  V30 3 C 0.933 2.03868 1.02534 0
M  V30 4 C 1.911 0.928543 1.3348 0
M  V30 5 O 3.095 1.19667 1.45644 0
M  V30 6 C 0.222 2.43627 2.35294 0
M  V30 7 C -0.732 3.65373 2.2001 0
M  V30 8 S 0.101 5.13292 1.52614 0
M  V30 9 C 1.257 5.56322 2.86805 0
M  V30 10 H 1.49 2.90518 0.631377 0
M  V30 11 H -0.977 1.52953 0.210867 0
M  V30 12 H 0.981 2.67203 3.11629 0
M  V30 13 H -0.358 1.57376 2.7183 0
M  V30 14 H -1.165 3.90944 3.18086 0
M  V30 15 H -1.563 3.418 1.51819 0
M  V30 16 H 0.729 5.58782 3.83104 0
M  V30 17 H 1.672 6.56266 2.65933 0
M  V30 18 H 2.08 4.83886 2.90714 0
M  V30 19 N 1.4781 -0.272755 1.55222 0
M  V30 20 C 2.8891 -0.84378 1.66545 0
M  V30 21 C 3.2401 -1.87035 0.592641 0
M  V30 22 O 2.3651 -2.14761 -0.265818 0
M  V30 23 C 2.9601 -1.53723 3.01918 0
M  V30 24 C 1.5191 -2.05628 3.15268 0
M  V30 25 C 0.6661 -0.898424 2.62343 0
M  V30 26 H 3.6171 -0.0490998 1.58624 0
M  V30 27 H 3.6381 -2.40421 2.94921 0
M  V30 28 H 3.1501 -0.78983 3.79978 0
M  V30 29 H 1.2511 -2.83329 2.41983 0
M  V30 30 H 1.3641 -2.27142 4.21833 0
M  V30 31 H -0.2719 -1.29186 2.19506 0
M  V30 32 H 0.5111 -0.164528 3.42906 0
M  V30 33 N 2.9562 -1.48159 -0.537278 0
M  V30 34 C 3.9032 -1.62138 -1.64256 0
M  V30 35 C 4.8732 -0.463668 -1.59497 0
M  V30 36 O 6.0582 -0.686241 -1.78032 0
M  V30 37 C 3.1982 -1.66028 -3.02537 0
M  V30 38 C 2.3112 -2.92855 -3.17585 0
M  V30 39 C 1.4462 -2.87952 -4.46382 0
M  V30 40 C 0.4852 -4.09516 -4.54932 0
M  V30 41 N -0.3778 -4.02733 -5.75109 0
M  V30 42 H 4.4622 -2.56529 -1.51647 0
M  V30 43 H 1.9992 -1.27224 -0.738414 0
M  V30 44 H 3.9572 -1.66265 -3.82638 0
M  V30 45 H 2.5872 -0.751331 -3.13934 0
M  V30 46 H 1.6392 -3.02395 -2.30784 0
M  V30 47 H 2.9512 -3.82822 -3.19764 0
M  V30 48 H 2.1052 -2.8655 -5.34765 0
M  V30 49 H 0.8442 -1.95702 -4.46712 0
M  V30 50 H -0.1508 -4.11201 -3.64957 0
M  V30 51 H 1.0742 -5.02917 -4.56346 0
M  V30 52 H -0.9798 -3.13299 -5.76351 0
M  V30 53 H -1.0628 -4.86397 -5.78752 0
M  V30 54 H 0.2052 -4.05379 -6.65799 0
M  V30 55 N 4.4343 0.785586 -1.36625 0
M  V30 56 C 5.6833 1.53883 -1.30396 0
M  V30 57 C 5.9963 1.95271 0.113452 0
M  V30 58 O 7.2023 2.69858 0.298142 0
M  V30 59 C 5.6583 2.77808 -2.28802 0
M  V30 60 C 5.2663 2.43574 -3.75999 0
M  V30 61 C 7.0103 3.55783 -2.31558 0
M  V30 62 C 4.9173 3.63919 -4.66173 0
M  V30 63 H 3.8473 0.577678 -0.484566 0
M  V30 64 H 6.4983 0.861705 -1.62009 0
M  V30 65 H 4.8803 3.47339 -1.90188 0
M  V30 66 H 6.0543 1.81916 -4.23371 0
M  V30 67 H 4.3693 1.78803 -3.76056 0
M  V30 68 H 6.9663 4.45205 -2.96137 0
M  V30 69 H 7.3093 3.94644 -1.3252 0
M  V30 70 H 7.8423 2.93235 -2.68809 0
M  V30 71 H 4.5813 3.3015 -5.66287 0
M  V30 72 H 4.1013 4.2473 -4.23515 0
M  V30 73 H 5.7803 4.30901 -4.82632 0
M  V30 74 N 5.9124 1.20967 1.01018 0
M  V30 75 C 6.8604 0.961223 2.1181 0
M  V30 76 C 7.8544 -0.0897034 1.69162 0
M  V30 77 O 9.0604 0.0612271 1.79896 0
M  V30 78 H 5.4354 0.29355 0.692338 0
M  V30 79 H 7.4064 1.90178 2.29946 0
M  V30 80 C 6.1554 0.536854 3.4353 0
M  V30 81 H 5.4784 1.33713 3.76777 0
M  V30 82 H 6.9184 0.402286 4.22087 0
M  V30 83 C 5.3774 -0.751574 3.2841 0
M  V30 84 O 5.9074 -1.80841 3.58691 0
M  V30 85 N 4.1134 -0.716079 2.81639 0
M  V30 86 H 3.6604 0.144236 2.57196 0
M  V30 87 H 3.6184 -1.57847 2.71904 0
M  V30 88 N 7.3905 -1.2043 1.01659 0
M  V30 89 C 8.6155 -1.94318 0.724942 0
M  V30 90 C 9.0405 -1.74266 -0.708034 0
M  V30 91 O 8.3985 -1.03694 -1.48719 0
M  V30 92 C 8.4465 -3.44486 1.06591 0
M  V30 93 O 7.5505 -4.12017 0.177599 0
M  V30 94 H 6.8915 -0.60708 0.26898 0
M  V30 95 H 9.4215 -1.52861 1.35995 0
M  V30 96 H 9.4315 -3.95106 1.01762 0
M  V30 97 H 8.1065 -3.58404 2.10997 0
M  V30 98 H 6.6835 -3.71821 0.283421 0
M  V30 99 N 8.8686 -0.792821 -1.36206 0
M  V30 100 C 10.1156 -0.366786 -1.99151 0
M  V30 101 C 10.4436 1.06243 -1.62919 0
M  V30 102 O 9.6986 1.74927 -0.877442 0
M  V30 103 C 9.9976 -0.481501 -3.54142 0
M  V30 104 C 9.6636 -1.87202 -4.10203 0
M  V30 105 C 8.3256 -2.25248 -4.25226 0
M  V30 106 C 10.6776 -2.78237 -4.40719 0
M  V30 107 C 8.0056 -3.53723 -4.68078 0
M  V30 108 C 10.3576 -4.06144 -4.85005 0
M  V30 109 C 9.0216 -4.44207 -4.98234 0
M  V30 110 H 8.2916 -0.134217 -0.728743 0
M  V30 111 H 10.9386 -1.01094 -1.62641 0
M  V30 112 H 9.2436 0.246146 -3.91026 0
M  V30 113 H 10.9406 -0.132844 -4.0078 0
M  V30 114 H 7.5306 -1.56639 -3.98951 0
M  V30 115 H 11.7146 -2.50097 -4.28679 0
M  V30 116 H 6.9706 -3.8308 -4.76508 0
M  V30 117 H 11.1446 -4.76796 -5.07581 0
M  V30 118 H 8.7716 -5.43814 -5.31197 0
M  V30 119 N 10.3467 1.47872 -0.545128 0
M  V30 120 C 11.2947 2.31533 0.222512 0
M  V30 121 C 12.2887 1.42177 0.920985 0
M  V30 122 O 13.4947 1.59005 0.843645 0
M  V30 123 H 9.8697 0.746519 0.0906278 0
M  V30 124 H 11.8407 2.94139 -0.50246 0
M  V30 125 C 10.5897 3.2457 1.24699 0
M  V30 126 H 9.9127 3.93283 0.718944 0
M  V30 127 H 11.3527 3.85963 1.75523 0
M  V30 128 C 9.8117 2.47237 2.28856 0
M  V30 129 O 10.3417 2.20808 3.35569 0
M  V30 130 N 8.5477 2.08461 2.02466 0
M  V30 131 H 8.0947 2.30155 1.157 0
M  V30 132 H 8.0527 1.57033 2.72375 0
M  V30 133 N 11.8248 0.280983 1.55075 0
M  V30 134 C 13.0548 -0.336804 2.03836 0
M  V30 135 C 13.4628 -1.49577 1.15859 0
M  V30 136 O 12.8058 -1.82888 0.172503 0
M  V30 137 C 12.8678 -0.874616 3.48699 0
M  V30 138 C 12.5318 0.156478 4.56732 0
M  V30 139 C 13.5288 0.978032 5.10618 0
M  V30 140 C 11.2138 0.292409 5.01448 0
M  V30 141 C 13.2078 1.92165 6.07743 0
M  V30 142 C 10.8948 1.23949 5.98398 0
M  V30 143 C 11.8928 2.05261 6.51427 0
M  V30 144 O 11.5808 2.98367 7.4648 0
M  V30 145 H 11.3128 -0.0800885 0.671239 0
M  V30 146 H 13.8668 0.412589 2.01213 0
M  V30 147 H 12.0968 -1.67418 3.4858 0
M  V30 148 H 13.7858 -1.40612 3.80766 0
M  V30 149 H 14.5518 0.883782 4.7688 0
M  V30 150 H 10.4308 -0.330498 4.59814 0
M  V30 151 H 13.9748 2.55672 6.49059 0
M  V30 152 H 9.8718 1.33454 6.31554 0
M  V30 153 H 10.6398 2.93116 7.64215 0
M  V30 154 N 13.3029 -1.57598 0.00835791 0
M  V30 155 C 14.2509 -2.10078 -0.998508 0
M  V30 156 C 15.2449 -1.02262 -1.35051 0
M  V30 157 O 16.4509 -1.20719 -1.33518 0
M  V30 158 H 12.8259 -0.670903 -0.339696 0
M  V30 159 H 14.7969 -2.93648 -0.530398 0
M  V30 160 C 13.5459 -2.62615 -2.27879 0
M  V30 161 H 12.8689 -3.45213 -2.01662 0
M  V30 162 H 14.3089 -3.03004 -2.96588 0
M  V30 163 C 12.7679 -1.54407 -2.99433 0
M  V30 164 O 13.2979 -0.931812 -3.90743 0
M  V30 165 N 11.5039 -1.2695 -2.61404 0
M  V30 166 H 11.0509 -1.76924 -1.87232 0
M  V30 167 H 11.0089 -0.547704 -3.09593 0
M  V30 168 N 14.781 0.264519 -1.55364 0
M  V30 169 C 16.058 1.01677 -1.67096 0
M  V30 170 C 16.438 2.03996 -0.543015 0
M  V30 171 O 15.786 2.23907 0.45585 0
M  V30 172 C 15.996 1.66596 -3.0667 0
M  V30 173 C 17.344 2.17442 -3.64697 0
M  V30 174 O 18.368 1.76568 -3.09358 0
M  V30 175 O 17.227 2.92439 -4.61673 0
M  V30 176 H 14.321 0.472161 -0.678965 0
M  V30 177 H 16.867 0.259703 -1.67701 0
M  V30 178 H 15.639 0.924962 -3.80211 0
M  V30 179 H 15.262 2.48968 -3.10001 0
M  V30 180 N 16.2591 1.48442 0.529413 0
M  V30 181 C 17.6701 1.5002 1.11134 0
M  V30 182 C 18.0211 0.27031 1.94329 0
M  V30 183 O 17.1461 -0.622507 2.07253 0
M  V30 184 C 17.7411 2.71834 2.02217 0
M  V30 185 C 16.3001 2.76283 2.55627 0
M  V30 186 C 15.4471 2.43542 1.326 0
M  V30 187 H 18.3981 1.5555 0.314641 0
M  V30 188 H 18.4191 2.50384 2.8651 0
M  V30 189 H 17.9311 3.61331 1.41639 0
M  V30 190 H 16.0321 1.90995 3.19924 0
M  V30 191 H 16.1451 3.77725 2.94721 0
M  V30 192 H 14.5091 1.94709 1.64196 0
M  V30 193 H 15.2921 3.3528 0.737734 0
M  V30 194 N 17.7372 -0.778329 1.37039 0
M  V30 195 C 18.9832 -1.53892 1.32079 0
M  V30 196 C 19.3162 -1.9396 -0.0965386 0
M  V30 197 O 18.5912 -1.63568 -1.05242 0
M  V30 198 C 18.8742 -2.80847 2.25382 0
M  V30 199 C 18.7272 -2.47076 3.75864 0
M  V30 200 C 20.0462 -3.82741 2.1725 0
M  V30 201 H 17.1652 -0.558303 0.48111 0
M  V30 202 H 19.8072 -0.893397 1.67685 0
M  V30 203 H 17.9572 -3.35931 1.95148 0
M  V30 204 H 19.6292 -1.97957 4.16666 0
M  V30 205 H 17.8722 -1.79863 3.94755 0
M  V30 206 H 18.5432 -3.37798 4.36574 0
M  V30 207 H 21.0192 -3.37133 2.43887 0
M  V30 208 H 19.8952 -4.69303 2.84686 0
M  V30 209 H 20.1562 -4.2652 1.16331 0
M  V30 210 N 19.2153 -1.21501 -1.00376 0
M  V30 211 C 20.1633 -0.972442 -2.11297 0
M  V30 212 C 21.1573 0.080731 -1.69208 0
M  V30 213 O 22.3633 -0.0707666 -1.79861 0
M  V30 214 H 18.7383 -0.297218 -0.690772 0
M  V30 215 H 20.7093 -1.91394 -2.28934 0
M  V30 216 C 19.4583 -0.555065 -3.43241 0
M  V30 217 H 18.7813 -1.35709 -3.76062 0
M  V30 218 H 20.2213 -0.424664 -4.21868 0
M  V30 219 C 18.6803 0.734147 -3.28804 0
M  V30 220 O 19.2103 1.78937 -3.59645 0
M  V30 221 N 17.4163 0.701133 -2.82015 0
M  V30 222 H 16.9633 -0.157874 -2.57116 0
M  V30 223 H 16.9213 1.56403 -2.72737 0
M  V30 224 N 20.6934 1.19889 -1.02296 0
M  V30 225 C 21.9704 1.85148 -0.630832 0
M  V30 226 C 22.3504 1.91385 0.890782 0
M  V30 227 O 21.6984 1.42642 1.78509 0
M  V30 228 C 21.9084 3.24442 -1.28602 0
M  V30 229 C 23.2564 4.00663 -1.4055 0
M  V30 230 O 24.2804 3.33818 -1.24273 0
M  V30 231 O 23.1394 5.20387 -1.66913 0
M  V30 232 H 20.2334 0.797613 -0.218499 0
M  V30 233 H 22.7794 1.27427 -1.12074 0
M  V30 234 H 21.5514 3.14704 -2.32545 0
M  V30 235 H 21.1744 3.89802 -0.7836 0
M  V30 236 N 22.1715 0.800033 1.35784 0
M  V30 237 C 23.5875 0.482977 1.52117 0
M  V30 238 C 23.7875 -0.996948 1.75109 0
M  V30 239 O 22.8435 -1.78216 1.78872 0
M  V30 240 C 24.1565 1.32264 2.70049 0
M  V30 241 C 25.7045 1.31742 2.83924 0
M  V30 242 C 26.1795 2.14106 4.04874 0
M  V30 243 N 27.6705 2.11607 4.12039 0
M  V30 244 C 28.4055 2.72099 5.04727 0
M  V30 245 N 27.9015 3.41492 6.02789 0
M  V30 246 N 29.6945 2.61776 4.97423 0
M  V30 247 H 21.8455 1.75856 1.19115 0
M  V30 248 H 24.1085 0.748122 0.582252 0
M  V30 249 H 23.8145 2.37261 2.59616 0
M  V30 250 H 23.6885 0.971303 3.6448 0
M  V30 251 H 26.0755 0.275333 2.93813 0
M  V30 252 H 26.1565 1.70859 1.9037 0
M  V30 253 H 25.8005 3.18351 3.95746 0
M  V30 254 H 25.7305 1.72353 4.97596 0
M  V30 255 H 28.2215 1.61112 3.41835 0
M  V30 256 H 28.5345 3.84953 6.70098 0
M  V30 257 H 26.8795 3.45596 6.02983 0
M  V30 258 H 30.0705 2.07157 4.19766 0
M  V30 259 H 30.2435 3.0921 5.69468 0
M  V30 260 N 23.6496 -1.47581 0.552962 0
M  V30 261 C 24.8776 -2.06875 0.0320556 0
M  V30 262 C 25.2926 -1.40625 -1.25976 0
M  V30 263 O 24.6496 -0.501349 -1.75479 0
M  V30 264 C 24.7006 -3.61092 -0.17167 0
M  V30 265 O 24.4216 -4.24858 1.06899 0
M  V30 266 C 25.9226 -4.37242 -0.730344 0
M  V30 267 H 23.1426 -0.669561 0.043915 0
M  V30 268 H 25.6866 -1.89646 0.765163 0
M  V30 269 H 23.8416 -3.7785 -0.854894 0
M  V30 270 H 24.2556 -5.17334 0.864059 0
M  V30 271 H 25.7296 -5.45842 -0.822203 0
M  V30 272 H 26.2066 -4.03235 -1.74064 0
M  V30 273 H 26.8126 -4.25219 -0.0829543 0
M  V30 274 N 25.1277 -0.289203 -1.54924 0
M  V30 275 C 26.3767 0.324231 -1.99077 0
M  V30 276 C 26.6897 1.5591 -1.18117 0
M  V30 277 O 27.8957 2.24637 -1.52481 0
M  V30 278 C 26.3517 0.628209 -3.54375 0
M  V30 279 C 25.9597 -0.587647 -4.44129 0
M  V30 280 C 27.7037 1.20349 -4.07083 0
M  V30 281 C 25.6107 -0.257475 -5.90839 0
M  V30 282 H 24.5407 0.124924 -0.743579 0
M  V30 283 H 27.1917 -0.396063 -1.79175 0
M  V30 284 H 25.5737 1.40778 -3.70132 0
M  V30 285 H 26.7477 -1.36418 -4.40144 0
M  V30 286 H 25.0627 -1.08074 -4.0213 0
M  V30 287 H 27.6597 1.46456 -5.14252 0
M  V30 288 H 28.0027 2.14195 -3.56968 0
M  V30 289 H 28.5357 0.485889 -3.94821 0
M  V30 290 H 25.2747 -1.16419 -6.45079 0
M  V30 291 H 24.7947 0.482018 -5.9786 0
M  V30 292 H 26.4737 0.145238 -6.46837 0
M  V30 293 N 26.6058 1.57591 -0.0167156 0
M  V30 294 C 27.5358 2.12496 0.967858 0
M  V30 295 C 28.5168 1.03807 1.34752 0
M  V30 296 O 29.7018 1.31577 1.42833 0
M  V30 297 C 26.8318 2.64194 2.25431 0
M  V30 298 C 25.7858 3.77559 2.01576 0
M  V30 299 C 25.1118 4.15636 3.36379 0
M  V30 300 C 26.4118 5.04151 1.36489 0
M  V30 301 H 28.1058 2.95013 0.510643 0
M  V30 302 H 25.6518 1.41915 0.244181 0
M  V30 303 H 27.6048 3.01236 2.94678 0
M  V30 304 H 26.3288 1.78821 2.73296 0
M  V30 305 H 24.9878 3.40937 1.34751 0
M  V30 306 H 24.6358 3.27263 3.81979 0
M  V30 307 H 24.3358 4.92022 3.21229 0
M  V30 308 H 25.8598 4.5525 4.06915 0
M  V30 309 H 27.2738 5.38857 1.95718 0
M  V30 310 H 25.6708 5.85453 1.31776 0
M  V30 311 H 26.7408 4.83733 0.336219 0
M  V30 312 N 28.0839 -0.256276 1.55502 0
M  V30 313 C 29.3139 -1.00196 1.80677 0
M  V30 314 C 29.7219 -1.79805 0.588797 0
M  V30 315 O 29.0649 -1.78055 -0.451883 0
M  V30 316 C 29.1269 -1.99515 2.99055 0
M  V30 317 C 28.7909 -1.38688 4.35448 0
M  V30 318 C 29.7879 -0.794079 5.138 0
M  V30 319 C 27.4729 -1.40906 4.82132 0
M  V30 320 C 29.4669 -0.231562 6.36979 0
M  V30 321 C 27.1539 -0.842684 6.05262 0
M  V30 322 C 28.1519 -0.254953 6.82524 0
M  V30 323 O 27.8399 0.3027 8.0333 0
M  V30 324 H 27.5719 -0.300919 0.60533 0
M  V30 325 H 30.1259 -0.287307 2.03381 0
M  V30 326 H 28.3559 -2.74785 2.72084 0
M  V30 327 H 30.0449 -2.60349 3.11405 0
M  V30 328 H 30.8109 -0.769519 4.78856 0
M  V30 329 H 26.6899 -1.85591 4.21992 0
M  V30 330 H 30.2339 0.227816 6.97228 0
M  V30 331 H 26.1309 -0.86454 6.39684 0
M  V30 332 H 26.8989 0.193662 8.18271 0
M  V30 333 N 29.562 -1.4872 -0.521534 0
M  V30 334 C 30.811 -1.56419 -1.27341 0
M  V30 335 C 31.124 -0.246805 -1.94037 0
M  V30 336 O 32.33 -0.202122 -2.70747 0
M  V30 337 C 30.786 -2.75896 -2.31105 0
M  V30 338 C 30.394 -4.14311 -1.70441 0
M  V30 339 C 32.138 -2.92913 -3.07249 0
M  V30 340 C 30.045 -5.25038 -2.72194 0
M  V30 341 H 28.975 -0.582344 -0.478949 0
M  V30 342 H 31.626 -1.75071 -0.549779 0
M  V30 343 H 30.008 -2.50697 -3.06541 0
M  V30 344 H 31.182 -4.49564 -1.01136 0
M  V30 345 H 29.497 -4.02482 -1.06759 0
M  V30 346 H 32.094 -3.72805 -3.83302 0
M  V30 347 H 32.437 -2.02689 -3.63625 0
M  V30 348 H 32.97 -3.18054 -2.38928 0
M  V30 349 H 29.709 -6.17255 -2.20627 0
M  V30 350 H 29.229 -4.94263 -3.39801 0
M  V30 351 H 30.908 -5.53508 -3.35019 0
M  V30 352 N 31.0401 0.771051 -1.3745 0
M  V30 353 C 31.9871 1.88435 -1.3327 0
M  V30 354 C 32.9571 1.64914 -0.198136 0
M  V30 355 O 34.1421 1.86821 -0.387606 0
M  V30 356 C 31.2821 3.25509 -1.14622 0
M  V30 357 C 30.3951 3.60979 -2.37314 0
M  V30 358 C 29.5301 4.87265 -2.11533 0
M  V30 359 C 28.5691 5.15469 -3.30088 0
M  V30 360 N 27.7061 6.32944 -3.03853 0
M  V30 361 H 32.5461 1.91344 -2.28455 0
M  V30 362 H 30.0831 0.935466 -1.13523 0
M  V30 363 H 32.0411 4.04582 -1.01831 0
M  V30 364 H 30.6711 3.21974 -0.230837 0
M  V30 365 H 29.7231 2.76885 -2.60842 0
M  V30 366 H 31.0351 3.77759 -3.25729 0
M  V30 367 H 30.1891 5.74244 -1.95777 0
M  V30 368 H 28.9281 4.7259 -1.20457 0
M  V30 369 H 27.9331 4.26966 -3.46382 0
M  V30 370 H 29.1581 5.32052 -4.22016 0
M  V30 371 H 27.1041 6.19625 -2.15407 0
M  V30 372 H 27.0211 6.50143 -3.85812 0
M  V30 373 H 28.2891 7.22857 -2.91716 0
M  V30 374 N 32.5182 1.22032 0.997298 0
M  V30 375 C 33.9292 1.0397 1.55071 0
M  V30 376 C 34.2802 -0.398192 1.92117 0
M  V30 377 O 33.4052 -1.28254 1.74298 0
M  V30 378 C 34.0002 1.88109 2.81781 0
M  V30 379 C 32.5592 1.74357 3.33581 0
M  V30 380 C 31.7062 1.84846 2.06706 0
M  V30 381 H 34.6572 1.35941 0.818883 0
M  V30 382 H 34.6782 1.39589 3.53971 0
M  V30 383 H 34.1902 2.92754 2.54787 0
M  V30 384 H 32.2912 0.72427 3.65493 0
M  V30 385 H 32.4042 2.56772 4.04481 0
M  V30 386 H 30.7682 1.28238 2.20062 0
M  V30 387 H 31.5512 2.91014 1.82114 0
M  V30 388 N 33.9963 -1.19345 1.0293 0
M  V30 389 C 35.2443 -1.88665 0.724574 0
M  V30 390 C 35.5653 -1.80036 -0.749144 0
M  V30 391 O 34.8353 -1.2111 -1.53978 0
M  V30 392 H 33.4153 -0.698406 0.265025 0
M  V30 393 H 36.0773 -1.44885 1.30362 0
M  V30 394 H 35.1733 -2.94987 1.01926 0
M  V30 395 N 35.4744 -0.807222 -1.35358 0
M  V30 396 C 36.7224 -0.387122 -1.98358 0
M  V30 397 C 37.0434 1.04942 -1.64354 0
M  V30 398 O 36.3134 1.72615 -0.926339 0
M  V30 399 H 34.8934 -0.140154 -0.733734 0
M  V30 400 H 37.5554 -1.0332 -1.6526 0
M  V30 401 H 36.6514 -0.493352 -3.08176 0
M  V30 402 N 36.9525 1.47285 -0.560781 0
M  V30 403 C 38.1925 2.0436 -0.0404627 0
M  V30 404 C 38.5565 1.42534 1.28639 0
M  V30 405 O 39.7575 1.90677 1.89462 0
M  V30 406 C 38.0285 3.57369 0.0471856 0
M  V30 407 S 39.5875 4.3579 0.513109 0
M  V30 408 H 36.4055 0.710492 -0.0268674 0
M  V30 409 H 39.0075 1.80611 -0.748323 0
M  V30 410 H 37.7115 3.9989 -0.922817 0
M  V30 411 H 37.2425 3.8562 0.778491 0
M  V30 412 H 39.2575 4.63476 1.77212 0
M  V30 413 N 38.4306 0.297415 1.54768 0
M  V30 414 C 39.3626 -0.613881 2.20826 0
M  V30 415 C 40.3756 -1.10032 1.19987 0
M  V30 416 O 41.5646 -1.01839 1.46598 0
M  V30 417 C 38.6646 -1.852 2.83821 0
M  V30 418 C 37.8376 -1.50865 4.10559 0
M  V30 419 C 36.8966 -2.60154 4.57391 0
M  V30 420 O 35.9226 -2.25398 5.2267 0
M  V30 421 N 37.1246 -3.90629 4.29406 0
M  V30 422 H 39.8896 -0.048389 2.99661 0
M  V30 423 H 37.4506 0.11946 1.61459 0
M  V30 424 H 39.4426 -2.57652 3.12086 0
M  V30 425 H 38.0126 -2.32597 2.08847 0
M  V30 426 H 37.2326 -0.616925 3.89343 0
M  V30 427 H 38.5206 -1.25458 4.9309 0
M  V30 428 H 37.9186 -4.21677 3.77101 0
M  V30 429 H 36.4756 -4.59391 4.62388 0
M  V30 430 N 39.9087 -1.5758 0.0250728 0
M  V30 431 C 40.8187 -2.1343 -0.973905 0
M  V30 432 C 41.8347 -1.08556 -1.35984 0
M  V30 433 O 43.0107 -1.40592 -1.44207 0
M  V30 434 C 40.0757 -2.64703 -2.23904 0
M  V30 435 C 39.1367 -3.84276 -1.91391 0
M  V30 436 C 38.3697 -4.33095 -3.11873 0
M  V30 437 O 38.5927 -3.81107 -4.24398 0
M  V30 438 O 37.5267 -5.24984 -2.94406 0
M  V30 439 H 41.3527 -2.99057 -0.529036 0
M  V30 440 H 38.9377 -1.48118 -0.195288 0
M  V30 441 H 40.8197 -2.97769 -2.98181 0
M  V30 442 H 39.4947 -1.82161 -2.6758 0
M  V30 443 H 38.4017 -3.56143 -1.14511 0
M  V30 444 H 39.7347 -4.67968 -1.52534 0
M  V30 445 N 41.3868 0.248026 -1.55636 0
M  V30 446 C 42.6338 0.976224 -1.77415 0
M  V30 447 C 42.9618 1.85361 -0.589193 0
M  V30 448 O 42.2168 1.90973 0.427529 0
M  V30 449 C 42.5158 1.86819 -3.04686 0
M  V30 450 C 42.1818 1.14625 -4.36087 0
M  V30 451 C 40.8438 0.946723 -4.71795 0
M  V30 452 C 43.1958 0.634463 -5.17324 0
M  V30 453 C 40.5238 0.223091 -5.86276 0
M  V30 454 C 42.8758 -0.0756959 -6.32555 0
M  V30 455 C 41.5398 -0.286711 -6.66884 0
M  V30 456 H 40.8098 0.357226 -0.649208 0
M  V30 457 H 43.4568 0.246415 -1.89908 0
M  V30 458 H 41.7618 2.66502 -2.872 0
M  V30 459 H 43.4588 2.43329 -3.18735 0
M  V30 460 H 40.0488 1.3117 -4.08035 0
M  V30 461 H 44.2328 0.77616 -4.90193 0
M  V30 462 H 39.4888 0.0491185 -6.1138 0
M  V30 463 H 43.6628 -0.479899 -6.94745 0
M  V30 464 H 41.2898 -0.849389 -7.5544 0
M  V30 465 N 42.8649 1.48995 0.513639 0
M  V30 466 C 44.0949 1.61297 1.291 0
M  V30 467 C 44.5029 0.278656 1.87137 0
M  V30 468 O 43.8459 -0.744325 1.67945 0
M  V30 469 C 43.9079 2.61326 2.46879 0
M  V30 470 C 43.5719 4.05993 2.09807 0
M  V30 471 C 44.5689 4.93183 1.64519 0
M  V30 472 C 42.2539 4.51642 2.19829 0
M  V30 473 C 44.2479 6.24056 1.2974 0
M  V30 474 C 41.9349 5.82532 1.84662 0
M  V30 475 C 42.9329 6.68562 1.3969 0
M  V30 476 O 42.6209 7.97014 1.04992 0
M  V30 477 H 42.3529 0.546236 0.39825 0
M  V30 478 H 44.9069 1.95673 0.62459 0
M  V30 479 H 43.1369 2.22104 3.16554 0
M  V30 480 H 44.8259 2.6329 3.08923 0
M  V30 481 H 45.5919 4.59147 1.56233 0
M  V30 482 H 41.4709 3.84855 2.53786 0
M  V30 483 H 45.0149 6.91161 0.945659 0
M  V30 484 H 40.9119 6.16099 1.92594 0
M  V30 485 H 41.6799 8.09913 1.18249 0
M  V30 486 N 44.343 -0.763751 1.37857 0
M  V30 487 C 45.29 -1.87726 1.34267 0
M  V30 488 C 46.26 -1.64807 0.206879 0
M  V30 489 O 47.445 -1.86613 0.397508 0
M  V30 490 C 44.585 -3.24896 1.16346 0
M  V30 491 C 43.698 -3.59716 2.39225 0
M  V30 492 C 42.833 -4.86137 2.14114 0
M  V30 493 C 41.872 -5.13711 3.32817 0
M  V30 494 N 41.009 -6.31323 3.07206 0
M  V30 495 H 45.849 -1.90129 2.29466 0
M  V30 496 H 43.386 -0.929433 1.14017 0
M  V30 497 H 45.344 -4.04036 1.03975 0
M  V30 498 H 43.974 -3.21847 0.247909 0
M  V30 499 H 43.026 -2.75498 2.62307 0
M  V30 500 H 44.338 -3.76027 3.27728 0
M  V30 501 H 43.492 -5.73198 1.9882 0
M  V30 502 H 42.231 -4.71945 1.22961 0
M  V30 503 H 41.236 -4.25123 3.48641 0
M  V30 504 H 42.461 -5.29807 4.24832 0
M  V30 505 H 40.407 -6.18474 2.1869 0
M  V30 506 H 40.324 -6.48087 3.89254 0
M  V30 507 H 41.592 -7.213 2.95546 0
M  V30 508 N 45.8211 -1.22559 -0.990812 0
M  V30 509 C 47.0461 -1.07862 -1.77145 0
M  V30 510 C 47.4711 0.366447 -1.84496 0
M  V30 511 O 46.8291 1.26478 -1.29896 0
M  V30 512 C 46.8771 -1.69686 -3.18181 0
M  V30 513 O 45.9811 -0.951946 -4.01263 0
M  V30 514 H 45.3221 -0.378712 -0.545411 0
M  V30 515 H 47.8521 -1.62399 -1.2445 0
M  V30 516 H 47.8621 -1.74496 -3.68802 0
M  V30 517 H 46.5371 -2.74841 -3.12146 0
M  V30 518 H 45.1141 -0.980011 -3.59792 0
M  V30 519 N 47.2992 1.18797 -1.03562 0
M  V30 520 C 48.5462 1.8865 -0.736023 0
M  V30 521 C 48.8742 1.80041 0.735889 0
M  V30 522 O 48.1292 1.19179 1.55225 0
M  V30 523 C 48.4282 3.38692 -1.14117 0
M  V30 524 C 48.0942 3.67504 -2.6125 0
M  V30 525 C 46.7562 3.75078 -3.01447 0
M  V30 526 C 49.1082 3.80293 -3.56408 0
M  V30 527 C 46.4362 3.92915 -4.35701 0
M  V30 528 C 48.7882 3.99645 -4.90374 0
M  V30 529 C 47.4522 4.05453 -5.30249 0
M  V30 530 H 46.7222 0.690321 -0.26933 0
M  V30 531 H 49.3692 1.40641 -1.29971 0
M  V30 532 H 47.6742 3.88645 -0.496202 0
M  V30 533 H 49.3712 3.91072 -0.886789 0
M  V30 534 H 45.9612 3.62223 -2.29113 0
M  V30 535 H 50.1452 3.73779 -3.26501 0
M  V30 536 H 45.4012 3.95653 -4.66121 0
M  V30 537 H 49.5752 4.08482 -5.64017 0
M  V30 538 H 47.2022 4.19027 -6.34288 0
M  V30 539 N 48.7773 0.814389 1.34928 0
M  V30 540 C 49.7253 0.218424 2.31572 0
M  V30 541 C 50.7193 -0.636128 1.57002 0
M  V30 542 O 51.9253 -0.52842 1.72069 0
M  V30 543 H 48.3003 0.0518799 0.750208 0
M  V30 544 H 50.2713 1.04852 2.79372 0
M  V30 545 C 49.0203 -0.61207 3.4227 0
M  V30 546 H 48.3433 0.0361578 3.99784 0
M  V30 547 H 49.7833 -0.995317 4.12152 0
M  V30 548 C 48.2423 -1.78087 2.85984 0
M  V30 549 O 48.7723 -2.8787 2.80168 0
M  V30 550 N 46.9783 -1.59488 2.42924 0
M  V30 551 H 46.5253 -0.701874 2.47854 0
M  V30 552 H 46.4833 -2.37846 2.05613 0
M  V30 553 N 50.2554 -1.46986 0.568584 0
M  V30 554 C 51.5044 -2.01646 0.0465894 0
M  V30 555 C 51.8174 -1.44721 -1.31587 0
M  V30 556 O 53.0234 -1.91113 -1.92842 0
M  V30 557 C 51.4794 -3.59885 0.032752 0
M  V30 558 C 51.0874 -4.25804 1.39266 0
M  V30 559 C 52.8314 -4.22255 -0.436038 0
M  V30 560 C 50.7384 -5.76081 1.33732 0
M  V30 561 H 49.6684 -0.753876 0.013647 0
M  V30 562 H 52.3194 -1.68864 0.718131 0
M  V30 563 H 50.7014 -3.8968 -0.704669 0
M  V30 564 H 51.8754 -4.07637 2.1487 0
M  V30 565 H 50.1904 -3.7547 1.80032 0
M  V30 566 H 52.7874 -5.32394 -0.49602 0
M  V30 567 H 53.1304 -3.90212 -1.45053 0
M  V30 568 H 53.6634 -3.97033 0.246877 0
M  V30 569 H 50.4024 -6.12761 2.32817 0
M  V30 570 H 49.9224 -5.96553 0.623267 0
M  V30 571 H 51.6014 -6.38518 1.0442 0
M  V30 572 N 51.7335 -0.305618 -1.54608 0
M  V30 573 C 52.6665 0.610536 -2.19881 0
M  V30 574 C 53.6445 1.1294 -1.16976 0
M  V30 575 O 54.8285 1.19673 -1.45638 0
M  V30 576 C 51.9555 1.83583 -2.84631 0
M  V30 577 C 51.0015 1.4498 -4.01102 0
M  V30 578 S 51.8345 0.501793 -5.33144 0
M  V30 579 C 52.9905 1.73478 -6.01379 0
M  V30 580 H 53.2235 0.0560177 -2.97247 0
M  V30 581 H 50.7565 -0.0897434 -1.54139 0
M  V30 582 H 52.7145 2.53898 -3.22562 0
M  V30 583 H 51.3755 2.36152 -2.07102 0
M  V30 584 H 50.5685 2.36236 -4.45206 0
M  V30 585 H 50.1705 0.826553 -3.64752 0
M  V30 586 H 52.4625 2.67473 -6.22467 0
M  V30 587 H 53.4055 1.33622 -6.95378 0
M  V30 588 H 53.8135 1.9136 -5.31076 0
M  V30 589 N 53.2116 1.57565 -0.0334293 0
M  V30 590 C 54.1586 2.10478 0.946981 0
M  V30 591 C 55.1286 1.00787 1.32027 0
M  V30 592 O 56.3136 1.28232 1.41284 0
M  V30 593 C 53.4536 2.63994 2.22263 0
M  V30 594 C 52.5666 3.87709 1.90541 0
M  V30 595 C 51.7016 4.29604 3.12433 0
M  V30 596 C 50.7406 5.46065 2.76549 0
M  V30 597 N 49.8776 5.83096 3.9108 0
M  V30 598 H 54.7176 2.93963 0.488846 0
M  V30 599 H 52.2546 1.45296 0.22969 0
M  V30 600 H 54.2126 2.93114 2.96884 0
M  V30 601 H 52.8426 1.83333 2.65685 0
M  V30 602 H 51.8946 3.65291 1.06144 0
M  V30 603 H 53.2066 4.72403 1.60116 0
M  V30 604 H 52.3606 4.60182 3.9537 0
M  V30 605 H 51.0996 3.43685 3.46023 0
M  V30 606 H 50.1046 5.15176 1.92026 0
M  V30 607 H 51.3296 6.33685 2.44171 0
M  V30 608 H 49.2756 5.00132 4.24504 0
M  V30 609 H 49.1926 6.6244 3.64293 0
M  V30 610 H 50.4606 6.18282 4.74708 0
M  V30 611 N 54.6897 -0.239769 1.55765 0
M  V30 612 C 55.6377 -1.31668 1.91745 0
M  V30 613 C 56.6317 -1.49462 0.797338 0
M  V30 614 O 57.8377 -1.50852 0.982021 0
M  V30 615 H 54.2127 -0.441048 0.609082 0
M  V30 616 H 56.1837 -0.985923 2.81642 0
M  V30 617 C 54.9327 -2.66368 2.2348 0
M  V30 618 H 54.2557 -2.53478 3.09175 0
M  V30 619 H 55.6957 -3.40578 2.52553 0
M  V30 620 C 54.1547 -3.20002 1.05359 0
M  V30 621 O 54.6847 -4.00538 0.305261 0
M  V30 622 N 52.8907 -2.78126 0.842292 0
M  V30 623 H 52.4377 -2.12742 1.45253 0
M  V30 624 H 52.3957 -3.14354 0.053652 0
M  V30 625 N 56.1678 -1.49265 -0.50573 0
M  V30 626 C 57.4168 -1.57761 -1.25675 0
M  V30 627 C 57.7298 -0.267371 -1.93764 0
M  V30 628 O 58.9358 -0.230827 -2.70517 0
M  V30 629 C 57.3918 -2.78332 -2.28165 0
M  V30 630 C 56.9998 -4.16096 -1.66037 0
M  V30 631 C 58.7438 -2.96155 -3.04125 0
M  V30 632 C 56.6508 -5.27895 -2.6661 0
M  V30 633 H 55.5808 -0.587391 -0.472745 0
M  V30 634 H 58.2318 -1.75644 -0.53118 0
M  V30 635 H 56.6138 -2.53934 -3.03865 0
M  V30 636 H 57.7878 -4.50612 -0.963622 0
M  V30 637 H 56.1028 -4.03591 -1.02484 0
M  V30 638 H 58.6998 -3.76849 -3.79327 0
M  V30 639 H 59.0428 -2.06534 -3.61455 0
M  V30 640 H 59.5758 -3.2057 -2.35541 0
M  V30 641 H 56.3148 -6.1956 -2.14068 0
M  V30 642 H 55.8348 -4.97839 -3.34539 0
M  V30 643 H 57.5138 -5.57031 -3.29129 0
M  V30 644 N 57.6459 0.756429 -1.3826 0
M  V30 645 C 58.8919 1.5168 -1.35517 0
M  V30 646 C 59.2469 1.9232 0.0554451 0
M  V30 647 O 58.5399 1.62352 1.01746 0
M  V30 648 C 58.7339 2.78313 -2.24224 0
M  V30 649 C 58.5629 2.50053 -3.7377 0
M  V30 650 C 57.3329 2.43414 -4.42807 0
M  V30 651 C 59.5309 2.1702 -4.66269 0
M  V30 652 N 57.5129 2.07398 -5.77805 0
M  V30 653 C 58.8839 1.91271 -5.89759 0
M  V30 654 C 60.9389 2.03305 -4.54501 0
M  V30 655 C 59.6419 1.53192 -7.02798 0
M  V30 656 C 61.6679 1.66627 -5.67441 0
M  V30 657 C 61.0299 1.4175 -6.8999 0
M  V30 658 H 57.1289 0.554735 -0.551174 0
M  V30 659 H 59.7129 0.881106 -1.73622 0
M  V30 660 H 57.8839 3.39696 -1.88311 0
M  V30 661 H 59.6159 3.44343 -2.12627 0
M  V30 662 H 56.3709 2.59789 -3.95988 0
M  V30 663 H 56.7949 1.92044 -6.4919 0
M  V30 664 H 61.4369 2.21215 -3.60311 0
M  V30 665 H 59.1549 1.34022 -7.96909 0
M  V30 666 H 62.7409 1.56652 -5.60314 0
M  V30 667 H 61.6209 1.1379 -7.759 0
M  V30 668 N 59.124 1.23083 0.984299 0
M  V30 669 C 60.373 1.05466 1.71929 0
M  V30 670 C 60.686 -0.409211 1.91272 0
M  V30 671 O 61.892 -0.705226 2.62181 0
M  V30 672 C 60.348 1.83874 3.09384 0
M  V30 673 C 59.956 3.34566 2.97943 0
M  V30 674 C 61.7 1.74734 3.8687 0
M  V30 675 C 59.607 4.05381 4.30605 0
M  V30 676 H 58.537 0.391039 0.644674 0
M  V30 677 H 61.188 1.47013 1.09815 0
M  V30 678 H 59.57 1.35131 3.72231 0
M  V30 679 H 60.744 3.90767 2.44209 0
M  V30 680 H 59.059 3.44476 2.33934 0
M  V30 681 H 61.656 2.24957 4.85076 0
M  V30 682 H 61.999 0.709372 4.10212 0
M  V30 683 H 62.532 2.21067 3.30717 0
M  V30 684 H 59.271 5.09467 4.1246 0
M  V30 685 H 58.791 3.53967 4.84218 0
M  V30 686 H 60.47 4.11458 4.99311 0
M  V30 687 N 60.6021 -1.18246 1.0419 0
M  V30 688 C 61.8511 -1.87588 0.741194 0
M  V30 689 C 62.1641 -1.81303 -0.734066 0
M  V30 690 O 63.3701 -2.46019 -1.14834 0
M  V30 691 C 61.8261 -3.36538 1.27555 0
M  V30 692 C 61.4341 -3.51349 2.77953 0
M  V30 693 C 63.1781 -4.11273 1.05143 0
M  V30 694 C 61.0851 -4.94265 3.2474 0
M  V30 695 H 60.0151 -0.702622 0.273565 0
M  V30 696 H 62.6661 -1.33601 1.25789 0
M  V30 697 H 61.0481 -3.9 0.686703 0
M  V30 698 H 62.2221 -3.08153 3.42605 0
M  V30 699 H 60.5371 -2.90022 2.98791 0
M  V30 700 H 63.1341 -5.16689 1.37611 0
M  V30 701 H 63.4771 -4.16298 -0.0112774 0
M  V30 702 H 64.0101 -3.63987 1.60495 0
M  V30 703 H 60.7491 -4.94408 4.30396 0
M  V30 704 H 60.2691 -5.38172 2.64823 0
M  V30 705 H 61.9481 -5.62987 3.18834 0
M  V30 706 N 62.0802 -0.821533 -1.34494 0
M  V30 707 C 63.4912 -0.467956 -1.8074 0
M  V30 708 C 63.8422 1.01151 -1.68116 0
M  V30 709 O 62.9672 1.78707 -1.22036 0
M  V30 710 C 63.5622 -0.842627 -3.28154 0
M  V30 711 C 62.1212 -0.541439 -3.72485 0
M  V30 712 C 61.2682 -1.06028 -2.56229 0
M  V30 713 H 64.2192 -1.01183 -1.22261 0
M  V30 714 H 64.2402 -0.145876 -3.8022 0
M  V30 715 H 63.7522 -1.91945 -3.37311 0
M  V30 716 H 61.8532 0.526034 -3.68868 0
M  V30 717 H 61.9662 -1.08453 -4.66663 0
M  V30 718 H 60.3302 -0.481892 -2.501 0
M  V30 719 H 61.1132 -2.14352 -2.68157 0
M  V30 720 N 63.5583 1.46682 -0.576371 0
M  V30 721 C 64.4683 2.34032 0.163141 0
M  V30 722 C 65.4843 1.49367 0.892501 0
M  V30 723 O 66.6603 1.82252 0.857106 0
M  V30 724 C 63.7253 3.26435 1.16795 0
M  V30 725 C 62.7863 4.26998 0.443944 0
M  V30 726 C 62.0193 5.14986 1.40088 0
M  V30 727 O 62.2423 5.05785 2.637 0
M  V30 728 O 61.1763 5.94906 0.914917 0
M  V30 729 H 65.0023 2.98607 -0.55388 0
M  V30 730 H 62.5873 1.45554 -0.336821 0
M  V30 731 H 64.4693 3.83459 1.74748 0
M  V30 732 H 63.1443 2.64465 1.86655 0
M  V30 733 H 62.0513 3.7368 -0.177271 0
M  V30 734 H 63.3843 4.91736 -0.213566 0
M  V30 735 N 65.0364 0.313813 1.54444 0
M  V30 736 C 66.4524 -0.0391619 1.59552 0
M  V30 737 C 66.6524 -1.51322 1.33056 0
M  V30 738 O 65.7084 -2.26782 1.11022 0
M  V30 739 C 67.0214 0.370302 2.98411 0
M  V30 740 C 68.5694 0.320139 3.11358 0
M  V30 741 C 69.0444 0.704617 4.52547 0
M  V30 742 N 70.5354 0.657645 4.58508 0
M  V30 743 C 71.2704 0.927453 5.6585 0
M  V30 744 N 70.7664 1.26389 6.81174 0
M  V30 745 N 72.5594 0.853662 5.5558 0
M  V30 746 H 64.7104 1.27433 1.69925 0
M  V30 747 H 66.9734 0.517511 0.794284 0
M  V30 748 H 66.6794 1.39694 3.22767 0
M  V30 749 H 66.5534 -0.269619 3.76235 0
M  V30 750 H 68.9404 -0.697275 2.86744 0
M  V30 751 H 69.0214 0.99486 2.35661 0
M  V30 752 H 68.6654 1.7199 4.77893 0
M  V30 753 H 68.5954 0.00768843 5.26599 0
M  V30 754 H 71.0864 0.409067 3.75679 0
M  V30 755 H 71.3994 1.4554 7.58972 0
M  V30 756 H 69.7444 1.30206 6.82694 0
M  V30 757 H 72.9354 0.590383 4.64362 0
M  V30 758 H 73.1084 1.0673 6.3915 0
M  V30 759 N 66.5145 -1.57545 0.0417849 0
M  V30 760 C 67.4625 -2.12148 -0.953723 0
M  V30 761 C 68.4565 -1.05104 -1.32852 0
M  V30 762 O 69.6625 -1.23524 -1.30927 0
M  V30 763 H 66.0375 -0.677957 -0.325389 0
M  V30 764 H 68.0085 -2.94707 -0.467991 0
M  V30 765 C 66.7575 -2.6739 -2.22257 0
M  V30 766 H 66.0805 -3.49413 -1.94295 0
M  V30 767 H 67.5205 -3.09227 -2.90094 0
M  V30 768 C 65.9795 -1.60723 -2.96091 0
M  V30 769 O 66.5095 -1.01449 -3.88679 0
M  V30 770 N 64.7155 -1.32466 -2.58652 0
M  V30 771 H 64.2625 -1.80856 -1.83437 0
M  V30 772 H 64.2205 -0.61325 -3.08361 0
M  V30 773 N 67.9926 0.231505 -1.5589 0
M  V30 774 C 69.2386 0.95877 -1.78705 0
M  V30 775 C 69.5716 1.8438 -0.609725 0
M  V30 776 O 68.8466 1.90521 0.391426 0
M  V30 777 C 69.1296 1.8062 -3.11526 0
M  V30 778 C 68.9826 0.948328 -4.39689 0
M  V30 779 C 70.3016 2.78585 -3.40703 0
M  V30 780 H 67.4206 0.347129 -0.650131 0
M  V30 781 H 70.0626 0.228259 -1.88624 0
M  V30 782 H 68.2126 2.42902 -3.03201 0
M  V30 783 H 69.8846 0.343016 -4.60023 0
M  V30 784 H 68.1276 0.253314 -4.3306 0
M  V30 785 H 68.7986 1.57543 -5.29041 0
M  V30 786 H 71.2746 2.26439 -3.49091 0
M  V30 787 H 70.1506 3.34988 -4.34826 0
M  V30 788 H 70.4116 3.55825 -2.62375 0
M  V30 789 N 69.4707 1.49531 0.497807 0
M  V30 790 C 70.7197 1.58426 1.24837 0
M  V30 791 C 71.0327 0.277643 1.93619 0
M  V30 792 O 72.2387 0.24517 2.70391 0
M  V30 793 C 70.6947 2.79538 2.26686 0
M  V30 794 C 70.3027 4.16971 1.63828 0
M  V30 795 C 72.0467 2.97764 3.0255 0
M  V30 796 C 69.9537 5.29301 2.63807 0
M  V30 797 H 68.8837 0.58989 0.469623 0
M  V30 798 H 71.5347 1.75923 0.521857 0
M  V30 799 H 69.9167 2.55542 3.02514 0
M  V30 800 H 71.0907 4.51116 0.939711 0
M  V30 801 H 69.4057 4.04129 1.00342 0
M  V30 802 H 72.0027 3.78856 3.77323 0
M  V30 803 H 72.3457 2.08448 3.60354 0
M  V30 804 H 72.8787 3.21815 2.33838 0
M  V30 805 H 69.6177 6.20687 2.10779 0
M  V30 806 H 69.1377 4.99606 3.31894 0
M  V30 807 H 70.8167 5.58768 3.2617 0
M  V30 808 N 70.9488 -0.749086 1.3866 0
M  V30 809 C 72.1968 -1.50535 1.34847 0
M  V30 810 C 72.5178 -1.94909 -0.0595016 0
M  V30 811 O 71.7878 -1.67973 -1.00806 0
M  V30 812 H 70.3678 -0.558395 0.49619 0
M  V30 813 H 73.0298 -0.890165 1.73384 0
M  V30 814 H 72.1258 -2.39413 2.00219 0
M  V30 815 N 72.4269 -1.23603 -0.977757 0
M  V30 816 C 73.6549 -1.09646 -1.75458 0
M  V30 817 C 74.0699 0.351859 -1.85492 0
M  V30 818 O 73.4269 1.24327 -1.336 0
M  V30 819 C 73.4779 -1.71895 -3.18016 0
M  V30 820 O 73.1989 -3.11063 -3.08498 0
M  V30 821 C 74.6999 -1.63415 -4.12081 0
M  V30 822 H 71.9199 -0.38359 -0.550545 0
M  V30 823 H 74.4639 -1.63507 -1.22824 0
M  V30 824 H 72.6189 -1.22061 -3.67668 0
M  V30 825 H 73.0329 -3.41305 -3.9826 0
M  V30 826 H 74.5069 -2.11669 -5.09804 0
M  V30 827 H 74.9839 -0.593462 -4.35172 0
M  V30 828 H 75.5899 -2.12628 -3.68334 0
M  V30 829 N 73.905 1.17692 -1.04816 0
M  V30 830 C 75.133 1.91786 -0.776254 0
M  V30 831 C 75.548 1.76604 0.667577 0
M  V30 832 O 74.905 1.10067 1.45573 0
M  V30 833 C 74.956 3.42967 -1.14263 0
M  V30 834 O 74.677 3.57678 -2.52978 0
M  V30 835 C 76.178 4.34144 -0.896311 0
M  V30 836 H 73.398 0.608624 -0.282519 0
M  V30 837 H 75.942 1.49268 -1.39783 0
M  V30 838 H 74.097 3.83245 -0.565874 0
M  V30 839 H 74.511 4.51319 -2.67229 0
M  V30 840 H 75.985 5.38744 -1.20244 0
M  V30 841 H 76.462 4.38876 0.168636 0
M  V30 842 H 77.068 3.99574 -1.45672 0
M  V30 843 N 75.3831 0.828654 1.34056 0
M  V30 844 C 76.7941 0.477534 1.8049 0
M  V30 845 C 77.1451 -1.00258 1.6865 0
M  V30 846 O 76.2701 -1.78057 1.22982 0
M  V30 847 C 76.8651 0.860018 3.27703 0
M  V30 848 C 75.4241 0.561185 3.72193 0
M  V30 849 C 74.5711 1.07385 2.55663 0
M  V30 850 H 77.5221 1.0183 1.21722 0
M  V30 851 H 77.5431 0.166038 3.80138 0
M  V30 852 H 77.0551 1.93731 3.36288 0
M  V30 853 H 75.1561 -0.506465 3.69142 0
M  V30 854 H 75.2691 1.10926 4.66082 0
M  V30 855 H 73.6331 0.495149 2.49841 0
M  V30 856 H 74.4161 2.15771 2.67016 0
M  V30 857 N 76.8612 -1.46375 0.584142 0
M  V30 858 C 77.7932 -2.28443 -0.186119 0
M  V30 859 C 78.8062 -1.38596 -0.854115 0
M  V30 860 O 79.9952 -1.63183 -0.723438 0
M  V30 861 C 77.0952 -3.13671 -1.28311 0
M  V30 862 C 76.2682 -4.31652 -0.706758 0
M  V30 863 C 75.3272 -4.98267 -1.69163 0
M  V30 864 O 74.3532 -5.55815 -1.22712 0
M  V30 865 N 75.5552 -4.95408 -3.02575 0
M  V30 866 H 78.3202 -2.9519 0.517986 0
M  V30 867 H 75.8812 -1.56303 0.42201 0
M  V30 868 H 77.8732 -3.55101 -1.94128 0
M  V30 869 H 76.4432 -2.48989 -1.89005 0
M  V30 870 H 75.6632 -3.93989 0.128908 0
M  V30 871 H 76.9512 -5.07906 -0.301506 0
M  V30 872 H 76.3492 -4.49902 -3.42936 0
M  V30 873 H 74.9062 -5.40774 -3.63877 0
M  V30 874 N 78.3393 -0.321999 -1.54275 0
M  V30 875 C 79.6163 0.335232 -1.92706 0
M  V30 876 C 79.9963 1.70006 -1.25145 0
M  V30 877 O 79.3443 2.25067 -0.394596 0
M  V30 878 C 79.5543 0.429008 -3.46353 0
M  V30 879 C 80.9023 0.690029 -4.18956 0
M  V30 880 O 81.9263 0.511992 -3.52501 0
M  V30 881 O 80.7853 1.03338 -5.36641 0
M  V30 882 H 77.8793 0.191143 -0.804608 0
M  V30 883 H 80.4253 -0.3716 -1.65581 0
M  V30 884 H 79.1973 -0.529611 -3.87699 0
M  V30 885 H 78.8203 1.18348 -3.79578 0
M  V30 886 N 79.8174 1.5752 -0.0501392 0
M  V30 887 C 81.0644 1.9265 0.623874 0
M  V30 888 C 81.3924 0.928411 1.70912 0
M  V30 889 O 80.6474 -0.0594525 1.9561 0
M  V30 890 C 80.9464 3.34467 1.25963 0
M  V30 891 C 80.6124 4.49883 0.302689 0
M  V30 892 C 79.2744 4.81184 0.0393636 0
M  V30 893 C 81.6264 5.20002 -0.353205 0
M  V30 894 C 78.9544 5.79951 -0.887308 0
M  V30 895 C 81.3064 6.1976 -1.26806 0
M  V30 896 C 79.9704 6.49491 -1.54007 0
M  V30 897 H 79.2404 0.704957 0.228292 0
M  V30 898 H 81.8874 1.91146 -0.116398 0
M  V30 899 H 80.1924 3.32333 2.07514 0
M  V30 900 H 81.8894 3.58928 1.78806 0
M  V30 901 H 78.4794 4.25457 0.518109 0
M  V30 902 H 82.6634 4.96033 -0.162854 0
M  V30 903 H 77.9194 6.01322 -1.10553 0
M  V30 904 H 82.0934 6.73205 -1.78236 0
M  V30 905 H 79.7204 7.25837 -2.25976 0
M  V30 906 N 81.2955 -0.223234 1.56011 0
M  V30 907 C 82.2455 -1.28008 1.88674 0
M  V30 908 C 83.2295 -1.42369 0.749663 0
M  V30 909 O 84.4215 -1.45212 1.01205 0
M  V30 910 C 81.5505 -2.63084 2.20548 0
M  V30 911 C 80.6365 -2.52632 3.40643 0
M  V30 912 N 81.0275 -2.11829 4.59306 0
M  V30 913 C 79.3255 -2.83594 3.44224 0
M  V30 914 C 80.0265 -2.12587 5.41463 0
M  V30 915 N 79.0025 -2.5301 4.81131 0
M  V30 916 H 82.8045 -0.955487 2.77935 0
M  V30 917 H 80.3185 -0.431801 1.56554 0
M  V30 918 H 82.3155 -3.39385 2.42122 0
M  V30 919 H 80.9755 -2.96391 1.32599 0
M  V30 920 H 81.9865 -1.82988 4.84496 0
M  V30 921 H 78.6635 -3.21284 2.66614 0
M  V30 922 H 80.0535 -1.83179 6.46448 0
M  V30 923 N 82.7736 -1.49793 -0.48987 0
M  V30 924 C 84.1846 -1.52914 -1.07118 0
M  V30 925 C 84.5356 -0.321738 -1.93544 0
M  V30 926 O 83.6606 0.567338 -2.08831 0
M  V30 927 C 84.2556 -2.771 -1.94938 0
M  V30 928 C 82.8146 -2.82963 -2.48212 0
M  V30 929 C 81.9616 -2.46972 -1.26096 0
M  V30 930 H 84.9126 -1.56329 -0.273289 0
M  V30 931 H 84.9336 -2.57892 -2.79771 0
M  V30 932 H 84.4456 -3.64959 -1.32009 0
M  V30 933 H 82.5466 -1.99411 -3.14748 0
M  V30 934 H 82.6596 -3.85406 -2.84603 0
M  V30 935 H 81.0236 -1.98994 -1.58976 0
M  V30 936 H 81.8066 -3.37118 -0.648581 0
M  V30 937 N 84.2517 0.741722 -1.39055 0
M  V30 938 C 85.6627 1.31966 -1.32068 0
M  V30 939 C 86.0137 1.96192 0.0180797 0
M  V30 940 O 85.1387 1.95861 0.920196 0
M  V30 941 C 85.7337 2.39954 -2.39181 0
M  V30 942 C 84.2927 2.93438 -2.35735 0
M  V30 943 C 83.4397 1.66936 -2.21422 0
M  V30 944 H 86.3907 0.539721 -1.4924 0
M  V30 945 H 86.4117 3.20182 -2.05581 0
M  V30 946 H 85.9237 1.9318 -3.36605 0
M  V30 947 H 84.0247 3.4451 -1.41929 0
M  V30 948 H 84.1377 3.4701 -3.30335 0
M  V30 949 H 82.5017 1.91016 -1.68478 0
M  V30 950 H 83.2847 1.22224 -3.20806 0
M  V30 951 N 85.7298 1.2412 0.971189 0
M  V30 952 C 86.9578 1.10575 1.74874 0
M  V30 953 C 87.3728 -0.342017 1.85676 0
M  V30 954 O 86.7298 -1.23617 1.34258 0
M  V30 955 C 86.7808 1.73579 3.171 0
M  V30 956 O 86.5018 3.12695 3.06844 0
M  V30 957 C 88.0028 1.65598 4.11208 0
M  V30 958 H 85.2228 0.386504 0.548503 0
M  V30 959 H 87.7668 1.64156 1.21955 0
M  V30 960 H 85.9218 1.24009 3.67016 0
M  V30 961 H 86.3358 3.43412 3.96445 0
M  V30 962 H 87.8098 2.1437 5.08674 0
M  V30 963 H 88.2868 0.616532 4.34851 0
M  V30 964 H 88.8928 2.14578 3.67201 0
M  V30 965 N 87.2079 -1.17134 1.05439 0
M  V30 966 C 88.4329 -1.91913 0.786396 0
M  V30 967 C 88.8579 -1.7643 -0.652234 0
M  V30 968 O 88.2159 -1.08372 -1.45345 0
M  V30 969 C 88.2639 -3.40921 1.17497 0
M  V30 970 O 87.3679 -4.11244 0.308589 0
M  V30 971 H 86.7089 -0.598215 0.288158 0
M  V30 972 H 89.2389 -1.48457 1.4079 0
M  V30 973 H 89.2489 -3.91668 1.14281 0
M  V30 974 H 87.9239 -3.5151 2.22292 0
M  V30 975 H 86.5009 -3.70731 0.40157 0
M  V30 976 N 88.686 -0.835752 -1.33615 0
M  V30 977 C 89.616 -0.281739 -2.31794 0
M  V30 978 C 90.597 0.608833 -1.58831 0
M  V30 979 O 91.782 0.533035 -1.86741 0
M  V30 980 C 88.912 0.546612 -3.42971 0
M  V30 981 C 87.866 -0.247904 -4.27281 0
M  V30 982 C 87.192 0.704001 -5.30045 0
M  V30 983 C 88.492 -1.46324 -5.01385 0
M  V30 984 H 90.186 -1.10206 -2.78379 0
M  V30 985 H 87.732 -0.531388 -1.33837 0
M  V30 986 H 89.685 0.944467 -4.1068 0
M  V30 987 H 88.409 1.40011 -2.95067 0
M  V30 988 H 87.068 -0.627281 -3.61194 0
M  V30 989 H 86.716 1.55381 -4.78399 0
M  V30 990 H 86.416 0.176524 -5.87335 0
M  V30 991 H 87.94 1.09944 -6.0062 0
M  V30 992 H 89.354 -1.13871 -5.61877 0
M  V30 993 H 87.751 -1.92728 -5.6831 0
M  V30 994 H 88.821 -2.23467 -4.30338 0
M  V30 995 N 90.1641 1.46063 -0.591896 0
M  V30 996 C 91.1111 2.30399 0.136069 0
M  V30 997 C 92.0811 1.41169 0.875238 0
M  V30 998 O 93.2661 1.70112 0.86409 0
M  V30 999 C 90.4061 3.25804 1.13781 0
M  V30 1000 C 89.5191 4.30134 0.401137 0
M  V30 1001 C 88.6541 5.12659 1.39121 0
M  V30 1002 C 87.6931 6.0873 0.641462 0
M  V30 1003 N 86.8301 6.8409 1.58004 0
M  V30 1004 H 91.6701 2.92118 -0.589144 0
M  V30 1005 H 89.2071 1.43959 -0.302342 0
M  V30 1006 H 91.1651 3.79569 1.73156 0
M  V30 1007 H 89.7951 2.65872 1.83062 0
M  V30 1008 H 88.8471 3.79152 -0.307826 0
M  V30 1009 H 90.1591 4.98458 -0.184565 0
M  V30 1010 H 89.3131 5.70747 2.05749 0
M  V30 1011 H 88.0521 4.44316 2.01084 0
M  V30 1012 H 87.0571 5.49786 -0.0385419 0
M  V30 1013 H 88.2821 6.79095 0.0270945 0
M  V30 1014 H 86.2281 6.18449 2.18761 0
M  V30 1015 H 86.1451 7.48709 1.04738 0
M  V30 1016 H 87.4131 7.4673 2.23639 0
M  V30 1017 N 91.6422 0.330177 1.54103 0
M  V30 1018 C 92.5902 -0.548226 2.26047 0
M  V30 1019 C 93.5842 -1.11309 1.27698 0
M  V30 1020 O 94.7902 -1.06036 1.45452 0
M  V30 1021 H 91.1652 -0.195456 0.726155 0
M  V30 1022 H 93.1362 0.0807567 2.98291 0
M  V30 1023 C 91.8852 -1.69415 3.03634 0
M  V30 1024 H 91.2082 -1.26876 3.79134 0
M  V30 1025 H 92.6482 -2.28423 3.5721 0
M  V30 1026 C 91.1072 -2.61569 2.12328 0
M  V30 1027 O 91.6372 -3.63462 1.7105 0
M  V30 1028 N 89.8432 -2.29952 1.77681 0
M  V30 1029 H 89.3902 -1.47134 2.11446 0
M  V30 1030 H 89.3482 -2.91871 1.16869 0
M  V30 1031 N 93.1203 -1.57491 0.0584922 0
M  V30 1032 C 94.3683 -1.92597 -0.612436 0
M  V30 1033 C 94.6893 -0.938162 -1.70949 0
M  V30 1034 O 93.9593 0.0158301 -1.95894 0
M  V30 1035 H 92.5393 -0.710964 -0.229214 0
M  V30 1036 H 95.2013 -1.94571 0.113218 0
M  V30 1037 H 94.2973 -2.94038 -1.04633 0
M  V30 1038 N 94.5984 0.214957 -1.56127 0
M  V30 1039 C 95.8754 0.963093 -1.70247 0
M  V30 1040 C 96.2554 2.02166 -0.60764 0
M  V30 1041 O 95.6034 2.25244 0.384385 0
M  V30 1042 C 95.8134 1.56756 -3.11815 0
M  V30 1043 C 97.1614 2.0573 -3.7143 0
M  V30 1044 O 98.1854 1.66637 -3.14818 0
M  V30 1045 O 97.0444 2.77603 -4.70743 0
M  V30 1046 H 94.1384 0.450321 -0.693643 0
M  V30 1047 H 96.6844 0.206219 -1.68442 0
M  V30 1048 H 95.4564 0.803533 -3.82961 0
M  V30 1049 H 95.0794 2.3898 -3.17765 0
M  V30 1050 N 96.0765 1.50051 0.48192 0
M  V30 1051 C 97.3015 1.64508 1.26301 0
M  V30 1052 C 97.7265 0.323851 1.85291 0
M  V30 1053 O 97.0845 -0.710969 1.66778 0
M  V30 1054 C 97.1325 2.7305 2.35533 0
M  V30 1055 O 96.2365 2.3355 3.39895 0
M  V30 1056 H 95.5775 0.549978 0.372048 0
M  V30 1057 H 98.1075 1.9636 0.574786 0
M  V30 1058 H 98.1175 2.95799 2.8101 0
M  V30 1059 H 96.7925 3.68946 1.91967 0
M  V30 1060 H 95.3695 2.21205 3.00204 0
M  V30 1061 N 97.5546 -0.734337 1.39446 0
M  V30 1062 C 98.7796 -1.52866 1.40167 0
M  V30 1063 C 99.2046 -1.881 -0.00171513 0
M  V30 1064 O 98.5626 -1.51957 -0.988879 0
M  V30 1065 C 98.6106 -2.79235 2.28167 0
M  V30 1066 O 97.7146 -3.75185 1.71201 0
M  V30 1067 H 97.0556 -0.461618 0.477289 0
M  V30 1068 H 99.5856 -0.905949 1.8345 0
M  V30 1069 H 99.5956 -3.27963 2.42702 0
M  V30 1070 H 98.2706 -2.52923 3.30156 0
M  V30 1071 H 96.8476 -3.33958 1.65912 0
M  V30 1072 N 99.0327 -1.24633 -0.964593 0
M  V30 1073 C 100.263 -1.11339 -1.74032 0
M  V30 1074 C 100.671 0.336593 -1.86182 0
M  V30 1075 O 100.014 1.24389 -1.35178 0
M  V30 1076 C 100.076 -1.68284 -3.1768 0
M  V30 1077 C 99.7397 -3.17196 -3.28992 0
M  V30 1078 C 100.737 -4.14308 -3.14078 0
M  V30 1079 C 98.4217 -3.57215 -3.53133 0
M  V30 1080 C 100.416 -5.4942 -3.23135 0
M  V30 1081 C 98.1027 -4.92468 -3.61827 0
M  V30 1082 C 99.1007 -5.8838 -3.46841 0
M  V30 1083 O 98.7887 -7.21173 -3.55197 0
M  V30 1084 H 98.5207 -0.389551 -0.552472 0
M  V30 1085 H 101.075 -1.65282 -1.21946 0
M  V30 1086 H 99.3047 -1.08777 -3.71085 0
M  V30 1087 H 100.994 -1.50234 -3.77074 0
M  V30 1088 H 101.76 -3.84731 -2.95308 0
M  V30 1089 H 97.6387 -2.83063 -3.63863 0
M  V30 1090 H 101.183 -6.24263 -3.11355 0
M  V30 1091 H 97.0797 -5.21714 -3.80111 0
M  V30 1092 H 97.8477 -7.29135 -3.71892 0
M  V30 1093 N 100.511 1.16574 -1.06058 0
M  V30 1094 C 101.741 1.90675 -0.795397 0
M  V30 1095 C 102.149 1.77547 0.653735 0
M  V30 1096 O 101.492 1.11611 1.45907 0
M  V30 1097 C 101.554 3.42011 -1.10764 0
M  V30 1098 C 101.218 3.78924 -2.55471 0
M  V30 1099 C 102.215 3.81042 -3.53699 0
M  V30 1100 C 99.8998 4.09626 -2.90708 0
M  V30 1101 C 101.894 4.13346 -4.85205 0
M  V30 1102 C 99.5808 4.41597 -4.22416 0
M  V30 1103 C 100.579 4.43436 -5.19474 0
M  V30 1104 O 100.267 4.74649 -6.48817 0
M  V30 1105 H 99.9988 0.611554 -0.288058 0
M  V30 1106 H 102.553 1.48711 -1.41683 0
M  V30 1107 H 100.783 3.84312 -0.429128 0
M  V30 1108 H 102.472 3.97384 -0.827077 0
M  V30 1109 H 103.238 3.57437 -3.27817 0
M  V30 1110 H 99.1168 4.07361 -2.15819 0
M  V30 1111 H 102.661 4.14696 -5.60957 0
M  V30 1112 H 98.5578 4.64667 -4.48056 0
M  V30 1113 H 99.3258 4.9247 -6.5377 0
M  V30 1114 N 101.989 0.842826 1.3317 0
M  V30 1115 C 103.266 0.362216 1.92217 0
M  V30 1116 C 103.646 -1.15289 1.76838 0
M  V30 1117 O 102.994 -1.96914 1.15919 0
M  V30 1118 C 103.204 0.813495 3.39387 0
M  V30 1119 C 104.552 0.823804 4.16532 0
M  V30 1120 O 105.576 0.757358 3.48055 0
M  V30 1121 O 104.435 0.915193 5.38782 0
M  V30 1122 H 101.529 0.103317 0.820521 0
M  V30 1123 H 104.075 0.928942 1.42017 0
M  V30 1124 H 102.847 1.85624 3.4447 0
M  V30 1125 H 102.47 0.223561 3.96971 0
M  V30 1126 N 103.467 -1.45747 0.599634 0
M  V30 1127 C 104.878 -1.85853 0.177681 0
M  V30 1128 C 105.229 -1.50102 -1.26348 0
M  V30 1129 O 104.354 -0.923905 -1.95686 0
M  V30 1130 C 104.949 -3.37326 0.315688 0
M  V30 1131 C 103.508 -3.76365 -0.0515144 0
M  V30 1132 C 102.655 -2.69722 0.643822 0
M  V30 1133 H 105.606 -1.36661 0.806814 0
M  V30 1134 H 105.627 -3.77778 -0.454321 0
M  V30 1135 H 105.139 -3.63315 1.36468 0
M  V30 1136 H 103.24 -3.55993 -1.09999 0
M  V30 1137 H 103.353 -4.77916 0.336594 0
M  V30 1138 H 101.717 -2.54567 0.0822881 0
M  V30 1139 H 102.5 -2.98549 1.6948 0
M  V30 1140 N 104.945 -0.338344 -1.53925 0
M  V30 1141 C 105.893 0.536231 -2.26335 0
M  V30 1142 C 106.887 1.1063 -1.28286 0
M  V30 1143 O 108.093 1.05264 -1.46012 0
M  V30 1144 H 104.468 0.191602 -0.727181 0
M  V30 1145 H 106.439 -0.0965747 -2.98244 0
M  V30 1146 C 105.188 1.67803 -3.04528 0
M  V30 1147 H 104.511 1.24864 -3.79801 0
M  V30 1148 H 105.951 2.26526 -3.58416 0
M  V30 1149 C 104.41 2.60439 -2.13712 0
M  V30 1150 O 104.94 3.6255 -1.72975 0
M  V30 1151 N 103.146 2.29006 -1.78898 0
M  V30 1152 H 102.693 1.46011 -2.12223 0
M  V30 1153 H 102.651 2.91248 -1.18416 0
M  V30 1154 N 106.423 1.57458 -0.0668435 0
M  V30 1155 C 107.653 1.97337 0.611677 0
M  V30 1156 C 108.061 0.943744 1.63982 0
M  V30 1157 O 107.404 -0.0785584 1.83532 0
M  V30 1158 C 107.466 3.33511 1.34205 0
M  V30 1159 C 107.13 4.54598 0.467941 0
M  V30 1160 C 108.127 5.19186 -0.272439 0
M  V30 1161 C 105.812 5.0075 0.39427 0
M  V30 1162 C 107.806 6.28274 -1.07476 0
M  V30 1163 C 105.493 6.09711 -0.411729 0
M  V30 1164 C 106.491 6.73335 -1.14492 0
M  V30 1165 O 106.179 7.80199 -1.93763 0
M  V30 1166 H 105.911 0.654042 0.170893 0
M  V30 1167 H 108.465 2.04961 -0.134289 0
M  V30 1168 H 106.695 3.22487 2.13398 0
M  V30 1169 H 108.384 3.58029 1.91233 0
M  V30 1170 H 109.15 4.84477 -0.225086 0
M  V30 1171 H 105.029 4.51009 0.954569 0
M  V30 1172 H 108.573 6.77866 -1.64755 0
M  V30 1173 H 104.47 6.43854 -0.460664 0
M  V30 1174 H 105.238 7.97053 -1.86142 0
M  V30 1175 N 107.901 -0.206675 1.56239 0
M  V30 1176 C 108.831 -1.25909 1.96645 0
M  V30 1177 C 109.812 -1.48097 0.836734 0
M  V30 1178 O 110.997 -1.6003 1.10019 0
M  V30 1179 C 108.127 -2.6058 2.29599 0
M  V30 1180 C 107.081 -2.53024 3.452 0
M  V30 1181 C 106.407 -3.91861 3.63798 0
M  V30 1182 C 107.707 -2.06524 4.79734 0
M  V30 1183 H 109.401 -0.923369 2.84806 0
M  V30 1184 H 106.947 -0.442735 1.37025 0
M  V30 1185 H 108.9 -3.34375 2.56459 0
M  V30 1186 H 107.624 -2.95869 1.38307 0
M  V30 1187 H 106.283 -1.81684 3.18412 0
M  V30 1188 H 105.931 -4.24483 2.69857 0
M  V30 1189 H 105.631 -3.87683 4.4156 0
M  V30 1190 H 107.155 -4.67296 3.93022 0
M  V30 1191 H 108.569 -2.70072 5.05702 0
M  V30 1192 H 106.966 -2.13374 5.60885 0
M  V30 1193 H 108.036 -1.01802 4.74093 0
M  V30 1194 N 109.379 -1.50304 -0.473955 0
M  V30 1195 C 110.311 -1.65109 -1.58971 0
M  V30 1196 C 111.324 -0.532676 -1.53839 0
M  V30 1197 O 112.513 -0.805751 -1.59279 0
M  V30 1198 C 109.613 -1.61684 -2.97845 0
M  V30 1199 C 108.786 -2.8951 -3.27876 0
M  V30 1200 C 107.845 -2.78768 -4.4629 0
M  V30 1201 O 106.871 -3.52722 -4.46739 0
M  V30 1202 N 108.073 -1.9213 -5.47783 0
M  V30 1203 H 110.838 -2.61347 -1.46689 0
M  V30 1204 H 108.399 -1.47732 -0.662324 0
M  V30 1205 H 110.391 -1.52114 -3.75024 0
M  V30 1206 H 108.961 -0.731925 -3.03911 0
M  V30 1207 H 108.181 -3.13228 -2.39336 0
M  V30 1208 H 109.469 -3.74199 -3.4475 0
M  V30 1209 H 108.867 -1.31353 -5.50239 0
M  V30 1210 H 107.424 -1.88466 -6.23958 0
M  V30 1211 N 110.857 0.726932 -1.39834 0
M  V30 1212 C 112.082 1.52121 -1.40976 0
M  V30 1213 C 112.507 1.88098 -0.00826029 0
M  V30 1214 O 111.865 1.52479 0.980807 0
M  V30 1215 C 111.913 2.78021 -2.29644 0
M  V30 1216 O 111.017 3.74272 -1.73188 0
M  V30 1217 H 110.358 0.45908 -0.479731 0
M  V30 1218 H 112.888 0.896207 -1.83927 0
M  V30 1219 H 112.898 3.26671 -2.44438 0
M  V30 1220 H 111.573 2.51169 -3.31492 0
M  V30 1221 H 110.15 3.33073 -1.6768 0
M  V30 1222 N 112.336 1.25143 0.95797 0
M  V30 1223 C 113.613 1.00472 1.67823 0
M  V30 1224 C 113.993 -0.470056 2.058 0
M  V30 1225 O 113.341 -1.44663 1.76875 0
M  V30 1226 C 113.551 1.9372 2.90299 0
M  V30 1227 C 114.899 2.21371 3.62326 0
M  V30 1228 O 115.923 1.91451 3.00375 0
M  V30 1229 O 114.782 2.72231 4.7387 0
M  V30 1230 H 111.876 0.380752 0.734137 0
M  V30 1231 H 114.422 1.36283 1.01119 0
M  V30 1232 H 113.194 2.93316 2.59001 0
M  V30 1233 H 112.817 1.58286 3.64735 0
M  V30 1234 N 113.814 -1.1601 1.06675 0
M  V30 1235 C 114.724 -2.24156 0.692179 0
M  V30 1236 C 115.74 -1.71507 -0.293513 0
M  V30 1237 O 116.916 -2.009 -0.141861 0
M  V30 1238 C 113.981 -3.46587 0.0884131 0
M  V30 1239 C 113.042 -4.14257 1.12646 0
M  V30 1240 C 112.275 -5.30844 0.551416 0
M  V30 1241 O 112.498 -5.66858 -0.634656 0
M  V30 1242 O 111.432 -5.87848 1.29298 0
M  V30 1243 H 115.258 -2.58513 1.59388 0
M  V30 1244 H 112.843 -1.23599 0.83926 0
M  V30 1245 H 114.725 -4.20679 -0.246361 0
M  V30 1246 H 113.4 -3.13994 -0.786712 0
M  V30 1247 H 112.307 -3.42118 1.51348 0
M  V30 1248 H 113.64 -4.50914 1.97325 0
M  V30 1249 N 115.292 -0.849877 -1.32721 0
M  V30 1250 C 116.202 -0.293791 -2.32753 0
M  V30 1251 C 117.218 0.585906 -1.63839 0
M  V30 1252 O 118.394 0.487413 -1.95413 0
M  V30 1253 C 115.459 0.512752 -3.42887 0
M  V30 1254 C 114.52 -0.39252 -4.27502 0
M  V30 1255 C 113.753 0.375625 -5.32377 0
M  V30 1256 O 113.976 1.60613 -5.4732 0
M  V30 1257 O 112.91 -0.256094 -6.01355 0
M  V30 1258 H 116.736 -1.12242 -2.82197 0
M  V30 1259 H 114.321 -0.612685 -1.36259 0
M  V30 1260 H 116.203 0.970704 -4.10067 0
M  V30 1261 H 114.878 1.31826 -2.95641 0
M  V30 1262 H 113.785 -0.898547 -3.63149 0
M  V30 1263 H 115.118 -1.16309 -4.7826 0
M  V30 1264 N 116.77 1.45427 -0.607355 0
M  V30 1265 C 117.717 2.3053 0.111625 0
M  V30 1266 C 118.687 1.4209 0.860216 0
M  V30 1267 O 119.872 1.71019 0.845998 0
M  V30 1268 C 117.012 3.26992 1.10319 0
M  V30 1269 C 116.125 4.30535 0.355493 0
M  V30 1270 C 115.26 5.14105 1.33676 0
M  V30 1271 C 114.299 6.09376 0.576862 0
M  V30 1272 N 113.436 6.85727 1.5074 0
M  V30 1273 H 118.276 2.91477 -0.620093 0
M  V30 1274 H 115.813 1.43631 -0.317594 0
M  V30 1275 H 117.771 3.81385 1.6912 0
M  V30 1276 H 116.401 2.67799 1.80232 0
M  V30 1277 H 115.453 3.78805 -0.348023 0
M  V30 1278 H 116.765 4.98235 -0.237423 0
M  V30 1279 H 115.919 5.72897 1.99684 0
M  V30 1280 H 114.658 4.46423 1.9636 0
M  V30 1281 H 113.663 5.49715 -0.0968519 0
M  V30 1282 H 114.888 6.79085 -0.0449341 0
M  V30 1283 H 112.834 6.20735 2.12189 0
M  V30 1284 H 112.751 7.49778 0.967913 0
M  V30 1285 H 114.019 7.4906 2.15706 0
M  V30 1286 N 118.248 0.346503 1.53744 0
M  V30 1287 C 119.525 -0.304532 1.93215 0
M  V30 1288 C 119.905 -1.67993 1.27834 0
M  V30 1289 O 119.253 -2.24411 0.430352 0
M  V30 1290 C 119.463 -0.373852 3.46992 0
M  V30 1291 C 120.811 -0.62329 4.2 0
M  V30 1292 O 121.835 -0.455847 3.53271 0
M  V30 1293 O 120.694 -0.947879 5.38217 0
M  V30 1294 H 117.788 -0.178318 0.807547 0
M  V30 1295 H 120.334 0.397895 1.64969 0
M  V30 1296 H 119.106 0.591224 3.86808 0
M  V30 1297 H 118.729 -1.12294 3.81413 0
M  V30 1298 N 119.726 -1.57421 0.075193 0
M  V30 1299 C 121.142 -1.57099 -0.281444 0
M  V30 1300 C 121.342 -1.08486 -1.69803 0
M  V30 1301 O 120.398 -0.752279 -2.41033 0
M  V30 1302 C 121.711 -3.00571 -0.0880041 0
M  V30 1303 C 123.259 -3.12605 -0.157281 0
M  V30 1304 C 123.734 -4.57999 0.0079207 0
M  V30 1305 N 125.225 -4.63176 -0.0475725 0
M  V30 1306 C 125.96 -5.73373 0.0557876 0
M  V30 1307 N 125.456 -6.92473 0.21286 0
M  V30 1308 N 127.249 -5.621 -0.00152098 0
M  V30 1309 H 119.4 -1.87335 1.00098 0
M  V30 1310 H 121.663 -0.86377 0.390646 0
M  V30 1311 H 121.369 -3.40262 0.889629 0
M  V30 1312 H 121.243 -3.67754 -0.838875 0
M  V30 1313 H 123.63 -2.72798 -1.1254 0
M  V30 1314 H 123.711 -2.48053 0.62475 0
M  V30 1315 H 123.355 -4.98496 0.972824 0
M  V30 1316 H 123.285 -5.20586 -0.793556 0
M  V30 1317 H 125.776 -3.7753 -0.167244 0
M  V30 1318 H 126.089 -7.72279 0.283781 0
M  V30 1319 H 124.434 -6.94556 0.248267 0
M  V30 1320 H 127.625 -4.67938 -0.122958 0
M  V30 1321 H 127.798 -6.47948 0.0824844 0
M  V30 1322 N 121.204 0.198386 -1.56346 0
M  V30 1323 C 122.451 0.919286 -1.80431 0
M  V30 1324 C 122.779 1.83393 -0.647866 0
M  V30 1325 O 122.034 1.92236 0.366556 0
M  V30 1326 C 122.333 1.77031 -3.10475 0
M  V30 1327 C 121.999 1.00693 -4.39513 0
M  V30 1328 C 120.661 0.796145 -4.74568 0
M  V30 1329 C 123.013 0.469559 -5.19081 0
M  V30 1330 C 120.341 0.0364588 -5.86689 0
M  V30 1331 C 122.693 -0.2769 -6.31994 0
M  V30 1332 C 121.357 -0.49873 -6.65634 0
M  V30 1333 H 120.627 0.336391 -0.660244 0
M  V30 1334 H 123.274 0.185872 -1.90596 0
M  V30 1335 H 121.579 2.5723 -2.95533 0
M  V30 1336 H 123.276 2.33065 -3.26315 0
M  V30 1337 H 119.866 1.18122 -4.12001 0
M  V30 1338 H 124.05 0.619816 -4.92414 0
M  V30 1339 H 119.306 -0.145412 -6.11227 0
M  V30 1340 H 123.48 -0.700684 -6.92866 0
M  V30 1341 H 121.107 -1.0893 -7.52355 0
M  V30 1342 N 122.682 1.50554 0.465978 0
M  V30 1343 C 123.612 1.72722 1.57128 0
M  V30 1344 C 124.593 0.576294 1.6004 0
M  V30 1345 O 125.778 0.81598 1.76225 0
M  V30 1346 C 122.908 1.82605 2.95419 0
M  V30 1347 C 121.862 2.97835 3.07373 0
M  V30 1348 C 121.188 2.92867 4.47363 0
M  V30 1349 C 122.488 4.38265 2.84114 0
M  V30 1350 H 124.182 2.65267 1.38829 0
M  V30 1351 H 121.728 1.2765 0.666441 0
M  V30 1352 H 123.681 1.96698 3.72677 0
M  V30 1353 H 122.405 0.866858 3.14886 0
M  V30 1354 H 121.064 2.83401 2.3255 0
M  V30 1355 H 120.712 1.94783 4.63755 0
M  V30 1356 H 120.412 3.70227 4.56296 0
M  V30 1357 H 121.936 3.09015 5.26633 0
M  V30 1358 H 123.35 4.53198 3.51118 0
M  V30 1359 H 121.747 5.17115 3.04487 0
M  V30 1360 H 122.817 4.50281 1.7993 0
M  V30 1361 N 124.16 -0.719506 1.40217 0
M  V30 1362 C 125.107 -1.83359 1.40172 0
M  V30 1363 C 126.077 -1.64065 0.259206 0
M  V30 1364 O 127.262 -1.85254 0.456677 0
M  V30 1365 C 124.402 -3.2103 1.26624 0
M  V30 1366 C 123.515 -3.51923 2.50548 0
M  V30 1367 C 122.65 -4.79079 2.29471 0
M  V30 1368 C 121.689 -5.02863 3.48992 0
M  V30 1369 N 120.826 -6.2123 3.27135 0
M  V30 1370 H 125.666 -1.82733 2.35399 0
M  V30 1371 H 123.203 -0.892688 1.16917 0
M  V30 1372 H 125.161 -4.00524 1.16776 0
M  V30 1373 H 123.791 -3.20895 0.350176 0
M  V30 1374 H 122.843 -2.67014 2.70939 0
M  V30 1375 H 124.155 -3.6541 3.39525 0
M  V30 1376 H 123.309 -5.66582 2.16955 0
M  V30 1377 H 122.048 -4.67794 1.37913 0
M  V30 1378 H 121.053 -4.13816 3.6199 0
M  V30 1379 H 122.278 -5.16023 4.41472 0
M  V30 1380 H 120.224 -6.11204 2.38256 0
M  V30 1381 H 120.141 -6.35375 4.09675 0
M  V30 1382 H 121.409 -7.11532 3.18344 0
M  V30 1383 N 125.638 -1.25649 -0.95132 0
M  V30 1384 C 126.887 -1.09988 -1.69073 0
M  V30 1385 C 127.2 0.358355 -1.92289 0
M  V30 1386 O 128.406 0.635466 -2.63958 0
M  V30 1387 C 126.862 -1.92012 -3.044 0
M  V30 1388 C 126.47 -3.42347 -2.88968 0
M  V30 1389 C 128.214 -1.8493 -3.82101 0
M  V30 1390 C 126.121 -4.16655 -4.19705 0
M  V30 1391 H 125.051 -0.407993 -0.63408 0
M  V30 1392 H 127.702 -1.49873 -1.05879 0
M  V30 1393 H 126.084 -1.44952 -3.68517 0
M  V30 1394 H 127.258 -3.97104 -2.33762 0
M  V30 1395 H 125.573 -3.50557 -2.24719 0
M  V30 1396 H 128.17 -2.37739 -4.78941 0
M  V30 1397 H 128.513 -0.817883 -4.08187 0
M  V30 1398 H 129.046 -2.29758 -3.2474 0
M  V30 1399 H 125.785 -5.20224 -3.98807 0
M  V30 1400 H 125.305 -3.66681 -4.74663 0
M  V30 1401 H 126.984 -4.24551 -4.88227 0
M  V30 1402 N 127.117 1.15442 -1.07289 0
M  V30 1403 C 128.363 1.86489 -0.796846 0
M  V30 1404 C 128.696 1.82078 0.675371 0
M  V30 1405 O 127.971 1.24346 1.4956 0
M  V30 1406 C 128.254 3.35626 -1.30489 0
M  V30 1407 C 128.107 3.48673 -2.84161 0
M  V30 1408 C 129.426 4.30357 -0.920907 0
M  V30 1409 H 126.545 0.677144 -0.290939 0
M  V30 1410 H 129.187 1.35633 -1.33056 0
M  V30 1411 H 127.337 3.79068 -0.850883 0
M  V30 1412 H 129.009 3.14099 -3.37846 0
M  V30 1413 H 127.252 2.90253 -3.22391 0
M  V30 1414 H 127.923 4.53453 -3.14777 0
M  V30 1415 H 130.399 3.94871 -1.3121 0
M  V30 1416 H 129.275 5.33193 -1.30372 0
M  V30 1417 H 129.536 4.4176 0.173226 0
M  V30 1418 N 128.595 0.856903 1.32268 0
M  V30 1419 C 129.823 0.475439 2.01363 0
M  V30 1420 C 130.238 -0.928486 1.64392 0
M  V30 1421 O 129.595 -1.60624 0.866387 0
M  V30 1422 C 129.646 0.607545 3.56358 0
M  V30 1423 O 129.367 1.95617 3.92002 0
M  V30 1424 C 130.868 0.225382 4.42727 0
M  V30 1425 H 128.088 0.186636 0.644521 0
M  V30 1426 H 130.632 1.15446 1.68797 0
M  V30 1427 H 128.787 -0.0237719 3.87393 0
M  V30 1428 H 129.201 1.95455 4.86721 0
M  V30 1429 H 130.675 0.368813 5.50767 0
M  V30 1430 H 131.152 -0.834369 4.31202 0
M  V30 1431 H 131.758 0.831864 4.17085 0
M  V30 1432 N 130.073 -1.45103 0.615059 0
M  V30 1433 C 131.02 -2.30586 -0.0993978 0
M  V30 1434 C 131.99 -1.42544 -0.852669 0
M  V30 1435 O 133.175 -1.71465 -0.836917 0
M  V30 1436 C 130.315 -3.27572 -1.08583 0
M  V30 1437 C 129.428 -4.30717 -0.332656 0
M  V30 1438 C 128.563 -5.14807 -1.30947 0
M  V30 1439 C 127.602 -6.09673 -0.544538 0
M  V30 1440 N 126.739 -6.86517 -1.47101 0
M  V30 1441 H 131.579 -2.91144 0.635542 0
M  V30 1442 H 129.116 -1.4346 0.325206 0
M  V30 1443 H 131.074 -3.82276 -1.67095 0
M  V30 1444 H 129.704 -2.68751 -1.78809 0
M  V30 1445 H 128.756 -3.78615 0.368107 0
M  V30 1446 H 130.068 -4.98102 0.263842 0
M  V30 1447 H 129.222 -5.73948 -1.96643 0
M  V30 1448 H 127.961 -4.47458 -1.9399 0
M  V30 1449 H 126.966 -5.49656 0.126003 0
M  V30 1450 H 128.191 -6.79052 0.080947 0
M  V30 1451 H 126.137 -6.21851 -2.08895 0
M  V30 1452 H 126.054 -7.50281 -0.928137 0
M  V30 1453 H 127.322 -7.50194 -2.11731 0
M  V30 1454 N 131.551 -0.354651 -1.53558 0
M  V30 1455 C 132.8 0.239504 -2.00273 0
M  V30 1456 C 133.113 1.50759 -1.24623 0
M  V30 1457 O 134.319 2.17968 -1.61871 0
M  V30 1458 C 132.775 0.477341 -3.5672 0
M  V30 1459 C 132.383 -0.775488 -4.41237 0
M  V30 1460 C 134.127 1.02975 -4.11821 0
M  V30 1461 C 132.034 -0.507838 -5.89216 0
M  V30 1462 H 130.964 0.0932743 -0.748208 0
M  V30 1463 H 133.615 -0.471701 -1.77334 0
M  V30 1464 H 131.997 1.24953 -3.7577 0
M  V30 1465 H 133.171 -1.54963 -4.33962 0
M  V30 1466 H 131.486 -1.25033 -3.97185 0
M  V30 1467 H 134.083 1.24513 -5.2 0
M  V30 1468 H 134.426 1.98862 -3.65731 0
M  V30 1469 H 134.959 0.317994 -3.96527 0
M  V30 1470 H 131.698 -1.43674 -6.39561 0
M  V30 1471 H 131.218 0.228011 -5.99366 0
M  V30 1472 H 132.897 -0.129238 -6.46871 0
M  V30 1473 N 133.029 1.57378 -0.0835403 0
M  V30 1474 C 134.276 1.9393 0.58287 0
M  V30 1475 C 134.604 0.964455 1.68904 0
M  V30 1476 O 133.859 -0.0179474 1.95692 0
M  V30 1477 C 134.158 3.37063 1.1884 0
M  V30 1478 C 133.824 4.50424 0.207194 0
M  V30 1479 C 132.486 4.81159 -0.0627115 0
M  V30 1480 C 134.838 5.19136 -0.463426 0
M  V30 1481 C 132.166 5.77939 -1.01012 0
M  V30 1482 C 134.518 6.16931 -1.39924 0
M  V30 1483 C 133.182 6.46078 -1.67749 0
M  V30 1484 H 132.452 0.70964 0.213287 0
M  V30 1485 H 135.099 1.90856 -0.156916 0
M  V30 1486 H 133.404 3.3666 2.00418 0
M  V30 1487 H 135.101 3.6264 1.71153 0
M  V30 1488 H 131.691 4.2646 0.427747 0
M  V30 1489 H 135.875 4.95576 -0.268034 0
M  V30 1490 H 131.131 5.98842 -1.23283 0
M  V30 1491 H 135.305 6.69273 -1.92476 0
M  V30 1492 H 132.932 7.2088 -2.41321 0
M  V30 1493 N 134.507 -0.190092 1.56449 0
M  V30 1494 C 135.455 -1.25501 1.95837 0
M  V30 1495 C 136.449 -1.4685 0.844485 0
M  V30 1496 O 137.655 -1.47651 1.02952 0
M  V30 1497 H 134.03 -0.421447 0.622805 0
M  V30 1498 H 136.001 -0.895821 2.84636 0
M  V30 1499 C 134.75 -2.59124 2.31841 0
M  V30 1500 H 134.073 -2.43514 3.17082 0
M  V30 1501 H 135.513 -3.32371 2.6326 0
M  V30 1502 C 133.972 -3.16488 1.15486 0
M  V30 1503 O 134.502 -3.99365 0.432535 0
M  V30 1504 N 132.708 -2.75305 0.930349 0
M  V30 1505 H 132.255 -2.08013 1.51948 0
M  V30 1506 H 132.213 -3.14024 0.153634 0
M  V30 1507 N 135.985 -1.50799 -0.457987 0
M  V30 1508 C 137.401 -1.38515 -0.792819 0
M  V30 1509 C 137.601 -0.451409 -1.96379 0
M  V30 1510 O 136.657 0.10112 -2.52297 0
M  V30 1511 C 137.97 -2.80149 -1.09258 0
M  V30 1512 C 139.518 -2.89156 -1.19825 0
M  V30 1513 C 139.993 -4.31651 -1.53106 0
M  V30 1514 N 141.484 -4.34662 -1.60072 0
M  V30 1515 C 142.219 -5.41928 -1.87354 0
M  V30 1516 N 141.715 -6.59384 -2.12568 0
M  V30 1517 N 143.508 -5.29385 -1.88965 0
M  V30 1518 H 135.659 -2.10073 0.313511 0
M  V30 1519 H 137.922 -0.944803 0.0777862 0
M  V30 1520 H 137.628 -3.50374 -0.305084 0
M  V30 1521 H 137.502 -3.18204 -2.02549 0
M  V30 1522 H 139.889 -2.19141 -1.97639 0
M  V30 1523 H 139.97 -2.54626 -0.244821 0
M  V30 1524 H 139.614 -5.02208 -0.758266 0
M  V30 1525 H 139.544 -4.63678 -2.49621 0
M  V30 1526 H 142.035 -3.49973 -1.42573 0
M  V30 1527 H 142.348 -7.36934 -2.32696 0
M  V30 1528 H 140.693 -6.62535 -2.09933 0
M  V30 1529 H 143.884 -4.36616 -1.68772 0
M  V30 1530 H 144.057 -6.13066 -2.09891 0
M  V30 1531 N 137.463 0.71206 -1.40597 0
M  V30 1532 C 138.712 1.46754 -1.38369 0
M  V30 1533 C 139.025 1.95598 0.0097839 0
M  V30 1534 O 140.231 2.71059 0.154677 0
M  V30 1535 C 138.687 2.65289 -2.43207 0
M  V30 1536 C 138.295 2.23301 -3.88382 0
M  V30 1537 C 140.039 3.43008 -2.50091 0
M  V30 1538 C 137.946 3.38696 -4.84808 0
M  V30 1539 H 136.876 0.55118 -0.514506 0
M  V30 1540 H 139.527 0.774616 -1.66349 0
M  V30 1541 H 137.909 3.36769 -2.08332 0
M  V30 1542 H 139.083 1.59218 -4.32419 0
M  V30 1543 H 137.398 1.58618 -3.85006 0
M  V30 1544 H 139.995 4.28881 -3.1932 0
M  V30 1545 H 140.338 3.87065 -1.53253 0
M  V30 1546 H 140.871 2.78574 -2.83974 0
M  V30 1547 H 137.61 2.99668 -5.82992 0
M  V30 1548 H 137.13 4.01683 -4.45433 0
M  V30 1549 H 138.809 4.04712 -5.04794 0
M  V30 1550 N 138.941 1.26152 0.944643 0
M  V30 1551 C 139.889 1.07215 2.06417 0
M  V30 1552 C 140.883 9.2007e-05 1.694 0
M  V30 1553 O 142.089 0.1565 1.79318 0
M  V30 1554 H 138.464 0.329837 0.675805 0
M  V30 1555 H 140.435 2.02099 2.19541 0
M  V30 1556 C 139.184 0.718197 3.40202 0
M  V30 1557 H 138.507 1.53497 3.69159 0
M  V30 1558 H 139.947 0.625459 4.19361 0
M  V30 1559 C 138.406 -0.576435 3.31932 0
M  V30 1560 O 138.936 -1.61574 3.67773 0
M  V30 1561 N 137.142 -0.565781 2.85039 0
M  V30 1562 H 136.689 0.280367 2.5607 0
M  V30 1563 H 136.647 -1.43213 2.79888 0
M  V30 1564 N 140.419 -1.14872 1.07899 0
M  V30 1565 C 141.367 -2.21857 0.698727 0
M  V30 1566 C 142.361 -1.66845 -0.293086 0
M  V30 1567 O 143.567 -1.79321 -0.156204 0
M  V30 1568 H 139.942 -0.722691 0.207899 0
M  V30 1569 H 141.913 -2.51205 1.61054 0
M  V30 1570 C 140.662 -3.47498 0.11858 0
M  V30 1571 H 139.985 -3.90154 0.872914 0
M  V30 1572 H 141.425 -4.23858 -0.109759 0
M  V30 1573 C 139.884 -3.16947 -1.1422 0
M  V30 1574 O 140.414 -3.3426 -2.22785 0
M  V30 1575 N 138.62 -2.70946 -1.05055 0
M  V30 1576 H 138.167 -2.57058 -0.167038 0
M  V30 1577 H 138.125 -2.50879 -1.89491 0
M  V30 1578 N 141.898 -0.863906 -1.31812 0
M  V30 1579 C 142.846 -0.30422 -2.30602 0
M  V30 1580 C 143.84 0.577419 -1.59255 0
M  V30 1581 O 145.046 0.464194 -1.73912 0
M  V30 1582 H 141.421 -0.0796877 -0.747766 0
M  V30 1583 H 143.392 -1.15148 -2.75288 0
M  V30 1584 C 142.141 0.484617 -3.44306 0
M  V30 1585 H 141.464 -0.18451 -3.99374 0
M  V30 1586 H 142.904 0.841664 -4.15562 0
M  V30 1587 C 141.363 1.6735 -2.92396 0
M  V30 1588 O 141.893 2.77273 -2.90659 0
M  V30 1589 N 140.099 1.50362 -2.48676 0
M  V30 1590 H 139.646 0.609402 -2.50288 0
M  V30 1591 H 139.604 2.30051 -2.14299 0
M  V30 1592 N 143.376 1.44774 -0.622745 0
M  V30 1593 C 144.306 2.33382 0.0741861 0
M  V30 1594 C 145.287 1.47719 0.843387 0
M  V30 1595 O 146.472 1.76458 0.810934 0
M  V30 1596 C 143.602 3.30663 1.06204 0
M  V30 1597 C 142.556 4.26079 0.405037 0
M  V30 1598 C 141.882 5.13165 1.5022 0
M  V30 1599 C 143.182 5.1781 -0.683414 0
M  V30 1600 H 144.876 2.91905 -0.665713 0
M  V30 1601 H 142.422 1.40363 -0.321587 0
M  V30 1602 H 144.375 3.9153 1.55827 0
M  V30 1603 H 143.099 2.70331 1.83272 0
M  V30 1604 H 141.758 3.66532 -0.0704683 0
M  V30 1605 H 141.406 4.49191 2.26355 0
M  V30 1606 H 141.106 5.77812 1.06803 0
M  V30 1607 H 142.63 5.76902 2.00041 0
M  V30 1608 H 144.044 5.72661 -0.270631 0
M  V30 1609 H 142.441 5.91015 -1.04023 0
M  V30 1610 H 143.511 4.59326 -1.55395 0
M  V30 1611 N 144.854 0.36279 1.53368 0
M  V30 1612 C 146.079 -0.231226 2.06107 0
M  V30 1613 C 146.504 -1.419 1.23474 0
M  V30 1614 O 145.862 -1.79524 0.253128 0
M  V30 1615 C 145.91 -0.605523 3.5548 0
M  V30 1616 O 145.014 -1.70312 3.7559 0
M  V30 1617 H 144.355 -0.034327 0.663112 0
M  V30 1618 H 146.885 0.522584 1.97814 0
M  V30 1619 H 146.895 -0.877314 3.98456 0
M  V30 1620 H 145.57 0.263004 4.15068 0
M  V30 1621 H 144.147 -1.4271 3.44512 0
M  V30 1622 N 146.332 -1.57332 0.0918853 0
M  V30 1623 C 147.58 -1.93853 -0.571446 0
M  V30 1624 C 147.901 -0.974212 -1.6892 0
M  V30 1625 O 147.171 -0.0257254 -1.95883 0
M  V30 1626 H 145.751 -0.715666 -0.214082 0
M  V30 1627 H 148.413 -1.94287 0.154464 0
M  V30 1628 H 147.509 -2.96191 -0.983729 0
M  V30 1629 N 147.81 0.181792 -1.56548 0
M  V30 1630 C 149.058 0.89832 -1.81038 0
M  V30 1631 C 149.379 1.83232 -0.667164 0
M  V30 1632 O 148.649 1.93372 0.313673 0
M  V30 1633 H 147.229 0.33471 -0.667816 0
M  V30 1634 H 149.891 0.184116 -1.94028 0
M  V30 1635 H 148.987 1.4815 -2.74696 0
M  V30 1636 N 149.288 1.51039 0.449983 0
M  V30 1637 C 150.537 1.62317 1.19733 0
M  V30 1638 C 150.85 0.339101 1.92638 0
M  V30 1639 O 152.056 0.331069 2.69474 0
M  V30 1640 C 150.512 2.86608 2.17678 0
M  V30 1641 C 150.12 4.21972 1.50479 0
M  V30 1642 C 151.864 3.07239 2.92924 0
M  V30 1643 C 149.771 5.37426 2.46834 0
M  V30 1644 H 148.701 0.604532 0.450619 0
M  V30 1645 H 151.352 1.77494 0.465625 0
M  V30 1646 H 149.734 2.65037 2.94231 0
M  V30 1647 H 150.908 4.53878 0.795716 0
M  V30 1648 H 149.223 4.07117 0.874344 0
M  V30 1649 H 151.82 3.90668 3.65079 0
M  V30 1650 H 152.163 2.19807 3.5354 0
M  V30 1651 H 152.696 3.29091 2.23481 0
M  V30 1652 H 149.435 6.27079 1.90926 0
M  V30 1653 H 148.955 5.09912 3.15832 0
M  V30 1654 H 150.634 5.68862 3.08228 0
M  V30 1655 N 150.766 -0.704594 1.40972 0
M  V30 1656 C 151.696 -1.83124 1.44872 0
M  V30 1657 C 152.677 -1.67281 0.30838 0
M  V30 1658 O 153.862 -1.87149 0.518556 0
M  V30 1659 C 150.992 -3.21181 1.32136 0
M  V30 1660 C 149.946 -3.51714 2.43888 0
M  V30 1661 C 149.272 -4.89032 2.16222 0
M  V30 1662 C 150.572 -3.516 3.86232 0
M  V30 1663 H 152.266 -1.80117 2.39161 0
M  V30 1664 H 149.812 -0.865145 1.15114 0
M  V30 1665 H 151.765 -3.99702 1.33479 0
M  V30 1666 H 150.489 -3.24791 0.343279 0
M  V30 1667 H 149.148 -2.75539 2.41813 0
M  V30 1668 H 148.796 -4.89256 1.16778 0
M  V30 1669 H 148.496 -5.10426 2.911 0
M  V30 1670 H 150.02 -5.69873 2.19265 0
M  V30 1671 H 151.434 -4.2014 3.9007 0
M  V30 1672 H 149.831 -3.84523 4.60719 0
M  V30 1673 H 150.901 -2.50757 4.15029 0
M  V30 1674 N 152.244 -1.26651 -0.937939 0
M  V30 1675 C 153.174 -1.10993 -2.05433 0
M  V30 1676 C 154.155 -0.0142161 -1.70094 0
M  V30 1677 O 155.34 -0.186837 -1.93299 0
M  V30 1678 C 152.47 -0.745561 -3.39203 0
M  V30 1679 C 151.424 -1.79337 -3.88616 0
M  V30 1680 C 150.75 -1.28324 -5.19073 0
M  V30 1681 C 152.05 -3.19553 -4.13138 0
M  V30 1682 H 153.744 -2.0438 -2.1879 0
M  V30 1683 H 151.29 -0.984041 -1.05131 0
M  V30 1684 H 153.243 -0.622888 -4.16771 0
M  V30 1685 H 151.967 0.22401 -3.25831 0
M  V30 1686 H 150.626 -1.90477 -3.13231 0
M  V30 1687 H 150.274 -0.303414 -5.02084 0
M  V30 1688 H 149.974 -1.98369 -5.53103 0
M  V30 1689 H 151.498 -1.1733 -5.99221 0
M  V30 1690 H 152.912 -3.11471 -4.81309 0
M  V30 1691 H 151.309 -3.87218 -4.58457 0
M  V30 1692 H 152.379 -3.65368 -3.18801 0
M  V30 1693 N 153.722 1.14298 -1.08507 0
M  V30 1694 C 154.632 2.23027 -0.727753 0
M  V30 1695 C 155.648 1.71952 0.26619 0
M  V30 1696 O 156.824 2.011 0.109882 0
M  V30 1697 C 153.889 3.46403 -0.143541 0
M  V30 1698 C 152.95 4.12413 -1.19223 0
M  V30 1699 C 152.183 5.29899 -0.635798 0
M  V30 1700 O 152.406 5.67796 0.544393 0
M  V30 1701 O 151.34 5.85717 -1.38634 0
M  V30 1702 H 155.166 2.55945 -1.63481 0
M  V30 1703 H 152.751 1.22248 -0.858817 0
M  V30 1704 H 154.633 4.21018 0.179404 0
M  V30 1705 H 153.308 3.15206 0.736659 0
M  V30 1706 H 152.215 3.39667 -1.56772 0
M  V30 1707 H 153.548 4.47718 -2.04474 0
M  V30 1708 N 155.201 0.870884 1.31352 0
M  V30 1709 C 156.111 0.330783 2.32256 0
M  V30 1710 C 157.127 -0.559767 1.6475 0
M  V30 1711 O 158.303 -0.456263 1.96164 0
M  V30 1712 C 155.368 -0.458137 3.4366 0
M  V30 1713 C 154.429 0.460482 4.26823 0
M  V30 1714 C 153.662 -0.290881 5.32907 0
M  V30 1715 O 153.885 -1.51885 5.49806 0
M  V30 1716 O 152.819 0.351732 6.00871 0
M  V30 1717 H 156.645 1.16718 2.80376 0
M  V30 1718 H 154.23 0.634285 1.35267 0
M  V30 1719 H 156.112 -0.905343 4.1156 0
M  V30 1720 H 154.787 -1.27106 2.97701 0
M  V30 1721 H 153.694 0.956207 3.61673 0
M  V30 1722 H 155.027 1.23903 4.7635 0
M  V30 1723 N 156.679 -1.44442 0.630414 0
M  V30 1724 C 157.609 -2.33418 -0.0618083 0
M  V30 1725 C 158.59 -1.48165 -0.835541 0
M  V30 1726 O 159.775 -1.76886 -0.801564 0
M  V30 1727 C 156.905 -3.31222 -1.04449 0
M  V30 1728 C 155.859 -4.26288 -0.382436 0
M  V30 1729 C 155.185 -5.13954 -1.47497 0
M  V30 1730 C 156.485 -5.1744 0.710865 0
M  V30 1731 H 158.179 -2.91548 0.681184 0
M  V30 1732 H 155.725 -1.40191 0.329026 0
M  V30 1733 H 157.678 -3.92351 -1.53748 0
M  V30 1734 H 156.402 -2.71299 -1.81836 0
M  V30 1735 H 155.061 -3.6649 0.0899054 0
M  V30 1736 H 154.709 -4.50385 -2.2397 0
M  V30 1737 H 154.409 -5.7837 -1.03737 0
M  V30 1738 H 155.933 -5.77955 -1.96979 0
M  V30 1739 H 157.347 -5.72509 0.300996 0
M  V30 1740 H 155.744 -5.90455 1.07156 0
M  V30 1741 H 156.814 -4.58496 1.57829 0
M  V30 1742 N 158.157 -0.370918 -1.53173 0
M  V30 1743 C 159.382 0.220293 -2.06227 0
M  V30 1744 C 159.807 1.41243 -1.24225 0
M  V30 1745 O 159.165 1.79387 -0.262645 0
M  V30 1746 C 159.213 0.586663 -3.55796 0
M  V30 1747 O 158.317 1.68317 -3.76488 0
M  V30 1748 H 157.658 0.0308099 -0.663285 0
M  V30 1749 H 160.188 -0.533068 -1.97534 0
M  V30 1750 H 160.198 0.85617 -3.98916 0
M  V30 1751 H 158.873 -0.285013 -4.14922 0
M  V30 1752 H 157.45 1.40881 -3.45264 0
M  V30 1753 N 159.635 1.57281 -0.100228 0
M  V30 1754 C 160.582 2.14305 0.856858 0
M  V30 1755 C 161.552 1.06296 1.27634 0
M  V30 1756 O 162.737 1.34109 1.35718 0
M  V30 1757 C 159.877 2.73184 2.10866 0
M  V30 1758 C 158.99 3.95442 1.73925 0
M  V30 1759 C 158.125 4.42468 2.93931 0
M  V30 1760 C 157.164 5.57303 2.5314 0
M  V30 1761 N 156.301 5.99158 3.65997 0
M  V30 1762 H 161.141 2.95772 0.363726 0
M  V30 1763 H 158.678 1.46139 0.167858 0
M  V30 1764 H 160.636 3.05442 2.84185 0
M  V30 1765 H 159.266 1.94437 2.57671 0
M  V30 1766 H 158.318 3.69464 0.905554 0
M  V30 1767 H 159.63 4.78769 1.39935 0
M  V30 1768 H 158.784 4.76537 3.75496 0
M  V30 1769 H 157.523 3.58052 3.31134 0
M  V30 1770 H 156.528 5.22857 1.70003 0
M  V30 1771 H 157.753 6.43471 2.17075 0
M  V30 1772 H 155.699 5.17687 4.02909 0
M  V30 1773 H 155.616 6.77295 3.35869 0
M  V30 1774 H 156.884 6.3786 4.48057 0
M  V30 1775 N 161.113 -0.173488 1.56642 0
M  V30 1776 C 162.076 -1.19859 1.95362 0
M  V30 1777 C 163.076 -1.37296 0.83704 0
M  V30 1778 O 164.266 -1.34739 1.10413 0
M  V30 1779 C 161.398 -2.56405 2.24654 0
M  V30 1780 H 162.591 -0.867062 2.87092 0
M  V30 1781 H 160.144 -0.415853 1.50666 0
M  V30 1782 H 160.879 -2.94576 1.35631 0
M  V30 1783 H 160.664 -2.45115 3.06041 0
M  V30 1784 H 162.154 -3.30287 2.5554 0
M  V30 1785 N 162.591 -1.51276 -0.441967 0
M  V30 1786 C 163.539 -1.72823 -1.55676 0
M  V30 1787 C 164.533 -0.59445 -1.58627 0
M  V30 1788 O 165.739 -0.775715 -1.62427 0
M  V30 1789 H 162.114 -0.545983 -0.517113 0
M  V30 1790 H 164.085 -2.6628 -1.34675 0
M  V30 1791 C 162.834 -1.86619 -2.93375 0
M  V30 1792 H 162.157 -2.73264 -2.91834 0
M  V30 1793 H 163.597 -2.05709 -3.70756 0
M  V30 1794 C 162.056 -0.624842 -3.31055 0
M  V30 1795 O 162.586 0.222636 -4.01083 0
M  V30 1796 N 160.792 -0.470288 -2.86769 0
M  V30 1797 H 160.339 -1.161 -2.29953 0
M  V30 1798 H 160.297 0.359051 -3.12343 0
M  V30 1799 N 164.069 0.697108 -1.41344 0
M  V30 1800 C 165.48 1.27697 -1.36199 0
M  V30 1801 C 165.831 1.9615 -0.0443463 0
M  V30 1802 O 164.956 1.98689 0.857419 0
M  V30 1803 C 165.551 2.32223 -2.46694 0
M  V30 1804 C 164.11 2.8579 -2.44952 0
M  V30 1805 C 163.257 1.59807 -2.26621 0
M  V30 1806 H 166.208 0.491968 -1.50882 0
M  V30 1807 H 166.229 3.1348 -2.15664 0
M  V30 1808 H 165.741 1.82373 -3.42581 0
M  V30 1809 H 163.842 3.3982 -1.52817 0
M  V30 1810 H 163.955 3.36325 -3.41207 0
M  V30 1811 H 162.319 1.8556 -1.7447 0
M  V30 1812 H 163.102 1.11956 -3.24532 0
M  V30 1813 N 165.547 1.27147 0.931209 0
M  V30 1814 C 166.777 1.15914 1.71019 0
M  V30 1815 C 167.185 -0.287112 1.87009 0
M  V30 1816 O 166.528 -1.20761 1.38429 0
M  V30 1817 C 166.59 1.76647 3.13107 0
M  V30 1818 C 166.254 3.25807 3.20467 0
M  V30 1819 C 167.251 4.22489 3.02983 0
M  V30 1820 C 164.936 3.66452 3.43538 0
M  V30 1821 C 166.93 5.57794 3.08454 0
M  V30 1822 C 164.617 5.01888 3.48643 0
M  V30 1823 C 165.615 5.97369 3.31119 0
M  V30 1824 O 165.303 7.30337 3.35952 0
M  V30 1825 H 165.035 0.404062 0.54195 0
M  V30 1826 H 167.589 1.68457 1.17521 0
M  V30 1827 H 165.819 1.18578 3.68071 0
M  V30 1828 H 167.508 1.60179 3.72958 0
M  V30 1829 H 168.274 3.92425 2.85004 0
M  V30 1830 H 164.153 2.92611 3.5623 0
M  V30 1831 H 167.697 6.32298 2.94694 0
M  V30 1832 H 163.594 5.31609 3.66145 0
M  V30 1833 H 164.362 7.38739 3.5243 0
M  V30 1834 N 167.025 -1.13721 1.09112 0
M  V30 1835 C 167.955 -2.21148 0.749385 0
M  V30 1836 C 168.936 -1.6792 -0.271475 0
M  V30 1837 O 170.121 -1.93693 -0.140251 0
M  V30 1838 C 167.251 -3.46905 0.165659 0
M  V30 1839 C 166.205 -4.13203 1.11567 0
M  V30 1840 C 165.531 -5.33248 0.393809 0
M  V30 1841 C 166.831 -4.60912 2.45678 0
M  V30 1842 H 168.525 -2.4999 1.64758 0
M  V30 1843 H 166.071 -1.20156 0.793626 0
M  V30 1844 H 168.024 -4.21313 -0.085466 0
M  V30 1845 H 166.748 -3.17449 -0.767714 0
M  V30 1846 H 165.407 -3.40758 1.35202 0
M  V30 1847 H 165.055 -5.00054 -0.543599 0
M  V30 1848 H 164.755 -5.78552 1.02721 0
M  V30 1849 H 166.279 -6.10413 0.150908 0
M  V30 1850 H 167.693 -5.26759 2.26269 0
M  V30 1851 H 166.09 -5.16944 3.04776 0
M  V30 1852 H 167.16 -3.75603 3.06677 0
M  V30 1853 N 168.503 -0.877838 -1.30888 0
M  V30 1854 C 169.751 -0.491723 -1.96027 0
M  V30 1855 C 170.072 0.960827 -1.69685 0
M  V30 1856 O 169.342 1.67462 -1.01654 0
M  V30 1857 H 167.922 -0.17885 -0.725273 0
M  V30 1858 H 170.584 -1.11935 -1.59551 0
M  V30 1859 H 169.68 -0.656016 -3.05128 0
M  V30 1860 N 169.982 1.44106 -0.638065 0
M  V30 1861 C 170.93 2.3248 0.0748149 0
M  V30 1862 C 171.924 1.47746 0.828702 0
M  V30 1863 O 173.13 1.64049 0.740816 0
M  V30 1864 H 169.505 0.750771 0.0429686 0
M  V30 1865 H 171.476 2.90348 -0.688504 0
M  V30 1866 C 170.225 3.31843 1.03805 0
M  V30 1867 H 169.548 3.97059 0.467375 0
M  V30 1868 H 170.988 3.96345 1.50622 0
M  V30 1869 C 169.447 2.61291 2.1267 0
M  V30 1870 O 169.977 2.41702 3.20847 0
M  V30 1871 N 168.183 2.20915 1.88798 0
M  V30 1872 H 167.73 2.37047 1.00829 0
M  V30 1873 H 167.688 1.74038 2.61836 0
M  V30 1874 N 171.46 0.379036 1.52974 0
M  V30 1875 C 172.737 -0.263479 1.93817 0
M  V30 1876 C 173.117 -1.65244 1.31368 0
M  V30 1877 O 172.465 -2.23448 0.477856 0
M  V30 1878 C 172.675 -0.300166 3.47707 0
M  V30 1879 C 174.023 -0.534061 4.21228 0
M  V30 1880 O 175.047 -0.38081 3.54159 0
M  V30 1881 O 173.906 -0.833501 5.40106 0
M  V30 1882 H 171 -0.161149 0.811147 0
M  V30 1883 H 173.546 0.432798 1.64088 0
M  V30 1884 H 172.318 0.673138 3.85467 0
M  V30 1885 H 171.941 -1.04179 3.83709 0
M  V30 1886 N 172.938 -1.57226 0.108567 0
M  V30 1887 C 173.886 -2.16002 -0.862885 0
M  V30 1888 C 174.88 -1.10644 -1.28274 0
M  V30 1889 O 176.086 -1.28966 -1.2557 0
M  V30 1890 H 172.461 -0.691148 -0.296342 0
M  V30 1891 H 174.432 -2.96427 -0.342575 0
M  V30 1892 C 173.181 -2.76576 -2.10716 0
M  V30 1893 H 172.504 -3.5734 -1.793 0
M  V30 1894 H 173.944 -3.21253 -2.76717 0
M  V30 1895 C 172.403 -1.73137 -2.89007 0
M  V30 1896 O 172.933 -1.17842 -3.84026 0
M  V30 1897 N 171.139 -1.43317 -2.52801 0
M  V30 1898 H 170.686 -1.88473 -1.75601 0
M  V30 1899 H 170.644 -0.743485 -3.05483 0
M  V30 1900 N 174.416 0.165178 -1.56732 0
M  V30 1901 C 175.644 0.896218 -1.86482 0
M  V30 1902 C 176.059 1.75555 -0.694675 0
M  V30 1903 O 175.416 1.79379 0.33607 0
M  V30 1904 C 175.467 1.76792 -3.1532 0
M  V30 1905 O 175.188 0.943239 -4.27825 0
M  V30 1906 C 176.689 2.6081 -3.58459 0
M  V30 1907 H 173.909 0.260064 -0.618553 0
M  V30 1908 H 176.453 0.163428 -2.03846 0
M  V30 1909 H 174.608 2.45398 -2.99764 0
M  V30 1910 H 175.022 1.53998 -5.01383 0
M  V30 1911 H 176.496 3.17579 -4.51495 0
M  V30 1912 H 176.973 3.35977 -2.82872 0
M  V30 1913 H 177.579 1.97526 -3.76648 0
M  V30 1914 N 175.894 1.51508 0.433938 0
M  V30 1915 C 177.305 1.56784 1.01369 0
M  V30 1916 C 177.656 0.393349 1.92217 0
M  V30 1917 O 176.781 -0.489441 2.10792 0
M  V30 1918 C 177.376 2.84144 1.8452 0
M  V30 1919 C 175.935 2.9198 2.37539 0
M  V30 1920 C 175.082 2.51482 1.16843 0
M  V30 1921 H 178.033 1.57236 0.215081 0
M  V30 1922 H 178.054 2.68098 2.70007 0
M  V30 1923 H 177.566 3.69607 1.18373 0
M  V30 1924 H 175.667 2.10955 3.0713 0
M  V30 1925 H 175.78 3.95704 2.70103 0
M  V30 1926 H 174.144 2.04758 1.51481 0
M  V30 1927 H 174.927 3.39293 0.523015 0
M  V30 1928 N 177.372 -0.689602 1.41712 0
M  V30 1929 C 178.649 -1.44457 1.31877 0
M  V30 1930 C 179.029 -2.11039 -0.0508537 0
M  V30 1931 O 178.377 -2.02138 -1.06547 0
M  V30 1932 C 178.587 -2.45913 2.47645 0
M  V30 1933 C 179.935 -3.10991 2.89084 0
M  V30 1934 O 180.959 -2.56238 2.47428 0
M  V30 1935 O 179.818 -4.10174 3.61137 0
M  V30 1936 H 176.912 -0.64362 0.519309 0
M  V30 1937 H 179.458 -0.719576 1.53689 0
M  V30 1938 H 178.23 -1.95409 3.39015 0
M  V30 1939 H 177.853 -3.25913 2.27742 0
M  V30 1940 N 178.85 -1.27639 -0.924453 0
M  V30 1941 C 179.798 -1.10485 -2.04685 0
M  V30 1942 C 180.792 -0.0270421 -1.69378 0
M  V30 1943 O 181.998 -0.185008 -1.79047 0
M  V30 1944 H 178.373 -0.340546 -0.670472 0
M  V30 1945 H 180.344 -2.05566 -2.16298 0
M  V30 1946 C 179.093 -0.772229 -3.39016 0
M  V30 1947 H 178.416 -1.59351 -3.66671 0
M  V30 1948 H 179.856 -0.692097 -4.18313 0
M  V30 1949 C 178.315 0.523554 -3.32807 0
M  V30 1950 O 178.845 1.55702 -3.70297 0
M  V30 1951 N 177.051 0.520363 -2.85903 0
M  V30 1952 H 176.598 -0.32107 -2.55591 0
M  V30 1953 H 176.556 1.38742 -2.82131 0
M  V30 1954 N 180.328 1.1314 -1.09713 0
M  V30 1955 C 181.26 2.18343 -0.697056 0
M  V30 1956 C 182.273 1.60669 0.262551 0
M  V30 1957 O 183.462 1.78435 0.0481527 0
M  V30 1958 C 180.562 3.38899 -0.00684728 0
M  V30 1959 C 179.735 4.26078 -0.988741 0
M  V30 1960 C 178.794 5.25155 -0.331394 0
M  V30 1961 O 177.82 5.60701 -0.979926 0
M  V30 1962 N 179.022 5.73271 0.913261 0
M  V30 1963 H 181.787 2.5328 -1.60216 0
M  V30 1964 H 179.348 1.28491 -0.984971 0
M  V30 1965 H 181.34 4.02255 0.444191 0
M  V30 1966 H 179.91 3.02175 0.800551 0
M  V30 1967 H 179.13 3.59453 -1.61826 0
M  V30 1968 H 180.418 4.81178 -1.65364 0
M  V30 1969 H 179.816 5.46544 1.45966 0
M  V30 1970 H 178.373 6.3855 1.30757 0
M  V30 1971 N 181.806 0.884767 1.30421 0
M  V30 1972 C 183.053 0.503105 1.96151 0
M  V30 1973 C 183.381 -0.947676 1.69851 0
M  V30 1974 O 182.636 -1.68467 0.995861 0
M  V30 1975 C 182.935 0.724318 3.49983 0
M  V30 1976 C 182.601 2.15015 3.96332 0
M  V30 1977 C 181.263 2.54005 4.08699 0
M  V30 1978 C 183.615 3.07936 4.20505 0
M  V30 1979 C 180.943 3.85128 4.42599 0
M  V30 1980 C 183.295 4.3859 4.55874 0
M  V30 1981 C 181.959 4.77474 4.66449 0
M  V30 1982 H 181.229 0.184099 0.717766 0
M  V30 1983 H 183.876 1.12058 1.55291 0
M  V30 1984 H 182.181 0.0238086 3.91793 0
M  V30 1985 H 183.878 0.408617 3.98913 0
M  V30 1986 H 180.468 1.8375 3.87213 0
M  V30 1987 H 184.652 2.79033 4.10431 0
M  V30 1988 H 179.908 4.14996 4.48986 0
M  V30 1989 H 184.082 5.10629 4.7353 0
M  V30 1990 H 181.709 5.79115 4.92473 0
M  V30 1991 N 183.284 -1.43765 0.645699 0
M  V30 1992 C 184.234 -2.27884 -0.0726442 0
M  V30 1993 C 185.218 -1.39483 -0.802086 0
M  V30 1994 O 186.41 -1.63174 -0.685791 0
M  V30 1995 C 183.539 -3.27055 -1.04356 0
M  V30 1996 C 182.625 -4.22944 -0.312985 0
M  V30 1997 N 183.016 -5.01391 0.666386 0
M  V30 1998 C 181.314 -4.42528 -0.55546 0
M  V30 1999 C 182.015 -5.71217 1.09935 0
M  V30 2000 N 180.991 -5.41856 0.435137 0
M  V30 2001 H 184.793 -2.85949 0.678988 0
M  V30 2002 H 182.307 -1.55378 0.472368 0
M  V30 2003 H 184.304 -3.86089 -1.57292 0
M  V30 2004 H 182.964 -2.70551 -1.79534 0
M  V30 2005 H 183.975 -5.07252 1.04481 0
M  V30 2006 H 180.652 -3.97104 -1.28899 0
M  V30 2007 H 182.042 -6.44202 1.90929 0
M  V30 2008 N 184.763 -0.387143 -1.52771 0
M  V30 2009 C 186.012 0.19697 -2.00736 0
M  V30 2010 C 186.325 1.48082 -1.27793 0
M  V30 2011 O 187.531 2.14485 -1.66458 0
M  V30 2012 C 185.987 0.401568 -3.57653 0
M  V30 2013 C 185.595 -0.868907 -4.39493 0
M  V30 2014 C 187.339 0.942164 -4.13912 0
M  V30 2015 C 185.246 -0.632705 -5.88006 0
M  V30 2016 H 184.176 0.0773827 -0.750019 0
M  V30 2017 H 186.827 -0.50921 -1.76293 0
M  V30 2018 H 185.209 1.16954 -3.78335 0
M  V30 2019 H 186.383 -1.64133 -4.30577 0
M  V30 2020 H 184.698 -1.33429 -3.94443 0
M  V30 2021 H 187.295 1.13455 -5.22525 0
M  V30 2022 H 187.638 1.9106 -3.69867 0
M  V30 2023 H 188.171 0.233814 -3.97112 0
M  V30 2024 H 184.91 -1.57208 -6.36369 0
M  V30 2025 H 184.43 0.100825 -5.99715 0
M  V30 2026 H 186.109 -0.26642 -6.46451 0
M  V30 2027 N 186.241 1.57166 -0.116904 0
M  V30 2028 C 187.489 1.94737 0.540533 0
M  V30 2029 C 187.81 1.00096 1.67349 0
M  V30 2030 O 187.08 0.0568854 1.95817 0
M  V30 2031 H 185.66 0.718981 0.202669 0
M  V30 2032 H 188.322 1.94017 -0.185353 0
M  V30 2033 H 187.418 2.97719 0.936483 0
M  V30 2034 N 187.719 -0.156864 1.56817 0
M  V30 2035 C 188.996 -0.899244 1.73704 0
M  V30 2036 C 189.376 -1.99771 0.682254 0
M  V30 2037 O 188.724 -2.26515 -0.300522 0
M  V30 2038 C 188.934 -1.45075 3.17418 0
M  V30 2039 C 190.282 -1.91802 3.7881 0
M  V30 2040 O 191.306 -1.54838 3.20786 0
M  V30 2041 O 190.165 -2.5994 4.80722 0
M  V30 2042 H 187.259 -0.424267 0.709878 0
M  V30 2043 H 189.805 -0.143561 1.69092 0
M  V30 2044 H 188.577 -0.660846 3.85679 0
M  V30 2045 H 188.2 -2.27021 3.26416 0
M  V30 2046 N 189.197 -1.51736 -0.425897 0
M  V30 2047 C 190.16 -1.73271 -1.50032 0
M  V30 2048 C 191.16 -0.602639 -1.4908 0
M  V30 2049 O 192.35 -0.87033 -1.509 0
M  V30 2050 C 189.482 -1.79969 -2.89523 0
M  V30 2051 H 190.675 -2.69172 -1.32237 0
M  V30 2052 H 188.228 -1.41899 -0.65532 0
M  V30 2053 H 188.963 -0.859241 -3.1271 0
M  V30 2054 H 188.748 -2.62109 -2.91619 0
M  V30 2055 H 190.238 -1.9843 -3.67444 0
M  V30 2056 N 190.675 0.682077 -1.42076 0
M  V30 2057 C 191.9 1.47558 -1.45744 0
M  V30 2058 C 192.325 1.87977 -0.0680981 0
M  V30 2059 O 191.683 1.55522 0.9318 0
M  V30 2060 C 191.731 2.70575 -2.38373 0
M  V30 2061 O 190.835 3.68573 -1.85007 0
M  V30 2062 H 190.176 0.443585 -0.494093 0
M  V30 2063 H 192.706 0.837238 -1.86686 0
M  V30 2064 H 192.716 3.18729 -2.54707 0
M  V30 2065 H 191.391 2.40495 -3.39315 0
M  V30 2066 H 189.968 3.2757 -1.78192 0
M  V30 2067 N 192.153 1.28127 0.917671 0
M  V30 2068 C 193.116 1.11744 2.00115 0
M  V30 2069 C 194.116 0.0583052 1.60694 0
M  V30 2070 O 195.306 0.303755 1.71531 0
M  V30 2071 C 192.438 0.704862 3.33533 0
M  V30 2072 H 193.631 2.07966 2.16079 0
M  V30 2073 H 191.184 1.11058 1.09981 0
M  V30 2074 H 191.919 -0.258299 3.2327 0
M  V30 2075 H 191.704 1.4699 3.63505 0
M  V30 2076 H 193.194 0.612768 4.1308 0
M  V30 2077 N 193.631 -1.12557 1.10312 0
M  V30 2078 C 194.877 -1.84311 0.846011 0
M  V30 2079 C 195.21 -1.83805 -0.626859 0
M  V30 2080 O 194.485 -1.28268 -1.46211 0
M  V30 2081 C 194.768 -3.32048 1.39341 0
M  V30 2082 C 194.621 -3.41016 2.93305 0
M  V30 2083 C 195.94 -4.27764 1.03468 0
M  V30 2084 H 193.059 -0.669192 0.30879 0
M  V30 2085 H 195.701 -1.32057 1.36605 0
M  V30 2086 H 193.851 -3.76678 0.951087 0
M  V30 2087 H 195.523 -3.05031 3.46055 0
M  V30 2088 H 193.766 -2.81603 3.29973 0
M  V30 2089 H 194.437 -4.44948 3.26689 0
M  V30 2090 H 196.913 -3.91253 1.41633 0
M  V30 2091 H 195.789 -5.29549 1.44463 0
M  V30 2092 H 196.05 -4.42064 -0.0560404 0
M  V30 2093 N 195.109 -0.891671 -1.2995 0
M  V30 2094 C 196.019 -0.367691 -2.31701 0
M  V30 2095 C 197.035 0.533486 -1.6562 0
M  V30 2096 O 198.211 0.424997 -1.96865 0
M  V30 2097 C 195.276 0.403406 -3.44345 0
M  V30 2098 C 194.337 -0.528328 -4.26037 0
M  V30 2099 C 193.57 0.206063 -5.33302 0
M  V30 2100 O 193.793 1.43119 -5.52153 0
M  V30 2101 O 192.727 -0.447281 -6.00236 0
M  V30 2102 H 196.553 -1.21163 -2.78484 0
M  V30 2103 H 194.138 -0.655725 -1.34241 0
M  V30 2104 H 196.02 0.839753 -4.12948 0
M  V30 2105 H 194.695 1.22354 -2.99685 0
M  V30 2106 H 193.602 -1.01362 -3.60106 0
M  V30 2107 H 194.935 -1.31465 -4.74318 0
M  V30 2108 N 196.587 1.43421 -0.653314 0
M  V30 2109 C 197.836 2.01032 -0.164076 0
M  V30 2110 C 198.149 1.52147 1.22926 0
M  V30 2111 O 199.355 2.02031 1.81371 0
M  V30 2112 C 197.811 3.59082 -0.24252 0
M  V30 2113 C 197.419 4.1696 -1.63855 0
M  V30 2114 C 199.163 4.24079 0.18911 0
M  V30 2115 C 197.07 5.67304 -1.67092 0
M  V30 2116 H 196 0.751798 -0.0575769 0
M  V30 2117 H 198.651 1.6439 -0.815362 0
M  V30 2118 H 197.033 3.93125 0.476276 0
M  V30 2119 H 198.207 3.94416 -2.38271 0
M  V30 2120 H 196.522 3.64335 -2.01616 0
M  V30 2121 H 199.119 5.34381 0.184775 0
M  V30 2122 H 199.462 3.98005 1.22056 0
M  V30 2123 H 199.995 3.94918 -0.477938 0
M  V30 2124 H 196.734 5.98145 -2.68146 0
M  V30 2125 H 196.254 5.91904 -0.970014 0
M  V30 2126 H 197.933 6.31344 -1.4147 0
M  V30 2127 N 198.065 0.39524 1.52563 0
M  V30 2128 C 199.012 -0.437036 2.26624 0
M  V30 2129 C 199.982 -1.05281 1.28472 0
M  V30 2130 O 201.167 -1.07971 1.57311 0
M  V30 2131 C 198.307 -1.55524 3.08069 0
M  V30 2132 C 197.42 -0.961745 4.21158 0
M  V30 2133 C 196.555 -2.05149 4.89987 0
M  V30 2134 C 195.594 -1.4342 5.95061 0
M  V30 2135 N 194.731 -2.46351 6.57462 0
M  V30 2136 H 199.571 0.200976 2.97322 0
M  V30 2137 H 197.108 0.110944 1.46681 0
M  V30 2138 H 199.066 -2.21437 3.53584 0
M  V30 2139 H 197.696 -2.16348 2.3957 0
M  V30 2140 H 196.748 -0.192048 3.79915 0
M  V30 2141 H 198.06 -0.470701 4.96574 0
M  V30 2142 H 197.214 -2.78819 5.38837 0
M  V30 2143 H 195.953 -2.57615 4.14109 0
M  V30 2144 H 194.958 -0.682774 5.45544 0
M  V30 2145 H 196.183 -0.917416 6.72875 0
M  V30 2146 H 194.129 -2.97975 5.8442 0
M  V30 2147 H 194.046 -2.02019 7.28508 0
M  V30 2148 H 195.314 -3.19633 7.10954 0
M  V30 2149 N 199.544 -1.57102 0.125237 0
M  V30 2150 C 200.791 -1.95407 -0.531248 0
M  V30 2151 C 201.119 -1.0089 -1.66287 0
M  V30 2152 O 200.374 -0.0339431 -1.95671 0
M  V30 2153 C 200.673 -3.40096 -1.09862 0
M  V30 2154 C 200.339 -4.50815 -0.0876989 0
M  V30 2155 C 199.001 -4.80824 0.19026 0
M  V30 2156 C 201.353 -5.17724 0.600902 0
M  V30 2157 C 198.681 -5.75058 1.163 0
M  V30 2158 C 201.033 -6.13005 1.56231 0
M  V30 2159 C 199.697 -6.41403 1.8482 0
M  V30 2160 H 198.967 -0.715046 -0.194397 0
M  V30 2161 H 201.614 -1.90373 0.207463 0
M  V30 2162 H 199.919 -3.41855 -1.91422 0
M  V30 2163 H 201.616 -3.6705 -1.61478 0
M  V30 2164 H 198.206 -4.27444 -0.314528 0
M  V30 2165 H 202.39 -4.94691 0.399333 0
M  V30 2166 H 197.646 -5.95362 1.39117 0
M  V30 2167 H 201.82 -6.63934 2.10153 0
M  V30 2168 H 199.447 -7.14229 2.60349 0
M  V30 2169 N 201.022 0.148545 -1.56898 0
M  V30 2170 C 202.247 0.880385 -1.87787 0
M  V30 2171 C 202.672 1.74018 -0.714093 0
M  V30 2172 O 202.03 1.78153 0.336343 0
M  V30 2173 C 202.078 1.71422 -3.17249 0
M  V30 2174 O 201.182 2.8183 -3.01074 0
M  V30 2175 H 200.523 0.245301 -0.617028 0
M  V30 2176 H 203.053 0.139826 -2.04122 0
M  V30 2177 H 203.063 2.10954 -3.49231 0
M  V30 2178 H 201.738 1.08284 -4.01556 0
M  V30 2179 H 200.315 2.45715 -2.80497 0
M  V30 2180 N 202.5 1.5196 0.417844 0
M  V30 2181 C 203.448 1.75278 1.52907 0
M  V30 2182 C 204.442 0.619611 1.57662 0
M  V30 2183 O 205.648 0.801457 1.61173 0
M  V30 2184 H 202.023 0.554141 0.508362 0
M  V30 2185 H 203.994 2.68389 1.30422 0
M  V30 2186 C 202.743 1.91262 2.90369 0
M  V30 2187 H 202.066 2.77872 2.8745 0
M  V30 2188 H 203.506 2.11581 3.67436 0
M  V30 2189 C 201.965 0.677431 3.30019 0
M  V30 2190 O 202.495 -0.158799 4.01386 0
M  V30 2191 N 200.701 0.515851 2.85985 0
M  V30 2192 H 200.248 1.19744 2.28077 0
M  V30 2193 H 200.206 -0.309315 3.12875 0
M  V30 2194 N 203.978 -0.674533 1.42435 0
M  V30 2195 C 205.226 -1.43175 1.42637 0
M  V30 2196 C 205.547 -1.94951 0.0438992 0
M  V30 2197 O 204.817 -1.7308 -0.917607 0
M  V30 2198 H 203.397 -0.531307 0.525092 0
M  V30 2199 H 206.059 -0.797006 1.77859 0
M  V30 2200 H 205.155 -2.28463 2.12629 0
M  V30 2201 N 205.456 -1.28612 -0.910864 0
M  V30 2202 C 206.681 -1.1891 -1.69927 0
M  V30 2203 C 207.106 0.248372 -1.86453 0
M  V30 2204 O 206.464 1.17961 -1.37676 0
M  V30 2205 C 206.512 -1.89578 -3.06745 0
M  V30 2206 O 205.616 -1.20521 -3.94396 0
M  V30 2207 H 204.957 -0.412632 -0.520222 0
M  V30 2208 H 207.487 -1.69985 -1.1387 0
M  V30 2209 H 207.497 -1.97597 -3.56958 0
M  V30 2210 H 206.172 -2.94136 -2.94035 0
M  V30 2211 H 204.749 -1.20684 -3.52831 0
M  V30 2212 N 206.934 1.1197 -1.10907 0
M  V30 2213 C 207.866 2.17592 -0.720175 0
M  V30 2214 C 208.879 1.60938 0.245495 0
M  V30 2215 O 210.068 1.78476 0.0292245 0
M  V30 2216 C 207.168 3.38873 -0.0427917 0
M  V30 2217 C 206.341 4.25006 -1.03388 0
M  V30 2218 C 205.4 5.24774 -0.387075 0
M  V30 2219 O 204.426 5.59631 -1.03934 0
M  V30 2220 N 205.628 5.74208 0.852407 0
M  V30 2221 H 208.393 2.51567 -1.62893 0
M  V30 2222 H 205.954 1.27439 -0.998543 0
M  V30 2223 H 207.946 4.02703 0.401501 0
M  V30 2224 H 206.516 3.03007 0.768456 0
M  V30 2225 H 205.736 3.57716 -1.65629 0
M  V30 2226 H 207.024 4.79397 -1.70458 0
M  V30 2227 H 206.422 5.48062 1.40161 0
M  V30 2228 H 204.979 6.39901 1.23977 0
M  V30 2229 N 208.412 0.89855 1.29475 0
M  V30 2230 C 209.689 0.443416 1.90508 0
M  V30 2231 C 210.069 -1.07685 1.81569 0
M  V30 2232 O 209.417 -1.9182 1.24166 0
M  V30 2233 C 209.627 0.956708 3.35631 0
M  V30 2234 C 210.975 0.999728 4.12663 0
M  V30 2235 O 211.999 0.904299 3.4453 0
M  V30 2236 O 210.858 1.14289 5.34416 0
M  V30 2237 H 207.952 0.138025 0.815401 0
M  V30 2238 H 210.498 0.98834 1.37949 0
M  V30 2239 H 209.27 2.00067 3.36287 0
M  V30 2240 H 208.893 0.391728 3.95666 0
M  V30 2241 N 209.89 -1.43072 0.660911 0
M  V30 2242 C 211.139 -2.00942 0.174735 0
M  V30 2243 C 211.452 -1.52797 -1.22117 0
M  V30 2244 O 212.658 -2.02991 -1.80297 0
M  V30 2245 C 211.114 -3.58948 0.261559 0
M  V30 2246 C 210.722 -4.16085 1.66064 0
M  V30 2247 C 212.466 -4.24173 -0.166617 0
M  V30 2248 C 210.373 -5.6641 1.70098 0
M  V30 2249 H 209.303 -0.751483 0.0615631 0
M  V30 2250 H 211.954 -1.63955 0.824069 0
M  V30 2251 H 210.336 -3.93372 -0.455421 0
M  V30 2252 H 211.51 -3.93147 2.40359 0
M  V30 2253 H 209.825 -3.6326 2.03546 0
M  V30 2254 H 212.422 -5.34471 -0.156433 0
M  V30 2255 H 212.765 -3.98647 -1.19943 0
M  V30 2256 H 213.298 -3.94659 0.498875 0
M  V30 2257 H 210.037 -5.96715 2.71315 0
M  V30 2258 H 209.557 -5.91382 1.00139 0
M  V30 2259 H 211.236 -6.30585 1.44816 0
M  V30 2260 N 211.368 -0.403325 -1.52352 0
M  V30 2261 C 212.298 0.416205 -2.29761 0
M  V30 2262 C 213.279 1.05123 -1.33728 0
M  V30 2263 O 214.464 1.06134 -1.62632 0
M  V30 2264 C 211.594 1.53624 -3.11475 0
M  V30 2265 C 210.548 1.02653 -4.15507 0
M  V30 2266 C 209.874 2.23971 -4.85532 0
M  V30 2267 C 211.174 0.08463 -5.22231 0
M  V30 2268 H 212.868 -0.229701 -2.98518 0
M  V30 2269 H 210.414 -0.111913 -1.43564 0
M  V30 2270 H 212.367 2.1165 -3.64393 0
M  V30 2271 H 211.091 2.20994 -2.40477 0
M  V30 2272 H 209.75 0.46871 -3.63591 0
M  V30 2273 H 209.398 2.89883 -4.11068 0
M  V30 2274 H 209.098 1.90521 -5.55856 0
M  V30 2275 H 210.622 2.82614 -5.41259 0
M  V30 2276 H 212.036 0.573509 -5.70424 0
M  V30 2277 H 210.433 -0.160783 -5.99885 0
M  V30 2278 H 211.503 -0.86237 -4.7717 0
M  V30 2279 N 212.846 1.57033 -0.133567 0
M  V30 2280 C 213.776 2.1909 0.807567 0
M  V30 2281 C 214.757 1.13517 1.26681 0
M  V30 2282 O 215.942 1.41809 1.32679 0
M  V30 2283 C 213.072 2.80188 2.05212 0
M  V30 2284 C 212.026 3.91471 1.73015 0
M  V30 2285 C 211.352 4.39443 3.04622 0
M  V30 2286 C 212.652 5.12886 0.987168 0
M  V30 2287 H 214.346 2.97988 0.290403 0
M  V30 2288 H 211.892 1.43335 0.138239 0
M  V30 2289 H 213.845 3.22264 2.71521 0
M  V30 2290 H 212.569 1.98601 2.59278 0
M  V30 2291 H 211.228 3.49993 1.0909 0
M  V30 2292 H 210.876 3.54695 3.56651 0
M  V30 2293 H 210.576 5.14495 2.83847 0
M  V30 2294 H 212.1 4.8418 3.72024 0
M  V30 2295 H 213.514 5.51891 1.55208 0
M  V30 2296 H 211.911 5.93615 0.87985 0
M  V30 2297 H 212.981 4.84894 -0.0235286 0
M  V30 2298 N 214.325 -0.140222 1.56975 0
M  V30 2299 C 215.736 -0.699596 1.73097 0
M  V30 2300 C 216.087 -1.8134 0.749022 0
M  V30 2301 O 215.212 -2.16241 -0.0828503 0
M  V30 2302 C 215.807 -1.27582 3.1386 0
M  V30 2303 C 214.366 -1.78169 3.31561 0
M  V30 2304 C 213.513 -0.672855 2.69013 0
M  V30 2305 H 216.464 0.0855115 1.58469 0
M  V30 2306 H 216.485 -2.14561 3.14235 0
M  V30 2307 H 215.997 -0.464955 3.85305 0
M  V30 2308 H 214.098 -2.61801 2.65124 0
M  V30 2309 H 214.211 -1.90574 4.39566 0
M  V30 2310 H 212.575 -1.10118 2.29665 0
M  V30 2311 H 213.358 0.126679 3.43066 0
M  V30 2312 N 215.803 -1.52179 -0.40978 0
M  V30 2313 C 216.751 -1.76086 -1.51975 0
M  V30 2314 C 217.745 -0.627964 -1.57331 0
M  V30 2315 O 218.951 -0.809993 -1.60745 0
M  V30 2316 H 215.326 -0.556829 -0.505416 0
M  V30 2317 H 217.297 -2.69077 -1.28996 0
M  V30 2318 C 216.046 -1.92799 -2.8935 0
M  V30 2319 H 215.369 -2.79392 -2.85972 0
M  V30 2320 H 216.809 -2.13527 -3.66309 0
M  V30 2321 C 215.268 -0.694923 -3.29655 0
M  V30 2322 O 215.798 0.13751 -4.01465 0
M  V30 2323 N 214.004 -0.53101 -2.85707 0
M  V30 2324 H 213.551 -1.20952 -2.27439 0
M  V30 2325 H 213.509 0.292718 -3.13034 0
M  V30 2326 N 217.281 0.66697 -1.42791 0
M  V30 2327 C 218.527 1.4291 -1.43891 0
M  V30 2328 C 218.86 1.94114 -0.0578972 0
M  V30 2329 O 218.135 1.71414 0.91911 0
M  V30 2330 C 218.418 2.62049 -2.46987 0
M  V30 2331 C 218.271 2.16426 -3.94309 0
M  V30 2332 C 219.59 3.64266 -2.46978 0
M  V30 2333 H 216.709 0.518306 -0.523954 0
M  V30 2334 H 219.351 0.757321 -1.74255 0
M  V30 2335 H 217.501 3.19361 -2.21225 0
M  V30 2336 H 219.173 1.64221 -4.31079 0
M  V30 2337 H 217.416 1.47925 -4.078 0
M  V30 2338 H 218.087 3.02038 -4.62036 0
M  V30 2339 H 220.563 3.16686 -2.69906 0
M  V30 2340 H 219.439 4.45196 -3.21079 0
M  V30 2341 H 219.7 4.15927 -1.49857 0
M  V30 2342 N 218.759 1.29093 0.90403 0
M  V30 2343 C 220.008 1.16187 1.64874 0
M  V30 2344 C 220.321 -0.286742 1.93487 0
M  V30 2345 O 221.527 -0.537062 2.66135 0
M  V30 2346 C 219.983 2.03177 2.97064 0
M  V30 2347 C 219.591 3.52836 2.76062 0
M  V30 2348 C 221.335 1.98984 3.74974 0
M  V30 2349 C 219.242 4.31945 4.03952 0
M  V30 2350 H 218.172 0.431246 0.618501 0
M  V30 2351 H 220.823 1.53699 1.00243 0
M  V30 2352 H 219.205 1.5853 3.62883 0
M  V30 2353 H 220.379 4.05507 2.18863 0
M  V30 2354 H 218.694 3.58656 2.11553 0
M  V30 2355 H 221.291 2.55351 4.69787 0
M  V30 2356 H 221.634 0.968815 4.0487 0
M  V30 2357 H 222.167 2.41652 3.15989 0
M  V30 2358 H 218.906 5.34667 3.79225 0
M  V30 2359 H 218.426 3.84045 4.60727 0
M  V30 2360 H 220.105 4.42379 4.72133 0
M  V30 2361 N 220.237 -1.11381 1.11499 0
M  V30 2362 C 221.486 -1.82494 0.858993 0
M  V30 2363 C 221.799 -1.85605 -0.617278 0
M  V30 2364 O 223.005 -2.52824 -0.989552 0
M  V30 2365 C 221.461 -3.27745 1.48699 0
M  V30 2366 C 221.069 -3.32961 2.99735 0
M  V30 2367 C 222.813 -4.03754 1.31085 0
M  V30 2368 C 220.72 -4.72612 3.55516 0
M  V30 2369 H 219.65 -0.683802 0.317696 0
M  V30 2370 H 222.301 -1.25331 1.34031 0
M  V30 2371 H 220.683 -3.84844 0.933339 0
M  V30 2372 H 221.857 -2.85741 3.61509 0
M  V30 2373 H 220.172 -2.70433 3.16631 0
M  V30 2374 H 222.769 -5.06891 1.70192 0
M  V30 2375 H 223.112 -4.15527 0.253496 0
M  V30 2376 H 223.645 -3.53043 1.83318 0
M  V30 2377 H 220.384 -4.66036 4.60967 0
M  V30 2378 H 219.904 -5.2024 2.98513 0
M  V30 2379 H 221.583 -5.4157 3.53992 0
M  V30 2380 N 221.715 -0.905404 -1.28997 0
M  V30 2381 C 222.648 -0.331959 -2.25773 0
M  V30 2382 C 223.626 0.559099 -1.52685 0
M  V30 2383 O 224.81 0.50463 -1.8162 0
M  V30 2384 C 221.937 0.526276 -3.34586 0
M  V30 2385 C 220.983 -0.298249 -4.25456 0
M  V30 2386 S 221.816 -1.69968 -5.0781 0
M  V30 2387 C 222.972 -0.848519 -6.20122 0
M  V30 2388 H 223.205 -1.15222 -2.74064 0
M  V30 2389 H 220.738 -0.706112 -1.37308 0
M  V30 2390 H 222.696 1.01565 -3.97737 0
M  V30 2391 H 221.357 1.32084 -2.84978 0
M  V30 2392 H 220.55 0.357607 -5.0273 0
M  V30 2393 H 220.152 -0.720968 -3.66985 0
M  V30 2394 H 222.444 -0.0744325 -6.77459 0
M  V30 2395 H 223.387 -1.59353 -6.89937 0
M  V30 2396 H 223.795 -0.400383 -5.63078 0
M  V30 2397 N 223.193 1.4272 -0.668489 0
M  V30 2398 C 224.441 2.01226 -0.187769 0
M  V30 2399 C 224.762 1.53092 1.2078 0
M  V30 2400 O 224.032 0.74993 1.80977 0
M  V30 2401 H 222.612 0.744041 -0.0664272 0
M  V30 2402 H 225.274 1.74723 -0.863583 0
M  V30 2403 H 224.37 3.11556 -0.184166 0
M  V30 2404 N 224.671 0.411399 1.52136 0
M  V30 2405 C 225.634 -0.401089 2.25663 0
M  V30 2406 C 226.634 -0.971732 1.28117 0
M  V30 2407 O 227.824 -0.850254 1.52041 0
M  V30 2408 C 224.956 -1.56483 3.02863 0
M  V30 2409 H 226.149 0.24295 2.98914 0
M  V30 2410 H 223.702 0.163968 1.55438 0
M  V30 2411 H 224.437 -2.24567 2.33967 0
M  V30 2412 H 224.222 -1.16211 3.74483 0
M  V30 2413 H 225.712 -2.13951 3.58629 0
M  V30 2414 N 226.149 -1.5696 0.141893 0
M  V30 2415 C 227.059 -2.20066 -0.812905 0
M  V30 2416 C 228.075 -1.18344 -1.27557 0
M  V30 2417 O 229.251 -1.50902 -1.33381 0
M  V30 2418 C 226.316 -2.80583 -2.03652 0
M  V30 2419 C 225.377 -3.97414 -1.62359 0
M  V30 2420 C 224.61 -4.55036 -2.78887 0
M  V30 2421 O 224.833 -4.11538 -3.94959 0
M  V30 2422 O 223.767 -5.45376 -2.54653 0
M  V30 2423 H 227.593 -3.02157 -0.305746 0
M  V30 2424 H 225.178 -1.49159 -0.0848799 0
M  V30 2425 H 227.06 -3.19067 -2.75272 0
M  V30 2426 H 225.735 -2.01508 -2.5333 0
M  V30 2427 H 224.642 -3.63656 -0.877775 0
M  V30 2428 H 225.975 -4.77994 -1.17401 0
M  V30 2429 N 227.627 0.131896 -1.57047 0
M  V30 2430 C 229.038 0.690407 -1.73465 0
M  V30 2431 C 229.389 1.8094 -0.758629 0
M  V30 2432 O 228.514 2.16282 0.0713813 0
M  V30 2433 C 229.109 1.25916 -3.14532 0
M  V30 2434 C 227.668 1.76409 -3.32501 0
M  V30 2435 C 226.815 0.658579 -2.69366 0
M  V30 2436 H 229.766 -0.0939144 -1.58422 0
M  V30 2437 H 229.787 2.12892 -3.15369 0
M  V30 2438 H 229.299 0.444515 -3.85546 0
M  V30 2439 H 227.4 2.60391 -2.66509 0
M  V30 2440 H 227.513 1.88241 -4.4057 0
M  V30 2441 H 225.877 1.08899 -2.30246 0
M  V30 2442 H 226.66 -0.14487 -3.42994 0
M  V30 2443 N 229.106 1.52395 0.401703 0
M  V30 2444 C 230.383 1.57387 1.16141 0
M  V30 2445 C 230.763 0.359359 2.08019 0
M  V30 2446 O 230.111 -0.65326 2.18963 0
M  V30 2447 C 230.321 2.90631 1.93221 0
M  V30 2448 C 231.669 3.43904 2.49028 0
M  V30 2449 O 232.693 2.92421 2.03393 0
M  V30 2450 O 231.552 4.33823 3.32356 0
M  V30 2451 H 228.646 0.634262 0.530698 0
M  V30 2452 H 231.192 1.64725 0.407883 0
M  V30 2453 H 229.964 3.70473 1.25958 0
M  V30 2454 H 229.587 2.8662 2.75563 0
M  V30 2455 N 230.584 -0.659388 1.43143 0
M  V30 2456 C 231.514 -1.78422 1.50625 0
M  V30 2457 C 232.495 -1.66216 0.361443 0
M  V30 2458 O 233.68 -1.85404 0.577834 0
M  V30 2459 C 230.81 -3.16815 1.42287 0
M  V30 2460 C 229.764 -3.43777 2.54954 0
M  V30 2461 C 229.09 -4.81905 2.31671 0
M  V30 2462 C 230.39 -3.39134 3.97222 0
M  V30 2463 H 232.084 -1.72417 2.44771 0
M  V30 2464 H 229.63 -0.828084 1.17808 0
M  V30 2465 H 231.583 -3.95253 1.46127 0
M  V30 2466 H 230.307 -3.23534 0.446435 0
M  V30 2467 H 228.966 -2.67707 2.50457 0
M  V30 2468 H 228.614 -4.85294 1.32284 0
M  V30 2469 H 228.314 -5.00906 3.07192 0
M  V30 2470 H 229.838 -5.62609 2.37284 0
M  V30 2471 H 231.252 -4.07518 4.03239 0
M  V30 2472 H 229.649 -3.69671 4.72719 0
M  V30 2473 H 230.719 -2.37426 4.22797 0
M  V30 2474 N 232.062 -1.29571 -0.897171 0
M  V30 2475 C 233.309 -1.17689 -1.6479 0
M  V30 2476 C 233.637 0.27107 -1.92602 0
M  V30 2477 O 232.892 1.21193 -1.53658 0
M  V30 2478 C 233.191 -1.9382 -3.00281 0
M  V30 2479 C 232.857 -3.43522 -2.92068 0
M  V30 2480 C 231.519 -3.84348 -2.89535 0
M  V30 2481 C 233.871 -4.38906 -2.81089 0
M  V30 2482 C 231.199 -5.18869 -2.73846 0
M  V30 2483 C 233.551 -5.73521 -2.66939 0
M  V30 2484 C 232.215 -6.13601 -2.62774 0
M  V30 2485 H 231.485 -0.430654 -0.603008 0
M  V30 2486 H 234.132 -1.60536 -1.04404 0
M  V30 2487 H 232.437 -1.4357 -3.64547 0
M  V30 2488 H 234.134 -1.82028 -3.57305 0
M  V30 2489 H 230.724 -3.11072 -2.94842 0
M  V30 2490 H 234.908 -4.08315 -2.82121 0
M  V30 2491 H 230.164 -5.4903 -2.69027 0
M  V30 2492 H 234.338 -6.47078 -2.57416 0
M  V30 2493 H 231.965 -7.17786 -2.50375 0
M  V30 2494 N 233.54 1.10788 -1.12088 0
M  V30 2495 C 234.45 2.20599 -0.798338 0
M  V30 2496 C 235.466 1.72712 0.21135 0
M  V30 2497 O 236.642 2.01348 0.0458477 0
M  V30 2498 C 233.707 3.45771 -0.253674 0
M  V30 2499 C 232.768 4.08411 -1.32283 0
M  V30 2500 C 232.001 5.27608 -0.80406 0
M  V30 2501 O 232.224 5.69241 0.363478 0
M  V30 2502 O 231.158 5.8101 -1.57198 0
M  V30 2503 H 234.984 2.50614 -1.7154 0
M  V30 2504 H 232.569 1.19454 -0.897275 0
M  V30 2505 H 234.451 4.21376 0.0453691 0
M  V30 2506 H 233.126 3.1739 0.636005 0
M  V30 2507 H 232.033 3.34507 -1.67499 0
M  V30 2508 H 233.366 4.40986 -2.18614 0
M  V30 2509 N 235.018 0.912232 1.28515 0
M  V30 2510 C 236.246 0.560416 1.99166 0
M  V30 2511 C 236.661 -0.857927 1.68182 0
M  V30 2512 O 236.018 -1.56805 0.933733 0
M  V30 2513 C 236.069 0.758142 3.53461 0
M  V30 2514 O 235.79 2.12067 3.83352 0
M  V30 2515 C 237.291 0.412954 4.41372 0
M  V30 2516 H 234.511 0.213805 0.636026 0
M  V30 2517 H 237.055 1.22502 1.63749 0
M  V30 2518 H 235.21 0.140556 3.87145 0
M  V30 2519 H 235.624 2.15923 4.77993 0
M  V30 2520 H 237.098 0.60208 5.48707 0
M  V30 2521 H 237.575 -0.65073 4.34353 0
M  V30 2522 H 238.181 1.00802 4.13182 0
M  V30 2523 N 236.496 -1.42363 0.676048 0
M  V30 2524 C 237.444 -2.32596 -0.0131507 0
M  V30 2525 C 238.438 -1.49891 -0.789238 0
M  V30 2526 O 239.644 -1.65955 -0.697061 0
M  V30 2527 H 236.019 -0.751647 -0.0230481 0
M  V30 2528 H 237.99 -2.88421 0.765243 0
M  V30 2529 C 236.739 -3.34479 -0.949702 0
M  V30 2530 H 236.062 -3.98158 -0.361938 0
M  V30 2531 H 237.502 -4.00199 -1.4006 0
M  V30 2532 C 235.961 -2.66838 -2.05667 0
M  V30 2533 O 236.491 -2.50124 -3.14326 0
M  V30 2534 N 234.697 -2.25843 -1.82875 0
M  V30 2535 H 234.244 -2.39637 -0.945085 0
M  V30 2536 H 234.202 -1.80918 -2.5713 0
M  V30 2537 N 237.974 -0.419461 -1.51915 0
M  V30 2538 C 239.199 0.154572 -2.06823 0
M  V30 2539 C 239.624 1.3722 -1.28656 0
M  V30 2540 O 238.982 1.78461 -0.319583 0
M  V30 2541 C 239.03 0.473172 -3.57482 0
M  V30 2542 O 238.134 1.56255 -3.81652 0
M  V30 2543 H 237.475 0.0096924 -0.663929 0
M  V30 2544 H 240.005 -0.595642 -1.95738 0
M  V30 2545 H 240.015 0.728825 -4.01438 0
M  V30 2546 H 238.69 -0.416873 -4.13805 0
M  V30 2547 H 237.267 1.29825 -3.49571 0
M  V30 2548 N 239.452 1.56882 -0.150215 0
M  V30 2549 C 240.677 2.01027 0.510184 0
M  V30 2550 C 241.102 1.02966 1.57415 0
M  V30 2551 O 240.46 0.00590158 1.81299 0
M  V30 2552 C 240.508 3.43899 1.08472 0
M  V30 2553 O 239.612 3.4885 2.19948 0
M  V30 2554 H 238.953 0.652233 0.124451 0
M  V30 2555 H 241.483 2.03093 -0.247894 0
M  V30 2556 H 241.493 3.82766 1.41259 0
M  V30 2557 H 240.168 4.14776 0.305582 0
M  V30 2558 H 238.745 3.21827 1.88366 0
M  V30 2559 N 240.93 -0.123565 1.57115 0
M  V30 2560 C 241.878 -1.17082 2.00984 0
M  V30 2561 C 242.872 -1.43136 0.906009 0
M  V30 2562 O 244.078 -1.43152 1.09121 0
M  V30 2563 H 240.453 -0.394653 0.64012 0
M  V30 2564 H 242.424 -0.774292 2.88179 0
M  V30 2565 C 241.173 -2.49057 2.42623 0
M  V30 2566 H 240.496 -2.29846 3.27125 0
M  V30 2567 H 241.936 -3.20906 2.7712 0
M  V30 2568 C 240.395 -3.11305 1.28805 0
M  V30 2569 O 240.925 -3.97171 0.60153 0
M  V30 2570 N 239.131 -2.71111 1.04628 0
M  V30 2571 H 238.678 -2.01382 1.60634 0
M  V30 2572 H 238.636 -3.1309 0.286685 0
M  V30 2573 N 242.408 -1.52605 -0.393616 0
M  V30 2574 C 243.657 -1.66649 -1.13627 0
M  V30 2575 C 243.97 -0.410364 -1.91247 0
M  V30 2576 O 245.176 -0.430854 -2.68059 0
M  V30 2577 C 243.632 -2.9449 -2.06891 0
M  V30 2578 C 243.24 -4.27266 -1.34714 0
M  V30 2579 C 244.984 -3.17899 -2.81319 0
M  V30 2580 C 242.891 -5.46217 -2.26717 0
M  V30 2581 H 241.821 -0.62084 -0.427871 0
M  V30 2582 H 244.472 -1.791 -0.399428 0
M  V30 2583 H 242.854 -2.75774 -2.84191 0
M  V30 2584 H 244.028 -4.56518 -0.626714 0
M  V30 2585 H 242.343 -4.10081 -0.722643 0
M  V30 2586 H 244.94 -4.03949 -3.50328 0
M  V30 2587 H 245.283 -2.32777 -3.45139 0
M  V30 2588 H 245.816 -3.37159 -2.11113 0
M  V30 2589 H 242.555 -6.33733 -1.67521 0
M  V30 2590 H 242.075 -5.21283 -2.96689 0
M  V30 2591 H 243.754 -5.7991 -2.86903 0
M  V30 2592 N 243.887 0.651787 -1.4349 0
M  V30 2593 C 245.112 1.44434 -1.48841 0
M  V30 2594 C 245.537 1.8779 -0.107955 0
M  V30 2595 O 244.895 1.57464 0.898602 0
M  V30 2596 C 244.943 2.65458 -2.44059 0
M  V30 2597 O 244.047 3.64566 -1.92784 0
M  V30 2598 H 243.388 0.433005 -0.503391 0
M  V30 2599 H 245.918 0.797451 -1.88419 0
M  V30 2600 H 245.928 3.13255 -2.6141 0
M  V30 2601 H 244.603 2.33244 -3.4434 0
M  V30 2602 H 243.18 3.23716 -1.851 0
M  V30 2603 N 245.365 1.30045 0.890287 0
M  V30 2604 C 246.295 1.18541 2.01172 0
M  V30 2605 C 247.276 0.0773356 1.69924 0
M  V30 2606 O 248.461 0.25845 1.92473 0
M  V30 2607 C 245.591 0.870941 3.36202 0
M  V30 2608 C 244.545 1.93637 3.81692 0
M  V30 2609 C 243.871 1.475 5.13953 0
M  V30 2610 C 245.171 3.34666 4.00994 0
M  V30 2611 H 246.865 2.12359 2.11054 0
M  V30 2612 H 244.411 1.02238 1.01407 0
M  V30 2613 H 246.364 0.777141 4.14172 0
M  V30 2614 H 245.088 -0.102926 3.26438 0
M  V30 2615 H 243.747 2.01972 3.05946 0
M  V30 2616 H 243.395 0.489551 5.00612 0
M  V30 2617 H 243.095 2.1876 5.4536 0
M  V30 2618 H 244.619 1.39489 5.94454 0
M  V30 2619 H 246.033 3.2912 4.69417 0
M  V30 2620 H 244.43 4.03966 4.43769 0
M  V30 2621 H 245.5 3.76949 3.05021 0
M  V30 2622 N 246.843 -1.10192 1.12674 0
M  V30 2623 C 248.259 -1.34235 0.863317 0
M  V30 2624 C 248.459 -1.95062 -0.505277 0
M  V30 2625 O 247.515 -2.19192 -1.25345 0
M  V30 2626 C 248.828 -2.2616 1.98172 0
M  V30 2627 C 250.376 -2.3969 2.0129 0
M  V30 2628 C 250.851 -3.34946 3.1237 0
M  V30 2629 N 252.342 -3.42515 3.11829 0
M  V30 2630 C 253.077 -4.16199 3.94419 0
M  V30 2631 N 252.573 -4.92747 4.87004 0
M  V30 2632 N 254.366 -4.11843 3.82547 0
M  V30 2633 H 246.517 -0.690798 2.00853 0
M  V30 2634 H 248.78 -0.366774 0.874174 0
M  V30 2635 H 248.486 -1.8868 2.96804 0
M  V30 2636 H 248.36 -3.26488 1.88906 0
M  V30 2637 H 250.747 -2.76438 1.03276 0
M  V30 2638 H 250.828 -1.39169 2.14629 0
M  V30 2639 H 250.472 -2.98923 4.10619 0
M  V30 2640 H 250.402 -4.35353 2.96269 0
M  V30 2641 H 252.893 -2.87926 2.44759 0
M  V30 2642 H 253.206 -5.46376 5.46528 0
M  V30 2643 H 251.551 -4.91862 4.91016 0
M  V30 2644 H 254.742 -3.51136 3.0955 0
M  V30 2645 H 254.915 -4.69007 4.47142 0
M  V30 2646 N 248.321 -0.919034 -1.28029 0
M  V30 2647 C 249.269 -0.401753 -2.29104 0
M  V30 2648 C 250.263 0.509354 -1.61561 0
M  V30 2649 O 251.469 0.390014 -1.75724 0
M  V30 2650 H 247.844 -0.111331 -0.743713 0
M  V30 2651 H 249.815 -1.2672 -2.70156 0
M  V30 2652 C 248.564 0.338148 -3.46052 0
M  V30 2653 H 247.887 -0.353732 -3.98232 0
M  V30 2654 H 249.327 0.664653 -4.18758 0
M  V30 2655 C 247.786 1.54798 -2.99231 0
M  V30 2656 O 248.316 2.64696 -3.02157 0
M  V30 2657 N 246.522 1.3968 -2.54829 0
M  V30 2658 H 246.069 0.502698 -2.52647 0
M  V30 2659 H 246.027 2.20755 -2.23863 0
M  V30 2660 N 249.799 1.42003 -0.683588 0
M  V30 2661 C 250.747 2.326 0.000815408 0
M  V30 2662 C 251.741 1.50308 0.781278 0
M  V30 2663 O 252.947 1.66322 0.688251 0
M  V30 2664 H 249.322 0.751758 0.0190616 0
M  V30 2665 H 251.293 2.88011 -0.780528 0
M  V30 2666 C 250.042 3.34978 0.93195 0
M  V30 2667 H 249.365 3.98345 0.340817 0
M  V30 2668 H 250.805 4.00936 1.37936 0
M  V30 2669 C 249.264 2.67925 2.04249 0
M  V30 2670 O 249.794 2.51788 3.12995 0
M  V30 2671 N 248 2.2681 1.81675 0
M  V30 2672 H 247.547 2.40135 0.932363 0
M  V30 2673 H 247.505 1.8228 2.56167 0
M  V30 2674 N 251.277 0.427512 1.51691 0
M  V30 2675 C 252.507 -0.140986 2.06118 0
M  V30 2676 C 252.915 -1.37854 1.29588 0
M  V30 2677 O 252.258 -1.80411 0.346036 0
M  V30 2678 C 252.32 -0.538276 3.55447 0
M  V30 2679 C 251.984 0.591095 4.53161 0
M  V30 2680 C 252.981 1.46027 4.98971 0
M  V30 2681 C 250.666 0.769028 4.96378 0
M  V30 2682 C 252.66 2.49216 5.8666 0
M  V30 2683 C 250.347 1.80421 5.83859 0
M  V30 2684 C 251.345 2.66417 6.28897 0
M  V30 2685 O 251.033 3.68159 7.14643 0
M  V30 2686 H 250.765 -0.0157455 0.675817 0
M  V30 2687 H 253.319 0.602495 1.96365 0
M  V30 2688 H 251.549 -1.33432 3.6295 0
M  V30 2689 H 253.238 -1.0368 3.92435 0
M  V30 2690 H 254.004 1.33429 4.66285 0
M  V30 2691 H 249.883 0.109273 4.6087 0
M  V30 2692 H 253.427 3.16372 6.21735 0
M  V30 2693 H 249.324 1.93042 6.15959 0
M  V30 2694 H 250.092 3.64622 7.32798 0
M  V30 2695 N 252.755 -1.56801 0.158532 0
M  V30 2696 C 253.688 -2.13148 -0.815065 0
M  V30 2697 C 254.666 -1.0581 -1.23462 0
M  V30 2698 O 255.85 -1.3371 -1.32868 0
M  V30 2699 C 252.977 -2.6606 -2.09594 0
M  V30 2700 C 252.023 -3.85651 -1.82141 0
M  V30 2701 S 252.856 -5.26041 -1.00207 0
M  V30 2702 C 254.012 -5.8235 -2.29389 0
M  V30 2703 H 254.245 -2.95396 -0.335937 0
M  V30 2704 H 251.778 -1.54299 -0.0559391 0
M  V30 2705 H 253.736 -2.97195 -2.8317 0
M  V30 2706 H 252.397 -1.83921 -2.54621 0
M  V30 2707 H 251.59 -4.20958 -2.77147 0
M  V30 2708 H 251.192 -3.55338 -1.16667 0
M  V30 2709 H 253.484 -5.94485 -3.24952 0
M  V30 2710 H 254.427 -6.79688 -1.9857 0
M  V30 2711 H 254.835 -5.10675 -2.40564 0
M  V30 2712 N 254.233 0.115231 -1.57178 0
M  V30 2713 C 255.644 0.67197 -1.74188 0
M  V30 2714 C 255.995 1.80125 -0.777777 0
M  V30 2715 O 255.12 2.16346 0.0484376 0
M  V30 2716 C 255.715 1.22573 -3.1585 0
M  V30 2717 C 254.274 1.72872 -3.34353 0
M  V30 2718 C 253.421 0.629972 -2.70049 0
M  V30 2719 H 256.372 -0.110712 -1.58313 0
M  V30 2720 H 256.393 2.09535 -3.17609 0
M  V30 2721 H 255.905 0.403598 -3.85996 0
M  V30 2722 H 254.006 2.5755 -2.69256 0
M  V30 2723 H 254.119 1.83557 -4.42542 0
M  V30 2724 H 252.483 1.0645 -2.31388 0
M  V30 2725 H 253.266 -0.181241 -3.42821 0
M  V30 2726 N 255.711 1.52812 0.385517 0
M  V30 2727 C 256.936 1.72207 1.15583 0
M  V30 2728 C 257.361 0.441034 1.82857 0
M  V30 2729 O 256.719 -0.603465 1.70962 0
M  V30 2730 C 256.767 2.87476 2.17692 0
M  V30 2731 O 255.871 2.54693 3.24354 0
M  V30 2732 H 255.212 0.572526 0.336319 0
M  V30 2733 H 257.742 1.99618 0.448744 0
M  V30 2734 H 257.752 3.13072 2.6163 0
M  V30 2735 H 256.427 3.80408 1.68115 0
M  V30 2736 H 255.004 2.3985 2.85529 0
M  V30 2737 N 257.189 -0.644168 1.43834 0
M  V30 2738 C 258.137 -1.77793 1.49974 0
M  V30 2739 C 259.131 -1.65253 0.372536 0
M  V30 2740 O 260.337 -1.7149 0.546924 0
M  V30 2741 H 256.712 -0.58675 0.47035 0
M  V30 2742 H 258.683 -1.69736 2.45423 0
M  V30 2743 C 257.432 -3.16087 1.4486 0
M  V30 2744 H 256.755 -3.26378 2.30905 0
M  V30 2745 H 258.195 -3.95349 1.53217 0
M  V30 2746 C 256.654 -3.36484 0.167463 0
M  V30 2747 O 257.184 -3.94298 -0.767609 0
M  V30 2748 N 255.39 -2.90504 0.0747556 0
M  V30 2749 H 254.937 -2.4364 0.836507 0
M  V30 2750 H 254.895 -3.04527 -0.781714 0
M  V30 2751 N 258.668 -1.30515 -0.883378 0
M  V30 2752 C 259.618 -1.13641 -1.9766 0
M  V30 2753 C 260.602 -0.0511314 -1.60819 0
M  V30 2754 O 261.794 -0.274623 -1.74857 0
M  V30 2755 C 258.923 -0.831976 -3.33066 0
M  V30 2756 C 258.009 -1.95759 -3.76217 0
M  V30 2757 N 258.4 -3.20313 -3.9145 0
M  V30 2758 C 256.698 -1.85431 -4.05625 0
M  V30 2759 C 257.399 -3.93856 -4.2808 0
M  V30 2760 N 256.375 -3.21919 -4.38029 0
M  V30 2761 H 260.177 -2.08106 -2.07531 0
M  V30 2762 H 257.691 -1.21877 -1.0733 0
M  V30 2763 H 259.688 -0.692102 -4.11115 0
M  V30 2764 H 258.348 0.104588 -3.24532 0
M  V30 2765 H 259.359 -3.55583 -3.76538 0
M  V30 2766 H 256.036 -0.991531 -4.05555 0
M  V30 2767 H 257.426 -5.01125 -4.47575 0
M  V30 2768 N 260.146 1.09593 -1.13257 0
M  V30 2769 C 261.562 1.33775 -0.870423 0
M  V30 2770 C 261.762 1.95327 0.494926 0
M  V30 2771 O 260.818 2.19853 1.2418 0
M  V30 2772 C 262.131 2.25106 -1.99369 0
M  V30 2773 C 263.679 2.3862 -2.02558 0
M  V30 2774 C 264.154 3.33285 -3.14142 0
M  V30 2775 N 265.645 3.40857 -3.13641 0
M  V30 2776 C 266.38 4.14101 -3.96621 0
M  V30 2777 N 265.876 4.90157 -4.8961 0
M  V30 2778 N 267.669 4.09808 -3.84726 0
M  V30 2779 H 259.82 0.680136 -2.01216 0
M  V30 2780 H 262.083 0.362133 -0.876107 0
M  V30 2781 H 261.789 1.87103 -2.97801 0
M  V30 2782 H 261.663 3.25481 -1.90635 0
M  V30 2783 H 264.05 2.75887 -1.0474 0
M  V30 2784 H 264.131 1.38028 -2.15364 0
M  V30 2785 H 263.775 2.96741 -4.12198 0
M  V30 2786 H 263.705 4.33776 -2.98574 0
M  V30 2787 H 266.196 2.86624 -2.46282 0
M  V30 2788 H 266.509 5.4347 -5.49418 0
M  V30 2789 H 264.854 4.89251 -4.93617 0
M  V30 2790 H 268.045 3.4949 -3.11408 0
M  V30 2791 H 268.218 4.66629 -4.49623 0
M  V30 2792 N 261.624 0.925811 1.2754 0
M  V30 2793 C 262.871 0.565255 1.94451 0
M  V30 2794 C 263.199 -0.89316 1.7278 0
M  V30 2795 O 262.454 -1.65213 1.04895 0
M  V30 2796 C 262.753 0.835296 3.47502 0
M  V30 2797 C 262.419 2.27515 3.89291 0
M  V30 2798 C 261.081 2.66879 4.00411 0
M  V30 2799 C 263.433 3.21158 4.10496 0
M  V30 2800 C 260.761 3.99014 4.30122 0
M  V30 2801 C 263.113 4.52871 4.4169 0
M  V30 2802 C 261.777 4.92072 4.51023 0
M  V30 2803 H 261.047 0.206841 0.711546 0
M  V30 2804 H 263.694 1.16942 1.51647 0
M  V30 2805 H 261.999 0.148442 3.91519 0
M  V30 2806 H 263.696 0.535322 3.97411 0
M  V30 2807 H 260.286 1.95976 3.81171 0
M  V30 2808 H 264.47 2.9195 4.01346 0
M  V30 2809 H 259.726 4.2907 4.35556 0
M  V30 2810 H 263.9 5.25436 4.57045 0
M  V30 2811 H 261.527 5.9449 4.738 0
M  V30 2812 N 263.102 -1.41638 0.69111 0
M  V30 2813 C 264.35 -2.00902 0.219758 0
M  V30 2814 C 264.671 -1.54994 -1.18329 0
M  V30 2815 O 263.941 -0.778628 -1.79762 0
M  V30 2816 H 262.521 -0.74289 0.0782558 0
M  V30 2817 H 265.183 -1.73327 0.891271 0
M  V30 2818 H 264.279 -3.11224 0.233708 0
M  V30 2819 N 264.58 -0.43555 -1.51462 0
M  V30 2820 C 265.805 0.132627 -2.06976 0
M  V30 2821 C 266.23 1.35848 -1.30104 0
M  V30 2822 O 265.588 1.78112 -0.338493 0
M  V30 2823 C 265.636 0.43523 -3.57964 0
M  V30 2824 O 264.74 1.52198 -3.83288 0
M  V30 2825 H 264.081 0.00265 -0.663995 0
M  V30 2826 H 266.611 -0.616369 -1.95095 0
M  V30 2827 H 266.621 0.686206 -4.02188 0
M  V30 2828 H 265.296 -0.460739 -4.1334 0
M  V30 2829 H 263.873 1.2611 -3.50928 0
M  V30 2830 N 266.058 1.56714 -0.166846 0
M  V30 2831 C 267.307 1.95922 0.479318 0
M  V30 2832 C 267.62 1.05529 1.6469 0
M  V30 2833 O 268.826 1.34399 2.35901 0
M  V30 2834 C 267.282 3.48359 0.90412 0
M  V30 2835 C 266.89 4.47369 -0.237621 0
M  V30 2836 C 268.634 3.96394 1.51896 0
M  V30 2837 C 266.541 5.91039 0.206561 0
M  V30 2838 H 265.471 0.731495 0.18284 0
M  V30 2839 H 268.122 1.81728 -0.254363 0
M  V30 2840 H 266.504 3.57955 1.69365 0
M  V30 2841 H 267.678 4.49485 -1.01489 0
M  V30 2842 H 265.993 4.09366 -0.762128 0
M  V30 2843 H 268.59 5.01186 1.86325 0
M  V30 2844 H 268.933 3.39075 2.41524 0
M  V30 2845 H 269.466 3.89796 0.79395 0
M  V30 2846 H 266.205 6.52221 -0.654834 0
M  V30 2847 H 265.725 5.9224 0.949282 0
M  V30 2848 H 267.404 6.43707 0.651939 0
M  V30 2849 N 267.536 -0.106894 1.57237 0
M  V30 2850 C 268.499 -1.11466 2.0027 0
M  V30 2851 C 269.499 -1.33623 0.894519 0
M  V30 2852 O 270.689 -1.29935 1.16028 0
M  V30 2853 C 267.821 -2.46646 2.35327 0
M  V30 2854 H 269.014 -0.744516 2.90512 0
M  V30 2855 H 266.567 -0.351576 1.52295 0
M  V30 2856 H 267.302 -2.88558 1.48003 0
M  V30 2857 H 267.087 -2.31915 3.16161 0
M  V30 2858 H 268.577 -3.19151 2.69318 0
M  V30 2859 N 269.014 -1.53014 -0.377408 0
M  V30 2860 C 270.263 -1.67845 -1.11853 0
M  V30 2861 C 270.576 -0.430625 -1.90801 0
M  V30 2862 O 271.782 -0.459261 -2.67587 0
M  V30 2863 C 270.238 -2.96668 -2.03756 0
M  V30 2864 C 269.846 -4.28671 -1.30175 0
M  V30 2865 C 271.59 -3.20865 -2.77932 0
M  V30 2866 C 269.497 -5.48591 -2.20911 0
M  V30 2867 H 268.427 -0.625343 -0.421263 0
M  V30 2868 H 271.078 -1.79514 -0.380409 0
M  V30 2869 H 269.46 -2.78773 -2.8125 0
M  V30 2870 H 270.634 -4.57157 -0.578259 0
M  V30 2871 H 268.949 -4.10825 -0.679108 0
M  V30 2872 H 271.546 -4.07642 -3.46024 0
M  V30 2873 H 271.889 -2.36424 -3.4265 0
M  V30 2874 H 272.422 -3.39379 -2.07525 0
M  V30 2875 H 269.161 -6.35474 -1.6079 0
M  V30 2876 H 268.681 -5.244 -2.91144 0
M  V30 2877 H 270.36 -5.8292 -2.80736 0
M  V30 2878 N 270.492 0.636531 -1.44174 0
M  V30 2879 C 271.738 1.39826 -1.4689 0
M  V30 2880 C 272.071 1.93947 -0.0990585 0
M  V30 2881 O 271.346 1.73325 0.882544 0
M  V30 2882 C 271.629 2.56751 -2.5249 0
M  V30 2883 C 271.482 2.08014 -3.98811 0
M  V30 2884 C 272.801 3.58946 -2.54649 0
M  V30 2885 H 269.92 0.507075 -0.53483 0
M  V30 2886 H 272.562 0.720188 -1.75822 0
M  V30 2887 H 270.712 3.14597 -2.2795 0
M  V30 2888 H 272.384 1.5504 -4.34466 0
M  V30 2889 H 270.627 1.39242 -4.10846 0
M  V30 2890 H 271.298 2.92169 -4.68339 0
M  V30 2891 H 273.774 3.1089 -2.76563 0
M  V30 2892 H 272.65 4.38286 -3.3045 0
M  V30 2893 H 272.911 4.12655 -1.58646 0
M  V30 2894 N 271.97 1.30982 0.876444 0
M  V30 2895 C 273.198 1.23242 1.6619 0
M  V30 2896 C 273.613 -0.203345 1.87702 0
M  V30 2897 O 272.97 -1.13317 1.43057 0
M  V30 2898 C 273.021 1.96623 3.03351 0
M  V30 2899 O 272.742 3.34594 2.82804 0
M  V30 2900 C 274.243 1.95644 3.97792 0
M  V30 2901 H 271.463 0.426126 0.518322 0
M  V30 2902 H 274.007 1.7275 1.09442 0
M  V30 2903 H 272.162 1.50892 3.56806 0
M  V30 2904 H 272.576 3.71873 3.69879 0
M  V30 2905 H 274.05 2.51511 4.91372 0
M  V30 2906 H 274.527 0.937395 4.2908 0
M  V30 2907 H 275.133 2.41225 3.50272 0
M  V30 2908 N 273.449 -1.08991 1.13837 0
M  V30 2909 C 274.696 -1.81258 0.902882 0
M  V30 2910 C 275.024 -1.85936 -0.570803 0
M  V30 2911 O 274.279 -1.3267 -1.43865 0
M  V30 2912 C 274.578 -3.27042 1.44147 0
M  V30 2913 C 274.244 -3.4249 2.93276 0
M  V30 2914 C 272.906 -3.46414 3.33992 0
M  V30 2915 C 275.258 -3.4666 3.892 0
M  V30 2916 C 272.586 -3.52091 4.69307 0
M  V30 2917 C 274.938 -3.53872 5.24364 0
M  V30 2918 C 273.602 -3.56066 5.646 0
M  V30 2919 H 272.872 -0.663268 0.330388 0
M  V30 2920 H 275.519 -1.28368 1.42105 0
M  V30 2921 H 273.824 -3.82599 0.844097 0
M  V30 2922 H 275.521 -3.81499 1.23528 0
M  V30 2923 H 272.111 -3.40124 2.60794 0
M  V30 2924 H 276.295 -3.42865 3.58828 0
M  V30 2925 H 271.551 -3.52079 4.9985 0
M  V30 2926 H 275.725 -3.56043 5.98503 0
M  V30 2927 H 273.352 -3.60218 6.69438 0
M  V30 2928 N 274.927 -0.932562 -1.27047 0
M  V30 2929 C 276.152 -0.591474 -1.98787 0
M  V30 2930 C 276.577 0.824601 -1.69062 0
M  V30 2931 O 275.935 1.5541 -0.933677 0
M  V30 2932 C 275.983 -0.829808 -3.50922 0
M  V30 2933 O 275.087 0.102266 -4.12273 0
M  V30 2934 H 274.428 -0.227185 -0.623926 0
M  V30 2935 H 276.958 -1.25314 -1.61733 0
M  V30 2936 H 276.968 -0.747292 -4.01098 0
M  V30 2937 H 275.643 -1.86201 -3.7189 0
M  V30 2938 H 274.22 -0.0305761 -3.72887 0
M  V30 2939 N 276.405 1.4127 -0.698611 0
M  V30 2940 C 277.816 1.84187 -0.305289 0
M  V30 2941 C 278.167 1.58449 1.15708 0
M  V30 2942 O 277.292 1.05651 1.88856 0
M  V30 2943 C 277.887 3.3435 -0.547314 0
M  V30 2944 C 276.446 3.75826 -0.207878 0
M  V30 2945 C 275.593 2.64647 -0.828099 0
M  V30 2946 H 278.544 1.30778 -0.89904 0
M  V30 2947 H 278.565 3.8001 0.192998 0
M  V30 2948 H 278.077 3.53051 -1.61172 0
M  V30 2949 H 276.178 3.62725 0.852143 0
M  V30 2950 H 276.291 4.74462 -0.665021 0
M  V30 2951 H 274.655 2.53395 -0.257458 0
M  V30 2952 H 275.438 2.86165 -1.89643 0
M  V30 2953 N 277.883 0.443576 1.51229 0
M  V30 2954 C 278.793 -0.370721 2.31652 0
M  V30 2955 C 279.809 -1.02186 1.40833 0
M  V30 2956 O 280.985 -1.01586 1.73903 0
M  V30 2957 C 278.05 -1.45376 3.14749 0
M  V30 2958 C 277.111 -0.822099 4.21355 0
M  V30 2959 C 276.344 -1.85353 5.0048 0
M  V30 2960 O 276.567 -3.07656 4.80316 0
M  V30 2961 O 275.501 -1.4406 5.84406 0
M  V30 2962 H 279.327 0.286002 3.0235 0
M  V30 2963 H 276.912 0.20598 1.47973 0
M  V30 2964 H 278.794 -2.08173 3.66391 0
M  V30 2965 H 277.469 -2.09445 2.46809 0
M  V30 2966 H 276.376 -0.155909 3.73775 0
M  V30 2967 H 277.709 -0.224797 4.91686 0
M  V30 2968 N 279.361 -1.56624 0.175154 0
M  V30 2969 C 280.591 -2.01082 -0.474283 0
M  V30 2970 C 280.999 -1.05447 -1.57091 0
M  V30 2971 O 280.342 -0.0480595 -1.83637 0
M  V30 2972 C 280.404 -3.41963 -1.10911 0
M  V30 2973 C 280.068 -4.56742 -0.153666 0
M  V30 2974 C 281.065 -5.16076 0.629448 0
M  V30 2975 C 278.75 -5.02277 -0.0483776 0
M  V30 2976 C 280.744 -6.19377 1.50501 0
M  V30 2977 C 278.431 -6.05427 0.830768 0
M  V30 2978 C 279.429 -6.63849 1.60605 0
M  V30 2979 O 279.117 -7.64998 2.47049 0
M  V30 2980 H 278.849 -0.664261 -0.125432 0
M  V30 2981 H 281.403 -2.03549 0.275163 0
M  V30 2982 H 279.633 -3.36422 -1.90676 0
M  V30 2983 H 281.322 -3.70352 -1.66114 0
M  V30 2984 H 282.088 -4.81776 0.558297 0
M  V30 2985 H 277.967 -4.56513 -0.641611 0
M  V30 2986 H 281.511 -6.64906 2.1106 0
M  V30 2987 H 277.408 -6.39151 0.903107 0
M  V30 2988 H 278.176 -7.82336 2.40607 0
M  V30 2989 N 280.839 0.0985539 -1.57292 0
M  V30 2990 C 282.064 0.820196 -1.90493 0
M  V30 2991 C 282.489 1.71658 -0.769094 0
M  V30 2992 O 281.847 1.79133 0.279495 0
M  V30 2993 C 281.895 1.61242 -3.22542 0
M  V30 2994 O 280.999 2.72108 -3.09888 0
M  V30 2995 H 280.34 0.225547 -0.62452 0
M  V30 2996 H 282.87 0.0748159 -2.04463 0
M  V30 2997 H 282.88 1.99737 -3.55766 0
M  V30 2998 H 281.555 0.954535 -4.04798 0
M  V30 2999 H 280.132 2.36667 -2.88172 0
M  V30 3000 N 282.317 1.53212 0.369288 0
M  V30 3001 C 283.564 1.69215 1.11232 0
M  V30 3002 C 283.892 0.442048 1.8941 0
M  V30 3003 O 283.147 -0.575944 1.87033 0
M  V30 3004 C 283.446 2.89101 2.10132 0
M  V30 3005 C 283.112 4.25758 1.48463 0
M  V30 3006 C 281.774 4.6292 1.31372 0
M  V30 3007 C 284.126 5.10757 1.03811 0
M  V30 3008 C 281.454 5.82722 0.68207 0
M  V30 3009 C 283.806 6.31201 0.420487 0
M  V30 3010 C 282.47 6.67079 0.237038 0
M  V30 3011 H 281.74 0.619201 0.407027 0
M  V30 3012 H 284.387 1.87391 0.394552 0
M  V30 3013 H 282.692 2.65421 2.88199 0
M  V30 3014 H 284.389 2.98676 2.6757 0
M  V30 3015 H 280.979 3.96494 1.62758 0
M  V30 3016 H 285.163 4.82599 1.1581 0
M  V30 3017 H 280.419 6.09113 0.528316 0
M  V30 3018 H 284.593 6.96368 0.0662874 0
M  V30 3019 H 282.22 7.59774 -0.254477 0
M  V30 3020 N 283.795 -0.628877 1.44509 0
M  V30 3021 C 285.211 -0.947305 1.28446 0
M  V30 3022 C 285.411 -2.00275 0.221872 0
M  V30 3023 O 284.467 -2.49447 -0.391471 0
M  V30 3024 C 285.78 -1.40843 2.65676 0
M  V30 3025 C 287.328 -1.52379 2.73404 0
M  V30 3026 C 287.803 -2.01875 4.11109 0
M  V30 3027 N 289.294 -2.09142 4.13296 0
M  V30 3028 C 290.029 -2.48615 5.16699 0
M  V30 3029 N 289.525 -2.87209 6.30462 0
M  V30 3030 N 291.318 -2.48768 5.04054 0
M  V30 3031 H 283.469 0.0690977 2.12288 0
M  V30 3032 H 285.732 -0.0317164 0.947469 0
M  V30 3033 H 285.438 -0.707206 3.44516 0
M  V30 3034 H 285.312 -2.37902 2.92716 0
M  V30 3035 H 287.699 -2.21598 1.9488 0
M  V30 3036 H 287.78 -0.536898 2.50102 0
M  V30 3037 H 287.424 -1.3325 4.90109 0
M  V30 3038 H 287.354 -3.0144 4.31789 0
M  V30 3039 H 289.845 -1.81991 3.31191 0
M  V30 3040 H 290.158 -3.16149 7.05174 0
M  V30 3041 H 288.503 -2.84955 6.33897 0
M  V30 3042 H 291.694 -2.18009 4.14234 0
M  V30 3043 H 291.867 -2.79207 5.84763 0
M  V30 3044 N 285.273 -1.31445 -0.869486 0
M  V30 3045 C 286.52 -1.21158 -1.62256 0
M  V30 3046 C 286.848 0.230155 -1.93133 0
M  V30 3047 O 286.103 1.17906 -1.56194 0
M  V30 3048 C 286.402 -2.00145 -2.96102 0
M  V30 3049 C 286.068 -3.4964 -2.84715 0
M  V30 3050 C 284.73 -3.90403 -2.81317 0
M  V30 3051 C 287.082 -4.44769 -2.71716 0
M  V30 3052 C 284.41 -5.24561 -2.62778 0
M  V30 3053 C 286.762 -5.79054 -2.54714 0
M  V30 3054 C 285.426 -6.19037 -2.49699 0
M  V30 3055 H 284.696 -0.443348 -0.593737 0
M  V30 3056 H 287.343 -1.62715 -1.00976 0
M  V30 3057 H 285.648 -1.5127 -3.6142 0
M  V30 3058 H 287.345 -1.89566 -3.53363 0
M  V30 3059 H 283.935 -3.17256 -2.88178 0
M  V30 3060 H 288.119 -4.14208 -2.73397 0
M  V30 3061 H 283.375 -5.54613 -2.57321 0
M  V30 3062 H 287.549 -6.52393 -2.43632 0
M  V30 3063 H 285.176 -7.22935 -2.35093 0
M  V30 3064 N 286.751 1.08385 -1.14413 0
M  V30 3065 C 287.699 2.17406 -0.826888 0
M  V30 3066 C 288.693 1.6827 0.195312 0
M  V30 3067 O 289.899 1.79927 0.0513892 0
M  V30 3068 H 286.274 0.70934 -0.249681 0
M  V30 3069 H 288.245 2.41388 -1.75426 0
M  V30 3070 C 286.994 3.46215 -0.320979 0
M  V30 3071 H 286.317 3.84401 -1.0989 0
M  V30 3072 H 287.757 4.23777 -0.137549 0
M  V30 3073 C 286.216 3.23067 0.955472 0
M  V30 3074 O 286.746 3.4668 2.02918 0
M  V30 3075 N 284.952 2.7661 0.890798 0
M  V30 3076 H 284.499 2.57594 0.0168815 0
M  V30 3077 H 284.457 2.61501 1.74542 0
M  V30 3078 N 288.23 0.939286 1.26551 0
M  V30 3079 C 289.507 0.5038 1.89001 0
M  V30 3080 C 289.887 -1.01854 1.84903 0
M  V30 3081 O 289.235 -1.87773 1.30206 0
M  V30 3082 C 289.445 1.063 3.32417 0
M  V30 3083 C 290.793 1.13051 4.09273 0
M  V30 3084 O 291.817 1.01345 3.41479 0
M  V30 3085 O 290.676 1.31233 5.30509 0
M  V30 3086 H 287.77 0.163897 0.810597 0
M  V30 3087 H 290.316 1.03173 1.34735 0
M  V30 3088 H 289.088 2.10665 3.29752 0
M  V30 3089 H 288.711 0.517408 3.94219 0
M  V30 3090 N 289.708 -1.40897 0.706093 0
M  V30 3091 C 290.656 -2.32572 0.0361893 0
M  V30 3092 C 291.65 -1.51532 -0.757266 0
M  V30 3093 O 292.856 -1.67396 -0.661703 0
M  V30 3094 H 289.231 -0.751966 -0.00709935 0
M  V30 3095 H 291.202 -2.86733 0.826249 0
M  V30 3096 C 289.951 -3.36418 -0.87854 0
M  V30 3097 H 289.274 -3.98836 -0.277401 0
M  V30 3098 H 290.714 -4.0308 -1.3154 0
M  V30 3099 C 289.173 -2.71141 -1.99961 0
M  V30 3100 O 289.703 -2.56735 -3.0895 0
M  V30 3101 N 287.909 -2.29671 -1.78043 0
M  V30 3102 H 287.456 -2.41588 -0.894042 0
M  V30 3103 H 287.414 -1.86332 -2.53235 0
M  V30 3104 N 291.186 -0.45159 -1.50991 0
M  V30 3105 C 292.426 0.109066 -2.04109 0
M  V30 3106 C 292.79 1.38716 -1.32747 0
M  V30 3107 O 293.991 2.02896 -1.76314 0
M  V30 3108 C 292.262 0.308354 -3.56067 0
M  V30 3109 S 293.821 0.830369 -4.30872 0
M  V30 3110 H 290.639 0.0251531 -0.710555 0
M  V30 3111 H 293.241 -0.614264 -1.85599 0
M  V30 3112 H 291.945 -0.627962 -4.05567 0
M  V30 3113 H 291.476 1.05836 -3.78896 0
M  V30 3114 H 293.491 2.10626 -4.49279 0
M  V30 3115 N 292.664 1.56529 -0.183458 0
M  V30 3116 C 293.597 2.14417 0.781052 0
M  V30 3117 C 294.575 1.07761 1.21763 0
M  V30 3118 O 295.759 1.35807 1.30724 0
M  V30 3119 C 292.886 2.69361 2.05335 0
M  V30 3120 C 291.932 3.885 1.75982 0
M  V30 3121 S 292.765 5.27568 0.918256 0
M  V30 3122 C 293.921 5.85926 2.20095 0
M  V30 3123 H 294.154 2.95893 0.2889 0
M  V30 3124 H 291.687 1.54368 0.0313844 0
M  V30 3125 H 293.645 3.01662 2.78406 0
M  V30 3126 H 292.306 1.87949 2.51663 0
M  V30 3127 H 291.499 4.25314 2.70415 0
M  V30 3128 H 291.101 3.57149 1.10999 0
M  V30 3129 H 293.393 5.99579 3.15453 0
M  V30 3130 H 294.336 6.82761 1.87731 0
M  V30 3131 H 294.744 5.14438 2.32409 0
M  V30 3132 N 294.142 -0.090211 1.57342 0
M  V30 3133 C 295.09 -1.12792 2.03422 0
M  V30 3134 C 296.084 -1.41182 0.936166 0
M  V30 3135 O 297.29 -1.40805 1.12133 0
M  V30 3136 H 293.665 -0.380986 0.648347 0
M  V30 3137 H 295.636 -0.71299 2.89757 0
M  V30 3138 C 294.385 -2.43855 2.47851 0
M  V30 3139 H 293.708 -2.22855 3.31927 0
M  V30 3140 H 295.148 -3.14955 2.83865 0
M  V30 3141 C 293.607 -3.08503 1.3538 0
M  V30 3142 O 294.137 -3.95805 0.685641 0
M  V30 3143 N 292.343 -2.68831 1.10355 0
M  V30 3144 H 291.89 -1.97929 1.64869 0
M  V30 3145 H 291.848 -3.12412 0.353031 0
M  V30 3146 N 295.62 -1.53406 -0.361157 0
M  V30 3147 C 296.53 -1.83122 -1.4664 0
M  V30 3148 C 297.546 -0.719943 -1.58407 0
M  V30 3149 O 298.722 -1.01046 -1.74218 0
M  V30 3150 C 295.787 -2.01891 -2.81853 0
M  V30 3151 C 294.848 -3.25784 -2.79577 0
M  V30 3152 C 294.081 -3.43648 -4.0834 0
M  V30 3153 O 294.304 -2.65714 -5.0473 0
M  V30 3154 O 293.238 -4.37018 -4.13883 0
M  V30 3155 H 297.064 -2.7703 -1.24451 0
M  V30 3156 H 294.649 -1.38841 -0.551678 0
M  V30 3157 H 296.531 -2.15782 -3.61962 0
M  V30 3158 H 295.206 -1.11173 -3.0401 0
M  V30 3159 H 294.113 -3.17312 -1.98151 0
M  V30 3160 H 295.446 -4.16439 -2.62373 0
M  V30 3161 N 297.098 0.621204 -1.44841 0
M  V30 3162 C 298.345 1.38055 -1.48145 0
M  V30 3163 C 298.673 1.94143 -0.117867 0
M  V30 3164 O 297.928 1.74713 0.881694 0
M  V30 3165 C 298.227 2.55675 -2.4973 0
M  V30 3166 C 297.893 2.17817 -3.94799 0
M  V30 3167 C 296.555 2.07205 -4.34303 0
M  V30 3168 C 298.907 1.88065 -4.86087 0
M  V30 3169 C 296.235 1.65045 -5.63007 0
M  V30 3170 C 298.587 1.47394 -6.15189 0
M  V30 3171 C 297.251 1.35331 -6.53637 0
M  V30 3172 H 296.521 0.505181 -0.542101 0
M  V30 3173 H 299.168 0.703477 -1.78111 0
M  V30 3174 H 297.473 3.2866 -2.13284 0
M  V30 3175 H 299.17 3.13904 -2.4953 0
M  V30 3176 H 295.76 2.26998 -3.63552 0
M  V30 3177 H 299.944 1.95168 -4.56315 0
M  V30 3178 H 295.2 1.54317 -5.91605 0
M  V30 3179 H 299.374 1.23415 -6.85377 0
M  V30 3180 H 297.001 1.02435 -7.53267 0
M  V30 3181 N 298.576 1.31904 0.862503 0
M  V30 3182 C 299.825 1.21373 1.61094 0
M  V30 3183 C 300.138 -0.22504 1.94301 0
M  V30 3184 O 301.344 -0.452121 2.67709 0
M  V30 3185 C 299.8 2.12525 2.9045 0
M  V30 3186 C 299.408 3.61441 2.64697 0
M  V30 3187 C 301.152 2.10813 3.68454 0
M  V30 3188 C 299.059 4.44578 3.90006 0
M  V30 3189 H 297.989 0.450705 0.604468 0
M  V30 3190 H 300.64 1.56811 0.953027 0
M  V30 3191 H 299.022 1.69994 3.57656 0
M  V30 3192 H 300.196 4.12264 2.05851 0
M  V30 3193 H 298.511 3.65205 2.00036 0
M  V30 3194 H 301.108 2.70167 4.61426 0
M  V30 3195 H 301.451 1.09713 4.01583 0
M  V30 3196 H 301.984 2.51583 3.08141 0
M  V30 3197 H 298.723 5.46461 3.62023 0
M  V30 3198 H 298.243 3.98508 4.48276 0
M  V30 3199 H 299.922 4.57176 4.5782 0
M  V30 3200 N 300.054 -1.07777 1.14986 0
M  V30 3201 C 300.986 -2.14769 0.800436 0
M  V30 3202 C 301.999 -1.61739 -0.185595 0
M  V30 3203 O 303.188 -1.78462 0.0370358 0
M  V30 3204 C 300.288 -3.38481 0.168533 0
M  V30 3205 C 299.461 -4.20876 1.1909 0
M  V30 3206 C 298.52 -5.22976 0.581575 0
M  V30 3207 O 297.546 -5.55388 1.24633 0
M  V30 3208 N 298.748 -5.76976 -0.638706 0
M  V30 3209 H 301.513 -2.45348 1.72118 0
M  V30 3210 H 299.074 -1.23645 1.04515 0
M  V30 3211 H 301.066 -4.03916 -0.251764 0
M  V30 3212 H 299.636 -3.05651 -0.655467 0
M  V30 3213 H 298.856 -3.51322 1.78791 0
M  V30 3214 H 300.144 -4.7274 1.88133 0
M  V30 3215 H 299.542 -5.52886 -1.19723 0
M  V30 3216 H 298.099 -6.44061 -1.00142 0
M  V30 3217 N 301.532 -0.945985 -1.26051 0
M  V30 3218 C 302.809 -0.513816 -1.88731 0
M  V30 3219 C 303.189 1.00872 -1.8544 0
M  V30 3220 O 302.537 1.8708 -1.312 0
M  V30 3221 C 302.747 -1.08062 -3.31849 0
M  V30 3222 C 304.095 -1.1522 -4.08668 0
M  V30 3223 O 305.119 -1.03155 -3.40936 0
M  V30 3224 O 303.978 -1.34044 -5.29806 0
M  V30 3225 H 301.072 -0.168193 -0.809716 0
M  V30 3226 H 303.618 -1.03886 -1.34186 0
M  V30 3227 H 302.39 -2.1241 -3.2863 0
M  V30 3228 H 302.013 -0.538307 -3.93939 0
M  V30 3229 N 303.011 1.40521 -0.713556 0
M  V30 3230 C 304.422 1.83853 -0.324807 0
M  V30 3231 C 304.773 1.59667 1.14021 0
M  V30 3232 O 303.898 1.07649 1.87725 0
M  V30 3233 C 304.493 3.33751 -0.582746 0
M  V30 3234 C 303.052 3.75584 -0.247727 0
M  V30 3235 C 302.199 2.63753 -0.856121 0
M  V30 3236 H 305.15 1.29817 -0.91286 0
M  V30 3237 H 305.171 3.80194 0.152682 0
M  V30 3238 H 304.683 3.51322 -1.64908 0
M  V30 3239 H 302.784 3.63608 0.813624 0
M  V30 3240 H 302.897 4.7373 -0.715307 0
M  V30 3241 H 301.261 2.53108 -0.28432 0
M  V30 3242 H 302.044 2.84137 -1.92668 0
M  V30 3243 N 304.489 0.459591 1.5075 0
M  V30 3244 C 305.452 -0.329093 2.26825 0
M  V30 3245 C 306.452 -0.930481 1.31144 0
M  V30 3246 O 307.642 -0.801453 1.54669 0
M  V30 3247 C 304.774 -1.46768 3.07688 0
M  V30 3248 H 305.967 0.337924 2.9799 0
M  V30 3249 H 303.52 0.213336 1.54837 0
M  V30 3250 H 304.255 -2.17009 2.40993 0
M  V30 3251 H 304.04 -1.04238 3.77991 0
M  V30 3252 H 305.53 -2.02433 3.65254 0
M  V30 3253 N 305.967 -1.56429 0.191757 0
M  V30 3254 C 306.897 -2.21937 -0.725696 0
M  V30 3255 C 307.878 -1.1814 -1.2238 0
M  V30 3256 O 309.063 -1.46636 -1.27325 0
M  V30 3257 C 306.193 -2.87611 -1.94672 0
M  V30 3258 C 305.147 -3.97623 -1.58366 0
M  V30 3259 C 304.473 -4.50446 -2.88102 0
M  V30 3260 C 305.773 -5.16197 -0.796133 0
M  V30 3261 H 307.467 -2.98861 -0.179606 0
M  V30 3262 H 305.013 -1.43749 -0.0849464 0
M  V30 3263 H 306.966 -3.3212 -2.59373 0
M  V30 3264 H 305.69 -2.08087 -2.51728 0
M  V30 3265 H 304.349 -3.53801 -0.960247 0
M  V30 3266 H 303.997 -3.67688 -3.43241 0
M  V30 3267 H 303.697 -5.24675 -2.64556 0
M  V30 3268 H 305.221 -4.97654 -3.53798 0
M  V30 3269 H 306.635 -5.57271 -1.34618 0
M  V30 3270 H 305.032 -5.96471 -0.658928 0
M  V30 3271 H 306.102 -4.84473 0.203478 0
M  V30 3272 N 307.445 0.0818655 -1.57387 0
M  V30 3273 C 308.673 0.796108 -1.9097 0
M  V30 3274 C 309.088 1.71626 -0.786757 0
M  V30 3275 O 308.445 1.80908 0.240513 0
M  V30 3276 C 308.496 1.59829 -3.24248 0
M  V30 3277 O 308.217 0.715131 -4.32224 0
M  V30 3278 C 309.718 2.41442 -3.7178 0
M  V30 3279 H 306.938 0.22691 -0.631469 0
M  V30 3280 H 309.482 0.0551439 -2.04426 0
M  V30 3281 H 307.637 2.29163 -3.12351 0
M  V30 3282 H 308.051 1.27205 -5.08841 0
M  V30 3283 H 309.525 2.932 -4.67694 0
M  V30 3284 H 310.002 3.2051 -3.00283 0
M  V30 3285 H 310.608 1.77283 -3.86589 0
M  V30 3286 N 308.923 1.53595 0.353017 0
M  V30 3287 C 309.853 1.83902 1.43883 0
M  V30 3288 C 310.834 0.693421 1.55324 0
M  V30 3289 O 312.019 0.944452 1.69687 0
M  V30 3290 C 309.149 2.04016 2.8106 0
M  V30 3291 C 308.103 3.19814 2.84434 0
M  V30 3292 C 307.429 3.25244 4.24406 0
M  V30 3293 C 308.729 4.58133 2.50822 0
M  V30 3294 H 310.423 2.74835 1.1877 0
M  V30 3295 H 307.969 1.32242 0.569917 0
M  V30 3296 H 309.922 2.238 3.57059 0
M  V30 3297 H 308.646 1.09804 3.07588 0
M  V30 3298 H 307.305 2.9987 2.10887 0
M  V30 3299 H 306.953 2.28646 4.48029 0
M  V30 3300 H 306.653 4.03054 4.27576 0
M  V30 3301 H 308.177 3.47228 5.0226 0
M  V30 3302 H 309.591 4.77995 3.16534 0
M  V30 3303 H 307.988 5.38276 2.6529 0
M  V30 3304 H 309.058 4.62387 1.46034 0
M  V30 3305 N 310.401 -0.613514 1.45168 0
M  V30 3306 C 311.334 -1.73809 1.47871 0
M  V30 3307 C 312.312 -1.59097 0.33568 0
M  V30 3308 O 313.496 -1.8074 0.535299 0
M  V30 3309 C 310.623 -3.11574 1.32813 0
M  V30 3310 C 309.669 -3.4489 2.50905 0
M  V30 3311 S 310.502 -3.40393 4.13392 0
M  V30 3312 C 311.658 -4.80749 4.00789 0
M  V30 3313 H 311.891 -1.71252 2.43023 0
M  V30 3314 H 309.424 -0.789658 1.32679 0
M  V30 3315 H 311.382 -3.91065 1.24812 0
M  V30 3316 H 310.043 -3.11652 0.391418 0
M  V30 3317 H 309.236 -4.45183 2.36279 0
M  V30 3318 H 308.838 -2.72901 2.55736 0
M  V30 3319 H 311.13 -5.7041 3.65567 0
M  V30 3320 H 312.073 -5.00431 5.00974 0
M  V30 3321 H 312.481 -4.56151 3.32545 0
M  V30 3322 N 311.879 -1.3236 -0.855495 0
M  V30 3323 C 312.829 -1.17809 -1.95205 0
M  V30 3324 C 313.813 -0.0852319 -1.60674 0
M  V30 3325 O 315.005 -0.311651 -1.74235 0
M  V30 3326 C 312.134 -0.902437 -3.31226 0
M  V30 3327 C 311.22 -2.03695 -3.7198 0
M  V30 3328 N 311.611 -3.28544 -3.84568 0
M  V30 3329 C 309.909 -1.93993 -4.016 0
M  V30 3330 C 310.61 -4.02847 -4.19629 0
M  V30 3331 N 309.586 -3.31138 -4.31102 0
M  V30 3332 H 313.388 -2.12462 -2.0307 0
M  V30 3333 H 310.902 -1.24127 -1.0472 0
M  V30 3334 H 312.899 -0.77915 -4.09554 0
M  V30 3335 H 311.559 0.0357267 -3.2468 0
M  V30 3336 H 312.57 -3.6349 -3.68911 0
M  V30 3337 H 309.247 -1.07733 -4.03361 0
M  V30 3338 H 310.637 -5.10506 -4.36845 0
M  V30 3339 N 313.357 1.07166 -1.15556 0
M  V30 3340 C 314.267 2.17947 -0.868116 0
M  V30 3341 C 315.283 1.73297 0.156297 0
M  V30 3342 O 316.459 2.01392 -0.0182327 0
M  V30 3343 C 313.524 3.44789 -0.36355 0
M  V30 3344 C 312.585 4.03996 -1.45209 0
M  V30 3345 C 311.818 5.24783 -0.971508 0
M  V30 3346 O 312.041 5.70109 0.182194 0
M  V30 3347 O 310.975 5.75715 -1.75603 0
M  V30 3348 H 314.801 2.4503 -1.79427 0
M  V30 3349 H 312.386 1.16539 -0.934824 0
M  V30 3350 H 314.268 4.21307 -0.0887113 0
M  V30 3351 H 312.943 3.19253 0.534708 0
M  V30 3352 H 311.85 3.29009 -1.78056 0
M  V30 3353 H 313.183 4.33808 -2.32533 0
M  V30 3354 N 314.835 0.952656 1.25548 0
M  V30 3355 C 315.765 0.489287 2.28316 0
M  V30 3356 C 316.746 -0.463359 1.63667 0
M  V30 3357 O 317.931 -0.36274 1.90782 0
M  V30 3358 C 315.061 -0.235603 3.465 0
M  V30 3359 C 314.015 0.631593 4.23314 0
M  V30 3360 C 313.341 -0.223923 5.34231 0
M  V30 3361 C 314.641 1.90871 4.86174 0
M  V30 3362 H 316.335 1.34822 2.67326 0
M  V30 3363 H 313.881 0.649728 1.28509 0
M  V30 3364 H 315.834 -0.570882 4.17515 0
M  V30 3365 H 314.558 -1.12877 3.06474 0
M  V30 3366 H 313.217 0.949929 3.54079 0
M  V30 3367 H 312.865 -1.11678 4.90446 0
M  V30 3368 H 312.565 0.35299 5.86539 0
M  V30 3369 H 314.089 -0.554214 6.0808 0
M  V30 3370 H 315.503 1.63997 5.49343 0
M  V30 3371 H 313.9 2.43112 5.4865 0
M  V30 3372 H 314.97 2.61304 4.08471 0
M  V30 3373 N 316.313 -1.40141 0.720998 0
M  V30 3374 C 317.562 -2.0002 0.259804 0
M  V30 3375 C 317.875 -1.57839 -1.15526 0
M  V30 3376 O 319.081 -2.10455 -1.71525 0
M  V30 3377 C 317.537 -3.57516 0.413566 0
M  V30 3378 C 317.145 -4.08667 1.83562 0
M  V30 3379 C 318.889 -4.24498 0.0134387 0
M  V30 3380 C 316.796 -5.58686 1.93968 0
M  V30 3381 H 315.726 -0.748195 0.0933806 0
M  V30 3382 H 318.377 -1.60313 0.892866 0
M  V30 3383 H 316.759 -3.9495 -0.288169 0
M  V30 3384 H 317.933 -3.82598 2.56817 0
M  V30 3385 H 316.248 -3.543 2.1877 0
M  V30 3386 H 318.845 -5.34654 0.0703954 0
M  V30 3387 H 319.188 -4.03375 -1.02927 0
M  V30 3388 H 319.721 -3.92188 0.665815 0
M  V30 3389 H 316.46 -5.8467 2.96379 0
M  V30 3390 H 315.98 -5.86602 1.25131 0
M  V30 3391 H 317.659 -6.23875 1.71431 0
M  V30 3392 N 317.792 -0.46758 -1.50504 0
M  V30 3393 C 318.742 0.34698 -2.25344 0
M  V30 3394 C 319.726 0.964469 -1.2879 0
M  V30 3395 O 320.918 0.8776 -1.53711 0
M  V30 3396 C 318.047 1.43042 -3.1208 0
M  V30 3397 C 317.133 0.82084 -4.16081 0
M  V30 3398 N 317.524 -0.0567602 -5.05768 0
M  V30 3399 C 315.822 1.08517 -4.32597 0
M  V30 3400 C 316.523 -0.402343 -5.80307 0
M  V30 3401 N 315.499 0.221607 -5.43148 0
M  V30 3402 H 319.301 -0.329129 -2.92051 0
M  V30 3403 H 316.815 -0.281508 -1.59942 0
M  V30 3404 H 318.812 2.02712 -3.64299 0
M  V30 3405 H 317.472 2.10856 -2.46921 0
M  V30 3406 H 318.483 -0.425349 -5.1615 0
M  V30 3407 H 315.16 1.75855 -3.78657 0
M  V30 3408 H 316.55 -1.11834 -6.62528 0
M  V30 3409 N 319.27 1.56325 -0.20005 0
M  V30 3410 C 320.495 2.02548 0.44597 0
M  V30 3411 C 320.92 1.07922 1.5406 0
M  V30 3412 O 320.278 0.0635775 1.81188 0
M  V30 3413 C 320.326 3.47175 0.974761 0
M  V30 3414 O 319.43 3.55671 2.08739 0
M  V30 3415 H 318.771 0.655862 0.103638 0
M  V30 3416 H 321.301 2.02201 -0.312381 0
M  V30 3417 H 321.311 3.87067 1.2901 0
M  V30 3418 H 319.986 4.15538 0.17347 0
M  V30 3419 H 318.563 3.27657 1.78032 0
M  V30 3420 N 320.748 -0.0735177 1.57428 0
M  V30 3421 C 321.678 -1.0879 2.06608 0
M  V30 3422 C 322.659 -1.40473 0.959237 0
M  V30 3423 O 323.844 -1.5013 1.23185 0
M  V30 3424 C 320.974 -2.40183 2.50857 0
M  V30 3425 C 319.928 -2.22858 3.65402 0
M  V30 3426 C 319.254 -3.59619 3.957 0
M  V30 3427 C 320.554 -1.65123 4.95511 0
M  V30 3428 H 322.248 -0.678673 2.91607 0
M  V30 3429 H 319.794 -0.325013 1.40284 0
M  V30 3430 H 321.747 -3.11437 2.83874 0
M  V30 3431 H 320.471 -2.83083 1.62885 0
M  V30 3432 H 319.13 -1.54045 3.32664 0
M  V30 3433 H 318.778 -4.00086 3.04861 0
M  V30 3434 H 318.478 -3.48866 4.72828 0
M  V30 3435 H 320.002 -4.32306 4.31212 0
M  V30 3436 H 321.416 -2.26241 5.26771 0
M  V30 3437 H 319.813 -1.65071 5.7695 0
M  V30 3438 H 320.883 -0.612559 4.81015 0
M  V30 3439 N 322.226 -1.5378 -0.344866 0
M  V30 3440 C 323.176 -1.78057 -1.42407 0
M  V30 3441 C 324.16 -0.635732 -1.47808 0
M  V30 3442 O 325.352 -0.89508 -1.527 0
M  V30 3443 C 322.481 -1.99242 -2.79566 0
M  V30 3444 C 321.567 -3.19787 -2.78562 0
M  V30 3445 N 321.958 -4.41284 -2.47189 0
M  V30 3446 C 320.256 -3.2093 -3.0971 0
M  V30 3447 C 320.957 -5.23128 -2.54385 0
M  V30 3448 N 319.933 -4.59813 -2.89953 0
M  V30 3449 H 323.735 -2.69588 -1.17046 0
M  V30 3450 H 321.249 -1.52687 -0.553217 0
M  V30 3451 H 323.246 -2.14768 -3.57324 0
M  V30 3452 H 321.906 -1.08953 -3.05875 0
M  V30 3453 H 322.917 -4.68657 -2.20411 0
M  V30 3454 H 319.594 -2.40603 -3.41199 0
M  V30 3455 H 320.984 -6.30096 -2.333 0
M  V30 3456 N 323.704 0.605807 -1.45491 0
M  V30 3457 C 324.952 1.36207 -1.49305 0
M  V30 3458 C 325.273 1.94519 -0.136863 0
M  V30 3459 O 324.543 1.77261 0.833983 0
M  V30 3460 H 323.123 0.50565 -0.549843 0
M  V30 3461 H 325.785 0.711239 -1.81459 0
M  V30 3462 H 324.881 2.18058 -2.23287 0
M  V30 3463 N 325.182 1.32811 0.848464 0
M  V30 3464 C 326.112 1.24882 1.97299 0
M  V30 3465 C 327.093 0.131357 1.69592 0
M  V30 3466 O 328.278 0.319553 1.91553 0
M  V30 3467 C 325.408 0.97746 3.33261 0
M  V30 3468 C 324.362 2.05682 3.75338 0
M  V30 3469 C 323.688 1.63777 5.09 0
M  V30 3470 C 324.988 3.47254 3.90144 0
M  V30 3471 H 326.682 2.18966 2.04191 0
M  V30 3472 H 324.228 1.05413 0.981029 0
M  V30 3473 H 326.181 0.908513 4.1149 0
M  V30 3474 H 324.905 0.000980011 3.266 0
M  V30 3475 H 323.564 2.11603 2.99366 0
M  V30 3476 H 323.212 0.648569 4.98801 0
M  V30 3477 H 322.912 2.36 5.38124 0
M  V30 3478 H 324.436 1.5833 5.89715 0
M  V30 3479 H 325.85 3.43888 4.58709 0
M  V30 3480 H 324.247 4.1788 4.30693 0
M  V30 3481 H 325.317 3.86462 2.92874 0
M  V30 3482 N 326.66 -1.06551 1.16123 0
M  V30 3483 C 327.89 -1.8274 0.963838 0
M  V30 3484 C 328.298 -1.82712 -0.491228 0
M  V30 3485 O 327.641 -1.24294 -1.35265 0
M  V30 3486 C 327.703 -3.3065 1.41106 0
M  V30 3487 C 327.367 -3.54384 2.88549 0
M  V30 3488 C 328.364 -3.4765 3.86569 0
M  V30 3489 C 326.049 -3.81789 3.26408 0
M  V30 3490 C 328.043 -3.67982 5.2045 0
M  V30 3491 C 325.73 -4.01772 4.60459 0
M  V30 3492 C 326.728 -3.94866 5.57288 0
M  V30 3493 O 326.416 -4.14306 6.88916 0
M  V30 3494 H 326.148 -0.583136 0.341948 0
M  V30 3495 H 328.702 -1.35351 1.54497 0
M  V30 3496 H 326.932 -3.78887 0.773394 0
M  V30 3497 H 328.621 -3.88324 1.1815 0
M  V30 3498 H 329.387 -3.2647 3.58667 0
M  V30 3499 H 325.266 -3.86276 2.51619 0
M  V30 3500 H 328.81 -3.62507 5.96015 0
M  V30 3501 H 324.707 -4.2244 4.88072 0
M  V30 3502 H 325.475 -4.31609 6.95454 0
M  V30 3503 N 328.138 -0.959301 -1.25041 0
M  V30 3504 C 329.386 -0.615393 -1.92503 0
M  V30 3505 C 329.707 0.850969 -1.75452 0
M  V30 3506 O 328.977 1.60658 -1.12098 0
M  V30 3507 H 327.557 -0.224613 -0.712431 0
M  V30 3508 H 330.219 -1.21855 -1.5211 0
M  V30 3509 H 329.315 -0.848738 -3.00338 0
M  V30 3510 N 329.616 1.39756 -0.72842 0
M  V30 3511 C 330.579 2.29012 -0.0927297 0
M  V30 3512 C 331.579 1.45992 0.674025 0
M  V30 3513 O 332.769 1.66749 0.50402 0
M  V30 3514 C 329.901 3.29396 0.878137 0
M  V30 3515 H 331.094 2.86729 -0.879011 0
M  V30 3516 H 328.647 1.48293 -0.493847 0
M  V30 3517 H 329.382 2.76722 1.69101 0
M  V30 3518 H 329.167 3.907 0.331051 0
M  V30 3519 H 330.657 3.96199 1.3197 0
M  V30 3520 N 331.094 0.475555 1.50254 0
M  V30 3521 C 332.041 -0.316293 2.28622 0
M  V30 3522 C 333.011 -0.983227 1.33873 0
M  V30 3523 O 334.196 -0.994805 1.62814 0
M  V30 3524 C 331.336 -1.38975 3.1588 0
M  V30 3525 C 330.449 -0.737146 4.25664 0
M  V30 3526 C 329.584 -1.78887 5.00173 0
M  V30 3527 C 328.623 -1.11676 6.01826 0
M  V30 3528 N 327.76 -2.11154 6.69596 0
M  V30 3529 H 332.6 0.358297 2.95838 0
M  V30 3530 H 330.137 0.188541 1.45887 0
M  V30 3531 H 332.095 -2.02383 3.64825 0
M  V30 3532 H 330.725 -2.03344 2.50701 0
M  V30 3533 H 329.777 0.0096065 3.80399 0
M  V30 3534 H 331.089 -0.206816 4.98371 0
M  V30 3535 H 330.243 -2.49865 5.52859 0
M  V30 3536 H 328.982 -2.35302 4.27182 0
M  V30 3537 H 327.987 -0.392633 5.48396 0
M  V30 3538 H 329.212 -0.55945 6.76792 0
M  V30 3539 H 327.158 -2.66577 5.99394 0
M  V30 3540 H 327.075 -1.63118 7.38193 0
M  V30 3541 H 328.343 -2.81497 7.26897 0
M  V30 3542 N 332.573 -1.56217 0.208337 0
M  V30 3543 C 333.821 -1.97558 -0.426076 0
M  V30 3544 C 334.142 -1.09683 -1.61229 0
M  V30 3545 O 333.412 -0.170956 -1.95153 0
M  V30 3546 H 331.992 -0.729575 -0.160405 0
M  V30 3547 H 334.654 -1.92606 0.298155 0
M  V30 3548 H 333.75 -3.02672 -0.761312 0
M  V30 3549 N 334.051 0.0651679 -1.57465 0
M  V30 3550 C 335.3 0.761916 -1.86756 0
M  V30 3551 C 335.613 1.78406 -0.801925 0
M  V30 3552 O 336.819 2.53084 -0.982885 0
M  V30 3553 C 335.275 1.40603 -3.31299 0
M  V30 3554 C 334.883 0.422115 -4.46007 0
M  V30 3555 C 336.627 2.08476 -3.69781 0
M  V30 3556 C 334.534 1.07252 -5.81593 0
M  V30 3557 H 333.464 0.288308 -0.696702 0
M  V30 3558 H 336.115 0.015344 -1.83494 0
M  V30 3559 H 334.497 2.20109 -3.29193 0
M  V30 3560 H 335.671 -0.343613 -4.59517 0
M  V30 3561 H 333.986 -0.152527 -4.16121 0
M  V30 3562 H 336.583 2.57925 -4.68379 0
M  V30 3563 H 336.926 2.88712 -2.99919 0
M  V30 3564 H 337.459 1.35792 -3.73905 0
M  V30 3565 H 334.198 0.310342 -6.54765 0
M  V30 3566 H 333.718 1.80895 -5.71872 0
M  V30 3567 H 335.397 1.59043 -6.27148 0
M  V30 3568 N 335.529 1.53961 0.336706 0
M  V30 3569 C 336.757 1.75483 1.09605 0
M  V30 3570 C 337.172 0.4972 1.82136 0
M  V30 3571 O 336.529 -0.53149 1.74589 0
M  V30 3572 C 336.58 2.93943 2.10428 0
M  V30 3573 O 336.301 4.14842 1.40846 0
M  V30 3574 C 337.802 3.27571 2.98684 0
M  V30 3575 H 335.022 0.586166 0.326574 0
M  V30 3576 H 337.566 2.00808 0.38683 0
M  V30 3577 H 335.721 2.70929 2.76905 0
M  V30 3578 H 336.135 4.81383 2.08255 0
M  V30 3579 H 337.609 4.13791 3.6535 0
M  V30 3580 H 338.086 2.44168 3.65074 0
M  V30 3581 H 338.692 3.52615 2.37787 0
M  V30 3582 N 337.007 -0.598083 1.45811 0
M  V30 3583 C 338.235 -1.38322 1.53866 0
M  V30 3584 C 338.65 -1.87992 0.174479 0
M  V30 3585 O 338.007 -1.62756 -0.825627 0
M  V30 3586 C 338.058 -2.58125 2.53089 0
M  V30 3587 O 337.779 -2.10516 3.84206 0
M  V30 3588 C 339.28 -3.50869 2.70935 0
M  V30 3589 H 336.5 -0.423093 0.520801 0
M  V30 3590 H 339.044 -0.728527 1.91083 0
M  V30 3591 H 337.199 -3.19615 2.18917 0
M  V30 3592 H 337.613 -2.88425 4.38077 0
M  V30 3593 H 339.087 -4.31451 3.44317 0
M  V30 3594 H 339.564 -4.01822 1.77301 0
M  V30 3595 H 340.17 -2.95225 3.06141 0
M  V30 3596 N 338.485 -1.33259 -0.841409 0
M  V30 3597 C 339.432 -1.23302 -1.95103 0
M  V30 3598 C 340.402 -0.112204 -1.65721 0
M  V30 3599 O 341.587 -0.290038 -1.88583 0
M  V30 3600 C 338.727 -0.975583 -3.31023 0
M  V30 3601 C 337.84 -2.18243 -3.72819 0
M  V30 3602 C 336.975 -1.85936 -4.97595 0
M  V30 3603 C 336.014 -3.02866 -5.3192 0
M  V30 3604 N 335.151 -2.70565 -6.47873 0
M  V30 3605 H 339.991 -2.18207 -2.02952 0
M  V30 3606 H 337.528 -1.0851 -0.993173 0
M  V30 3607 H 339.486 -0.80677 -4.09325 0
M  V30 3608 H 338.116 -0.0632755 -3.22738 0
M  V30 3609 H 337.168 -2.46107 -2.90061 0
M  V30 3610 H 338.48 -3.05666 -3.94169 0
M  V30 3611 H 337.634 -1.65684 -5.83638 0
M  V30 3612 H 336.373 -0.957452 -4.78209 0
M  V30 3613 H 335.378 -3.23736 -4.44382 0
M  V30 3614 H 336.603 -3.93809 -5.53255 0
M  V30 3615 H 334.549 -1.8293 -6.29978 0
M  V30 3616 H 334.466 -3.51519 -6.69306 0
M  V30 3617 H 335.734 -2.53774 -7.37034 0
M  V30 3618 N 339.963 1.05934 -1.16686 0
M  V30 3619 C 341.193 1.82226 -0.973515 0
M  V30 3620 C 341.601 1.8297 0.481532 0
M  V30 3621 O 340.944 1.25009 1.34604 0
M  V30 3622 C 341.006 3.29897 -1.42858 0
M  V30 3623 C 340.67 3.52849 -2.90425 0
M  V30 3624 C 341.667 3.45595 -3.88407 0
M  V30 3625 C 339.352 3.80053 -3.28428 0
M  V30 3626 C 341.346 3.65217 -5.22394 0
M  V30 3627 C 339.033 3.99325 -4.62583 0
M  V30 3628 C 340.031 3.91905 -5.59374 0
M  V30 3629 O 339.719 4.10647 -6.91104 0
M  V30 3630 H 339.451 0.581314 -0.345036 0
M  V30 3631 H 342.005 1.3453 -1.55212 0
M  V30 3632 H 340.235 3.78472 -0.793477 0
M  V30 3633 H 341.924 3.87692 -1.20207 0
M  V30 3634 H 342.69 3.24564 -3.60393 0
M  V30 3635 H 338.569 3.84936 -2.53664 0
M  V30 3636 H 342.113 3.59341 -5.9793 0
M  V30 3637 H 338.01 4.19846 -4.90306 0
M  V30 3638 H 338.778 4.27915 -6.97733 0
M  V30 3639 N 341.441 0.965919 1.2453 0
M  V30 3640 C 342.669 0.644385 1.96609 0
M  V30 3641 C 343.084 -0.785823 1.71669 0
M  V30 3642 O 342.441 -1.52703 0.999399 0
M  V30 3643 C 342.492 0.907375 3.49927 0
M  V30 3644 O 342.213 2.28136 3.74013 0
M  V30 3645 C 343.714 0.599784 4.39224 0
M  V30 3646 H 340.934 0.240588 0.626385 0
M  V30 3647 H 343.478 1.29337 1.58405 0
M  V30 3648 H 341.633 0.304631 3.862 0
M  V30 3649 H 342.047 2.36002 4.68405 0
M  V30 3650 H 343.521 0.834263 5.45659 0
M  V30 3651 H 343.998 -0.465921 4.36722 0
M  V30 3652 H 344.604 1.18235 4.08535 0
M  V30 3653 N 342.919 -1.39368 0.735821 0
M  V30 3654 C 344.168 -1.99733 0.281004 0
M  V30 3655 C 344.481 -1.59055 -1.13846 0
M  V30 3656 O 345.687 -2.12262 -1.69284 0
M  V30 3657 C 344.143 -3.57057 0.451462 0
M  V30 3658 C 343.751 -4.06697 1.87886 0
M  V30 3659 C 345.495 -4.2446 0.0584616 0
M  V30 3660 C 343.402 -5.56598 1.99883 0
M  V30 3661 H 342.332 -0.747163 0.101311 0
M  V30 3662 H 344.983 -1.59357 0.909819 0
M  V30 3663 H 343.365 -3.95234 -0.246263 0
M  V30 3664 H 344.539 -3.79853 2.60861 0
M  V30 3665 H 342.854 -3.5196 2.22515 0
M  V30 3666 H 345.451 -5.34549 0.127099 0
M  V30 3667 H 345.794 -4.04444 -0.986433 0
M  V30 3668 H 346.327 -3.9146 0.707374 0
M  V30 3669 H 343.066 -5.81494 3.02564 0
M  V30 3670 H 342.586 -5.85242 1.31346 0
M  V30 3671 H 344.265 -6.22022 1.78039 0
M  V30 3672 N 344.397 -0.483516 -1.5 0
M  V30 3673 C 345.625 0.0644831 -2.06799 0
M  V30 3674 C 346.04 1.32399 -1.34596 0
M  V30 3675 O 345.397 1.77626 -0.418946 0
M  V30 3676 C 345.448 0.339927 -3.59898 0
M  V30 3677 O 345.169 -0.869635 -4.29382 0
M  V30 3678 C 346.67 0.933515 -4.33359 0
M  V30 3679 H 343.89 -0.0126333 -0.670881 0
M  V30 3680 H 346.434 -0.675864 -1.93009 0
M  V30 3681 H 344.589 1.03022 -3.7345 0
M  V30 3682 H 345.003 -0.62179 -5.20801 0
M  V30 3683 H 346.477 1.07593 -5.41413 0
M  V30 3684 H 346.954 1.92685 -3.94676 0
M  V30 3685 H 347.56 0.281221 -4.24369 0
M  V30 3686 N 345.875 1.56104 -0.216619 0
M  V30 3687 C 346.807 2.17339 0.72776 0
M  V30 3688 C 347.82 1.14109 1.16116 0
M  V30 3689 O 349.009 1.4111 1.09317 0
M  V30 3690 C 346.109 2.73818 1.99693 0
M  V30 3691 C 345.282 4.02168 1.71988 0
M  V30 3692 C 344.341 4.43259 2.83562 0
M  V30 3693 O 343.367 5.10257 2.52244 0
M  V30 3694 N 344.569 4.08535 4.12407 0
M  V30 3695 H 347.334 2.99005 0.203983 0
M  V30 3696 H 344.895 1.61861 -0.0354289 0
M  V30 3697 H 346.887 2.9828 2.73516 0
M  V30 3698 H 345.457 1.96483 2.43132 0
M  V30 3699 H 344.677 3.85612 0.818337 0
M  V30 3700 H 345.965 4.85907 1.50903 0
M  V30 3701 H 345.363 3.54687 4.40696 0
M  V30 3702 H 343.92 4.37901 4.8279 0
M  V30 3703 N 347.353 -0.0568162 1.57498 0
M  V30 3704 C 348.3 -1.06591 2.04712 0
M  V30 3705 C 349.27 -1.3758 0.930644 0
M  V30 3706 O 350.455 -1.48392 1.19935 0
M  V30 3707 C 347.595 -2.3701 2.50839 0
M  V30 3708 C 346.708 -2.12421 3.76167 0
M  V30 3709 C 345.843 -3.36511 4.11015 0
M  V30 3710 C 344.882 -3.07353 5.2934 0
M  V30 3711 N 344.019 -4.23816 5.59754 0
M  V30 3712 H 348.859 -0.65631 2.90683 0
M  V30 3713 H 346.396 -0.312481 1.43743 0
M  V30 3714 H 348.354 -3.13175 2.7564 0
M  V30 3715 H 346.984 -2.75744 1.67825 0
M  V30 3716 H 346.036 -1.2688 3.58616 0
M  V30 3717 H 347.348 -1.86894 4.62463 0
M  V30 3718 H 346.502 -4.21062 4.36797 0
M  V30 3719 H 345.241 -3.65128 3.23315 0
M  V30 3720 H 344.246 -2.212 5.03339 0
M  V30 3721 H 345.471 -2.80043 6.1867 0
M  V30 3722 H 343.417 -4.52436 4.75014 0
M  V30 3723 H 343.334 -4.01614 6.40501 0
M  V30 3724 H 344.602 -5.0932 5.90096 0
M  V30 3725 N 348.832 -1.54138 -0.328536 0
M  V30 3726 C 349.764 -1.79509 -1.4251 0
M  V30 3727 C 350.777 -0.67688 -1.48061 0
M  V30 3728 O 351.966 -0.953898 -1.50874 0
M  V30 3729 C 349.066 -1.89337 -2.81078 0
M  V30 3730 C 348.239 -3.19443 -2.98789 0
M  V30 3731 C 347.298 -3.20036 -4.17688 0
M  V30 3732 O 346.324 -3.93697 -4.11086 0
M  V30 3733 N 347.526 -2.43467 -5.26976 0
M  V30 3734 H 350.291 -2.74139 -1.21111 0
M  V30 3735 H 347.852 -1.53373 -0.518499 0
M  V30 3736 H 349.844 -1.87167 -3.58818 0
M  V30 3737 H 348.414 -1.01826 -2.95551 0
M  V30 3738 H 347.634 -3.34614 -2.08391 0
M  V30 3739 H 348.922 -4.05354 -3.07515 0
M  V30 3740 H 348.32 -1.83201 -5.35214 0
M  V30 3741 H 346.877 -2.4708 -6.03154 0
M  V30 3742 N 350.31 0.590341 -1.46126 0
M  V30 3743 C 351.258 1.72105 -1.5647 0
M  V30 3744 C 352.252 1.63756 -0.433612 0
M  V30 3745 O 353.458 1.69342 -0.610194 0
M  V30 3746 H 349.833 0.568889 -0.491802 0
M  V30 3747 H 351.804 1.6051 -2.51553 0
M  V30 3748 C 350.553 3.10493 -1.56491 0
M  V30 3749 H 349.876 3.17583 -2.4286 0
M  V30 3750 H 351.316 3.8939 -1.67785 0
M  V30 3751 C 349.775 3.3563 -0.292231 0
M  V30 3752 O 350.305 3.96875 0.620739 0
M  V30 3753 N 348.511 2.90026 -0.182523 0
M  V30 3754 H 348.058 2.40367 -0.926356 0
M  V30 3755 H 348.016 3.07218 0.668152 0
M  V30 3756 N 351.788 1.33704 0.83433 0
M  V30 3757 C 353.199 1.22813 1.4062 0
M  V30 3758 C 353.55 -0.151107 1.95617 0
M  V30 3759 O 352.675 -1.05092 1.89168 0
M  V30 3760 C 353.27 2.22355 2.55624 0
M  V30 3761 C 351.829 2.1529 3.08751 0
M  V30 3762 C 350.976 2.09589 1.8157 0
M  V30 3763 H 353.927 1.45236 0.639702 0
M  V30 3764 H 353.948 1.83391 3.33389 0
M  V30 3765 H 353.46 3.22728 2.15566 0
M  V30 3766 H 351.561 1.18235 3.53343 0
M  V30 3767 H 351.674 3.06038 3.68616 0
M  V30 3768 H 350.038 1.55134 2.02004 0
M  V30 3769 H 350.821 3.11777 1.43701 0
M  V30 3770 N 353.266 -1.05314 1.17247 0
M  V30 3771 C 354.196 -2.1498 0.911362 0
M  V30 3772 C 355.177 -1.69471 -0.146169 0
M  V30 3773 O 356.362 -1.942 0.003812 0
M  V30 3774 C 353.492 -3.4472 0.422528 0
M  V30 3775 C 352.446 -4.03789 1.4191 0
M  V30 3776 C 351.772 -5.28858 0.788274 0
M  V30 3777 C 353.072 -4.41418 2.7919 0
M  V30 3778 H 354.766 -2.3708 1.82848 0
M  V30 3779 H 352.312 -1.13938 0.880569 0
M  V30 3780 H 354.265 -4.20787 0.227289 0
M  V30 3781 H 352.989 -3.22269 -0.530123 0
M  V30 3782 H 351.648 -3.2979 1.60106 0
M  V30 3783 H 351.296 -5.02709 -0.171173 0
M  V30 3784 H 350.996 -5.69338 1.45353 0
M  V30 3785 H 352.52 -6.07612 0.603282 0
M  V30 3786 H 353.934 -5.08524 2.64719 0
M  V30 3787 H 352.331 -4.92913 3.42282 0
M  V30 3788 H 353.401 -3.51819 3.33693 0
M  V30 3789 N 354.744 -0.972509 -1.24016 0
M  V30 3790 C 355.993 -0.632603 -1.91523 0
M  V30 3791 C 356.306 0.836641 -1.76804 0
M  V30 3792 O 357.512 1.28728 -2.39043 0
M  V30 3793 C 355.968 -1.08082 -3.43287 0
M  V30 3794 C 355.576 -2.57386 -3.66683 0
M  V30 3795 C 357.32 -0.814288 -4.16617 0
M  V30 3796 C 355.227 -2.95915 -5.12043 0
M  V30 3797 H 354.157 -0.232898 -0.717129 0
M  V30 3798 H 356.808 -1.17936 -1.40582 0
M  V30 3799 H 355.19 -0.462339 -3.93292 0
M  V30 3800 H 356.364 -3.24405 -3.27258 0
M  V30 3801 H 354.679 -2.81701 -3.06649 0
M  V30 3802 H 357.276 -1.0781 -5.23718 0
M  V30 3803 H 357.619 0.24955 -4.15551 0
M  V30 3804 H 358.152 -1.39397 -3.72577 0
M  V30 3805 H 354.891 -4.0139 -5.18234 0
M  V30 3806 H 354.411 -2.33584 -5.52448 0
M  V30 3807 H 356.09 -2.86086 -5.80314 0
M  V30 3808 N 356.222 1.38976 -0.743202 0
M  V30 3809 C 357.45 2.04636 -0.30525 0
M  V30 3810 C 357.865 1.56044 1.06281 0
M  V30 3811 O 357.222 0.728921 1.67311 0
M  V30 3812 C 357.273 3.60193 -0.307177 0
M  V30 3813 O 356.994 4.06998 -1.62124 0
M  V30 3814 C 358.495 4.4306 0.145928 0
M  V30 3815 H 355.715 0.65788 -0.132041 0
M  V30 3816 H 358.259 1.77866 -1.00915 0
M  V30 3817 H 356.414 3.85835 0.347898 0
M  V30 3818 H 356.828 5.01371 -1.54036 0
M  V30 3819 H 358.302 5.51921 0.0934183 0
M  V30 3820 H 358.779 4.22706 1.19231 0
M  V30 3821 H 359.385 4.22584 -0.479886 0
M  V30 3822 N 357.7 0.491464 1.49741 0
M  V30 3823 C 358.648 -0.305837 2.30581 0
M  V30 3824 C 359.642 -0.971642 1.38764 0
M  V30 3825 O 360.848 -0.90042 1.5586 0
M  V30 3826 H 357.223 -0.117482 0.742767 0
M  V30 3827 H 359.194 0.396093 2.95759 0
M  V30 3828 C 357.943 -1.36319 3.19863 0
M  V30 3829 H 357.266 -0.860258 3.90435 0
M  V30 3830 H 358.706 -1.89323 3.79385 0
M  V30 3831 C 357.165 -2.37621 2.38826 0
M  V30 3832 O 357.695 -3.43311 2.08567 0
M  V30 3833 N 355.901 -2.09849 2.01026 0
M  V30 3834 H 355.448 -1.23922 2.25834 0
M  V30 3835 H 355.406 -2.77859 1.47112 0
M  V30 3836 N 359.178 -1.55987 0.224894 0
M  V30 3837 C 360.427 -1.97566 -0.406273 0
M  V30 3838 C 360.74 -1.11569 -1.6066 0
M  V30 3839 O 361.946 -1.43062 -2.3075 0
M  V30 3840 C 360.402 -3.51474 -0.774207 0
M  V30 3841 C 360.01 -4.46179 0.403496 0
M  V30 3842 C 361.754 -4.01758 -1.37079 0
M  V30 3843 C 359.661 -5.91399 0.0129412 0
M  V30 3844 H 358.591 -0.737777 -0.155565 0
M  V30 3845 H 361.242 -1.80659 0.321635 0
M  V30 3846 H 359.624 -3.63994 -1.55963 0
M  V30 3847 H 360.798 -4.45409 1.18101 0
M  V30 3848 H 359.113 -4.06255 0.913536 0
M  V30 3849 H 361.71 -5.07756 -1.67596 0
M  V30 3850 H 362.053 -3.47805 -2.28773 0
M  V30 3851 H 362.586 -3.92475 -0.648733 0
M  V30 3852 H 359.325 -6.49341 0.896451 0
M  V30 3853 H 358.845 -5.95356 -0.728821 0
M  V30 3854 H 360.524 -6.45683 -0.412582 0
M  V30 3855 N 360.656 0.0484629 -1.57525 0
M  V30 3856 C 362.072 0.40375 -1.54409 0
M  V30 3857 C 362.272 1.77786 -0.948384 0
M  V30 3858 O 361.328 2.46189 -0.560983 0
M  V30 3859 C 362.641 0.323394 -2.98956 0
M  V30 3860 C 364.189 0.401892 -3.10409 0
M  V30 3861 C 364.664 0.351195 -4.56652 0
M  V30 3862 N 366.155 0.410576 -4.61377 0
M  V30 3863 C 366.89 0.393933 -5.72045 0
M  V30 3864 N 366.386 0.330724 -6.9201 0
M  V30 3865 N 368.179 0.442227 -5.60358 0
M  V30 3866 H 360.33 -0.851016 -1.94606 0
M  V30 3867 H 362.593 -0.321721 -0.89174 0
M  V30 3868 H 362.299 -0.62011 -3.4619 0
M  V30 3869 H 362.173 1.12463 -3.60044 0
M  V30 3870 H 364.56 1.33582 -2.63134 0
M  V30 3871 H 364.641 -0.428342 -2.52188 0
M  V30 3872 H 364.285 -0.578987 -5.04589 0
M  V30 3873 H 364.215 1.19928 -5.12762 0
M  V30 3874 H 366.706 0.462729 -3.75056 0
M  V30 3875 H 367.019 0.322592 -7.72126 0
M  V30 3876 H 365.364 0.29706 -6.94365 0
M  V30 3877 H 368.555 0.489464 -4.65534 0
M  V30 3878 H 368.728 0.425788 -6.466 0
M  V30 3879 N 362.134 1.5431 0.320358 0
M  V30 3880 C 363.382 1.72327 1.05583 0
M  V30 3881 C 363.703 0.50149 1.88441 0
M  V30 3882 O 362.973 -0.48448 1.89815 0
M  V30 3883 H 361.553 0.635387 0.3928 0
M  V30 3884 H 364.215 1.91621 0.356019 0
M  V30 3885 H 363.311 2.60426 1.72003 0
M  V30 3886 N 363.613 -0.582584 1.46437 0
M  V30 3887 C 364.841 -1.36682 1.55324 0
M  V30 3888 C 365.256 -1.87796 0.194409 0
M  V30 3889 O 364.613 -1.63623 -0.808318 0
M  V30 3890 C 364.664 -2.55426 2.55812 0
M  V30 3891 O 364.385 -2.0643 3.86417 0
M  V30 3892 C 365.886 -3.47976 2.74641 0
M  V30 3893 H 363.106 -0.417545 0.525259 0
M  V30 3894 H 365.65 -0.708219 1.91845 0
M  V30 3895 H 363.805 -3.17275 2.22295 0
M  V30 3896 H 364.219 -2.83762 4.41111 0
M  V30 3897 H 365.693 -4.27775 3.48874 0
M  V30 3898 H 366.17 -3.99919 1.81553 0
M  V30 3899 H 366.776 -2.91962 3.09255 0
M  V30 3900 N 365.091 -1.34144 -0.827227 0
M  V30 3901 C 366.039 -1.25364 -1.95925 0
M  V30 3902 C 367.033 -0.152608 -1.68711 0
M  V30 3903 O 368.239 -0.317311 -1.77181 0
M  V30 3904 H 364.614 -0.389342 -0.643364 0
M  V30 3905 H 366.585 -2.21045 -2.00454 0
M  V30 3906 C 365.334 -1.02158 -3.32354 0
M  V30 3907 H 364.657 -1.86111 -3.5384 0
M  V30 3908 H 366.097 -1.00048 -4.12027 0
M  V30 3909 C 364.556 0.275244 -3.35774 0
M  V30 3910 O 365.086 1.27806 -3.80826 0
M  V30 3911 N 363.292 0.306853 -2.88975 0
M  V30 3912 H 362.839 -0.509777 -2.52506 0
M  V30 3913 H 362.797 1.17432 -2.91646 0
M  V30 3914 N 366.569 1.04691 -1.17803 0
M  V30 3915 C 367.818 1.77176 -0.963931 0
M  V30 3916 C 368.131 1.88888 0.508015 0
M  V30 3917 O 369.337 2.58164 0.840465 0
M  V30 3918 C 367.793 3.18518 -1.67555 0
M  V30 3919 C 367.401 3.14919 -3.18637 0
M  V30 3920 C 369.145 3.95424 -1.54402 0
M  V30 3921 C 367.052 4.51081 -3.82466 0
M  V30 3922 H 365.982 0.664116 -0.357023 0
M  V30 3923 H 368.633 1.17303 -1.4111 0
M  V30 3924 H 367.015 3.78748 -1.15613 0
M  V30 3925 H 368.189 2.64178 -3.77554 0
M  V30 3926 H 366.504 2.51512 -3.31859 0
M  V30 3927 H 369.101 4.96106 -1.99456 0
M  V30 3928 H 369.444 4.13343 -0.495329 0
M  V30 3929 H 369.977 3.41754 -2.0359 0
M  V30 3930 H 366.716 4.38368 -4.87354 0
M  V30 3931 H 366.236 5.01951 -3.28337 0
M  V30 3932 H 367.915 5.2001 -3.84965 0
M  V30 3933 N 368.047 0.979072 1.23499 0
M  V30 3934 C 368.957 0.526431 2.28617 0
M  V30 3935 C 369.973 -0.418126 1.68901 0
M  V30 3936 O 371.149 -0.288372 1.99325 0
M  V30 3937 C 368.214 -0.165235 3.46306 0
M  V30 3938 C 367.275 0.82056 4.21385 0
M  V30 3939 C 366.508 0.161807 5.33455 0
M  V30 3940 O 366.731 -1.04742 5.60701 0
M  V30 3941 O 365.665 0.859708 5.95729 0
M  V30 3942 H 369.491 1.4006 2.69475 0
M  V30 3943 H 367.076 0.746643 1.29405 0
M  V30 3944 H 368.958 -0.553287 4.17752 0
M  V30 3945 H 367.633 -1.01419 3.07402 0
M  V30 3946 H 366.54 1.25929 3.52268 0
M  V30 3947 H 367.873 1.63828 4.64135 0
M  V30 3948 N 369.525 -1.3858 0.750561 0
M  V30 3949 C 370.435 -2.34278 0.122825 0
M  V30 3950 C 371.451 -1.59116 -0.704131 0
M  V30 3951 O 372.627 -1.91326 -0.628987 0
M  V30 3952 C 369.692 -3.38221 -0.762086 0
M  V30 3953 C 368.753 -4.29227 0.078896 0
M  V30 3954 C 367.986 -5.28205 -0.763874 0
M  V30 3955 O 368.209 -5.34112 -2.00201 0
M  V30 3956 O 367.143 -6.01618 -0.18428 0
M  V30 3957 H 370.969 -2.89649 0.913088 0
M  V30 3958 H 368.554 -1.40374 0.511417 0
M  V30 3959 H 370.436 -4.01872 -1.26793 0
M  V30 3960 H 369.111 -2.85211 -1.5309 0
M  V30 3961 H 368.018 -3.68747 0.630621 0
M  V30 3962 H 369.351 -4.85484 0.810289 0
M  V30 3963 N 371.003 -0.499398 -1.49478 0
M  V30 3964 C 372.25 0.0456899 -2.02448 0
M  V30 3965 C 372.578 1.37142 -1.37921 0
M  V30 3966 O 371.833 1.89111 -0.503544 0
M  V30 3967 C 372.132 0.248424 -3.56536 0
M  V30 3968 C 371.798 -0.999107 -4.39692 0
M  V30 3969 C 370.46 -1.34108 -4.62135 0
M  V30 3970 C 372.812 -1.82842 -4.88076 0
M  V30 3971 C 370.14 -2.51191 -5.30208 0
M  V30 3972 C 372.492 -2.99076 -5.57437 0
M  V30 3973 C 371.156 -3.33655 -5.78127 0
M  V30 3974 H 370.426 0.0167191 -0.740811 0
M  V30 3975 H 373.073 -0.65923 -1.79795 0
M  V30 3976 H 371.378 1.03586 -3.77859 0
M  V30 3977 H 373.075 0.684605 -3.95113 0
M  V30 3978 H 369.665 -0.722729 -4.22463 0
M  V30 3979 H 373.849 -1.57737 -4.70566 0
M  V30 3980 H 369.105 -2.78221 -5.44429 0
M  V30 3981 H 373.279 -3.63664 -5.93904 0
M  V30 3982 H 370.906 -4.24483 -6.30649 0
M  V30 3983 N 372.481 1.55866 -0.233164 0
M  V30 3984 C 373.411 2.23783 0.666599 0
M  V30 3985 C 374.392 1.21343 1.19205 0
M  V30 3986 O 375.577 1.4996 1.23392 0
M  V30 3987 C 372.707 2.92671 1.86978 0
M  V30 3988 C 371.661 4.01682 1.47768 0
M  V30 3989 C 370.987 4.57926 2.76058 0
M  V30 3990 C 372.287 5.18126 0.658993 0
M  V30 3991 H 373.981 2.99232 0.100306 0
M  V30 3992 H 371.527 1.43924 0.046804 0
M  V30 3993 H 373.48 3.3888 2.50476 0
M  V30 3994 H 372.204 2.14688 2.46123 0
M  V30 3995 H 370.863 3.56222 0.866106 0
M  V30 3996 H 370.511 3.76659 3.33372 0
M  V30 3997 H 370.211 5.31505 2.50552 0
M  V30 3998 H 371.735 5.06859 3.40479 0
M  V30 3999 H 373.149 5.60644 1.19795 0
M  V30 4000 H 371.546 5.98009 0.500552 0
M  V30 4001 H 372.616 4.83763 -0.331856 0
M  V30 4002 N 373.959 -0.0401083 1.57549 0
M  V30 4003 C 375.187 -0.745196 1.93014 0
M  V30 4004 C 375.602 -1.6948 0.831984 0
M  V30 4005 O 374.959 -1.81482 -0.192463 0
M  V30 4006 C 375.01 -1.51176 3.28372 0
M  V30 4007 O 374.731 -0.600284 4.33968 0
M  V30 4008 C 376.232 -2.315 3.78051 0
M  V30 4009 H 373.452 -0.210088 0.637263 0
M  V30 4010 H 375.996 -0.000924689 2.045 0
M  V30 4011 H 374.151 -2.20801 3.18317 0
M  V30 4012 H 374.565 -1.13669 5.12035 0
M  V30 4013 H 376.039 -2.80697 4.75303 0
M  V30 4014 H 376.516 -3.12436 3.08675 0
M  V30 4015 H 377.122 -1.66971 3.91153 0
M  V30 4016 N 375.437 -1.54477 -0.31217 0
M  V30 4017 C 376.684 -1.73227 -1.04875 0
M  V30 4018 C 377.012 -0.512042 -1.87639 0
M  V30 4019 O 376.267 0.506131 -1.89042 0
M  V30 4020 C 376.566 -2.967 -1.99258 0
M  V30 4021 C 376.232 -4.30974 -1.32559 0
M  V30 4022 C 374.894 -4.67477 -1.141 0
M  V30 4023 C 377.246 -5.14258 -0.847835 0
M  V30 4024 C 374.574 -5.84852 -0.465326 0
M  V30 4025 C 376.926 -6.32327 -0.185931 0
M  V30 4026 C 375.59 -6.67499 0.0107077 0
M  V30 4027 H 374.86 -0.633881 -0.383765 0
M  V30 4028 H 377.507 -1.88727 -0.324731 0
M  V30 4029 H 375.812 -2.75935 -2.7815 0
M  V30 4030 H 377.509 -3.08401 -2.563 0
M  V30 4031 H 374.099 -4.02262 -1.4793 0
M  V30 4032 H 378.283 -4.86565 -0.978192 0
M  V30 4033 H 373.539 -6.10654 -0.301883 0
M  V30 4034 H 377.713 -6.96135 0.192211 0
M  V30 4035 H 375.34 -7.58306 0.536287 0
M  V30 4036 N 376.915 0.57481 -1.46744 0
M  V30 4037 C 378.163 1.33009 -1.52161 0
M  V30 4038 C 378.484 1.94185 -0.178092 0
M  V30 4039 O 377.754 1.7899 0.796196 0
M  V30 4040 H 376.334 0.493873 -0.560445 0
M  V30 4041 H 378.996 0.672589 -1.82927 0
M  V30 4042 H 378.092 2.13273 -2.27862 0
M  V30 4043 N 378.394 1.34581 0.820102 0
M  V30 4044 C 379.642 1.26845 1.57336 0
M  V30 4045 C 379.963 -0.160667 1.94337 0
M  V30 4046 O 379.233 -1.09396 1.6251 0
M  V30 4047 H 377.813 0.466514 0.583415 0
M  V30 4048 H 380.475 1.68526 0.979027 0
M  V30 4049 H 379.571 1.87513 2.4949 0
M  V30 4050 N 379.872 -1.04064 1.18357 0
M  V30 4051 C 381.1 -1.80916 1.00384 0
M  V30 4052 C 381.515 -1.83414 -0.447738 0
M  V30 4053 O 380.872 -1.26962 -1.31099 0
M  V30 4054 C 380.923 -3.26516 1.55144 0
M  V30 4055 O 380.644 -3.2424 2.94618 0
M  V30 4056 C 382.145 -4.20013 1.41789 0
M  V30 4057 H 379.365 -0.569728 0.354474 0
M  V30 4058 H 381.909 -1.31151 1.56906 0
M  V30 4059 H 380.064 -3.73512 1.02798 0
M  V30 4060 H 380.478 -4.15452 3.20156 0
M  V30 4061 H 381.952 -5.20111 1.84901 0
M  V30 4062 H 382.429 -4.37667 0.36661 0
M  V30 4063 H 383.035 -3.78881 1.93207 0
M  V30 4064 N 381.35 -0.985608 -1.22978 0
M  V30 4065 C 382.627 -0.573599 -1.87001 0
M  V30 4066 C 383.007 0.949213 -1.88555 0
M  V30 4067 O 382.355 1.82811 -1.37086 0
M  V30 4068 C 382.565 -1.18564 -3.28243 0
M  V30 4069 C 383.913 -1.28163 -4.04796 0
M  V30 4070 O 384.937 -1.13949 -3.37482 0
M  V30 4071 O 383.796 -1.50832 -5.25273 0
M  V30 4072 H 380.89 -0.193868 -0.803955 0
M  V30 4073 H 383.436 -1.08102 -1.30813 0
M  V30 4074 H 382.208 -2.22758 -3.21706 0
M  V30 4075 H 381.831 -0.663363 -3.92027 0
M  V30 4076 N 382.828 1.3818 -0.7579 0
M  V30 4077 C 383.758 2.33027 -0.148597 0
M  V30 4078 C 384.739 1.55085 0.69875 0
M  V30 4079 O 385.924 1.83384 0.639053 0
M  V30 4080 C 383.054 3.3928 0.742034 0
M  V30 4081 C 382.008 4.28 -0.00291946 0
M  V30 4082 C 381.334 5.25146 1.00625 0
M  V30 4083 C 382.634 5.08938 -1.17385 0
M  V30 4084 H 384.328 2.84231 -0.940909 0
M  V30 4085 H 381.874 1.36659 -0.453908 0
M  V30 4086 H 383.827 4.046 1.17799 0
M  V30 4087 H 382.551 2.86569 1.56671 0
M  V30 4088 H 381.21 3.64192 -0.419504 0
M  V30 4089 H 380.858 4.68721 1.8251 0
M  V30 4090 H 380.558 5.85361 0.512428 0
M  V30 4091 H 382.082 5.93342 1.44143 0
M  V30 4092 H 383.496 5.67474 -0.815224 0
M  V30 4093 H 381.893 5.7841 -1.59882 0
M  V30 4094 H 382.963 4.42424 -1.98468 0
M  V30 4095 N 384.306 0.507319 1.49211 0
M  V30 4096 C 385.254 -0.281364 2.30892 0
M  V30 4097 C 386.248 -0.95687 1.39787 0
M  V30 4098 O 387.454 -0.883838 1.56807 0
M  V30 4099 H 383.829 -0.109597 0.743971 0
M  V30 4100 H 385.8 0.42744 2.95323 0
M  V30 4101 C 384.549 -1.32918 3.21291 0
M  V30 4102 H 383.872 -0.818799 3.91326 0
M  V30 4103 H 385.312 -1.85288 3.81372 0
M  V30 4104 C 383.771 -2.35074 2.41333 0
M  V30 4105 O 384.301 -3.4108 2.12197 0
M  V30 4106 N 382.507 -2.07705 2.03241 0
M  V30 4107 H 382.054 -1.2152 2.27136 0
M  V30 4108 H 382.012 -2.76283 1.50051 0
M  V30 4109 N 385.784 -1.5574 0.241426 0
M  V30 4110 C 387.033 -1.97986 -0.385295 0
M  V30 4111 C 387.346 -1.13267 -1.59468 0
M  V30 4112 O 388.552 -1.45501 -2.2922 0
M  V30 4113 C 387.008 -3.52275 -0.736884 0
M  V30 4114 C 386.616 -4.45726 0.450796 0
M  V30 4115 C 388.36 -4.03189 -1.3281 0
M  V30 4116 C 386.267 -5.91352 0.0756662 0
M  V30 4117 H 385.197 -0.739386 -0.147731 0
M  V30 4118 H 387.848 -1.80308 0.340779 0
M  V30 4119 H 386.23 -3.65628 -1.52094 0
M  V30 4120 H 387.404 -4.44131 1.22819 0
M  V30 4121 H 385.719 -4.05264 0.956573 0
M  V30 4122 H 388.316 -5.09505 -1.62201 0
M  V30 4123 H 388.659 -3.50212 -2.25071 0
M  V30 4124 H 389.192 -3.93141 -0.607069 0
M  V30 4125 H 385.931 -6.48354 0.965272 0
M  V30 4126 H 385.451 -5.96095 -0.665635 0
M  V30 4127 H 387.13 -6.46084 -0.344075 0
M  V30 4128 N 387.262 0.0317525 -1.57568 0
M  V30 4129 C 388.511 0.722131 -1.8833 0
M  V30 4130 C 388.824 1.76664 -0.839587 0
M  V30 4131 O 390.03 2.50942 -1.03635 0
M  V30 4132 C 388.486 1.33544 -3.34207 0
M  V30 4133 C 388.094 0.327415 -4.46802 0
M  V30 4134 C 389.838 2.00585 -3.7412 0
M  V30 4135 C 387.745 0.948915 -5.83738 0
M  V30 4136 H 386.675 0.273466 -0.702661 0
M  V30 4137 H 389.326 -0.0235811 -1.83485 0
M  V30 4138 H 387.708 2.13077 -3.33788 0
M  V30 4139 H 388.882 -0.441006 -4.58685 0
M  V30 4140 H 387.197 -0.240758 -4.15703 0
M  V30 4141 H 389.794 2.47932 -4.73744 0
M  V30 4142 H 390.137 2.82285 -3.05975 0
M  V30 4143 H 390.67 1.27831 -3.76702 0
M  V30 4144 H 387.409 0.171387 -6.55276 0
M  V30 4145 H 386.929 1.68724 -5.7558 0
M  V30 4146 H 388.608 1.45705 -6.3038 0
M  V30 4147 N 388.74 1.54641 0.303973 0
M  V30 4148 C 389.968 1.77768 1.05858 0
M  V30 4149 C 390.383 0.535722 1.8104 0
M  V30 4150 O 389.74 -0.494337 1.75677 0
M  V30 4151 C 389.791 2.9834 2.04146 0
M  V30 4152 O 389.512 4.17736 1.32015 0
M  V30 4153 C 391.013 3.33832 2.91669 0
M  V30 4154 H 388.233 0.592961 0.314067 0
M  V30 4155 H 390.777 2.01583 0.344149 0
M  V30 4156 H 388.932 2.76742 2.71096 0
M  V30 4157 H 389.346 4.85693 1.97998 0
M  V30 4158 H 390.82 4.21448 3.56491 0
M  V30 4159 H 391.297 2.51857 3.59812 0
M  V30 4160 H 391.903 3.57579 2.30254 0
M  V30 4161 N 390.218 -0.567019 1.47046 0
M  V30 4162 C 391.443 -1.3551 1.57009 0
M  V30 4163 C 391.868 -1.86841 0.217259 0
M  V30 4164 O 391.226 -1.62435 -0.805268 0
M  V30 4165 C 391.274 -2.50777 2.5912 0
M  V30 4166 O 390.378 -3.52706 2.13711 0
M  V30 4167 H 389.719 -0.402919 0.52778 0
M  V30 4168 H 392.249 -0.686241 1.92748 0
M  V30 4169 H 392.259 -2.97481 2.79229 0
M  V30 4170 H 390.934 -2.12771 3.57353 0
M  V30 4171 H 389.511 -3.12374 2.03659 0
M  V30 4172 N 391.696 -1.35014 -0.812953 0
M  V30 4173 C 392.659 -1.27292 -1.90602 0
M  V30 4174 C 393.659 -0.185817 -1.59723 0
M  V30 4175 O 394.849 -0.439102 -1.68575 0
M  V30 4176 C 391.981 -0.967676 -3.26877 0
M  V30 4177 H 393.174 -2.24479 -1.9887 0
M  V30 4178 H 390.727 -1.19446 -1.00808 0
M  V30 4179 H 391.462 0.0005954 -3.243 0
M  V30 4180 H 391.247 -1.75412 -3.50675 0
M  V30 4181 H 392.737 -0.939085 -4.06904 0
M  V30 4182 N 393.175 1.03435 -1.18907 0
M  V30 4183 C 394.107 2.1165 -0.879595 0
M  V30 4184 C 395.12 1.62316 0.125439 0
M  V30 4185 O 396.309 1.78201 -0.103245 0
M  V30 4186 C 393.409 3.37622 -0.294042 0
M  V30 4187 C 392.582 4.16166 -1.34629 0
M  V30 4188 C 391.641 5.20457 -0.775274 0
M  V30 4189 O 390.667 5.50379 -1.4516 0
M  V30 4190 N 391.869 5.78949 0.424126 0
M  V30 4191 H 394.634 2.38791 -1.81105 0
M  V30 4192 H 392.195 1.19681 -1.09032 0
M  V30 4193 H 394.187 4.04572 0.101679 0
M  V30 4194 H 392.757 3.07873 0.541575 0
M  V30 4195 H 391.977 3.44444 -1.91707 0
M  V30 4196 H 393.265 4.65432 -2.05549 0
M  V30 4197 H 392.663 5.56948 0.991209 0
M  V30 4198 H 391.22 6.47334 0.761691 0
M  V30 4199 N 394.653 0.992116 1.22453 0
M  V30 4200 C 395.878 0.685644 1.95739 0
M  V30 4201 C 396.303 -0.743 1.72804 0
M  V30 4202 O 395.661 -1.50778 1.00676 0
M  V30 4203 C 395.709 0.996293 3.46564 0
M  V30 4204 O 394.813 0.0945512 4.12292 0
M  V30 4205 H 394.154 0.256694 0.612376 0
M  V30 4206 H 396.684 1.32888 1.5557 0
M  V30 4207 H 396.694 0.93781 3.97076 0
M  V30 4208 H 395.369 2.03733 3.62582 0
M  V30 4209 H 393.946 0.208451 3.72317 0
M  V30 4210 N 396.131 -1.37776 0.765217 0
M  V30 4211 C 397.079 -2.32209 0.134798 0
M  V30 4212 C 398.073 -1.54607 -0.692315 0
M  V30 4213 O 399.279 -1.70052 -0.590109 0
M  V30 4214 H 395.654 -0.751591 0.0248005 0
M  V30 4215 H 397.625 -2.8297 0.947119 0
M  V30 4216 C 396.374 -3.39841 -0.735063 0
M  V30 4217 H 395.697 -3.99654 -0.107991 0
M  V30 4218 H 397.137 -4.08296 -1.14326 0
M  V30 4219 C 395.596 -2.79378 -1.88281 0
M  V30 4220 O 396.126 -2.69608 -2.97783 0
M  V30 4221 N 394.332 -2.37016 -1.68142 0
M  V30 4222 H 393.879 -2.45162 -0.790772 0
M  V30 4223 H 393.837 -1.96905 -2.45104 0
M  V30 4224 N 397.609 -0.515225 -1.4894 0
M  V30 4225 C 398.886 0.0879088 -1.95402 0
M  V30 4226 C 399.266 1.52745 -1.45712 0
M  V30 4227 O 398.614 2.18238 -0.677093 0
M  V30 4228 C 398.824 -0.0141055 -3.48997 0
M  V30 4229 C 400.172 0.152646 -4.24326 0
M  V30 4230 O 401.196 0.0604025 -3.56149 0
M  V30 4231 O 400.055 0.34384 -5.45417 0
M  V30 4232 H 397.149 0.0874636 -0.822362 0
M  V30 4233 H 399.695 -0.578775 -1.59525 0
M  V30 4234 H 398.467 -1.01745 -3.77841 0
M  V30 4235 H 398.09 0.692091 -3.9153 0
M  V30 4236 N 399.087 1.5561 -0.249682 0
M  V30 4237 C 400.336 1.98187 0.37479 0
M  V30 4238 C 400.649 1.14111 1.58865 0
M  V30 4239 O 401.855 1.46714 2.28445 0
M  V30 4240 C 400.311 3.52661 0.718192 0
M  V30 4241 C 399.919 4.45481 -0.474428 0
M  V30 4242 C 401.663 4.03888 1.3067 0
M  V30 4243 C 399.57 5.91303 -0.107026 0
M  V30 4244 H 398.5 0.740159 0.143808 0
M  V30 4245 H 401.151 1.80125 -0.350336 0
M  V30 4246 H 399.533 3.66429 1.50152 0
M  V30 4247 H 400.707 4.43473 -1.25172 0
M  V30 4248 H 399.022 4.04751 -0.978052 0
M  V30 4249 H 401.619 5.10358 1.59496 0
M  V30 4250 H 401.962 3.51401 2.23211 0
M  V30 4251 H 402.495 3.93457 0.586211 0
M  V30 4252 H 399.234 6.47833 -0.999642 0
M  V30 4253 H 398.754 5.9644 0.634013 0
M  V30 4254 H 400.433 6.46258 0.309807 0
M  V30 4255 N 400.565 -0.0233959 1.57583 0
M  V30 4256 C 401.795 -0.723631 1.93513 0
M  V30 4257 C 402.203 -1.69115 0.848333 0
M  V30 4258 O 401.546 -1.82781 -0.183484 0
M  V30 4259 C 401.608 -1.53075 3.25282 0
M  V30 4260 C 401.272 -0.727388 4.51174 0
M  V30 4261 C 402.269 -0.0251924 5.19894 0
M  V30 4262 C 399.954 -0.680256 4.97672 0
M  V30 4263 C 401.948 0.713374 6.33395 0
M  V30 4264 C 399.635 0.0620523 6.11068 0
M  V30 4265 C 400.633 0.757622 6.78785 0
M  V30 4266 O 400.321 1.48787 7.90011 0
M  V30 4267 H 400.053 -0.208051 0.643188 0
M  V30 4268 H 402.607 0.0167489 2.05393 0
M  V30 4269 H 400.837 -2.31508 3.09744 0
M  V30 4270 H 402.526 -2.11413 3.46496 0
M  V30 4271 H 403.292 -0.0526003 4.84971 0
M  V30 4272 H 399.171 -1.21116 4.44805 0
M  V30 4273 H 402.715 1.25683 6.86185 0
M  V30 4274 H 398.612 0.0913634 6.45435 0
M  V30 4275 H 399.38 1.40213 8.06401 0
M  V30 4276 N 402.043 -1.548 -0.295768 0
M  V30 4277 C 403.271 -1.78327 -1.04914 0
M  V30 4278 C 403.686 -0.545316 -1.80753 0
M  V30 4279 O 403.043 0.485013 -1.75937 0
M  V30 4280 C 403.094 -2.99418 -2.02561 0
M  V30 4281 O 402.815 -4.18431 -1.29798 0
M  V30 4282 C 404.316 -3.35375 -2.89895 0
M  V30 4283 H 401.536 -0.594618 -0.310918 0
M  V30 4284 H 404.08 -2.01763 -0.333454 0
M  V30 4285 H 402.235 -2.78175 -2.69624 0
M  V30 4286 H 402.649 -4.86736 -1.95419 0
M  V30 4287 H 404.123 -4.23332 -3.54251 0
M  V30 4288 H 404.6 -2.53761 -3.58472 0
M  V30 4289 H 405.206 -3.58796 -2.28355 0
M  V30 4290 N 403.521 0.559213 -1.47345 0
M  V30 4291 C 404.469 1.68747 -1.60085 0
M  V30 4292 C 405.463 1.628 -0.46825 0
M  V30 4293 O 406.669 1.68009 -0.645977 0
M  V30 4294 H 403.044 0.558329 -0.503759 0
M  V30 4295 H 405.015 1.55138 -2.54902 0
M  V30 4296 C 403.764 3.07103 -1.63042 0
M  V30 4297 H 403.087 3.12361 -2.49541 0
M  V30 4298 H 404.527 3.85743 -1.76006 0
M  V30 4299 C 402.986 3.34935 -0.363357 0
M  V30 4300 O 403.516 3.98102 0.536416 0
M  V30 4301 N 401.722 2.89574 -0.244 0
M  V30 4302 H 401.269 2.38348 -0.977133 0
M  V30 4303 H 401.227 3.08566 0.602836 0
M  V30 4304 N 404.999 1.35443 0.805782 0
M  V30 4305 C 405.929 1.31095 1.93226 0
M  V30 4306 C 406.91 0.185244 1.69088 0
M  V30 4307 O 408.095 0.380332 1.90439 0
M  V30 4308 C 405.225 1.08299 3.29983 0
M  V30 4309 C 404.179 2.17519 3.68605 0
M  V30 4310 C 403.505 1.79887 5.03532 0
M  V30 4311 C 404.805 3.5949 3.78898 0
M  V30 4312 H 406.499 2.25352 1.97122 0
M  V30 4313 H 404.045 1.0848 0.946996 0
M  V30 4314 H 405.998 1.03897 4.08391 0
M  V30 4315 H 404.722 0.104885 3.26432 0
M  V30 4316 H 403.381 2.2102 2.92482 0
M  V30 4317 H 403.029 0.80693 4.96485 0
M  V30 4318 H 402.729 2.53001 5.30344 0
M  V30 4319 H 404.253 1.77011 5.84379 0
M  V30 4320 H 405.667 3.58307 4.47536 0
M  V30 4321 H 404.064 4.31371 4.1718 0
M  V30 4322 H 405.134 3.95584 2.80431 0
M  V30 4323 N 406.477 -1.02803 1.19454 0
M  V30 4324 C 407.407 -2.12999 0.956758 0
M  V30 4325 C 408.388 -1.69743 -0.110188 0
M  V30 4326 O 409.573 -1.94148 0.0450038 0
M  V30 4327 C 406.703 -3.43746 0.495553 0
M  V30 4328 C 405.657 -4.00688 1.50443 0
M  V30 4329 C 404.983 -5.27067 0.900275 0
M  V30 4330 C 406.283 -4.35397 2.8849 0
M  V30 4331 H 407.977 -2.33148 1.87836 0
M  V30 4332 H 405.523 -1.12045 0.904539 0
M  V30 4333 H 407.476 -4.2021 0.316493 0
M  V30 4334 H 406.2 -3.23321 -0.461646 0
M  V30 4335 H 404.859 -3.2632 1.67065 0
M  V30 4336 H 404.507 -5.02959 -0.064503 0
M  V30 4337 H 404.207 -5.66127 1.57397 0
M  V30 4338 H 405.731 -6.06196 0.73203 0
M  V30 4339 H 407.145 -5.02795 2.75446 0
M  V30 4340 H 405.542 -4.85541 3.52661 0
M  V30 4341 H 406.612 -3.44662 3.41081 0
M  V30 4342 N 407.956 -0.998596 -1.21925 0
M  V30 4343 C 408.919 -0.558679 -2.22287 0
M  V30 4344 C 409.919 0.361525 -1.56683 0
M  V30 4345 O 411.109 0.152695 -1.73529 0
M  V30 4346 C 408.241 0.18661 -3.40389 0
M  V30 4347 H 409.434 -1.4463 -2.62721 0
M  V30 4348 H 406.987 -0.786413 -1.35075 0
M  V30 4349 H 407.722 1.08996 -3.05435 0
M  V30 4350 H 407.507 -0.474188 -3.89222 0
M  V30 4351 H 408.997 0.482367 -4.14805 0
M  V30 4352 N 409.434 1.37368 -0.772513 0
M  V30 4353 C 410.711 1.93839 -0.26188 0
M  V30 4354 C 411.091 1.7061 1.24319 0
M  V30 4355 O 410.439 1.05534 2.02669 0
M  V30 4356 C 410.649 3.43154 -0.636102 0
M  V30 4357 C 411.997 4.20249 -0.606324 0
M  V30 4358 O 413.021 3.5152 -0.575538 0
M  V30 4359 O 411.88 5.42809 -0.634086 0
M  V30 4360 H 408.974 0.82478 -0.0605555 0
M  V30 4361 H 411.52 1.4665 -0.853917 0
M  V30 4362 H 410.292 3.53647 -1.6748 0
M  V30 4363 H 409.915 3.97596 -0.0170516 0
M  V30 4364 N 410.912 0.523116 1.48665 0
M  V30 4365 C 412.142 -0.00961724 2.06598 0
M  V30 4366 C 412.55 -1.29333 1.38093 0
M  V30 4367 O 411.893 -1.77846 0.46007 0
M  V30 4368 C 411.955 -0.311135 3.58151 0
M  V30 4369 C 411.619 0.878092 4.48485 0
M  V30 4370 C 412.616 1.77464 4.88674 0
M  V30 4371 C 410.301 1.08315 4.90483 0
M  V30 4372 C 412.295 2.86021 5.69623 0
M  V30 4373 C 409.982 2.17187 5.71203 0
M  V30 4374 C 410.98 3.05873 6.10681 0
M  V30 4375 O 410.668 4.12862 6.89783 0
M  V30 4376 H 410.4 0.0272658 0.67545 0
M  V30 4377 H 412.954 0.726156 1.92136 0
M  V30 4378 H 411.184 -1.10079 3.70701 0
M  V30 4379 H 412.873 -0.785125 3.98234 0
M  V30 4380 H 413.639 1.62813 4.56855 0
M  V30 4381 H 409.518 0.402149 4.59243 0
M  V30 4382 H 413.062 3.55272 6.00356 0
M  V30 4383 H 408.959 2.31824 6.02435 0
M  V30 4384 H 409.727 4.10487 7.08126 0
M  V30 4385 N 412.39 -1.55475 0.257931 0
M  V30 4386 C 413.337 -2.21837 -0.636939 0
M  V30 4387 C 414.307 -1.18596 -1.16294 0
M  V30 4388 O 415.492 -1.47081 -1.21539 0
M  V30 4389 C 412.632 -2.9301 -1.82317 0
M  V30 4390 C 411.745 -4.10931 -1.33265 0
M  V30 4391 C 410.88 -4.69791 -2.47931 0
M  V30 4392 C 409.919 -5.7994 -1.95796 0
M  V30 4393 N 409.056 -6.32935 -3.0387 0
M  V30 4394 H 413.896 -2.9793 -0.0643591 0
M  V30 4395 H 411.433 -1.47086 -0.0200031 0
M  V30 4396 H 413.391 -3.3248 -2.52018 0
M  V30 4397 H 412.021 -2.1937 -2.36805 0
M  V30 4398 H 411.073 -3.76699 -0.52931 0
M  V30 4399 H 412.385 -4.90417 -0.910654 0
M  V30 4400 H 411.539 -5.11892 -3.25656 0
M  V30 4401 H 410.278 -3.89545 -2.93438 0
M  V30 4402 H 409.283 -5.37305 -1.16546 0
M  V30 4403 H 410.508 -6.62043 -1.51246 0
M  V30 4404 H 408.454 -5.55591 -3.48791 0
M  V30 4405 H 408.371 -7.07645 -2.66035 0
M  V30 4406 H 409.639 -6.79695 -3.81621 0
M  V30 4407 N 413.868 0.0150385 -1.57593 0
M  V30 4408 C 414.815 1.01126 -2.07466 0
M  V30 4409 C 415.785 1.35064 -0.966794 0
M  V30 4410 O 416.97 1.4516 -1.23827 0
M  V30 4411 C 414.11 2.30276 -2.57035 0
M  V30 4412 C 413.223 2.02373 -3.81666 0
M  V30 4413 C 412.358 3.25496 -4.19793 0
M  V30 4414 C 411.397 2.93211 -5.37303 0
M  V30 4415 N 410.534 4.08826 -5.70794 0
M  V30 4416 H 415.374 0.57901 -2.92321 0
M  V30 4417 H 412.911 0.27426 -1.44521 0
M  V30 4418 H 414.869 3.05757 -2.83846 0
M  V30 4419 H 413.499 2.71197 -1.75077 0
M  V30 4420 H 412.551 1.17327 -3.61854 0
M  V30 4421 H 413.863 1.74567 -4.67256 0
M  V30 4422 H 413.017 4.09333 -4.47807 0
M  V30 4423 H 411.756 3.56428 -3.32882 0
M  V30 4424 H 410.761 2.07777 -5.09027 0
M  V30 4425 H 411.986 2.63542 -6.25877 0
M  V30 4426 H 409.932 4.39682 -4.86842 0
M  V30 4427 H 409.849 3.84491 -6.50924 0
M  V30 4428 H 411.117 4.93496 -6.03392 0
M  V30 4429 N 415.346 1.54954 0.287554 0
M  V30 4430 C 416.595 1.74081 1.01877 0
M  V30 4431 C 416.908 0.541135 1.87966 0
M  V30 4432 O 418.114 0.614491 2.64455 0
M  V30 4433 C 416.57 3.08042 1.86113 0
M  V30 4434 C 416.178 4.35531 1.04961 0
M  V30 4435 C 417.922 3.36523 2.58752 0
M  V30 4436 C 415.829 5.60538 1.88551 0
M  V30 4437 H 414.759 0.64884 0.384087 0
M  V30 4438 H 417.41 1.81426 0.275101 0
M  V30 4439 H 415.792 2.94696 2.64519 0
M  V30 4440 H 416.966 4.59751 0.31074 0
M  V30 4441 H 415.281 4.14085 0.43843 0
M  V30 4442 H 417.878 4.27122 3.21668 0
M  V30 4443 H 418.221 2.56 3.28283 0
M  V30 4444 H 418.754 3.50901 1.87386 0
M  V30 4445 H 415.493 6.43767 1.23466 0
M  V30 4446 H 415.013 5.40483 2.60074 0
M  V30 4447 H 416.692 5.98297 2.46273 0
M  V30 4448 N 416.824 -0.551391 1.4764 0
M  V30 4449 C 417.787 -1.64007 1.60107 0
M  V30 4450 C 418.787 -1.53601 0.47576 0
M  V30 4451 O 419.977 -1.57655 0.740988 0
M  V30 4452 C 417.109 -3.03569 1.55108 0
M  V30 4453 H 418.302 -1.543 2.57161 0
M  V30 4454 H 415.855 -0.771776 1.35917 0
M  V30 4455 H 416.59 -3.18804 0.594519 0
M  V30 4456 H 416.375 -3.12532 2.36783 0
M  V30 4457 H 417.865 -3.82762 1.66982 0
M  V30 4458 N 418.302 -1.35869 -0.798587 0
M  V30 4459 C 419.527 -1.32883 -1.59238 0
M  V30 4460 C 419.952 0.0894587 -1.87887 0
M  V30 4461 O 419.31 1.05869 -1.47178 0
M  V30 4462 C 419.358 -2.14892 -2.89575 0
M  V30 4463 O 418.462 -1.53512 -3.82763 0
M  V30 4464 H 417.803 -0.455236 -0.48338 0
M  V30 4465 H 420.333 -1.79024 -0.990539 0
M  V30 4466 H 420.343 -2.27139 -3.38928 0
M  V30 4467 H 419.018 -3.17998 -2.68049 0
M  V30 4468 H 417.595 -1.50153 -3.41334 0
M  V30 4469 N 419.78 1.02168 -1.19998 0
M  V30 4470 C 420.727 2.10601 -0.944228 0
M  V30 4471 C 421.697 1.65639 0.123664 0
M  V30 4472 O 422.882 1.9079 -0.0199941 0
M  V30 4473 C 420.022 3.41504 -0.496865 0
M  V30 4474 C 419.135 3.99973 -1.63234 0
M  V30 4475 C 418.27 5.18915 -1.13579 0
M  V30 4476 C 417.309 5.69456 -2.24468 0
M  V30 4477 N 416.446 6.79665 -1.76068 0
M  V30 4478 H 421.286 2.31814 -1.8726 0
M  V30 4479 H 418.823 1.13686 -0.933483 0
M  V30 4480 H 420.781 4.16626 -0.218843 0
M  V30 4481 H 419.411 3.2038 0.394508 0
M  V30 4482 H 418.463 3.21997 -2.0254 0
M  V30 4483 H 419.775 4.33492 -2.46752 0
M  V30 4484 H 418.929 6.01222 -0.813429 0
M  V30 4485 H 417.668 4.8695 -0.270434 0
M  V30 4486 H 416.673 4.85757 -2.57526 0
M  V30 4487 H 417.898 6.03459 -3.11472 0
M  V30 4488 H 415.844 6.49538 -0.918516 0
M  V30 4489 H 415.761 7.12349 -2.5317 0
M  V30 4490 H 417.029 7.65549 -1.46817 0
M  V30 4491 N 421.258 1.00505 1.21394 0
M  V30 4492 C 422.188 0.585684 2.26035 0
M  V30 4493 C 423.169 -0.393525 1.65485 0
M  V30 4494 O 424.354 -0.281497 1.92149 0
M  V30 4495 C 421.484 -0.0884283 3.47187 0
M  V30 4496 C 420.438 0.810567 4.20254 0
M  V30 4497 C 419.764 0.00286382 5.347 0
M  V30 4498 C 421.064 2.1132 4.77641 0
M  V30 4499 H 422.758 1.46039 2.61368 0
M  V30 4500 H 420.304 0.703648 1.25638 0
M  V30 4501 H 422.257 -0.393286 4.19561 0
M  V30 4502 H 420.981 -0.997766 3.10986 0
M  V30 4503 H 419.64 1.09925 3.49731 0
M  V30 4504 H 419.288 -0.907765 4.94741 0
M  V30 4505 H 418.988 0.601444 5.84514 0
M  V30 4506 H 420.512 -0.295808 6.09883 0
M  V30 4507 H 421.926 1.87148 5.41893 0
M  V30 4508 H 420.323 2.66164 5.37845 0
M  V30 4509 H 421.393 2.78393 3.9702 0
M  V30 4510 N 422.737 -1.36956 0.779787 0
M  V30 4511 C 423.962 -2.04283 0.358224 0
M  V30 4512 C 424.387 -1.58422 -1.01411 0
M  V30 4513 O 423.745 -0.748179 -1.65142 0
M  V30 4514 C 423.793 -3.58152 0.419479 0
M  V30 4515 O 422.897 -4.08342 -0.577142 0
M  V30 4516 H 422.238 -0.645967 0.153698 0
M  V30 4517 H 424.768 -1.75108 1.05822 0
M  V30 4518 H 424.778 -4.07041 0.279636 0
M  V30 4519 H 423.453 -3.90886 1.42061 0
M  V30 4520 H 422.03 -3.70751 -0.399755 0
M  V30 4521 N 424.215 -0.530993 -1.48385 0
M  V30 4522 C 425.162 0.231223 -2.29639 0
M  V30 4523 C 426.132 0.932864 -1.37429 0
M  V30 4524 O 427.317 0.933692 -1.66394 0
M  V30 4525 C 424.457 1.27155 -3.2082 0
M  V30 4526 C 423.57 0.578655 -4.28107 0
M  V30 4527 C 422.705 1.602 -5.06467 0
M  V30 4528 C 421.744 0.892625 -6.05556 0
M  V30 4529 N 420.881 1.86157 -6.76971 0
M  V30 4530 H 425.721 -0.467848 -2.94305 0
M  V30 4531 H 423.258 -0.242556 -1.45086 0
M  V30 4532 H 425.216 1.88703 -3.72085 0
M  V30 4533 H 423.846 1.939 -2.58075 0
M  V30 4534 H 422.898 -0.150782 -3.80101 0
M  V30 4535 H 424.21 0.0217065 -4.98795 0
M  V30 4536 H 423.364 2.29173 -5.61751 0
M  V30 4537 H 422.103 2.19285 -4.35621 0
M  V30 4538 H 421.108 0.188829 -5.49476 0
M  V30 4539 H 422.333 0.307878 -6.78402 0
M  V30 4540 H 420.279 2.44147 -6.08875 0
M  V30 4541 H 420.196 1.35608 -7.43738 0
M  V30 4542 H 421.464 2.54325 -7.36844 0
M  V30 4543 N 425.693 1.55336 -0.266172 0
M  V30 4544 C 426.939 1.99692 0.353681 0
M  V30 4545 C 427.272 1.1543 1.56172 0
M  V30 4546 O 426.547 0.222218 1.93226 0
M  V30 4547 C 426.83 3.52316 0.74466 0
M  V30 4548 C 426.683 4.47337 -0.470101 0
M  V30 4549 C 428.002 4.10588 1.58447 0
M  V30 4550 H 425.121 0.725961 0.12708 0
M  V30 4551 H 427.763 1.86336 -0.371333 0
M  V30 4552 H 425.913 3.63829 1.36239 0
M  V30 4553 H 427.585 4.4778 -1.10864 0
M  V30 4554 H 425.828 4.19364 -1.10978 0
M  V30 4555 H 426.499 5.51788 -0.15291 0
M  V30 4556 H 428.975 4.02297 1.06286 0
M  V30 4557 H 427.851 5.17607 1.82686 0
M  V30 4558 H 428.112 3.60253 2.56262 0
M  V30 4559 N 427.171 -0.0066808 1.57599 0
M  V30 4560 C 428.103 -1.02827 2.04839 0
M  V30 4561 C 429.116 -1.31108 0.965113 0
M  V30 4562 O 430.305 -1.28202 1.24203 0
M  V30 4563 C 427.405 -2.36464 2.42771 0
M  V30 4564 C 426.578 -2.27219 3.73751 0
M  V30 4565 C 425.637 -3.43489 3.98625 0
M  V30 4566 O 424.663 -3.21976 4.69382 0
M  V30 4567 N 425.865 -4.66116 3.46 0
M  V30 4568 H 428.63 -0.625455 2.93101 0
M  V30 4569 H 426.191 -0.194198 1.60731 0
M  V30 4570 H 428.183 -3.13008 2.56531 0
M  V30 4571 H 426.753 -2.68512 1.60063 0
M  V30 4572 H 425.973 -1.35629 3.70133 0
M  V30 4573 H 427.261 -2.18208 4.59633 0
M  V30 4574 H 426.659 -4.86493 2.88688 0
M  V30 4575 H 425.216 -5.39949 3.65101 0
M  V30 4576 N 428.649 -1.55105 -0.279332 0
M  V30 4577 C 429.895 -1.75672 -1.01327 0
M  V30 4578 C 430.228 -0.552739 -1.86168 0
M  V30 4579 O 429.503 0.449827 -1.89227 0
M  V30 4580 C 429.786 -3.05825 -1.90114 0
M  V30 4581 C 429.639 -4.36565 -1.08309 0
M  V30 4582 C 430.958 -3.31975 -2.8893 0
M  V30 4583 H 428.077 -0.639149 -0.366957 0
M  V30 4584 H 430.719 -1.87833 -0.286154 0
M  V30 4585 H 428.869 -2.95588 -2.52111 0
M  V30 4586 H 430.541 -4.58751 -0.484314 0
M  V30 4587 H 428.784 -4.32076 -0.386362 0
M  V30 4588 H 429.455 -5.23946 -1.73737 0
M  V30 4589 H 431.931 -3.41963 -2.37067 0
M  V30 4590 H 430.807 -4.2432 -3.48201 0
M  V30 4591 H 431.068 -2.51309 -3.63725 0
M  V30 4592 N 430.127 0.543554 -1.4793 0
M  V30 4593 C 431.352 1.32995 -1.59145 0
M  V30 4594 C 431.777 1.86472 -0.246956 0
M  V30 4595 O 431.135 1.63696 0.779324 0
M  V30 4596 C 431.183 2.46623 -2.63077 0
M  V30 4597 O 430.287 3.49261 -2.19295 0
M  V30 4598 H 429.628 0.394472 -0.534124 0
M  V30 4599 H 432.158 0.655489 -1.93816 0
M  V30 4600 H 432.168 2.93001 -2.83926 0
M  V30 4601 H 430.843 2.07059 -3.60693 0
M  V30 4602 H 429.42 3.09094 -2.08603 0
M  V30 4603 N 431.605 1.3629 0.791371 0
M  V30 4604 C 432.553 1.30514 1.92533 0
M  V30 4605 C 433.547 0.197285 1.68247 0
M  V30 4606 O 434.753 0.364176 1.76278 0
M  V30 4607 H 431.128 0.406263 0.632815 0
M  V30 4608 H 433.099 2.26282 1.94523 0
M  V30 4609 C 431.848 1.10933 3.29529 0
M  V30 4610 H 431.171 1.95427 3.48781 0
M  V30 4611 H 432.611 1.10937 4.0923 0
M  V30 4612 C 431.07 -0.186123 3.36385 0
M  V30 4613 O 431.6 -1.17664 3.84081 0
M  V30 4614 N 429.806 -0.230128 2.89687 0
M  V30 4615 H 429.353 0.576545 2.51065 0
M  V30 4616 H 429.311 -1.09658 2.94657 0
M  V30 4617 N 433.083 -1.0153 1.20538 0
M  V30 4618 C 434.494 -1.56598 1.01657 0
M  V30 4619 C 434.845 -1.91505 -0.426668 0
M  V30 4620 O 433.97 -1.72375 -1.30827 0
M  V30 4621 C 434.565 -2.84542 1.83905 0
M  V30 4622 C 433.124 -3.36133 1.69386 0
M  V30 4623 C 432.271 -2.09427 1.81757 0
M  V30 4624 H 435.222 -0.838974 1.34711 0
M  V30 4625 H 435.243 -3.56004 1.34319 0
M  V30 4626 H 434.755 -2.59105 2.8894 0
M  V30 4627 H 432.856 -3.66528 0.669933 0
M  V30 4628 H 432.969 -4.08248 2.50739 0
M  V30 4629 H 431.333 -2.21941 1.24957 0
M  V30 4630 H 432.116 -1.86414 2.88279 0
M  V30 4631 N 434.561 -1.01147 -1.20859 0
M  V30 4632 C 435.491 -0.597663 -2.25722 0
M  V30 4633 C 436.472 0.384744 -1.65692 0
M  V30 4634 O 437.657 0.271303 -1.92296 0
M  V30 4635 C 434.787 0.0700149 -3.47229 0
M  V30 4636 C 433.741 -0.832843 -4.19819 0
M  V30 4637 C 433.067 -0.0312202 -5.34691 0
M  V30 4638 C 434.367 -2.1385 -4.76514 0
M  V30 4639 H 436.061 -1.47423 -2.60589 0
M  V30 4640 H 433.607 -0.710301 -1.25263 0
M  V30 4641 H 435.56 0.37103 -4.19763 0
M  V30 4642 H 434.284 0.981259 -3.11511 0
M  V30 4643 H 432.943 -1.11778 -3.49144 0
M  V30 4644 H 432.591 0.881515 -4.95215 0
M  V30 4645 H 432.291 -0.632434 -5.84187 0
M  V30 4646 H 433.815 0.26346 -6.10031 0
M  V30 4647 H 435.229 -1.9002 -5.40893 0
M  V30 4648 H 433.626 -2.69012 -5.36426 0
M  V30 4649 H 434.696 -2.80495 -3.95538 0
M  V30 4650 N 436.039 1.36541 -0.78704 0
M  V30 4651 C 436.969 2.32659 -0.197992 0
M  V30 4652 C 437.95 1.56533 0.665697 0
M  V30 4653 O 439.135 1.84698 0.60001 0
M  V30 4654 C 436.265 3.40778 0.669901 0
M  V30 4655 C 435.219 4.27897 -0.0937039 0
M  V30 4656 C 434.545 5.27163 0.894629 0
M  V30 4657 C 435.845 5.06334 -1.28154 0
M  V30 4658 H 437.539 2.82171 -1.00099 0
M  V30 4659 H 435.085 1.35665 -0.482793 0
M  V30 4660 H 437.038 4.07008 1.09191 0
M  V30 4661 H 435.762 2.89827 1.50558 0
M  V30 4662 H 434.421 3.6322 -0.49666 0
M  V30 4663 H 434.069 4.72486 1.72527 0
M  V30 4664 H 433.769 5.86317 0.388149 0
M  V30 4665 H 435.293 5.96266 1.31525 0
M  V30 4666 H 436.707 5.65617 -0.93541 0
M  V30 4667 H 435.104 5.74888 -1.72115 0
M  V30 4668 H 436.174 4.38114 -2.07807 0
M  V30 4669 N 437.518 0.538854 1.48102 0
M  V30 4670 C 438.466 -0.232325 2.31437 0
M  V30 4671 C 439.46 -0.927004 1.41785 0
M  V30 4672 O 440.666 -0.850378 1.58646 0
M  V30 4673 H 437.041 -0.0937916 0.746128 0
M  V30 4674 H 439.012 0.489986 2.9435 0
M  V30 4675 C 437.761 -1.26074 3.24038 0
M  V30 4676 H 437.084 -0.735609 3.92974 0
M  V30 4677 H 438.524 -1.77157 3.85216 0
M  V30 4678 C 436.983 -2.29902 2.46265 0
M  V30 4679 O 437.513 -3.36502 2.19384 0
M  V30 4680 N 435.719 -2.03348 2.07601 0
M  V30 4681 H 435.266 -1.16675 2.29662 0
M  V30 4682 H 435.224 -2.73038 1.55877 0
M  V30 4683 N 438.996 -1.55193 0.274407 0
M  V30 4684 C 440.407 -1.85358 -0.223488 0
M  V30 4685 C 440.758 -1.19642 -1.555 0
M  V30 4686 O 439.883 -0.484498 -2.10907 0
M  V30 4687 C 440.478 -3.36282 -0.412285 0
M  V30 4688 C 439.037 -3.66574 -0.854413 0
M  V30 4689 C 438.184 -2.7725 0.0527056 0
M  V30 4690 H 441.135 -1.50743 0.496215 0
M  V30 4691 H 441.156 -3.59349 -1.25094 0
M  V30 4692 H 440.668 -3.84083 0.556965 0
M  V30 4693 H 438.769 -3.24273 -1.83516 0
M  V30 4694 H 438.882 -4.74073 -0.692226 0
M  V30 4695 H 437.246 -2.50447 -0.463484 0
M  V30 4696 H 438.029 -3.27865 1.01783 0
M  V30 4697 N 440.474 -0.00167713 -1.576 0
M  V30 4698 C 441.704 0.692754 -1.94639 0
M  V30 4699 C 442.112 1.67744 -0.87513 0
M  V30 4700 O 441.455 1.8305 0.154382 0
M  V30 4701 C 441.517 1.47881 -3.27676 0
M  V30 4702 C 441.181 0.655518 -4.52274 0
M  V30 4703 C 442.178 -0.0575214 -5.19868 0
M  V30 4704 C 439.863 0.600994 -4.98692 0
M  V30 4705 C 441.857 -0.814052 -6.3218 0
M  V30 4706 C 439.544 -0.15926 -6.10892 0
M  V30 4707 C 440.542 -0.865515 -6.77494 0
M  V30 4708 O 440.23 -1.61336 -7.87544 0
M  V30 4709 H 439.962 0.197792 -0.646417 0
M  V30 4710 H 442.516 -0.049423 -2.05341 0
M  V30 4711 H 440.746 2.2655 -3.13388 0
M  V30 4712 H 442.435 2.05874 -3.49816 0
M  V30 4713 H 443.201 -0.0245611 -4.84994 0
M  V30 4714 H 439.08 1.14025 -4.46676 0
M  V30 4715 H 442.624 -1.36584 -6.84098 0
M  V30 4716 H 438.521 -0.194035 -6.45208 0
M  V30 4717 H 439.289 -1.53025 -8.04068 0
M  V30 4718 N 441.952 1.55251 0.271103 0
M  V30 4719 C 442.899 1.88261 1.33516 0
M  V30 4720 C 443.869 0.734296 1.48988 0
M  V30 4721 O 445.054 0.985741 1.63364 0
M  V30 4722 C 442.194 2.16168 2.69008 0
M  V30 4723 C 441.307 3.43678 2.61743 0
M  V30 4724 C 440.442 3.61276 3.89427 0
M  V30 4725 C 439.481 4.82472 3.7668 0
M  V30 4726 N 438.618 4.96717 4.96202 0
M  V30 4727 H 443.458 2.79015 1.04665 0
M  V30 4728 H 440.995 1.38137 0.505618 0
M  V30 4729 H 442.953 2.30349 3.47844 0
M  V30 4730 H 441.583 1.28646 2.96057 0
M  V30 4731 H 440.635 3.37959 1.74607 0
M  V30 4732 H 441.947 4.3265 2.48224 0
M  V30 4733 H 441.101 3.75284 4.76704 0
M  V30 4734 H 439.84 2.70492 4.05814 0
M  V30 4735 H 438.845 4.68465 2.87786 0
M  V30 4736 H 440.07 5.74692 3.61809 0
M  V30 4737 H 438.016 4.08865 5.12997 0
M  V30 4738 H 437.933 5.79738 4.85222 0
M  V30 4739 H 439.201 5.15113 5.85046 0
M  V30 4740 N 443.43 -0.535701 1.48216 0
M  V30 4741 C 444.707 -1.29683 1.46429 0
M  V30 4742 C 445.087 -2.10391 0.172852 0
M  V30 4743 O 444.435 -2.12282 -0.845488 0
M  V30 4744 C 444.645 -2.18313 2.72287 0
M  V30 4745 C 445.993 -2.78639 3.20383 0
M  V30 4746 O 447.017 -2.28604 2.73164 0
M  V30 4747 O 445.876 -3.69636 4.02531 0
M  V30 4748 H 442.97 -0.585026 0.584529 0
M  V30 4749 H 445.516 -0.552827 1.60443 0
M  V30 4750 H 444.288 -1.58421 3.57797 0
M  V30 4751 H 443.911 -2.99971 2.60966 0
M  V30 4752 N 444.908 -1.36708 -0.784132 0
M  V30 4753 C 446.154 -1.31426 -1.54451 0
M  V30 4754 C 446.487 0.10476 -1.93917 0
M  V30 4755 O 445.762 1.05934 -1.6312 0
M  V30 4756 C 446.045 -2.24189 -2.818 0
M  V30 4757 C 445.898 -3.74813 -2.48667 0
M  V30 4758 C 447.217 -2.15626 -3.83658 0
M  V30 4759 H 444.336 -0.478739 -0.560337 0
M  V30 4760 H 446.978 -1.67305 -0.900498 0
M  V30 4761 H 445.128 -1.93722 -3.36755 0
M  V30 4762 H 446.8 -4.15823 -1.99722 0
M  V30 4763 H 445.043 -3.93989 -1.81535 0
M  V30 4764 H 445.714 -4.35138 -3.39646 0
M  V30 4765 H 448.19 -2.42456 -3.38163 0
M  V30 4766 H 447.066 -2.82694 -4.70506 0
M  V30 4767 H 447.327 -1.14522 -4.27009 0
M  V30 4768 N 446.386 1.0089 -1.21074 0
M  V30 4769 C 447.633 1.74607 -1.0256 0
M  V30 4770 C 447.961 1.89426 0.44136 0
M  V30 4771 O 447.216 1.42266 1.34384 0
M  V30 4772 C 447.515 3.16335 -1.66334 0
M  V30 4773 C 447.181 3.21474 -3.16173 0
M  V30 4774 C 445.843 3.22583 -3.57062 0
M  V30 4775 C 448.195 3.19025 -4.12156 0
M  V30 4776 C 445.523 3.18925 -4.92446 0
M  V30 4777 C 447.875 3.16909 -5.47496 0
M  V30 4778 C 446.539 3.16326 -5.87787 0
M  V30 4779 H 445.809 0.638933 -0.375294 0
M  V30 4780 H 448.456 1.18274 -1.50611 0
M  V30 4781 H 446.761 3.75876 -1.10566 0
M  V30 4782 H 448.458 3.72083 -1.49516 0
M  V30 4783 H 445.048 3.2135 -2.83605 0
M  V30 4784 H 449.232 3.17332 -3.81595 0
M  V30 4785 H 444.488 3.16809 -5.22917 0
M  V30 4786 H 448.662 3.13968 -6.21609 0
M  V30 4787 H 446.289 3.13246 -6.92662 0
M  V30 4788 N 447.864 1.01787 1.20321 0
M  V30 4789 C 448.774 0.598898 2.26827 0
M  V30 4790 C 449.79 -0.36418 1.70146 0
M  V30 4791 O 450.966 -0.224812 2.00141 0
M  V30 4792 C 448.031 -0.0549769 3.46656 0
M  V30 4793 C 447.092 0.954205 4.18561 0
M  V30 4794 C 446.325 0.331439 5.3267 0
M  V30 4795 O 446.548 -0.86851 5.63749 0
M  V30 4796 O 445.482 1.0488 5.92692 0
M  V30 4797 H 449.308 1.48562 2.64883 0
M  V30 4798 H 446.893 0.787434 1.26964 0
M  V30 4799 H 448.775 -0.420102 4.19301 0
M  V30 4800 H 447.45 -0.915876 3.10473 0
M  V30 4801 H 446.357 1.37072 3.48083 0
M  V30 4802 H 447.69 1.78511 4.58688 0
M  V30 4803 N 449.342 -1.36122 0.79427 0
M  V30 4804 C 450.305 -2.28309 0.201889 0
M  V30 4805 C 451.305 -1.49041 -0.603603 0
M  V30 4806 O 452.495 -1.68964 -0.423888 0
M  V30 4807 C 449.627 -3.3321 -0.719978 0
M  V30 4808 H 450.82 -2.82208 1.01481 0
M  V30 4809 H 448.373 -1.45768 0.564037 0
M  V30 4810 H 449.108 -2.84475 -1.55706 0
M  V30 4811 H 448.893 -3.91835 -0.144266 0
M  V30 4812 H 450.383 -4.02044 -1.12916 0
M  V30 4813 N 450.82 -0.546701 -1.47814 0
M  V30 4814 C 451.767 0.206854 -2.29871 0
M  V30 4815 C 452.737 0.918235 -1.38411 0
M  V30 4816 O 453.922 0.915991 -1.67375 0
M  V30 4817 C 451.062 1.23746 -3.22151 0
M  V30 4818 C 450.175 0.533216 -4.28697 0
M  V30 4819 C 449.31 1.5482 -5.08138 0
M  V30 4820 C 448.349 0.828347 -6.06469 0
M  V30 4821 N 447.486 1.78966 -6.78908 0
M  V30 4822 H 452.326 -0.499037 -2.93792 0
M  V30 4823 H 449.863 -0.25793 -1.44821 0
M  V30 4824 H 451.821 1.84746 -3.74065 0
M  V30 4825 H 450.451 1.91151 -2.60117 0
M  V30 4826 H 449.503 -0.191089 -3.7992 0
M  V30 4827 H 450.815 -0.0311987 -4.9879 0
M  V30 4828 H 449.969 2.23202 -5.6415 0
M  V30 4829 H 448.708 2.14652 -4.37922 0
M  V30 4830 H 447.713 0.130539 -5.49645 0
M  V30 4831 H 448.938 0.235907 -6.7869 0
M  V30 4832 H 446.884 2.37675 -6.1143 0
M  V30 4833 H 446.801 1.27712 -7.45135 0
M  V30 4834 H 448.069 2.46496 -7.395 0
M  V30 4835 N 452.299 1.55045 -0.282633 0
M  V30 4836 C 453.529 2.03872 0.334635 0
M  V30 4837 C 453.937 1.16018 1.49454 0
M  V30 4838 O 453.28 0.174449 1.8287 0
M  V30 4839 C 453.342 3.48791 0.870905 0
M  V30 4840 C 453.006 4.56715 -0.161338 0
M  V30 4841 C 454.003 5.10513 -0.983466 0
M  V30 4842 C 451.688 5.01417 -0.297745 0
M  V30 4843 C 453.682 6.07538 -1.92811 0
M  V30 4844 C 451.369 5.98265 -1.24586 0
M  V30 4845 C 452.367 6.51208 -2.05954 0
M  V30 4846 O 452.055 7.46162 -2.99162 0
M  V30 4847 H 451.787 0.671324 0.0793742 0
M  V30 4848 H 454.341 2.01169 -0.41473 0
M  V30 4849 H 452.571 3.48758 1.67047 0
M  V30 4850 H 454.26 3.80916 1.40207 0
M  V30 4851 H 455.026 4.76785 -0.888856 0
M  V30 4852 H 450.905 4.59849 0.325604 0
M  V30 4853 H 454.449 6.48787 -2.56363 0
M  V30 4854 H 450.346 6.31412 -1.34126 0
M  V30 4855 H 451.114 7.63903 -2.93929 0
M  V30 4856 N 453.777 0.010035 1.57597 0
M  V30 4857 C 455.025 -0.671371 1.90623 0
M  V30 4858 C 455.346 -1.73753 0.885151 0
M  V30 4859 O 454.616 -1.95752 -0.0760611 0
M  V30 4860 H 453.196 -0.250968 0.703579 0
M  V30 4861 H 455.858 0.0533325 1.94827 0
M  V30 4862 H 454.954 -1.13626 2.90681 0
M  V30 4863 N 455.255 -1.55392 -0.262866 0
M  V30 4864 C 456.185 -1.91978 -1.32917 0
M  V30 4865 C 457.166 -0.7828 -1.51017 0
M  V30 4866 O 458.351 -1.04178 -1.63892 0
M  V30 4867 C 455.481 -2.20055 -2.68687 0
M  V30 4868 C 454.435 -3.35854 -2.65304 0
M  V30 4869 C 453.761 -3.49435 -4.04721 0
M  V30 4870 C 455.061 -4.71977 -2.23685 0
M  V30 4871 H 456.755 -2.81292 -1.02544 0
M  V30 4872 H 454.301 -1.3534 -0.491846 0
M  V30 4873 H 456.254 -2.44237 -3.43404 0
M  V30 4874 H 454.978 -1.27551 -3.00663 0
M  V30 4875 H 453.637 -3.11655 -1.93045 0
M  V30 4876 H 453.285 -2.54379 -4.33936 0
M  V30 4877 H 452.985 -4.27297 -4.0335 0
M  V30 4878 H 454.509 -3.7592 -4.81161 0
M  V30 4879 H 455.923 -4.95637 -2.88127 0
M  V30 4880 H 454.32 -5.52828 -2.33456 0
M  V30 4881 H 455.39 -4.70115 -1.18827 0
M  V30 4882 N 456.733 0.527833 -1.48498 0
M  V30 4883 C 458.01 1.28905 -1.47115 0
M  V30 4884 C 458.39 2.10297 -0.184007 0
M  V30 4885 O 457.738 2.12728 0.834218 0
M  V30 4886 C 457.948 2.16866 -2.73441 0
M  V30 4887 C 459.296 2.76936 -3.21857 0
M  V30 4888 O 460.32 2.27152 -2.74373 0
M  V30 4889 O 459.179 3.67496 -4.04486 0
M  V30 4890 H 456.273 0.581918 -0.587623 0
M  V30 4891 H 458.819 0.544311 -1.60734 0
M  V30 4892 H 457.591 1.56521 -3.58632 0
M  V30 4893 H 457.214 2.98583 -2.62553 0
M  V30 4894 N 458.211 1.37122 0.776871 0
M  V30 4895 C 459.158 1.3247 1.88998 0
M  V30 4896 C 460.128 0.191143 1.64997 0
M  V30 4897 O 461.313 0.379683 1.86984 0
M  V30 4898 C 458.453 1.13241 3.25992 0
M  V30 4899 C 457.566 2.35782 3.61982 0
M  V30 4900 C 456.701 2.09465 4.88158 0
M  V30 4901 C 455.74 3.279 5.16864 0
M  V30 4902 N 454.877 3.01167 6.34226 0
M  V30 4903 H 459.717 2.27642 1.9231 0
M  V30 4904 H 457.254 1.13125 0.94027 0
M  V30 4905 H 459.212 1.00115 4.0501 0
M  V30 4906 H 457.842 0.217186 3.22069 0
M  V30 4907 H 456.894 2.59666 2.77989 0
M  V30 4908 H 458.206 3.24125 3.79137 0
M  V30 4909 H 457.36 1.93341 5.75069 0
M  V30 4910 H 456.099 1.18452 4.73097 0
M  V30 4911 H 455.104 3.44569 4.2843 0
M  V30 4912 H 456.329 4.19757 5.33836 0
M  V30 4913 H 454.275 2.12779 6.20533 0
M  V30 4914 H 454.192 3.83052 6.51772 0
M  V30 4915 H 455.46 2.88649 7.24087 0
M  V30 4916 N 459.689 -1.00246 1.21608 0
M  V30 4917 C 460.966 -1.71336 0.943568 0
M  V30 4918 C 461.346 -2.03972 -0.543943 0
M  V30 4919 O 460.694 -1.71545 -1.50946 0
M  V30 4920 C 460.904 -2.97094 1.83128 0
M  V30 4921 C 462.252 -3.70071 2.08165 0
M  V30 4922 O 463.276 -3.07081 1.80498 0
M  V30 4923 O 462.135 -4.83376 2.54971 0
M  V30 4924 H 459.229 -0.747386 0.354039 0
M  V30 4925 H 461.775 -1.05967 1.32549 0
M  V30 4926 H 460.547 -2.69407 2.83788 0
M  V30 4927 H 460.17 -3.70204 1.45034 0
M  V30 4928 N 461.167 -1.02423 -1.1978 0
M  V30 4929 C 462.13 -0.605703 -2.21052 0
M  V30 4930 C 463.13 0.328209 -1.57415 0
M  V30 4931 O 464.32 0.115853 -1.73814 0
M  V30 4932 C 461.452 0.114366 -3.40708 0
M  V30 4933 H 462.645 -1.5017 -2.59594 0
M  V30 4934 H 460.198 -0.814888 -1.33376 0
M  V30 4935 H 460.933 1.02492 -3.07678 0
M  V30 4936 H 460.718 -0.556641 -3.88129 0
M  V30 4937 H 462.208 0.394272 -4.15735 0
M  V30 4938 N 462.645 1.35699 -0.801477 0
M  V30 4939 C 463.87 2.03687 -0.390678 0
M  V30 4940 C 464.295 1.60015 0.988778 0
M  V30 4941 O 463.653 0.774357 1.63931 0
M  V30 4942 C 463.701 3.57439 -0.476404 0
M  V30 4943 O 462.805 4.09208 0.512106 0
M  V30 4944 H 462.146 0.64344 -0.163956 0
M  V30 4945 H 464.676 1.73403 -1.08594 0
M  V30 4946 H 464.686 4.06544 -0.344357 0
M  V30 4947 H 463.361 3.88576 -1.48262 0
M  V30 4948 H 461.938 3.7134 0.340721 0
M  V30 4949 N 464.123 0.554532 1.47522 0
M  V30 4950 C 465.371 0.0294208 2.02079 0
M  V30 4951 C 465.692 -1.32411 1.43151 0
M  V30 4952 O 464.962 -1.863 0.605728 0
M  V30 4953 H 463.542 0.00788672 0.746958 0
M  V30 4954 H 466.204 0.723934 1.80956 0
M  V30 4955 H 465.3 -0.0606745 3.12041 0
M  V30 4956 N 465.601 -1.54893 0.290851 0
M  V30 4957 C 466.85 -1.99111 -0.322113 0
M  V30 4958 C 467.163 -1.18283 -1.55784 0
M  V30 4959 O 468.369 -1.5272 -2.24475 0
M  V30 4960 C 466.825 -3.54442 -0.624438 0
M  V30 4961 C 466.433 -4.44066 0.592373 0
M  V30 4962 C 468.177 -4.07211 -1.19916 0
M  V30 4963 C 466.084 -5.90812 0.263762 0
M  V30 4964 H 465.014 -0.743712 -0.124133 0
M  V30 4965 H 467.665 -1.79132 0.39797 0
M  V30 4966 H 466.047 -3.70281 -1.40384 0
M  V30 4967 H 467.221 -4.39999 1.36886 0
M  V30 4968 H 465.536 -4.02015 1.08502 0
M  V30 4969 H 468.133 -5.14407 -1.45909 0
M  V30 4970 H 468.476 -3.57196 -2.13815 0
M  V30 4971 H 469.009 -3.94873 -0.481687 0
M  V30 4972 H 465.748 -6.44955 1.17105 0
M  V30 4973 H 465.268 -5.97911 -0.475655 0
M  V30 4974 H 466.947 -6.46852 -0.138354 0
M  V30 4975 N 467.08 -0.0183926 -1.57589 0
M  V30 4976 C 468.31 0.67207 -1.95363 0
M  V30 4977 C 468.718 1.66807 -0.892872 0
M  V30 4978 O 468.061 1.83204 0.134958 0
M  V30 4979 C 468.123 1.44397 -3.29226 0
M  V30 4980 C 467.787 0.607511 -4.52944 0
M  V30 4981 C 468.784 -0.112657 -5.19778 0
M  V30 4982 C 466.469 0.548068 -4.99301 0
M  V30 4983 C 468.463 -0.881057 -6.31281 0
M  V30 4984 C 466.15 -0.224044 -6.10689 0
M  V30 4985 C 467.148 -0.937323 -6.76538 0
M  V30 4986 O 466.836 -1.6968 -7.85789 0
M  V30 4987 H 466.568 0.190925 -0.648478 0
M  V30 4988 H 469.122 -0.0711994 -2.05277 0
M  V30 4989 H 467.352 2.23214 -3.15773 0
M  V30 4990 H 469.041 2.02152 -3.51979 0
M  V30 4991 H 469.807 -0.0759998 -4.8494 0
M  V30 4992 H 465.686 1.09281 -4.4786 0
M  V30 4993 H 469.23 -1.43832 -6.82611 0
M  V30 4994 H 465.127 -0.262457 -6.44966 0
M  V30 4995 H 465.895 -1.61544 -8.024 0
M  V30 4996 N 468.558 1.5553 0.254621 0
M  V30 4997 C 469.783 1.81383 1.00573 0
M  V30 4998 C 470.208 0.594419 1.78461 0
M  V30 4999 O 469.566 -0.456403 1.75461 0
M  V30 5000 C 469.614 3.04892 1.92545 0
M  V30 5001 O 468.718 2.81266 3.01601 0
M  V30 5002 H 468.059 0.598969 0.286587 0
M  V30 5003 H 470.589 2.02703 0.277952 0
M  V30 5004 H 470.599 3.34119 2.34155 0
M  V30 5005 H 469.274 3.93287 1.3527 0
M  V30 5006 H 467.851 2.63185 2.64174 0
M  V30 5007 N 470.036 -0.519951 1.48776 0
M  V30 5008 C 471.282 -1.27711 1.57536 0
M  V30 5009 C 471.615 -1.92547 0.252866 0
M  V30 5010 O 470.89 -1.7979 -0.742021 0
M  V30 5011 C 471.173 -2.35875 2.72094 0
M  V30 5012 C 471.026 -1.75664 4.1408 0
M  V30 5013 C 472.345 -3.37575 2.82367 0
M  V30 5014 H 469.464 -0.462971 0.573434 0
M  V30 5015 H 472.106 -0.578194 1.80989 0
M  V30 5016 H 470.256 -2.95488 2.52228 0
M  V30 5017 H 471.928 -1.20025 4.45412 0
M  V30 5018 H 470.171 -1.06154 4.20611 0
M  V30 5019 H 470.842 -2.54029 4.90075 0
M  V30 5020 H 473.318 -2.87929 3.00393 0
M  V30 5021 H 472.194 -4.1064 3.64233 0
M  V30 5022 H 472.455 -3.98743 1.90936 0
M  V30 5023 N 471.514 -1.37532 -0.769588 0
M  V30 5024 C 472.462 -1.33561 -1.90432 0
M  V30 5025 C 473.456 -0.224027 -1.67912 0
M  V30 5026 O 474.662 -0.392174 -1.75676 0
M  V30 5027 H 471.037 -0.416279 -0.626271 0
M  V30 5028 H 473.008 -2.29348 -1.90899 0
M  V30 5029 C 471.757 -1.16162 -3.27722 0
M  V30 5030 H 471.08 -2.00951 -3.45628 0
M  V30 5031 H 472.52 -1.17434 -4.07413 0
M  V30 5032 C 470.979 0.132583 -3.36639 0
M  V30 5033 O 471.509 1.11539 -3.85904 0
M  V30 5034 N 469.715 0.184013 -2.90017 0
M  V30 5035 H 469.262 -0.616415 -2.50116 0
M  V30 5036 H 469.22 1.04956 -2.96364 0
M  V30 5037 N 472.992 0.995999 -1.22138 0
M  V30 5038 C 474.241 1.72928 -1.03821 0
M  V30 5039 C 474.554 1.90872 0.427444 0
M  V30 5040 O 475.76 2.61496 0.730212 0
M  V30 5041 C 474.216 3.11124 -1.80913 0
M  V30 5042 C 473.824 3.01122 -3.31707 0
M  V30 5043 C 475.568 3.8852 -1.71035 0
M  V30 5044 C 473.475 4.34453 -4.01253 0
M  V30 5045 H 472.405 0.648376 -0.384869 0
M  V30 5046 H 475.056 1.11213 -1.45959 0
M  V30 5047 H 473.438 3.73503 -1.31573 0
M  V30 5048 H 474.612 2.47926 -3.88419 0
M  V30 5049 H 472.927 2.3721 -3.42228 0
M  V30 5050 H 475.524 4.872 -2.20318 0
M  V30 5051 H 475.867 4.1087 -0.670196 0
M  V30 5052 H 476.4 3.32812 -2.17902 0
M  V30 5053 H 473.139 4.17303 -5.05508 0
M  V30 5054 H 472.659 4.87574 -3.49331 0
M  V30 5055 H 474.338 5.03215 -4.06674 0
M  V30 5056 N 474.47 1.03057 1.19235 0
M  V30 5057 C 475.418 0.606391 2.24557 0
M  V30 5058 C 476.412 -0.361826 1.65491 0
M  V30 5059 O 477.618 -0.23022 1.78522 0
M  V30 5060 H 473.993 0.177838 0.730669 0
M  V30 5061 H 475.964 1.50529 2.5765 0
M  V30 5062 C 474.713 -0.0252127 3.47691 0
M  V30 5063 H 474.036 0.710838 3.9343 0
M  V30 5064 H 475.476 -0.284931 4.23042 0
M  V30 5065 C 473.935 -1.27229 3.11953 0
M  V30 5066 O 474.465 -2.36416 3.24762 0
M  V30 5067 N 472.671 -1.16169 2.6637 0
M  V30 5068 H 472.218 -0.273189 2.56147 0
M  V30 5069 H 472.176 -1.99703 2.42829 0
M  V30 5070 N 475.948 -1.35272 0.808662 0
M  V30 5071 C 476.895 -2.29764 0.218482 0
M  V30 5072 C 477.865 -1.52911 -0.648652 0
M  V30 5073 O 479.05 -1.81341 -0.593297 0
M  V30 5074 C 476.19 -3.39388 -0.625282 0
M  V30 5075 C 475.303 -4.31202 0.262516 0
M  V30 5076 C 474.438 -5.27919 -0.589451 0
M  V30 5077 C 473.477 -6.11371 0.298617 0
M  V30 5078 N 472.614 -7.0022 -0.513443 0
M  V30 5079 H 477.454 -2.79645 1.02968 0
M  V30 5080 H 474.991 -1.37629 0.519303 0
M  V30 5081 H 476.949 -4.01615 -1.12966 0
M  V30 5082 H 475.579 -2.90777 -1.40173 0
M  V30 5083 H 474.631 -3.69962 0.885013 0
M  V30 5084 H 475.943 -4.89748 0.945971 0
M  V30 5085 H 475.097 -5.95529 -1.15888 0
M  V30 5086 H 473.836 -4.69875 -1.30647 0
M  V30 5087 H 472.841 -5.42707 0.880301 0
M  V30 5088 H 474.066 -6.71494 1.01352 0
M  V30 5089 H 472.012 -6.44662 -1.21439 0
M  V30 5090 H 471.929 -7.55917 0.111922 0
M  V30 5091 H 473.197 -7.72175 -1.06608 0
M  V30 5092 N 477.426 -0.562348 -1.47226 0
M  V30 5093 C 478.673 -0.0402165 -2.0246 0
M  V30 5094 C 479.001 1.31169 -1.43614 0
M  V30 5095 O 478.256 1.86805 -0.5833 0
M  V30 5096 C 478.555 0.0969817 -3.57268 0
M  V30 5097 C 478.221 -1.1847 -4.35058 0
M  V30 5098 C 476.883 -1.53588 -4.56031 0
M  V30 5099 C 479.235 -2.03378 -4.79882 0
M  V30 5100 C 476.563 -2.73452 -5.19077 0
M  V30 5101 C 478.915 -3.2245 -5.44251 0
M  V30 5102 C 477.579 -3.57876 -5.63455 0
M  V30 5103 H 476.849 -0.0147163 -0.740854 0
M  V30 5104 H 479.496 -0.734895 -1.76838 0
M  V30 5105 H 477.801 0.87466 -3.81912 0
M  V30 5106 H 479.498 0.516408 -3.97661 0
M  V30 5107 H 476.088 -0.90126 -4.19017 0
M  V30 5108 H 480.272 -1.77553 -4.63453 0
M  V30 5109 H 475.528 -3.01062 -5.32139 0
M  V30 5110 H 479.702 -3.88526 -5.77945 0
M  V30 5111 H 477.329 -4.50849 -6.12078 0
M  V30 5112 N 478.904 1.54736 -0.299062 0
M  V30 5113 C 479.852 2.24897 0.593658 0
M  V30 5114 C 480.846 1.25429 1.13859 0
M  V30 5115 O 482.052 1.43286 1.08945 0
M  V30 5116 H 478.427 0.72207 0.210046 0
M  V30 5117 H 480.398 2.98393 -0.0206421 0
M  V30 5118 C 479.147 3.00159 1.75499 0
M  V30 5119 H 478.47 3.76501 1.34489 0
M  V30 5120 H 479.91 3.52535 2.35574 0
M  V30 5121 C 478.369 2.07015 2.65794 0
M  V30 5122 O 478.899 1.63692 3.66835 0
M  V30 5123 N 477.105 1.73012 2.33485 0
M  V30 5124 H 476.652 2.08439 1.51364 0
M  V30 5125 H 476.61 1.10965 2.94167 0
M  V30 5126 N 480.382 0.0267497 1.57577 0
M  V30 5127 C 481.659 -0.690926 1.82991 0
M  V30 5128 C 482.039 -1.90471 0.910164 0
M  V30 5129 O 481.387 -2.28474 -0.0347985 0
M  V30 5130 C 481.597 -1.07139 3.32148 0
M  V30 5131 C 482.945 -1.46402 3.98562 0
M  V30 5132 O 483.969 -1.16443 3.36629 0
M  V30 5133 O 482.828 -2.02214 5.07712 0
M  V30 5134 H 479.922 -0.338747 0.75444 0
M  V30 5135 H 482.468 0.0542506 1.69613 0
M  V30 5136 H 481.24 -0.207394 3.9075 0
M  V30 5137 H 480.863 -1.87481 3.50623 0
M  V30 5138 N 481.861 -1.55662 -0.24637 0
M  V30 5139 C 483.11 -1.7672 -0.972254 0
M  V30 5140 C 483.423 -0.59078 -1.86465 0
M  V30 5141 O 484.629 -0.684391 -2.62732 0
M  V30 5142 C 483.085 -3.12869 -1.7788 0
M  V30 5143 C 482.693 -4.38161 -0.933768 0
M  V30 5144 C 484.437 -3.43265 -2.49738 0
M  V30 5145 C 482.344 -5.6534 -1.73623 0
M  V30 5146 H 481.274 -0.658795 -0.366749 0
M  V30 5147 H 483.925 -1.82092 -0.226902 0
M  V30 5148 H 482.307 -3.01606 -2.56612 0
M  V30 5149 H 483.481 -4.60413 -0.188736 0
M  V30 5150 H 481.796 -4.15102 -0.328488 0
M  V30 5151 H 484.393 -4.35501 -3.10231 0
M  V30 5152 H 484.736 -2.64614 -3.2138 0
M  V30 5153 H 485.269 -3.55746 -1.78016 0
M  V30 5154 H 482.008 -6.46814 -1.06354 0
M  V30 5155 H 481.528 -5.47188 -2.45653 0
M  V30 5156 H 483.207 -6.04616 -2.30323 0
M  V30 5157 N 483.339 0.512053 -1.4905 0
M  V30 5158 C 484.586 1.26686 -1.57978 0
M  V30 5159 C 484.914 1.92733 -0.261553 0
M  V30 5160 O 484.169 1.80772 0.749667 0
M  V30 5161 C 484.468 2.36446 -2.68008 0
M  V30 5162 C 484.134 1.87932 -4.09869 0
M  V30 5163 C 482.796 1.74419 -4.48477 0
M  V30 5164 C 485.148 1.5149 -4.98698 0
M  V30 5165 C 482.476 1.22827 -5.73699 0
M  V30 5166 C 484.828 1.01355 -6.24428 0
M  V30 5167 C 483.492 0.864735 -6.61875 0
M  V30 5168 H 482.762 0.463577 -0.578081 0
M  V30 5169 H 485.409 0.569421 -1.82838 0
M  V30 5170 H 483.714 3.11933 -2.37076 0
M  V30 5171 H 485.411 2.9453 -2.72127 0
M  V30 5172 H 482.001 1.99405 -3.79389 0
M  V30 5173 H 486.185 1.60782 -4.69535 0
M  V30 5174 H 481.441 1.10008 -6.01422 0
M  V30 5175 H 485.615 0.722351 -6.92644 0
M  V30 5176 H 483.242 0.462777 -7.5879 0
M  V30 5177 N 484.817 1.37938 0.762283 0
M  V30 5178 C 485.764 1.34467 1.87583 0
M  V30 5179 C 486.734 0.208633 1.64785 0
M  V30 5180 O 487.919 0.399494 1.86571 0
M  V30 5181 C 485.059 1.16692 3.24772 0
M  V30 5182 C 484.172 2.39608 3.59461 0
M  V30 5183 C 483.307 2.14631 4.85908 0
M  V30 5184 C 482.346 3.33364 5.13357 0
M  V30 5185 N 481.483 3.07877 6.30996 0
M  V30 5186 H 486.323 2.29669 1.89885 0
M  V30 5187 H 483.86 1.14116 0.928219 0
M  V30 5188 H 485.818 1.04405 4.03925 0
M  V30 5189 H 484.448 0.251333 3.2182 0
M  V30 5190 H 483.5 2.626 2.75219 0
M  V30 5191 H 484.812 3.28128 3.75678 0
M  V30 5192 H 483.966 1.99429 5.72986 0
M  V30 5193 H 482.705 1.23463 4.71814 0
M  V30 5194 H 481.71 3.49094 4.24751 0
M  V30 5195 H 482.935 4.25395 5.29354 0
M  V30 5196 H 480.881 2.19348 6.18241 0
M  V30 5197 H 480.798 3.89944 6.47673 0
M  V30 5198 H 482.066 2.96313 7.20985 0
M  V30 5199 N 486.295 -0.989507 1.22664 0
M  V30 5200 C 487.242 -2.08024 0.999733 0
M  V30 5201 C 488.212 -1.65909 -0.0797047 0
M  V30 5202 O 489.397 -1.90669 0.0705715 0
M  V30 5203 C 486.537 -3.40067 0.587234 0
M  V30 5204 C 485.65 -3.95505 1.73781 0
M  V30 5205 C 484.785 -5.15722 1.27297 0
M  V30 5206 C 483.824 -5.63305 2.39488 0
M  V30 5207 N 482.961 -6.74758 1.94026 0
M  V30 5208 H 487.801 -2.26768 1.9334 0
M  V30 5209 H 485.338 -1.11171 0.963297 0
M  V30 5210 H 487.296 -4.15899 0.329227 0
M  V30 5211 H 485.926 -3.21314 -0.309426 0
M  V30 5212 H 484.978 -3.16513 2.11006 0
M  V30 5213 H 486.29 -4.26797 2.58158 0
M  V30 5214 H 485.444 -5.98854 0.972546 0
M  V30 5215 H 484.183 -4.86061 0.399445 0
M  V30 5216 H 483.188 -4.78759 2.70315 0
M  V30 5217 H 484.413 -5.94988 3.27362 0
M  V30 5218 H 482.359 -6.46874 1.09041 0
M  V30 5219 H 482.276 -7.05386 2.71968 0
M  V30 5220 H 483.544 -7.61387 1.67062 0
M  V30 5221 N 487.773 -1.03688 -1.18687 0
M  V30 5222 C 488.703 -0.645407 -2.24403 0
M  V30 5223 C 489.684 0.349511 -1.66471 0
M  V30 5224 O 490.869 0.230453 -1.92828 0
M  V30 5225 C 487.999 -0.00365337 -3.473 0
M  V30 5226 C 486.953 -0.921705 -4.17958 0
M  V30 5227 C 486.279 -0.144629 -5.34504 0
M  V30 5228 C 487.579 -2.23909 -4.71871 0
M  V30 5229 H 489.273 -1.52917 -2.57404 0
M  V30 5230 H 486.819 -0.736711 -1.23728 0
M  V30 5231 H 488.772 0.281908 -4.20456 0
M  V30 5232 H 487.496 0.914963 -3.13522 0
M  V30 5233 H 486.155 -1.19159 -3.46694 0
M  V30 5234 H 485.803 0.776274 -4.96974 0
M  V30 5235 H 485.503 -0.756206 -5.82714 0
M  V30 5236 H 487.027 0.134004 -6.10453 0
M  V30 5237 H 488.441 -2.0145 -5.36741 0
M  V30 5238 H 486.838 -2.8033 -5.30599 0
M  V30 5239 H 487.908 -2.88822 -3.895 0
M  V30 5240 N 489.251 1.34841 -0.815825 0
M  V30 5241 C 490.481 2.02436 -0.412695 0
M  V30 5242 C 490.889 1.61604 0.983906 0
M  V30 5243 O 490.232 0.813729 1.64694 0
M  V30 5244 C 490.294 3.56953 -0.427182 0
M  V30 5245 C 489.958 4.21083 -1.77589 0
M  V30 5246 C 490.955 4.42107 -2.73564 0
M  V30 5247 C 488.64 4.58006 -2.06243 0
M  V30 5248 C 490.634 4.99169 -3.9637 0
M  V30 5249 C 488.321 5.1478 -3.2931 0
M  V30 5250 C 489.319 5.35304 -4.24191 0
M  V30 5251 O 489.007 5.90878 -5.45086 0
M  V30 5252 H 488.739 0.655631 -0.164695 0
M  V30 5253 H 491.293 1.73246 -1.1034 0
M  V30 5254 H 489.523 3.85372 0.320175 0
M  V30 5255 H 491.212 4.05875 -0.0450875 0
M  V30 5256 H 491.978 4.13953 -2.52721 0
M  V30 5257 H 487.857 4.41339 -1.33196 0
M  V30 5258 H 491.401 5.15105 -4.70439 0
M  V30 5259 H 487.298 5.42362 -3.5002 0
M  V30 5260 H 488.066 6.0932 -5.46508 0
M  V30 5261 N 490.729 0.570148 1.46925 0
M  V30 5262 C 491.954 0.0542592 2.07329 0
M  V30 5263 C 492.379 -1.23582 1.41806 0
M  V30 5264 O 491.737 -1.74341 0.497479 0
M  V30 5265 C 491.785 -0.111175 3.60429 0
M  V30 5266 O 490.889 -1.17071 3.95434 0
M  V30 5267 H 490.23 0.0571425 0.661537 0
M  V30 5268 H 492.76 0.789516 1.88753 0
M  V30 5269 H 492.77 -0.321315 4.06733 0
M  V30 5270 H 491.445 0.831012 4.07513 0
M  V30 5271 H 490.022 -0.940029 3.60857 0
M  V30 5272 N 492.207 -1.54576 0.307264 0
M  V30 5273 C 493.454 -2.00263 -0.300167 0
M  V30 5274 C 493.782 -1.19561 -1.53413 0
M  V30 5275 O 493.037 -0.261487 -1.93945 0
M  V30 5276 C 493.336 -3.50572 -0.695253 0
M  V30 5277 C 493.002 -4.48771 0.437679 0
M  V30 5278 C 491.664 -4.7534 0.748681 0
M  V30 5279 C 494.016 -5.0721 1.19949 0
M  V30 5280 C 491.344 -5.5761 1.8245 0
M  V30 5281 C 493.696 -5.90651 2.26527 0
M  V30 5282 C 492.36 -6.15528 2.58227 0
M  V30 5283 H 491.63 -0.732814 -0.109839 0
M  V30 5284 H 494.277 -1.86664 0.427661 0
M  V30 5285 H 492.582 -3.61814 -1.50326 0
M  V30 5286 H 494.279 -3.83352 -1.17653 0
M  V30 5287 H 490.869 -4.282 0.185187 0
M  V30 5288 H 495.053 -4.86679 0.972474 0
M  V30 5289 H 490.309 -5.75121 2.07476 0
M  V30 5290 H 494.483 -6.34957 2.86011 0
M  V30 5291 H 492.11 -6.79066 3.4172 0
M  V30 5292 N 493.685 -0.035106 -1.57561 0
M  V30 5293 C 494.913 0.652258 -1.9635 0
M  V30 5294 C 495.328 1.65317 -0.911897 0
M  V30 5295 O 494.685 1.82194 0.105657 0
M  V30 5296 C 494.736 1.35337 -3.35211 0
M  V30 5297 O 494.457 0.392548 -4.36338 0
M  V30 5298 C 495.958 2.13199 -3.88666 0
M  V30 5299 H 493.178 0.179444 -0.646561 0
M  V30 5300 H 495.722 -0.0966459 -2.04271 0
M  V30 5301 H 493.877 2.05362 -3.28489 0
M  V30 5302 H 494.291 0.891097 -5.16875 0
M  V30 5303 H 495.765 2.577 -4.88154 0
M  V30 5304 H 496.242 2.97353 -3.23231 0
M  V30 5305 H 496.848 1.48118 -3.98674 0
M  V30 5306 N 495.163 1.55791 0.238111 0
M  V30 5307 C 496.073 1.94196 1.31625 0
M  V30 5308 C 497.089 0.843545 1.52185 0
M  V30 5309 O 498.265 1.1457 1.65637 0
M  V30 5310 C 495.33 2.2365 2.64918 0
M  V30 5311 C 494.391 3.46971 2.52804 0
M  V30 5312 C 493.624 3.7501 3.79741 0
M  V30 5313 O 493.847 3.04982 4.82019 0
M  V30 5314 O 492.781 4.68525 3.77846 0
M  V30 5315 H 496.607 2.86044 1.02043 0
M  V30 5316 H 494.192 1.42786 0.439603 0
M  V30 5317 H 496.074 2.43863 3.4367 0
M  V30 5318 H 494.749 1.34979 2.94215 0
M  V30 5319 H 493.656 3.32055 1.72309 0
M  V30 5320 H 494.989 4.35971 2.28451 0
M  V30 5321 N 496.642 -0.504142 1.49319 0
M  V30 5322 C 497.889 -1.25846 1.58647 0
M  V30 5323 C 498.217 -1.92592 0.27177 0
M  V30 5324 O 497.472 -1.81167 -0.74007 0
M  V30 5325 C 497.771 -2.35021 2.69258 0
M  V30 5326 C 497.437 -1.85755 4.1086 0
M  V30 5327 C 496.099 -1.72038 4.49395 0
M  V30 5328 C 498.451 -1.48844 4.99495 0
M  V30 5329 C 495.779 -1.19783 5.74342 0
M  V30 5330 C 498.131 -0.980422 6.24956 0
M  V30 5331 C 496.795 -0.829622 6.62324 0
M  V30 5332 H 496.065 -0.460505 0.580531 0
M  V30 5333 H 498.712 -0.559716 1.83138 0
M  V30 5334 H 497.017 -3.10672 2.38726 0
M  V30 5335 H 498.714 -2.93083 2.73685 0
M  V30 5336 H 495.304 -1.9739 3.80441 0
M  V30 5337 H 499.488 -1.5829 4.70381 0
M  V30 5338 H 494.744 -1.06817 6.01997 0
M  V30 5339 H 498.918 -0.685608 6.93017 0
M  V30 5340 H 496.545 -0.42253 7.59025 0
M  V30 5341 N 498.12 -1.38341 -0.754957 0
M  V30 5342 C 499.397 -1.24995 -1.50451 0
M  V30 5343 C 499.777 0.149244 -2.10572 0
M  V30 5344 O 499.125 1.15861 -1.96948 0
M  V30 5345 C 499.335 -2.35904 -2.57197 0
M  V30 5346 C 500.683 -2.74262 -3.24138 0
M  V30 5347 O 501.707 -2.35205 -2.67501 0
M  V30 5348 O 500.566 -3.4161 -4.26574 0
M  V30 5349 H 497.66 -0.48872 -0.667144 0
M  V30 5350 H 500.206 -1.50165 -0.790486 0
M  V30 5351 H 498.978 -3.2953 -2.11011 0
M  V30 5352 H 498.601 -2.12291 -3.36182 0
M  V30 5353 N 499.598 0.982988 -1.23187 0
M  V30 5354 C 500.528 2.09301 -1.03515 0
M  V30 5355 C 501.509 1.70035 0.0471136 0
M  V30 5356 O 502.694 1.93847 -0.117029 0
M  V30 5357 C 499.824 3.4167 -0.622791 0
M  V30 5358 C 498.778 3.94828 -1.65211 0
M  V30 5359 C 498.104 5.23362 -1.09527 0
M  V30 5360 C 499.404 4.2439 -3.04451 0
M  V30 5361 H 501.098 2.26016 -1.96359 0
M  V30 5362 H 498.644 1.08611 -0.945501 0
M  V30 5363 H 500.597 4.18746 -0.472233 0
M  V30 5364 H 499.321 3.24811 0.341329 0
M  V30 5365 H 497.98 3.19895 -1.79061 0
M  V30 5366 H 497.628 5.02852 -0.122211 0
M  V30 5367 H 497.328 5.59895 -1.783 0
M  V30 5368 H 498.852 6.03062 -0.956511 0
M  V30 5369 H 500.266 4.92225 -2.93917 0
M  V30 5370 H 498.663 4.72118 -3.70438 0
M  V30 5371 H 499.733 3.31765 -3.53638 0
M  V30 5372 N 501.076 1.04316 1.18135 0
M  V30 5373 C 502.492 0.762858 1.40188 0
M  V30 5374 C 502.692 -0.646547 1.90846 0
M  V30 5375 O 501.748 -1.41036 2.0944 0
M  V30 5376 C 503.061 1.81106 2.40044 0
M  V30 5377 C 504.609 1.83226 2.53766 0
M  V30 5378 C 505.084 2.87044 3.56889 0
M  V30 5379 N 506.575 2.85951 3.64398 0
M  V30 5380 C 507.31 3.62932 4.43923 0
M  V30 5381 N 506.806 4.49672 5.27036 0
M  V30 5382 N 508.599 3.51411 4.38711 0
M  V30 5383 H 500.75 1.95264 0.835805 0
M  V30 5384 H 503.013 0.845017 0.429709 0
M  V30 5385 H 502.719 2.82214 2.09876 0
M  V30 5386 H 502.593 1.64529 3.39426 0
M  V30 5387 H 504.98 0.827869 2.8325 0
M  V30 5388 H 505.061 2.03879 1.54489 0
M  V30 5389 H 504.705 3.87663 3.28145 0
M  V30 5390 H 504.635 2.63645 4.5585 0
M  V30 5391 H 507.126 2.23051 3.05052 0
M  V30 5392 H 507.439 5.05116 5.84874 0
M  V30 5393 H 505.784 4.53738 5.26447 0
M  V30 5394 H 508.975 2.83047 3.72829 0
M  V30 5395 H 509.148 4.11654 5.00445 0
M  V30 5396 N 502.554 -1.34406 0.822964 0
M  V30 5397 C 503.782 -2.02508 0.424039 0
M  V30 5398 C 504.197 -1.61975 -0.970022 0
M  V30 5399 O 503.554 -0.825228 -1.62777 0
M  V30 5400 C 503.605 -3.57789 0.516657 0
M  V30 5401 O 503.326 -3.96853 1.85577 0
M  V30 5402 C 504.827 -4.43157 0.112637 0
M  V30 5403 H 502.047 -0.649063 0.170173 0
M  V30 5404 H 504.591 -1.7168 1.11113 0
M  V30 5405 H 502.746 -3.87207 -0.122353 0
M  V30 5406 H 503.16 -4.91538 1.83005 0
M  V30 5407 H 504.634 -5.51527 0.228526 0
M  V30 5408 H 505.111 -4.28939 -0.943837 0
M  V30 5409 H 505.717 -4.19067 0.725449 0
M  V30 5410 N 504.032 -0.577932 -1.46621 0
M  V30 5411 C 504.979 0.158048 -2.30258 0
M  V30 5412 C 505.949 0.888669 -1.40328 0
M  V30 5413 O 507.134 0.880283 -1.6928 0
M  V30 5414 C 504.274 1.16884 -3.24703 0
M  V30 5415 C 503.387 0.442163 -4.29731 0
M  V30 5416 C 502.522 1.44007 -5.11308 0
M  V30 5417 C 501.561 0.69952 -6.0809 0
M  V30 5418 N 500.698 1.64525 -6.82551 0
M  V30 5419 H 505.538 -0.561242 -2.92667 0
M  V30 5420 H 503.075 -0.288591 -1.44241 0
M  V30 5421 H 505.033 1.7677 -3.779 0
M  V30 5422 H 503.663 1.85591 -2.64113 0
M  V30 5423 H 502.715 -0.271632 -3.79429 0
M  V30 5424 H 504.027 -0.136992 -4.98612 0
M  V30 5425 H 503.181 2.11186 -5.68758 0
M  V30 5426 H 501.92 2.05315 -4.42377 0
M  V30 5427 H 500.925 0.0139217 -5.49798 0
M  V30 5428 H 502.15 0.091894 -6.79038 0
M  V30 5429 H 500.096 2.24653 -6.16334 0
M  V30 5430 H 500.013 1.11878 -7.47676 0
M  V30 5431 H 501.281 2.30754 -7.44562 0
M  V30 5432 N 505.51 1.54411 -0.315457 0
M  V30 5433 C 506.757 2.00419 0.289543 0
M  V30 5434 C 507.085 1.20373 1.52776 0
M  V30 5435 O 506.34 0.271769 1.93804 0
M  V30 5436 C 506.639 3.50936 0.676652 0
M  V30 5437 C 506.305 4.48532 -0.461472 0
M  V30 5438 C 504.967 4.74936 -0.773879 0
M  V30 5439 C 507.319 5.06567 -1.22637 0
M  V30 5440 C 504.647 5.56634 -1.85405 0
M  V30 5441 C 506.999 5.89441 -2.29657 0
M  V30 5442 C 505.663 6.1415 -2.61488 0
M  V30 5443 H 504.933 0.733386 0.105951 0
M  V30 5444 H 507.58 1.86434 -0.437554 0
M  V30 5445 H 505.885 3.62606 1.48405 0
M  V30 5446 H 507.582 3.83971 1.15618 0
M  V30 5447 H 504.172 4.28096 -0.207893 0
M  V30 5448 H 508.356 4.86157 -0.998271 0
M  V30 5449 H 503.612 5.74012 -2.10523 0
M  V30 5450 H 507.786 6.33432 -2.89374 0
M  V30 5451 H 505.413 6.77245 -3.45317 0
M  V30 5452 N 506.988 0.0434614 1.5754 0
M  V30 5453 C 507.92 -0.962586 2.08007 0
M  V30 5454 C 508.933 -1.27972 1.00634 0
M  V30 5455 O 510.122 -1.24186 1.28219 0
M  V30 5456 C 507.222 -2.28621 2.50171 0
M  V30 5457 C 506.395 -2.15214 3.80791 0
M  V30 5458 C 505.454 -3.30633 4.09351 0
M  V30 5459 O 504.48 -3.0688 4.79388 0
M  V30 5460 N 505.682 -4.54873 3.60654 0
M  V30 5461 H 508.447 -0.531891 2.94942 0
M  V30 5462 H 506.008 -0.142965 1.61268 0
M  V30 5463 H 508 -3.04689 2.66359 0
M  V30 5464 H 506.57 -2.63283 1.68525 0
M  V30 5465 H 505.79 -1.23785 3.74261 0
M  V30 5466 H 507.078 -2.03475 4.66343 0
M  V30 5467 H 506.476 -4.77063 3.04019 0
M  V30 5468 H 505.033 -5.2806 3.82094 0
M  V30 5469 N 508.466 -1.55915 -0.229846 0
M  V30 5470 C 509.712 -1.78807 -0.956868 0
M  V30 5471 C 510.045 -0.611687 -1.84315 0
M  V30 5472 O 509.32 0.389398 -1.90562 0
M  V30 5473 C 509.603 -3.11718 -1.80288 0
M  V30 5474 C 509.456 -4.3979 -0.943649 0
M  V30 5475 C 510.775 -3.40999 -2.78222 0
M  V30 5476 H 507.894 -0.6505 -0.346437 0
M  V30 5477 H 510.536 -1.88648 -0.226252 0
M  V30 5478 H 508.686 -3.03459 -2.42579 0
M  V30 5479 H 510.358 -4.60059 -0.338121 0
M  V30 5480 H 508.601 -4.33086 -0.248705 0
M  V30 5481 H 509.272 -5.29208 -1.5698 0
M  V30 5482 H 511.748 -3.49332 -2.26067 0
M  V30 5483 H 510.624 -4.35183 -3.34526 0
M  V30 5484 H 510.885 -2.62754 -3.55546 0
M  V30 5485 N 509.944 0.496216 -1.49584 0
M  V30 5486 C 510.891 1.59722 -1.66606 0
M  V30 5487 C 511.861 1.58158 -0.507477 0
M  V30 5488 O 513.046 1.76072 -0.735076 0
M  V30 5489 C 510.186 2.97844 -1.74308 0
M  V30 5490 C 509.299 3.09388 -3.01502 0
M  V30 5491 C 508.434 4.38271 -3.00153 0
M  V30 5492 C 507.473 4.43466 -4.21906 0
M  V30 5493 N 506.61 5.63784 -4.1844 0
M  V30 5494 H 511.45 1.44515 -2.60613 0
M  V30 5495 H 508.987 0.703048 -1.29212 0
M  V30 5496 H 510.945 3.77907 -1.76754 0
M  V30 5497 H 509.575 3.11743 -0.837619 0
M  V30 5498 H 508.627 2.22357 -3.08645 0
M  V30 5499 H 509.939 3.09085 -3.91494 0
M  V30 5500 H 509.093 5.2666 -3.01188 0
M  V30 5501 H 507.832 4.41146 -2.07947 0
M  V30 5502 H 506.837 3.53478 -4.21109 0
M  V30 5503 H 508.062 4.42303 -5.1531 0
M  V30 5504 H 506.008 5.67491 -3.29074 0
M  V30 5505 H 505.925 5.65118 -5.02173 0
M  V30 5506 H 507.193 6.54367 -4.23585 0
M  V30 5507 N 511.423 1.38739 0.74761 0
M  V30 5508 C 512.663 1.36695 1.51966 0
M  V30 5509 C 513.027 -0.0411889 1.91956 0
M  V30 5510 O 514.228 -0.186543 2.68152 0
M  V30 5511 C 512.499 2.30119 2.73459 0
M  V30 5512 S 514.058 2.4615 3.63257 0
M  V30 5513 H 510.876 0.484929 0.519966 0
M  V30 5514 H 513.478 1.7472 0.877104 0
M  V30 5515 H 512.182 3.31312 2.422 0
M  V30 5516 H 511.713 1.93265 3.42655 0
M  V30 5517 H 513.728 1.69001 4.66533 0
M  V30 5518 N 512.901 -0.976442 1.23707 0
M  V30 5519 C 514.317 -1.24341 1.00058 0
M  V30 5520 C 514.517 -1.99315 -0.295932 0
M  V30 5521 O 513.573 -2.3123 -1.01435 0
M  V30 5522 C 514.886 -2.03909 2.21001 0
M  V30 5523 C 516.434 -2.17034 2.25534 0
M  V30 5524 C 516.909 -2.99994 3.46075 0
M  V30 5525 N 518.4 -3.07578 3.46338 0
M  V30 5526 C 519.135 -3.72104 4.36264 0
M  V30 5527 N 518.631 -4.3842 5.36432 0
M  V30 5528 N 520.424 -3.69029 4.23998 0
M  V30 5529 H 512.575 -0.47428 2.07037 0
M  V30 5530 H 514.838 -0.272167 0.908091 0
M  V30 5531 H 514.544 -1.56198 3.15111 0
M  V30 5532 H 514.418 -3.04654 2.22409 0
M  V30 5533 H 516.805 -2.63951 1.31961 0
M  V30 5534 H 516.886 -1.15664 2.28156 0
M  V30 5535 H 516.53 -2.53772 4.39957 0
M  V30 5536 H 516.46 -4.01541 3.40694 0
M  V30 5537 H 518.951 -2.60397 2.73865 0
M  V30 5538 H 519.264 -4.85447 6.013 0
M  V30 5539 H 517.609 -4.37116 5.40328 0
M  V30 5540 H 520.8 -3.16392 3.44984 0
M  V30 5541 H 520.973 -4.19034 4.94282 0
M  V30 5542 N 514.379 -1.04941 -1.1758 0
M  V30 5543 C 515.311 -0.606174 -2.21039 0
M  V30 5544 C 516.324 0.328763 -1.59446 0
M  V30 5545 O 517.513 0.121895 -1.78083 0
M  V30 5546 C 514.613 0.133294 -3.38638 0
M  V30 5547 C 513.786 -0.811711 -4.29802 0
M  V30 5548 C 512.845 -0.113958 -5.26077 0
M  V30 5549 O 511.871 -0.747237 -5.64274 0
M  V30 5550 N 513.073 1.14953 -5.69004 0
M  V30 5551 H 515.838 -1.49606 -2.59689 0
M  V30 5552 H 513.399 -0.930997 -1.32454 0
M  V30 5553 H 515.391 0.610144 -4.00074 0
M  V30 5554 H 513.961 0.924816 -2.98607 0
M  V30 5555 H 513.181 -1.46824 -3.65837 0
M  V30 5556 H 514.469 -1.45326 -4.87604 0
M  V30 5557 H 513.867 1.68441 -5.40041 0
M  V30 5558 H 512.424 1.57049 -6.32597 0
M  V30 5559 N 515.857 1.33968 -0.830081 0
M  V30 5560 C 517.085 2.0228 -0.434773 0
M  V30 5561 C 517.5 1.62487 0.961419 0
M  V30 5562 O 516.857 0.833849 1.62337 0
M  V30 5563 C 516.908 3.5751 -0.535625 0
M  V30 5564 O 516.629 3.95864 -1.87679 0
M  V30 5565 C 518.13 4.43091 -0.136137 0
M  V30 5566 H 515.35 0.648151 -0.173613 0
M  V30 5567 H 517.894 1.71089 -1.12022 0
M  V30 5568 H 516.049 3.87266 0.101817 0
M  V30 5569 H 516.463 4.9056 -1.85609 0
M  V30 5570 H 517.937 5.51398 -0.257772 0
M  V30 5571 H 518.414 4.29433 0.921076 0
M  V30 5572 H 519.02 4.18677 -0.747662 0
M  V30 5573 N 517.335 0.585699 1.46312 0
M  V30 5574 C 518.565 0.0780166 2.06453 0
M  V30 5575 C 518.973 -1.2336 1.43454 0
M  V30 5576 O 518.316 -1.75734 0.535086 0
M  V30 5577 C 518.378 -0.158951 3.59148 0
M  V30 5578 C 518.042 1.06752 4.44357 0
M  V30 5579 C 519.039 1.98031 4.80708 0
M  V30 5580 C 516.724 1.2902 4.85447 0
M  V30 5581 C 518.718 3.09924 5.5698 0
M  V30 5582 C 516.405 2.41218 5.61478 0
M  V30 5583 C 517.403 3.31499 5.97158 0
M  V30 5584 O 517.091 4.41747 6.71651 0
M  V30 5585 H 516.823 0.0558894 0.673686 0
M  V30 5586 H 519.377 0.806994 1.88883 0
M  V30 5587 H 517.607 -0.942575 3.75037 0
M  V30 5588 H 519.296 -0.615513 4.01206 0
M  V30 5589 H 520.062 1.82043 4.49539 0
M  V30 5590 H 515.941 0.596567 4.57124 0
M  V30 5591 H 519.485 3.80415 5.84748 0
M  V30 5592 H 515.382 2.57167 5.9206 0
M  V30 5593 H 516.15 4.40152 6.90079 0
M  V30 5594 N 518.813 -1.54241 0.323641 0
M  V30 5595 C 520.062 -1.9975 -0.279806 0
M  V30 5596 C 520.375 -1.2156 -1.5324 0
M  V30 5597 O 521.581 -1.57447 -2.21185 0
M  V30 5598 C 520.037 -3.55686 -0.549115 0
M  V30 5599 C 519.645 -4.4271 0.686432 0
M  V30 5600 C 521.389 -4.09663 -1.11251 0
M  V30 5601 C 519.296 -5.90119 0.389022 0
M  V30 5602 H 518.226 -0.746177 -0.10833 0
M  V30 5603 H 520.877 -1.78248 0.435877 0
M  V30 5604 H 519.259 -3.73176 -1.32499 0
M  V30 5605 H 520.433 -4.36996 1.46188 0
M  V30 5606 H 518.748 -3.99623 1.17005 0
M  V30 5607 H 521.345 -5.17386 -1.34965 0
M  V30 5608 H 521.688 -3.61651 -2.06191 0
M  V30 5609 H 522.221 -3.95806 -0.39782 0
M  V30 5610 H 518.96 -6.42326 1.30759 0
M  V30 5611 H 518.48 -5.98785 -0.348722 0
M  V30 5612 H 520.159 -6.47 -0.0011164 0
M  V30 5613 N 520.291 -0.0518155 -1.57515 0
M  V30 5614 C 521.539 0.620595 -1.92336 0
M  V30 5615 C 521.86 1.71345 -0.930907 0
M  V30 5616 O 521.13 1.95885 0.0241341 0
M  V30 5617 H 519.71 0.232226 -0.709986 0
M  V30 5618 H 522.372 -0.104969 -1.94617 0
M  V30 5619 H 521.468 1.05879 -2.93592 0
M  V30 5620 N 521.769 1.56035 0.221574 0
M  V30 5621 C 522.701 1.889 1.29805 0
M  V30 5622 C 523.714 0.777269 1.43047 0
M  V30 5623 O 524.903 1.05557 1.43945 0
M  V30 5624 C 522.003 2.0825 2.67367 0
M  V30 5625 C 521.176 3.39267 2.76073 0
M  V30 5626 C 520.235 3.48049 3.94649 0
M  V30 5627 O 519.261 4.2108 3.82988 0
M  V30 5628 N 520.463 2.79191 5.08953 0
M  V30 5629 H 523.228 2.81831 1.01938 0
M  V30 5630 H 520.789 1.5658 0.411612 0
M  V30 5631 H 522.781 2.11441 3.45072 0
M  V30 5632 H 521.351 1.21944 2.87834 0
M  V30 5633 H 520.571 3.48175 1.84846 0
M  V30 5634 H 521.859 4.25575 2.7886 0
M  V30 5635 H 521.257 2.19635 5.21322 0
M  V30 5636 H 519.814 2.88043 5.84701 0
M  V30 5637 N 523.247 -0.488276 1.49845 0
M  V30 5638 C 524.477 -1.26344 1.63465 0
M  V30 5639 C 524.885 -1.86637 0.310379 0
M  V30 5640 O 524.228 -1.69184 -0.715712 0
M  V30 5641 C 524.29 -2.42407 2.65479 0
M  V30 5642 C 523.954 -2.02886 4.09495 0
M  V30 5643 C 524.951 -1.56124 4.95904 0
M  V30 5644 C 522.636 -2.12131 4.55308 0
M  V30 5645 C 524.63 -1.19129 6.26169 0
M  V30 5646 C 522.317 -1.74747 5.85582 0
M  V30 5647 C 523.315 -1.28322 6.70837 0
M  V30 5648 O 523.003 -0.914491 7.98682 0
M  V30 5649 H 522.735 -0.388921 0.552916 0
M  V30 5650 H 525.289 -0.591288 1.96705 0
M  V30 5651 H 523.519 -3.12739 2.27445 0
M  V30 5652 H 525.208 -3.04409 2.68495 0
M  V30 5653 H 525.974 -1.48417 4.61733 0
M  V30 5654 H 521.853 -2.47217 3.89107 0
M  V30 5655 H 525.397 -0.828211 6.92666 0
M  V30 5656 H 521.294 -1.82109 6.19279 0
M  V30 5657 H 522.062 -1.04485 8.11804 0
M  V30 5658 N 524.725 -1.39134 -0.740242 0
M  V30 5659 C 525.672 -1.37434 -1.8542 0
M  V30 5660 C 526.642 -0.234822 -1.64432 0
M  V30 5661 O 527.827 -0.429125 -1.85912 0
M  V30 5662 C 524.967 -1.21844 -3.22875 0
M  V30 5663 C 524.08 -2.45296 -3.55603 0
M  V30 5664 C 523.215 -2.22334 -4.82432 0
M  V30 5665 C 522.254 -3.41488 -5.07988 0
M  V30 5666 N 521.391 -3.17877 -6.26018 0
M  V30 5667 H 526.231 -2.3266 -1.86207 0
M  V30 5668 H 523.768 -1.15578 -0.909946 0
M  V30 5669 H 525.726 -1.10818 -4.02213 0
M  V30 5670 H 524.356 -0.3025 -3.21379 0
M  V30 5671 H 523.408 -2.66945 -2.71006 0
M  V30 5672 H 524.72 -3.34063 -3.7041 0
M  V30 5673 H 523.874 -2.0852 -5.69741 0
M  V30 5674 H 522.613 -1.30954 -4.6979 0
M  V30 5675 H 521.618 -3.55807 -4.19144 0
M  V30 5676 H 522.843 -4.33763 -5.22519 0
M  V30 5677 H 520.789 -2.29156 -6.14673 0
M  V30 5678 H 520.706 -4.00198 -6.41387 0
M  V30 5679 H 521.974 -3.07746 -7.16179 0
M  V30 5680 N 526.204 0.969867 -1.24223 0
M  V30 5681 C 527.434 1.74502 -1.106 0
M  V30 5682 C 527.842 1.86038 0.344483 0
M  V30 5683 O 527.185 1.3465 1.24961 0
M  V30 5684 C 527.247 3.18391 -1.66935 0
M  V30 5685 C 526.911 3.30334 -3.15798 0
M  V30 5686 C 527.908 3.15832 -4.12973 0
M  V30 5687 C 525.593 3.54644 -3.55715 0
M  V30 5688 C 527.587 3.25461 -5.48045 0
M  V30 5689 C 525.274 3.63912 -4.90929 0
M  V30 5690 C 526.272 3.49332 -5.86904 0
M  V30 5691 O 525.96 3.58251 -7.1966 0
M  V30 5692 H 525.692 0.554119 -0.387206 0
M  V30 5693 H 528.246 1.22646 -1.64764 0
M  V30 5694 H 526.476 3.71543 -1.07203 0
M  V30 5695 H 528.165 3.77707 -1.48634 0
M  V30 5696 H 528.931 2.96937 -3.83476 0
M  V30 5697 H 524.81 3.65059 -2.81519 0
M  V30 5698 H 528.354 3.13998 -6.22937 0
M  V30 5699 H 524.251 3.82319 -5.20098 0
M  V30 5700 H 525.019 3.7498 -7.27552 0
M  V30 5701 N 527.682 1.05563 1.17022 0
M  V30 5702 C 528.929 0.767937 1.87374 0
M  V30 5703 C 529.257 -0.705224 1.81265 0
M  V30 5704 O 528.512 -1.5318 1.21796 0
M  V30 5705 C 528.811 1.19849 3.36706 0
M  V30 5706 C 528.477 2.6745 3.63017 0
M  V30 5707 C 527.139 3.0777 3.69907 0
M  V30 5708 C 529.491 3.62811 3.74189 0
M  V30 5709 C 526.819 4.42307 3.85463 0
M  V30 5710 C 529.171 4.97087 3.91264 0
M  V30 5711 C 527.835 5.37055 3.96394 0
M  V30 5712 H 527.105 0.281008 0.68565 0
M  V30 5713 H 529.752 1.32339 1.38415 0
M  V30 5714 H 528.057 0.562096 3.87747 0
M  V30 5715 H 529.754 0.953038 3.8951 0
M  V30 5716 H 526.344 2.35228 3.58282 0
M  V30 5717 H 530.528 3.32798 3.68183 0
M  V30 5718 H 525.784 4.72769 3.87684 0
M  V30 5719 H 529.958 5.70869 3.9885 0
M  V30 5720 H 527.585 6.41308 4.082 0
M  V30 5721 N 529.16 -1.33526 0.837174 0
M  V30 5722 C 530.107 -2.29248 0.267169 0
M  V30 5723 C 531.077 -1.54252 -0.616071 0
M  V30 5724 O 532.262 -1.82559 -0.554699 0
M  V30 5725 C 529.402 -3.40638 -0.553152 0
M  V30 5726 C 528.515 -4.30548 0.353921 0
M  V30 5727 C 527.65 -5.29051 -0.477339 0
M  V30 5728 C 526.689 -6.106 0.42823 0
M  V30 5729 N 525.826 -7.01152 -0.364801 0
M  V30 5730 H 530.666 -2.77398 1.08877 0
M  V30 5731 H 528.203 -1.36496 0.54838 0
M  V30 5732 H 530.161 -4.03921 -1.04422 0
M  V30 5733 H 528.791 -2.93685 -1.33973 0
M  V30 5734 H 527.843 -3.68001 0.963289 0
M  V30 5735 H 529.155 -4.87631 1.04964 0
M  V30 5736 H 528.309 -5.97853 -1.0323 0
M  V30 5737 H 527.048 -4.72541 -1.2065 0
M  V30 5738 H 526.053 -5.40718 0.995219 0
M  V30 5739 H 527.278 -6.69193 1.15573 0
M  V30 5740 H 525.224 -6.47092 -1.07738 0
M  V30 5741 H 525.141 -7.5551 0.272238 0
M  V30 5742 H 526.409 -7.74263 -0.902054 0
M  V30 5743 N 530.638 -0.59345 -1.46 0
M  V30 5744 C 531.568 0.121192 -2.33185 0
M  V30 5745 C 532.549 0.872977 -1.4599 0
M  V30 5746 O 533.734 0.846321 -1.74789 0
M  V30 5747 C 530.864 1.12844 -3.28456 0
M  V30 5748 C 529.818 0.4908 -4.25177 0
M  V30 5749 C 529.144 1.60529 -5.10034 0
M  V30 5750 C 530.444 -0.578949 -5.19081 0
M  V30 5751 H 532.138 -0.606767 -2.93187 0
M  V30 5752 H 529.684 -0.293242 -1.40983 0
M  V30 5753 H 531.637 1.63684 -3.88311 0
M  V30 5754 H 530.361 1.88681 -2.66584 0
M  V30 5755 H 529.02 0.00339328 -3.666 0
M  V30 5756 H 528.668 2.35359 -4.44539 0
M  V30 5757 H 528.368 1.18422 -5.75543 0
M  V30 5758 H 529.892 2.11623 -5.72755 0
M  V30 5759 H 531.306 -0.155199 -5.7309 0
M  V30 5760 H 529.703 -0.920947 -5.92991 0
M  V30 5761 H 530.773 -1.46109 -4.62364 0
M  V30 5762 N 532.116 1.54067 -0.331816 0
M  V30 5763 C 533.341 2.05599 0.272705 0
M  V30 5764 C 533.766 1.2059 1.44359 0
M  V30 5765 O 533.124 0.216907 1.79998 0
M  V30 5766 C 533.172 3.54188 0.677021 0
M  V30 5767 O 532.276 3.72082 1.77844 0
M  V30 5768 H 531.617 0.662286 0.0476801 0
M  V30 5769 H 534.147 1.98826 -0.482624 0
M  V30 5770 H 534.157 3.96608 0.957415 0
M  V30 5771 H 532.832 4.15513 -0.179325 0
M  V30 5772 H 531.409 3.41566 1.49622 0
M  V30 5773 N 533.594 0.0601682 1.57485 0
M  V30 5774 C 534.542 -0.928899 2.13247 0
M  V30 5775 C 535.536 -1.31616 1.06647 0
M  V30 5776 O 536.742 -1.29476 1.25043 0
M  V30 5777 H 533.117 -0.317455 0.681708 0
M  V30 5778 H 535.088 -0.433566 2.95233 0
M  V30 5779 C 533.837 -2.19121 2.69965 0
M  V30 5780 H 533.16 -1.90204 3.51657 0
M  V30 5781 H 534.6 -2.86465 3.12592 0
M  V30 5782 C 533.059 -2.94195 1.64168 0
M  V30 5783 O 533.589 -3.87468 1.05978 0
M  V30 5784 N 531.795 -2.57089 1.35476 0
M  V30 5785 H 531.342 -1.81314 1.82984 0
M  V30 5786 H 531.3 -3.07624 0.649196 0
M  V30 5787 N 535.072 -1.5615 -0.213296 0
M  V30 5788 C 536.002 -1.96109 -1.26742 0
M  V30 5789 C 536.983 -0.830448 -1.48451 0
M  V30 5790 O 538.168 -1.09339 -1.60495 0
M  V30 5791 C 535.298 -2.28492 -2.61551 0
M  V30 5792 C 534.252 -3.44124 -2.54485 0
M  V30 5793 C 533.578 -3.62134 -3.93399 0
M  V30 5794 C 534.878 -4.78855 -2.08556 0
M  V30 5795 H 536.572 -2.84412 -0.935434 0
M  V30 5796 H 534.118 -1.36836 -0.44854 0
M  V30 5797 H 536.071 -2.55039 -3.3546 0
M  V30 5798 H 534.795 -1.37052 -2.96453 0
M  V30 5799 H 533.454 -3.17639 -1.83033 0
M  V30 5800 H 533.102 -2.68055 -4.25623 0
M  V30 5801 H 532.802 -4.39913 -3.89551 0
M  V30 5802 H 534.326 -3.91038 -4.68958 0
M  V30 5803 H 535.74 -5.04552 -2.72213 0
M  V30 5804 H 534.137 -5.59975 -2.1575 0
M  V30 5805 H 535.207 -4.73657 -1.03811 0
M  V30 5806 N 536.55 0.480323 -1.50102 0
M  V30 5807 C 537.48 1.58769 -1.71215 0
M  V30 5808 C 538.461 1.60583 -0.560997 0
M  V30 5809 O 539.646 1.76996 -0.799127 0
M  V30 5810 C 536.776 2.97148 -1.79778 0
M  V30 5811 C 535.73 3.10201 -2.94888 0
M  V30 5812 C 535.056 4.50137 -2.88584 0
M  V30 5813 C 536.356 2.88283 -4.35534 0
M  V30 5814 H 538.05 1.41354 -2.6393 0
M  V30 5815 H 535.596 0.678591 -1.27008 0
M  V30 5816 H 537.549 3.74536 -1.93133 0
M  V30 5817 H 536.273 3.15699 -0.836772 0
M  V30 5818 H 534.932 2.35244 -2.81169 0
M  V30 5819 H 534.58 4.65593 -1.90349 0
M  V30 5820 H 534.28 4.59808 -3.65856 0
M  V30 5821 H 535.804 5.29558 -3.03976 0
M  V30 5822 H 537.218 3.55427 -4.49827 0
M  V30 5823 H 535.615 3.09408 -5.14186 0
M  V30 5824 H 536.685 1.84219 -4.48544 0
M  V30 5825 N 538.028 1.39524 0.732853 0
M  V30 5826 C 538.976 1.38563 1.86824 0
M  V30 5827 C 539.97 0.268467 1.67259 0
M  V30 5828 O 541.176 0.438613 1.74574 0
M  V30 5829 H 537.551 0.432737 0.615014 0
M  V30 5830 H 539.522 2.34328 1.84751 0
M  V30 5831 C 538.271 1.2481 3.24527 0
M  V30 5832 H 537.594 2.10044 3.40179 0
M  V30 5833 H 539.034 1.28194 4.04156 0
M  V30 5834 C 537.493 -0.0432825 3.36872 0
M  V30 5835 O 538.023 -1.01268 3.88726 0
M  V30 5836 N 536.229 -0.107055 2.90403 0
M  V30 5837 H 535.776 0.682512 2.48394 0
M  V30 5838 H 535.734 -0.970618 2.99042 0
M  V30 5839 N 539.506 -0.963266 1.24736 0
M  V30 5840 C 540.783 -1.68248 0.9976 0
M  V30 5841 C 541.163 -2.05599 -0.478776 0
M  V30 5842 O 540.511 -1.7626 -1.45412 0
M  V30 5843 C 540.721 -2.91118 1.92487 0
M  V30 5844 C 542.069 -3.63261 2.19833 0
M  V30 5845 O 543.093 -3.01184 1.90176 0
M  V30 5846 O 541.952 -4.75019 2.7022 0
M  V30 5847 H 539.046 -0.735744 0.377637 0
M  V30 5848 H 541.592 -1.01696 1.35853 0
M  V30 5849 H 540.364 -2.60242 2.92215 0
M  V30 5850 H 539.987 -3.65402 1.56738 0
M  V30 5851 N 540.985 -1.06182 -1.16461 0
M  V30 5852 C 542.21 -0.798599 -1.91408 0
M  V30 5853 C 542.635 0.640987 -1.76842 0
M  V30 5854 O 541.993 1.44652 -1.09296 0
M  V30 5855 C 542.041 -1.19665 -3.40165 0
M  V30 5856 O 541.145 -0.334768 -4.11039 0
M  V30 5857 H 540.486 -0.291961 -0.596368 0
M  V30 5858 H 543.016 -1.41732 -1.47557 0
M  V30 5859 H 543.026 -1.16772 -3.90933 0
M  V30 5860 H 541.701 -2.24526 -3.50087 0
M  V30 5861 H 540.278 -0.425168 -3.70468 0
M  V30 5862 N 542.463 1.3308 -0.844243 0
M  V30 5863 C 543.712 1.96868 -0.438833 0
M  V30 5864 C 544.025 1.67599 1.00846 0
M  V30 5865 O 545.231 2.25043 1.51881 0
M  V30 5866 C 543.687 3.5234 -0.73377 0
M  V30 5867 C 543.295 3.90481 -2.1961 0
M  V30 5868 C 545.039 4.22653 -0.395574 0
M  V30 5869 C 542.946 5.38954 -2.43481 0
M  V30 5870 H 541.876 0.736749 -0.160364 0
M  V30 5871 H 544.527 1.51623 -1.03358 0
M  V30 5872 H 542.909 3.95941 -0.068589 0
M  V30 5873 H 544.083 3.57922 -2.90221 0
M  V30 5874 H 542.398 3.33165 -2.4978 0
M  V30 5875 H 544.995 5.31848 -0.551477 0
M  V30 5876 H 545.338 4.11004 0.661921 0
M  V30 5877 H 545.871 3.84601 -1.01621 0
M  V30 5878 H 542.61 5.55612 -3.47816 0
M  V30 5879 H 542.13 5.72954 -1.77437 0
M  V30 5880 H 543.809 6.05907 -2.26905 0
M  V30 5881 N 543.941 0.601185 1.45683 0
M  V30 5882 C 545.171 0.0999093 2.06358 0
M  V30 5883 C 545.579 -1.21831 1.44754 0
M  V30 5884 O 544.922 -1.75157 0.553695 0
M  V30 5885 C 544.984 -0.12085 3.59297 0
M  V30 5886 C 544.648 1.11459 4.432 0
M  V30 5887 C 545.645 2.03118 4.7858 0
M  V30 5888 C 543.33 1.34162 4.84051 0
M  V30 5889 C 545.324 3.15814 5.53661 0
M  V30 5890 C 543.011 2.4716 5.58888 0
M  V30 5891 C 544.009 3.37814 5.93608 0
M  V30 5892 O 543.697 4.48846 6.66928 0
M  V30 5893 H 543.429 0.0630316 0.673055 0
M  V30 5894 H 545.983 0.826982 1.88016 0
M  V30 5895 H 544.213 -0.902744 3.76015 0
M  V30 5896 H 545.902 -0.572925 4.01836 0
M  V30 5897 H 546.668 1.86801 4.47583 0
M  V30 5898 H 542.547 0.645018 4.56465 0
M  V30 5899 H 546.091 3.86596 5.8068 0
M  V30 5900 H 541.988 2.63432 5.89299 0
M  V30 5901 H 542.756 4.47446 6.85371 0
M  V30 5902 N 545.419 -1.53889 0.339982 0
M  V30 5903 C 546.367 -2.26391 -0.533822 0
M  V30 5904 C 547.361 -1.28404 -1.10493 0
M  V30 5905 O 548.567 -1.46124 -1.05108 0
M  V30 5906 H 544.942 -0.727385 -0.190828 0
M  V30 5907 H 546.913 -2.98233 0.0997484 0
M  V30 5908 C 545.662 -3.04707 -1.67479 0
M  V30 5909 H 544.985 -3.79934 -1.2446 0
M  V30 5910 H 546.425 -3.58657 -2.26144 0
M  V30 5911 C 544.884 -2.13989 -2.60212 0
M  V30 5912 O 545.414 -1.73361 -3.62366 0
M  V30 5913 N 543.62 -1.79141 -2.28816 0
M  V30 5914 H 543.167 -2.12378 -1.45785 0
M  V30 5915 H 543.125 -1.18725 -2.91121 0
M  V30 5916 N 546.897 -0.0685191 -1.57451 0
M  V30 5917 C 548.146 0.600898 -1.92541 0
M  V30 5918 C 548.459 1.70967 -0.950239 0
M  V30 5919 O 549.665 2.43844 -1.19384 0
M  V30 5920 C 548.121 1.12019 -3.42023 0
M  V30 5921 C 547.729 0.0426028 -4.4798 0
M  V30 5922 C 549.473 1.76386 -3.86119 0
M  V30 5923 C 547.38 0.575759 -5.88591 0
M  V30 5924 H 546.31 0.228225 -0.71863 0
M  V30 5925 H 548.961 -0.140223 -1.82963 0
M  V30 5926 H 547.343 1.91418 -3.46663 0
M  V30 5927 H 548.517 -0.73182 -4.54952 0
M  V30 5928 H 546.832 -0.504642 -4.13331 0
M  V30 5929 H 549.429 2.17302 -4.88553 0
M  V30 5930 H 549.772 2.62255 -3.23308 0
M  V30 5931 H 550.305 1.03615 -3.84069 0
M  V30 5932 H 547.044 -0.245691 -6.55039 0
M  V30 5933 H 546.564 1.31778 -5.85145 0
M  V30 5934 H 548.243 1.0532 -6.3837 0
M  V30 5935 N 548.375 1.56261 0.205012 0
M  V30 5936 C 549.6 1.84491 0.947512 0
M  V30 5937 C 550.025 0.650894 1.76479 0
M  V30 5938 O 549.383 -0.40035 1.76824 0
M  V30 5939 C 549.431 3.10863 1.82747 0
M  V30 5940 O 548.535 2.90719 2.925 0
M  V30 5941 H 547.876 0.607783 0.267386 0
M  V30 5942 H 550.406 2.03485 0.213323 0
M  V30 5943 H 550.416 3.41399 2.23407 0
M  V30 5944 H 549.091 3.97392 1.2269 0
M  V30 5945 H 547.668 2.71457 2.55667 0
M  V30 5946 N 549.853 -0.472356 1.50355 0
M  V30 5947 C 550.763 -1.59637 1.7191 0
M  V30 5948 C 551.779 -1.63247 0.602195 0
M  V30 5949 O 552.955 -1.81139 0.880369 0
M  V30 5950 C 550.02 -2.9586 1.80742 0
M  V30 5951 C 549.081 -3.02649 3.04471 0
M  V30 5952 C 548.314 -4.32374 3.12872 0
M  V30 5953 O 548.537 -5.22807 2.28099 0
M  V30 5954 O 547.471 -4.44728 4.05587 0
M  V30 5955 H 551.297 -1.44373 2.67189 0
M  V30 5956 H 548.882 -0.651717 1.34436 0
M  V30 5957 H 550.764 -3.7677 1.88739 0
M  V30 5958 H 549.439 -3.11325 0.88647 0
M  V30 5959 H 548.346 -2.20821 3.01975 0
M  V30 5960 H 549.679 -2.92119 3.9614 0
M  V30 5961 N 551.331 -1.39911 -0.725443 0
M  V30 5962 C 552.579 -1.37382 -1.48224 0
M  V30 5963 C 552.9 0.0264107 -1.94982 0
M  V30 5964 O 552.17 0.979408 -1.6966 0
M  V30 5965 H 550.75 -0.505596 -0.549892 0
M  V30 5966 H 553.412 -1.7487 -0.860608 0
M  V30 5967 H 552.508 -2.04254 -2.3598 0
M  V30 5968 N 552.809 0.956637 -1.25245 0
M  V30 5969 C 554.039 1.7332 -1.12445 0
M  V30 5970 C 554.447 1.86392 0.324732 0
M  V30 5971 O 553.79 1.35967 1.23526 0
M  V30 5972 C 553.852 3.16603 -1.70303 0
M  V30 5973 C 553.516 3.26966 -3.19284 0
M  V30 5974 C 554.513 3.11434 -4.16299 0
M  V30 5975 C 552.198 3.50851 -3.59456 0
M  V30 5976 C 554.192 3.1963 -5.51467 0
M  V30 5977 C 551.879 3.58684 -4.94761 0
M  V30 5978 C 552.877 3.43087 -5.90576 0
M  V30 5979 O 552.565 3.50598 -7.2342 0
M  V30 5980 H 552.297 0.549981 -0.393061 0
M  V30 5981 H 554.851 1.20892 -1.66055 0
M  V30 5982 H 553.081 3.70385 -1.11138 0
M  V30 5983 H 554.77 3.76109 -1.52632 0
M  V30 5984 H 555.536 2.92853 -3.86604 0
M  V30 5985 H 551.415 3.62053 -2.85375 0
M  V30 5986 H 554.959 3.07373 -6.26233 0
M  V30 5987 H 550.856 3.76782 -5.24124 0
M  V30 5988 H 551.624 3.67242 -7.31489 0
M  V30 5989 N 554.287 1.06798 1.15896 0
M  V30 5990 C 555.235 0.677525 2.22514 0
M  V30 5991 C 556.229 -0.308994 1.66558 0
M  V30 5992 O 557.435 -0.173308 1.79164 0
M  V30 5993 H 553.81 0.200994 0.724642 0
M  V30 5994 H 555.781 1.5865 2.52731 0
M  V30 5995 C 554.53 0.0854153 3.47595 0
M  V30 5996 H 553.853 0.835645 3.90969 0
M  V30 5997 H 555.293 -0.150199 4.23734 0
M  V30 5998 C 553.752 -1.1724 3.15843 0
M  V30 5999 O 554.282 -2.25965 3.32119 0
M  V30 6000 N 552.488 -1.07636 2.69931 0
M  V30 6001 H 552.035 -0.191559 2.56887 0
M  V30 6002 H 551.993 -1.91876 2.4906 0
M  V30 6003 N 555.766 -1.3263 0.851289 0
M  V30 6004 C 557.015 -1.96633 0.449267 0
M  V30 6005 C 557.328 -1.68131 -0.999562 0
M  V30 6006 O 558.534 -2.25845 -1.50685 0
M  V30 6007 C 556.99 -3.51946 0.752446 0
M  V30 6008 C 556.598 -3.89311 2.21678 0
M  V30 6009 C 558.342 -4.22437 0.417983 0
M  V30 6010 C 556.249 -5.37655 2.46336 0
M  V30 6011 H 555.179 -0.735888 0.164269 0
M  V30 6012 H 557.83 -1.51073 1.0416 0
M  V30 6013 H 556.212 -3.95899 0.0895858 0
M  V30 6014 H 557.386 -3.56378 2.92115 0
M  V30 6015 H 555.701 -3.31836 2.51543 0
M  V30 6016 H 558.298 -5.31549 0.579674 0
M  V30 6017 H 558.641 -4.11349 -0.640115 0
M  V30 6018 H 559.174 -3.84057 1.03659 0
M  V30 6019 H 555.913 -5.5376 3.50757 0
M  V30 6020 H 555.433 -5.72005 1.80473 0
M  V30 6021 H 557.112 -6.04695 2.30115 0
M  V30 6022 N 557.244 -0.608902 -1.45362 0
M  V30 6023 C 558.192 0.121639 -2.32282 0
M  V30 6024 C 559.186 0.858301 -1.46046 0
M  V30 6025 O 560.392 0.773718 -1.62523 0
M  V30 6026 H 556.767 0.058086 -0.749753 0
M  V30 6027 H 558.738 -0.629866 -2.91677 0
M  V30 6028 C 557.487 1.1047 -3.29684 0
M  V30 6029 H 556.81 0.547278 -3.96036 0
M  V30 6030 H 558.25 1.58576 -3.9323 0
M  V30 6031 C 556.709 2.17891 -2.56954 0
M  V30 6032 O 557.239 3.25652 -2.35189 0
M  V30 6033 N 555.445 1.93211 -2.17066 0
M  V30 6034 H 554.992 1.05584 -2.34967 0
M  V30 6035 H 554.95 2.6529 -1.68727 0
M  V30 6036 N 558.722 1.53707 -0.348139 0
M  V30 6037 C 559.67 2.26671 0.521808 0
M  V30 6038 C 560.664 1.28988 1.09811 0
M  V30 6039 O 561.87 1.4668 1.04332 0
M  V30 6040 H 558.245 0.728387 0.186968 0
M  V30 6041 H 560.216 2.98176 -0.115563 0
M  V30 6042 C 558.965 3.05591 1.6586 0
M  V30 6043 H 558.288 3.80589 1.22443 0
M  V30 6044 H 559.728 3.59851 2.24239 0
M  V30 6045 C 558.187 2.15366 2.59073 0
M  V30 6046 O 558.717 1.7528 3.61441 0
M  V30 6047 N 556.923 1.80352 2.27863 0
M  V30 6048 H 556.47 2.13149 1.44656 0
M  V30 6049 H 556.428 1.20268 2.90488 0
M  V30 6050 N 560.2 0.0768682 1.57412 0
M  V30 6051 C 561.13 -0.886026 2.16037 0
M  V30 6052 C 562.111 -1.30691 1.08876 0
M  V30 6053 O 563.296 -1.37705 1.36934 0
M  V30 6054 C 560.426 -2.1518 2.72608 0
M  V30 6055 C 559.38 -1.87015 3.8498 0
M  V30 6056 C 558.706 -3.20266 4.28175 0
M  V30 6057 C 560.006 -1.17143 5.08994 0
M  V30 6058 H 561.7 -0.397642 2.96748 0
M  V30 6059 H 559.246 -0.189823 1.42743 0
M  V30 6060 H 561.199 -2.82962 3.12266 0
M  V30 6061 H 559.923 -2.66269 1.89125 0
M  V30 6062 H 558.582 -1.21636 3.45833 0
M  V30 6063 H 558.23 -3.69207 3.41607 0
M  V30 6064 H 557.93 -3.0221 5.03927 0
M  V30 6065 H 559.454 -3.89237 4.70454 0
M  V30 6066 H 560.868 -1.75003 5.45937 0
M  V30 6067 H 559.265 -1.09328 5.90057 0
M  V30 6068 H 560.335 -0.151295 4.84664 0
M  V30 6069 N 561.678 -1.56367 -0.196722 0
M  V30 6070 C 562.625 -1.94417 -1.24382 0
M  V30 6071 C 563.595 -0.804543 -1.45315 0
M  V30 6072 O 564.78 -1.06256 -1.58475 0
M  V30 6073 C 561.92 -2.28757 -2.58388 0
M  V30 6074 C 561.033 -3.55775 -2.45047 0
M  V30 6075 C 560.168 -3.79445 -3.71746 0
M  V30 6076 C 559.207 -4.99894 -3.53231 0
M  V30 6077 N 558.344 -5.19826 -4.71938 0
M  V30 6078 H 563.184 -2.83691 -0.912338 0
M  V30 6079 H 560.721 -1.40392 -0.439135 0
M  V30 6080 H 562.679 -2.46682 -3.36457 0
M  V30 6081 H 561.309 -1.42625 -2.89582 0
M  V30 6082 H 560.361 -3.45905 -1.58284 0
M  V30 6083 H 561.673 -4.44 -2.27299 0
M  V30 6084 H 560.827 -3.97601 -4.58256 0
M  V30 6085 H 559.566 -2.89546 -3.92446 0
M  V30 6086 H 558.571 -4.81662 -2.65107 0
M  V30 6087 H 559.796 -5.913 -3.33978 0
M  V30 6088 H 557.742 -4.32875 -4.92905 0
M  V30 6089 H 557.659 -6.02228 -4.57009 0
M  V30 6090 H 558.927 -5.42439 -5.59803 0
M  V30 6091 N 563.156 0.464375 -1.50603 0
M  V30 6092 C 564.402 1.21776 -1.62168 0
M  V30 6093 C 564.735 1.91476 -0.324154 0
M  V30 6094 O 564.01 1.8242 0.674782 0
M  V30 6095 C 564.293 2.25614 -2.80661 0
M  V30 6096 C 564.146 1.60175 -4.20314 0
M  V30 6097 C 565.465 3.26862 -2.94702 0
M  V30 6098 H 562.584 0.44137 -0.590222 0
M  V30 6099 H 565.226 0.510623 -1.8301 0
M  V30 6100 H 563.376 2.85923 -2.63021 0
M  V30 6101 H 565.048 1.03411 -4.4956 0
M  V30 6102 H 563.291 0.904697 -4.24261 0
M  V30 6103 H 563.962 2.35665 -4.99165 0
M  V30 6104 H 566.438 2.76582 -3.10872 0
M  V30 6105 H 565.314 3.96839 -3.79223 0
M  V30 6106 H 565.575 3.91382 -2.05603 0
M  V30 6107 N 564.634 1.40294 0.718013 0
M  V30 6108 C 565.582 1.40536 1.85344 0
M  V30 6109 C 566.576 0.286192 1.66965 0
M  V30 6110 O 567.782 0.457105 1.74099 0
M  V30 6111 H 564.157 0.439236 0.61039 0
M  V30 6112 H 566.128 2.36275 1.82255 0
M  V30 6113 C 564.877 1.28245 3.23185 0
M  V30 6114 H 564.2 2.1364 3.37932 0
M  V30 6115 H 565.64 1.32474 4.02774 0
M  V30 6116 C 564.099 -0.0075503 3.36899 0
M  V30 6117 O 564.629 -0.971391 3.89778 0
M  V30 6118 N 562.835 -0.0762479 2.905 0
M  V30 6119 H 562.382 0.708819 2.47656 0
M  V30 6120 H 562.34 -0.938846 3.00055 0
M  V30 6121 N 566.112 -0.949982 1.2575 0
M  V30 6122 C 567.359 -1.69515 1.10774 0
M  V30 6123 C 567.687 -1.91316 -0.350479 0
M  V30 6124 O 566.942 -1.48515 -1.27443 0
M  V30 6125 C 567.241 -3.08039 1.81237 0
M  V30 6126 C 566.907 -3.06023 3.31151 0
M  V30 6127 C 565.569 -3.0518 3.72047 0
M  V30 6128 C 567.921 -2.98998 4.26907 0
M  V30 6129 C 565.249 -2.95067 5.07102 0
M  V30 6130 C 567.601 -2.90426 5.61992 0
M  V30 6131 C 566.265 -2.87922 6.0221 0
M  V30 6132 H 565.535 -0.6203 0.405351 0
M  V30 6133 H 568.182 -1.10953 1.56082 0
M  V30 6134 H 566.487 -3.70172 1.28373 0
M  V30 6135 H 568.184 -3.64526 1.67098 0
M  V30 6136 H 564.774 -3.07453 2.98614 0
M  V30 6137 H 568.958 -2.98764 3.963 0
M  V30 6138 H 564.214 -2.915 5.37436 0
M  V30 6139 H 568.388 -2.83952 6.35881 0
M  V30 6140 H 566.015 -2.79841 7.06819 0
M  V30 6141 N 567.59 -1.07411 -1.15328 0
M  V30 6142 C 569.006 -0.799759 -1.38116 0
M  V30 6143 C 569.206 0.59572 -1.92493 0
M  V30 6144 O 568.262 1.35433 -2.13106 0
M  V30 6145 C 569.575 -1.87407 -2.35158 0
M  V30 6146 C 571.123 -1.89889 -2.48819 0
M  V30 6147 C 571.598 -2.96406 -3.49153 0
M  V30 6148 N 573.089 -2.95512 -3.56689 0
M  V30 6149 C 573.824 -3.74575 -4.34144 0
M  V30 6150 N 573.32 -4.63488 -5.14928 0
M  V30 6151 N 575.113 -3.62919 -4.29239 0
M  V30 6152 H 567.264 -1.97411 -0.78374 0
M  V30 6153 H 569.527 -0.856113 -0.407154 0
M  V30 6154 H 569.233 -2.8768 -2.0232 0
M  V30 6155 H 569.107 -1.73471 -3.34944 0
M  V30 6156 H 571.494 -0.902677 -2.80955 0
M  V30 6157 H 571.575 -2.07904 -1.49029 0
M  V30 6158 H 571.219 -3.96227 -3.17752 0
M  V30 6159 H 571.149 -2.75638 -4.48699 0
M  V30 6160 H 573.64 -2.31061 -2.99031 0
M  V30 6161 H 573.953 -5.20445 -5.71276 0
M  V30 6162 H 572.298 -4.67537 -5.14232 0
M  V30 6163 H 575.489 -2.92833 -3.65194 0
M  V30 6164 H 575.662 -4.24777 -4.89355 0
M  V30 6165 N 569.068 1.32177 -0.85831 0
M  V30 6166 C 570.316 1.96735 -0.462568 0
M  V30 6167 C 570.637 1.6824 0.985911 0
M  V30 6168 O 569.907 0.991564 1.68952 0
M  V30 6169 H 568.487 0.727849 -0.168064 0
M  V30 6170 H 571.149 1.61195 -1.09554 0
M  V30 6171 H 570.245 3.06068 -0.610647 0
M  V30 6172 N 570.547 0.616602 1.45037 0
M  V30 6173 C 571.479 -0.135186 2.28801 0
M  V30 6174 C 572.492 -0.82303 1.40464 0
M  V30 6175 O 573.681 -0.686909 1.64754 0
M  V30 6176 C 570.781 -1.21292 3.16451 0
M  V30 6177 C 569.954 -0.61043 4.3312 0
M  V30 6178 C 569.013 -1.58022 5.01912 0
M  V30 6179 O 568.039 -1.10301 5.58411 0
M  V30 6180 N 569.241 -2.91464 5.02025 0
M  V30 6181 H 572.006 0.583612 2.93963 0
M  V30 6182 H 569.567 0.456723 1.55324 0
M  V30 6183 H 571.559 -1.86169 3.59337 0
M  V30 6184 H 570.129 -1.83412 2.53138 0
M  V30 6185 H 569.349 0.216638 3.93604 0
M  V30 6186 H 570.637 -0.188293 5.08451 0
M  V30 6187 H 570.035 -3.32829 4.57429 0
M  V30 6188 H 568.592 -3.51741 5.48745 0
M  V30 6189 N 572.025 -1.5352 0.356285 0
M  V30 6190 C 572.973 -2.26945 -0.50978 0
M  V30 6191 C 573.967 -1.29569 -1.09125 0
M  V30 6192 O 575.173 -1.47231 -1.03552 0
M  V30 6193 H 571.548 -0.729368 -0.183102 0
M  V30 6194 H 573.519 -2.98111 0.131374 0
M  V30 6195 C 572.268 -3.06466 -1.64237 0
M  V30 6196 H 571.591 -3.81233 -1.20423 0
M  V30 6197 H 573.031 -3.61035 -2.22327 0
M  V30 6198 C 571.49 -2.16737 -2.57928 0
M  V30 6199 O 572.02 -1.77195 -3.60507 0
M  V30 6200 N 570.226 -1.81558 -2.26903 0
M  V30 6201 H 569.773 -2.13913 -1.43524 0
M  V30 6202 H 569.731 -1.21806 -2.89846 0
M  V30 6203 N 573.503 -0.0852151 -1.57369 0
M  V30 6204 C 574.466 0.8627 -2.12344 0
M  V30 6205 C 575.466 1.21746 -1.05046 0
M  V30 6206 O 576.656 1.14852 -1.30976 0
M  V30 6207 C 573.788 2.1618 -2.63589 0
M  V30 6208 H 574.981 0.385511 -2.97412 0
M  V30 6209 H 572.534 0.163663 -1.55441 0
M  V30 6210 H 573.269 2.68406 -1.82013 0
M  V30 6211 H 573.054 1.91723 -3.4203 0
M  V30 6212 H 574.544 2.84011 -3.06149 0
M  V30 6213 N 574.981 1.5647 0.188427 0
M  V30 6214 C 575.929 1.95971 1.25293 0
M  V30 6215 C 576.923 0.846047 1.4676 0
M  V30 6216 O 578.129 1.03109 1.47542 0
M  V30 6217 H 574.504 0.623253 0.420784 0
M  V30 6218 H 576.475 2.84731 0.892792 0
M  V30 6219 C 575.224 2.32116 2.58877 0
M  V30 6220 H 574.547 3.17341 2.43176 0
M  V30 6221 H 575.987 2.63613 3.3209 0
M  V30 6222 C 574.446 1.15823 3.16365 0
M  V30 6223 O 574.976 0.436785 3.99318 0
M  V30 6224 N 573.182 0.933278 2.75206 0
M  V30 6225 H 572.729 1.52169 2.07852 0
M  V30 6226 H 572.687 0.156976 3.14008 0
M  V30 6227 N 576.459 -0.456382 1.50847 0
M  V30 6228 C 577.389 -1.56025 1.73719 0
M  V30 6229 C 578.37 -1.5967 0.586473 0
M  V30 6230 O 579.555 -1.75702 0.827185 0
M  V30 6231 C 576.685 -2.94251 1.84483 0
M  V30 6232 C 575.639 -3.05471 2.99786 0
M  V30 6233 C 574.965 -4.45489 2.95709 0
M  V30 6234 C 576.265 -2.81318 4.40065 0
M  V30 6235 H 577.959 -1.37138 2.66146 0
M  V30 6236 H 575.505 -0.658299 1.28072 0
M  V30 6237 H 577.458 -3.71417 1.99067 0
M  V30 6238 H 576.182 -3.14328 0.886891 0
M  V30 6239 H 574.841 -2.30741 2.84876 0
M  V30 6240 H 574.489 -4.62505 1.97732 0
M  V30 6241 H 574.189 -4.53929 3.73125 0
M  V30 6242 H 575.713 -5.24655 3.12362 0
M  V30 6243 H 577.127 -3.48226 4.55425 0
M  V30 6244 H 575.524 -3.01188 5.19043 0
M  V30 6245 H 576.594 -1.7706 4.51418 0
M  V30 6246 N 577.937 -1.40673 -0.710563 0
M  V30 6247 C 578.885 -1.41517 -1.84596 0
M  V30 6248 C 579.879 -0.295043 -1.66811 0
M  V30 6249 O 581.085 -0.466331 -1.73854 0
M  V30 6250 H 577.46 -0.442467 -0.608052 0
M  V30 6251 H 579.431 -2.37238 -1.80999 0
M  V30 6252 C 578.18 -1.29957 -3.225 0
M  V30 6253 H 577.503 -2.15429 -3.36794 0
M  V30 6254 H 578.943 -1.34608 -4.02066 0
M  V30 6255 C 577.402 -0.0103164 -3.36898 0
M  V30 6256 O 577.932 0.950707 -3.90288 0
M  V30 6257 N 576.138 0.0608409 -2.90536 0
M  V30 6258 H 575.685 -0.721943 -2.47277 0
M  V30 6259 H 575.643 0.92292 -3.00549 0
M  V30 6260 N 579.415 0.9433 -1.26252 0
M  V30 6261 C 580.826 1.50404 -1.10614 0
M  V30 6262 C 581.177 1.93666 0.31429 0
M  V30 6263 O 580.302 1.79709 1.20555 0
M  V30 6264 C 580.897 2.73336 -2.00182 0
M  V30 6265 C 579.456 3.25686 -1.88695 0
M  V30 6266 C 578.603 1.98474 -1.93658 0
M  V30 6267 H 581.554 0.759006 -1.39373 0
M  V30 6268 H 581.575 3.47567 -1.54847 0
M  V30 6269 H 581.087 2.41818 -3.03555 0
M  V30 6270 H 579.188 3.61998 -0.882489 0
M  V30 6271 H 579.301 3.92935 -2.74115 0
M  V30 6272 H 577.665 2.14278 -1.37684 0
M  V30 6273 H 578.448 1.6929 -2.98657 0
M  V30 6274 N 580.893 1.08022 1.14757 0
M  V30 6275 C 582.309 0.807072 1.3769 0
M  V30 6276 C 582.509 -0.585504 1.92806 0
M  V30 6277 O 581.565 -1.34301 2.13821 0
M  V30 6278 C 582.878 1.88651 2.34161 0
M  V30 6279 C 584.426 1.91206 2.47809 0
M  V30 6280 C 584.901 2.98253 3.47576 0
M  V30 6281 N 586.392 2.974 3.55117 0
M  V30 6282 C 587.127 3.76872 4.32152 0
M  V30 6283 N 586.623 4.66212 5.12463 0
M  V30 6284 N 588.416 3.6519 4.27309 0
M  V30 6285 H 580.567 1.97824 0.77326 0
M  V30 6286 H 582.83 0.85826 0.402608 0
M  V30 6287 H 582.536 2.88749 2.00791 0
M  V30 6288 H 582.41 1.75244 3.3402 0
M  V30 6289 H 584.797 0.917564 2.80472 0
M  V30 6290 H 584.878 2.08691 1.47925 0
M  V30 6291 H 584.522 3.97907 3.15646 0
M  V30 6292 H 584.452 2.78014 4.47231 0
M  V30 6293 H 586.943 2.32643 2.97801 0
M  V30 6294 H 587.256 5.23468 5.68508 0
M  V30 6295 H 585.601 4.70257 5.11745 0
M  V30 6296 H 588.792 2.94765 3.63636 0
M  V30 6297 H 588.965 4.27366 4.87095 0
M  V30 6298 N 582.371 -1.3172 0.865308 0
M  V30 6299 C 583.62 -1.96145 0.470098 0
M  V30 6300 C 583.933 -1.69182 -0.981674 0
M  V30 6301 O 585.139 -2.27431 -1.48281 0
M  V30 6302 C 583.595 -3.51129 0.789732 0
M  V30 6303 C 583.203 -3.86938 2.25795 0
M  V30 6304 C 584.947 -4.2197 0.462765 0
M  V30 6305 C 582.854 -5.35012 2.52024 0
M  V30 6306 H 581.784 -0.734105 0.172065 0
M  V30 6307 H 584.435 -1.49959 1.05757 0
M  V30 6308 H 582.817 -3.95781 0.131571 0
M  V30 6309 H 583.991 -3.5326 2.95879 0
M  V30 6310 H 582.306 -3.29149 2.55049 0
M  V30 6311 H 584.903 -5.30904 0.636019 0
M  V30 6312 H 585.246 -4.12005 -0.59645 0
M  V30 6313 H 585.779 -3.82936 1.07727 0
M  V30 6314 H 582.518 -5.50008 3.56611 0
M  V30 6315 H 582.038 -5.70058 1.8653 0
M  V30 6316 H 583.717 -6.0222 2.36515 0
M  V30 6317 N 583.85 -0.624285 -1.44708 0
M  V30 6318 C 585.099 -0.123539 -2.01321 0
M  V30 6319 C 585.412 1.25966 -1.49639 0
M  V30 6320 O 586.618 1.85405 -1.98336 0
M  V30 6321 C 585.074 -0.170124 -3.59498 0
M  V30 6322 C 584.682 -1.55421 -4.20176 0
M  V30 6323 C 586.426 0.274513 -4.23611 0
M  V30 6324 C 584.332 -1.55628 -5.70556 0
M  V30 6325 H 583.263 -0.0424183 -0.752806 0
M  V30 6326 H 585.913 -0.782076 -1.65999 0
M  V30 6327 H 584.296 0.555385 -3.92086 0
M  V30 6328 H 585.47 -2.30276 -3.99136 0
M  V30 6329 H 583.784 -1.94235 -3.68323 0
M  V30 6330 H 586.382 0.292402 -5.339 0
M  V30 6331 H 586.725 1.3005 -3.95465 0
M  V30 6332 H 587.258 -0.398275 -3.95801 0
M  V30 6333 H 583.997 -2.56041 -6.03426 0
M  V30 6334 H 583.517 -0.850563 -5.93739 0
M  V30 6335 H 585.196 -1.28721 -6.34066 0
M  V30 6336 N 585.328 1.53329 -0.364422 0
M  V30 6337 C 586.556 2.05657 0.226424 0
M  V30 6338 C 586.971 1.23801 1.42544 0
M  V30 6339 O 586.328 0.27839 1.80364 0
M  V30 6340 C 586.379 3.56125 0.621056 0
M  V30 6341 O 586.1 4.34879 -0.530304 0
M  V30 6342 C 587.601 4.24706 1.27041 0
M  V30 6343 H 584.821 0.669806 0.0400056 0
M  V30 6344 H 587.365 1.97714 -0.522456 0
M  V30 6345 H 585.52 3.64223 1.31985 0
M  V30 6346 H 585.934 5.24073 -0.211546 0
M  V30 6347 H 587.408 5.3131 1.49711 0
M  V30 6348 H 587.885 3.78354 2.23036 0
M  V30 6349 H 588.491 4.20858 0.613079 0
M  V30 6350 N 586.806 0.0935595 1.57322 0
M  V30 6351 C 588.217 -0.435807 1.81542 0
M  V30 6352 C 588.568 -1.68263 1.00907 0
M  V30 6353 O 587.693 -2.15087 0.237983 0
M  V30 6354 C 588.288 -0.797436 3.29282 0
M  V30 6355 C 586.847 -1.27155 3.54272 0
M  V30 6356 C 585.994 -0.267455 2.76007 0
M  V30 6357 H 588.945 0.31902 1.5546 0
M  V30 6358 H 588.966 -1.6571 3.42521 0
M  V30 6359 H 588.478 0.110206 3.87943 0
M  V30 6360 H 586.579 -2.19696 3.00939 0
M  V30 6361 H 586.692 -1.23445 4.62923 0
M  V30 6362 H 585.056 -0.749282 2.43429 0
M  V30 6363 H 585.839 0.632839 3.37417 0
M  V30 6364 N 588.284 -1.56567 -0.180126 0
M  V30 6365 C 589.533 -1.80685 -0.896426 0
M  V30 6366 C 589.846 -0.669335 -1.83791 0
M  V30 6367 O 591.052 -0.795209 -2.59593 0
M  V30 6368 C 589.508 -3.20132 -1.6445 0
M  V30 6369 C 589.116 -4.41727 -0.747088 0
M  V30 6370 C 590.86 -3.53549 -2.34955 0
M  V30 6371 C 588.767 -5.72195 -1.49489 0
M  V30 6372 H 587.697 -0.673758 -0.338477 0
M  V30 6373 H 590.348 -1.8289 -0.149467 0
M  V30 6374 H 588.73 -3.12218 -2.43589 0
M  V30 6375 H 589.904 -4.608 0.00671129 0
M  V30 6376 H 588.219 -4.16122 -0.152134 0
M  V30 6377 H 590.816 -4.48267 -2.91481 0
M  V30 6378 H 591.159 -2.78006 -3.09868 0
M  V30 6379 H 591.692 -3.62976 -1.62768 0
M  V30 6380 H 588.431 -6.50743 -0.788251 0
M  V30 6381 H 587.951 -5.57115 -2.22224 0
M  V30 6382 H 589.63 -6.1384 -2.04472 0
M  V30 6383 N 589.762 0.448376 -1.51087 0
M  V30 6384 C 590.99 1.22143 -1.66999 0
M  V30 6385 C 591.405 1.85283 -0.362699 0
M  V30 6386 O 590.762 1.70236 0.65772 0
M  V30 6387 C 590.813 2.31357 -2.7777 0
M  V30 6388 O 590.534 1.70801 -4.03434 0
M  V30 6389 C 592.035 3.21836 -3.04855 0
M  V30 6390 H 589.255 0.368558 -0.560719 0
M  V30 6391 H 591.799 0.532618 -1.97442 0
M  V30 6392 H 589.954 2.95973 -2.49958 0
M  V30 6393 H 590.368 2.42895 -4.64868 0
M  V30 6394 H 591.842 3.94627 -3.85971 0
M  V30 6395 H 592.319 3.81949 -2.16821 0
M  V30 6396 H 592.925 2.62933 -3.34285 0
M  V30 6397 N 591.24 1.41047 0.703093 0
M  V30 6398 C 592.488 1.39723 1.4602 0
M  V30 6399 C 592.809 0.00461257 1.94999 0
M  V30 6400 O 592.079 -0.952292 1.71196 0
M  V30 6401 H 590.659 0.514281 0.541779 0
M  V30 6402 H 593.321 1.76217 0.832678 0
M  V30 6403 H 592.417 2.07982 2.32701 0
M  V30 6404 N 592.718 -0.936591 1.26751 0
M  V30 6405 C 594.134 -1.21095 1.03963 0
M  V30 6406 C 594.334 -2.00156 -0.232372 0
M  V30 6407 O 593.39 -2.3434 -0.940274 0
M  V30 6408 C 594.703 -1.96775 2.27377 0
M  V30 6409 C 596.251 -2.09749 2.32324 0
M  V30 6410 C 596.726 -2.88832 3.55443 0
M  V30 6411 N 598.217 -2.96404 3.55948 0
M  V30 6412 C 598.952 -3.58036 4.47881 0
M  V30 6413 N 598.448 -4.21132 5.50109 0
M  V30 6414 N 600.241 -3.55353 4.35523 0
M  V30 6415 H 592.392 -0.408173 2.08441 0
M  V30 6416 H 594.655 -0.243139 0.91629 0
M  V30 6417 H 594.361 -1.46094 3.19921 0
M  V30 6418 H 594.235 -2.97424 2.31989 0
M  V30 6419 H 596.622 -2.5962 1.40291 0
M  V30 6420 H 596.703 -1.08347 2.31721 0
M  V30 6421 H 596.347 -2.39647 4.47808 0
M  V30 6422 H 596.277 -3.90499 3.53296 0
M  V30 6423 H 598.768 -2.51552 2.82011 0
M  V30 6424 H 599.081 -4.66071 6.16439 0
M  V30 6425 H 597.426 -4.19705 5.53961 0
M  V30 6426 H 600.617 -3.05256 3.54875 0
M  V30 6427 H 600.79 -4.03097 5.07363 0
M  V30 6428 N 594.196 -1.08629 -1.14182 0
M  V30 6429 C 595.444 -0.815731 -1.84906 0
M  V30 6430 C 595.765 0.660441 -1.83475 0
M  V30 6431 O 595.035 1.47888 -1.28476 0
M  V30 6432 H 593.615 -0.298773 -0.684648 0
M  V30 6433 H 596.277 -1.37274 -1.38354 0
M  V30 6434 H 595.373 -1.16193 -2.89665 0
M  V30 6435 N 595.674 1.31259 -0.872281 0
M  V30 6436 C 596.604 2.30929 -0.345554 0
M  V30 6437 C 597.585 1.60449 0.5648 0
M  V30 6438 O 598.77 1.8814 0.481335 0
M  V30 6439 C 595.9 3.44348 0.451823 0
M  V30 6440 C 594.854 4.26435 -0.365641 0
M  V30 6441 C 594.18 5.31785 0.557562 0
M  V30 6442 C 595.48 4.97159 -1.60095 0
M  V30 6443 H 597.174 2.75234 -1.17841 0
M  V30 6444 H 594.72 1.3232 -0.568094 0
M  V30 6445 H 596.673 4.13128 0.830854 0
M  V30 6446 H 595.397 2.98816 1.31821 0
M  V30 6447 H 594.056 3.59326 -0.726649 0
M  V30 6448 H 593.704 4.82502 1.4213 0
M  V30 6449 H 593.404 5.87598 0.0144878 0
M  V30 6450 H 594.928 6.03424 0.933387 0
M  V30 6451 H 596.342 5.58523 -1.29323 0
M  V30 6452 H 594.739 5.62779 -2.08327 0
M  V30 6453 H 595.809 4.24012 -2.35249 0
M  V30 6454 N 597.152 0.631951 1.44375 0
M  V30 6455 C 598.398 0.13697 2.02337 0
M  V30 6456 C 598.731 -1.23826 1.49602 0
M  V30 6457 O 598.006 -1.8221 0.680415 0
M  V30 6458 C 598.289 0.124536 3.59885 0
M  V30 6459 C 598.142 1.53217 4.229 0
M  V30 6460 C 599.461 -0.550481 4.36644 0
M  V30 6461 H 596.58 0.051247 0.735216 0
M  V30 6462 H 599.222 0.808581 1.71936 0
M  V30 6463 H 597.372 -0.44737 3.85916 0
M  V30 6464 H 599.044 2.15303 4.07973 0
M  V30 6465 H 597.287 2.0858 3.80364 0
M  V30 6466 H 597.958 1.4755 5.31914 0
M  V30 6467 H 600.434 -0.0641154 4.16051 0
M  V30 6468 H 599.31 -0.528371 5.46351 0
M  V30 6469 H 599.571 -1.62097 4.11311 0
M  V30 6470 N 598.631 -1.53133 0.372548 0
M  V30 6471 C 599.578 -2.25951 -0.470631 0
M  V30 6472 C 600.548 -1.26895 -1.07176 0
M  V30 6473 O 601.733 -1.55691 -1.10294 0
M  V30 6474 C 598.873 -3.05726 -1.6008 0
M  V30 6475 C 597.986 -4.19684 -1.02416 0
M  V30 6476 C 597.121 -4.86888 -2.124 0
M  V30 6477 C 596.16 -5.92866 -1.52238 0
M  V30 6478 N 595.297 -6.53732 -2.56084 0
M  V30 6479 H 600.137 -2.97587 0.156816 0
M  V30 6480 H 597.674 -1.4683 0.0891571 0
M  V30 6481 H 599.632 -3.50258 -2.26661 0
M  V30 6482 H 598.262 -2.36331 -2.1988 0
M  V30 6483 H 597.314 -3.79588 -0.248426 0
M  V30 6484 H 598.626 -4.95821 -0.544366 0
M  V30 6485 H 597.78 -5.34638 -2.86787 0
M  V30 6486 H 596.519 -4.10239 -2.63734 0
M  V30 6487 H 595.524 -5.4447 -0.763685 0
M  V30 6488 H 596.749 -6.71439 -1.0172 0
M  V30 6489 H 594.695 -5.79932 -3.06618 0
M  V30 6490 H 594.612 -7.25429 -2.12811 0
M  V30 6491 H 595.88 -7.0613 -3.30152 0
M  V30 6492 N 600.109 -0.101901 -1.5727 0
M  V30 6493 C 601.056 0.854577 -2.14396 0
M  V30 6494 C 602.026 1.27521 -1.06432 0
M  V30 6495 O 603.211 1.35575 -1.34253 0
M  V30 6496 C 600.351 2.10576 -2.73408 0
M  V30 6497 C 599.464 1.73504 -3.95626 0
M  V30 6498 C 598.599 2.9346 -4.42781 0
M  V30 6499 C 597.638 2.52547 -5.57572 0
M  V30 6500 N 596.775 3.65359 -5.99547 0
M  V30 6501 H 601.615 0.360578 -2.9581 0
M  V30 6502 H 599.152 0.166303 -1.46157 0
M  V30 6503 H 601.11 2.83859 -3.05745 0
M  V30 6504 H 599.74 2.57463 -1.94711 0
M  V30 6505 H 598.792 0.901622 -3.6956 0
M  V30 6506 H 600.104 1.39426 -4.78917 0
M  V30 6507 H 599.258 3.74988 -4.76937 0
M  V30 6508 H 597.997 3.30753 -3.58404 0
M  V30 6509 H 597.002 1.69446 -5.23037 0
M  V30 6510 H 598.227 2.1639 -6.43702 0
M  V30 6511 H 596.173 4.02358 -5.18116 0
M  V30 6512 H 596.09 3.35148 -6.77652 0
M  V30 6513 H 597.358 4.47378 -6.38336 0
M  V30 6514 N 601.587 1.56661 0.17182 0
M  V30 6515 C 602.836 1.81158 0.886831 0
M  V30 6516 C 603.149 0.679072 1.83434 0
M  V30 6517 O 604.355 0.808964 2.59168 0
M  V30 6518 C 602.811 3.20999 1.6275 0
M  V30 6519 C 602.419 4.42117 0.723652 0
M  V30 6520 C 604.163 3.5479 2.33076 0
M  V30 6521 C 602.07 5.7298 1.46452 0
M  V30 6522 H 601 0.675543 0.334899 0
M  V30 6523 H 603.651 1.82967 0.139765 0
M  V30 6524 H 602.033 3.13506 2.4193 0
M  V30 6525 H 603.207 4.60789 -0.0311485 0
M  V30 6526 H 601.522 4.16197 0.130063 0
M  V30 6527 H 604.119 4.49806 2.89099 0
M  V30 6528 H 604.462 2.79646 3.08389 0
M  V30 6529 H 604.995 3.63834 1.6084 0
M  V30 6530 H 601.734 6.51152 0.753729 0
M  V30 6531 H 601.254 5.58285 2.19266 0
M  V30 6532 H 602.933 6.14916 2.01214 0
M  V30 6533 N 603.065 -0.440357 1.51323 0
M  V30 6534 C 604.314 -1.18697 1.63076 0
M  V30 6535 C 604.627 -1.92418 0.35136 0
M  V30 6536 O 605.833 -2.69258 0.348221 0
M  V30 6537 C 604.289 -2.15849 2.87988 0
M  V30 6538 C 603.897 -1.47789 4.22921 0
M  V30 6539 C 605.641 -2.90962 3.09098 0
M  V30 6540 C 603.548 -2.43407 5.38987 0
M  V30 6541 H 602.478 -0.44676 0.607389 0
M  V30 6542 H 605.129 -0.454313 1.77787 0
M  V30 6543 H 603.511 -2.92537 2.66905 0
M  V30 6544 H 604.685 -0.7668 4.54375 0
M  V30 6545 H 603 -0.848404 4.07665 0
M  V30 6546 H 605.597 -3.62584 3.92985 0
M  V30 6547 H 605.94 -3.52133 2.22053 0
M  V30 6548 H 606.473 -2.21381 3.30507 0
M  V30 6549 H 603.212 -1.86929 6.28282 0
M  V30 6550 H 602.732 -3.12579 5.11913 0
M  V30 6551 H 604.411 -3.046 5.70813 0
M  V30 6552 N 604.543 -1.41418 -0.695603 0
M  V30 6553 C 605.959 -1.23887 -1.00619 0
M  V30 6554 C 606.159 -0.128206 -2.01092 0
M  V30 6555 O 605.215 0.507408 -2.47349 0
M  V30 6556 C 606.528 -2.58816 -1.53083 0
M  V30 6557 C 608.076 -2.65998 -1.64967 0
M  V30 6558 C 608.551 -4.01244 -2.20833 0
M  V30 6559 N 610.042 -4.0309 -2.28194 0
M  V30 6560 C 610.777 -5.04539 -2.72448 0
M  V30 6561 N 610.273 -6.16378 -3.16306 0
M  V30 6562 N 612.066 -4.91901 -2.72011 0
M  V30 6563 H 604.217 -2.12379 -0.0300061 0
M  V30 6564 H 606.48 -0.944958 -0.0758797 0
M  V30 6565 H 606.186 -3.40842 -0.867147 0
M  V30 6566 H 606.06 -2.81299 -2.51298 0
M  V30 6567 H 608.447 -1.84331 -2.30448 0
M  V30 6568 H 608.528 -2.47325 -0.652982 0
M  V30 6569 H 608.172 -4.83359 -1.55968 0
M  V30 6570 H 608.102 -4.17257 -3.21254 0
M  V30 6571 H 610.593 -3.22341 -1.97242 0
M  V30 6572 H 610.906 -6.89658 -3.487 0
M  V30 6573 H 609.251 -6.19914 -3.14215 0
M  V30 6574 H 612.442 -4.03613 -2.37095 0
M  V30 6575 H 612.615 -5.71102 -3.06181 0
M  V30 6576 N 606.021 0.929856 -1.27246 0
M  V30 6577 C 607.268 1.67731 -1.13457 0
M  V30 6578 C 607.596 1.9185 0.319998 0
M  V30 6579 O 606.851 1.50524 1.25064 0
M  V30 6580 C 607.15 3.05116 -1.86115 0
M  V30 6581 C 606.816 3.00715 -3.35978 0
M  V30 6582 C 605.478 2.99222 -3.76855 0
M  V30 6583 C 607.83 2.92168 -4.3161 0
M  V30 6584 C 605.158 2.86962 -5.11732 0
M  V30 6585 C 607.51 2.81449 -5.66542 0
M  V30 6586 C 606.174 2.78305 -6.06715 0
M  V30 6587 H 605.444 0.613772 -0.415168 0
M  V30 6588 H 608.091 1.08456 -1.57827 0
M  V30 6589 H 606.396 3.68083 -1.34246 0
M  V30 6590 H 608.093 3.61822 -1.72876 0
M  V30 6591 H 604.683 3.02664 -3.03468 0
M  V30 6592 H 608.867 2.92421 -4.01003 0
M  V30 6593 H 604.123 2.82913 -5.42006 0
M  V30 6594 H 608.297 2.738 -6.40317 0
M  V30 6595 H 605.924 2.68561 -7.11181 0
M  V30 6596 N 607.499 1.09233 1.13605 0
M  V30 6597 C 608.739 0.836786 1.86487 0
M  V30 6598 C 609.103 -0.626191 1.81502 0
M  V30 6599 O 610.304 -0.99758 2.49603 0
M  V30 6600 C 608.575 1.35476 3.30728 0
M  V30 6601 S 610.134 1.2328 4.21126 0
M  V30 6602 H 606.952 0.302702 0.643345 0
M  V30 6603 H 609.554 1.3953 1.36936 0
M  V30 6604 H 608.258 2.41381 3.31909 0
M  V30 6605 H 607.789 0.792286 3.85339 0
M  V30 6606 H 609.804 0.182468 4.95864 0
M  V30 6607 N 608.977 -1.30795 0.87923 0
M  V30 6608 C 609.924 -2.28282 0.339968 0
M  V30 6609 C 610.894 -1.56134 -0.566685 0
M  V30 6610 O 612.079 -1.84231 -0.496338 0
M  V30 6611 C 609.219 -3.42225 -0.444501 0
M  V30 6612 C 608.332 -4.29204 0.490717 0
M  V30 6613 C 607.467 -5.30302 -0.308784 0
M  V30 6614 C 606.506 -6.08929 0.622272 0
M  V30 6615 N 605.643 -7.01957 -0.14155 0
M  V30 6616 H 610.483 -2.73794 1.17647 0
M  V30 6617 H 608.02 -1.34682 0.591527 0
M  V30 6618 H 609.978 -4.07038 -0.915186 0
M  V30 6619 H 608.608 -2.97799 -1.24562 0
M  V30 6620 H 607.66 -3.6475 1.07988 0
M  V30 6621 H 608.972 -4.84045 1.20425 0
M  V30 6622 H 608.126 -6.00835 -0.841575 0
M  V30 6623 H 606.865 -4.7614 -1.05556 0
M  V30 6624 H 605.87 -5.37278 1.16674 0
M  V30 6625 H 607.095 -6.65178 1.36804 0
M  V30 6626 H 605.041 -6.50192 -0.870966 0
M  V30 6627 H 604.958 -7.54261 0.51246 0
M  V30 6628 H 606.226 -7.76741 -0.655271 0
M  V30 6629 N 610.455 -0.639598 -1.44038 0
M  V30 6630 C 611.403 0.0723409 -2.32487 0
M  V30 6631 C 612.397 0.827129 -1.47834 0
M  V30 6632 O 613.603 0.73907 -1.64127 0
M  V30 6633 H 609.978 0.0421696 -0.750817 0
M  V30 6634 H 611.949 -0.691593 -2.90275 0
M  V30 6635 C 610.698 1.03452 -3.31953 0
M  V30 6636 H 610.021 0.46315 -3.97108 0
M  V30 6637 H 611.461 1.502 -3.96505 0
M  V30 6638 C 609.92 2.12392 -2.61518 0
M  V30 6639 O 610.45 3.2059 -2.42044 0
M  V30 6640 N 608.656 1.88563 -2.21116 0
M  V30 6641 H 608.203 1.00577 -2.37154 0
M  V30 6642 H 608.161 2.61651 -1.74316 0
M  V30 6643 N 611.933 1.52934 -0.380664 0
M  V30 6644 C 613.182 2.00651 0.205477 0
M  V30 6645 C 613.495 1.27164 1.48623 0
M  V30 6646 O 614.701 1.65547 2.15189 0
M  V30 6647 C 613.157 3.57479 0.416726 0
M  V30 6648 C 612.765 4.39857 -0.850268 0
M  V30 6649 C 614.509 4.13509 0.959702 0
M  V30 6650 C 612.416 5.88269 -0.607773 0
M  V30 6651 H 611.346 0.749684 0.0805614 0
M  V30 6652 H 613.997 1.76508 -0.501732 0
M  V30 6653 H 612.379 3.77836 1.18557 0
M  V30 6654 H 613.553 4.31269 -1.62307 0
M  V30 6655 H 611.868 3.95005 -1.31756 0
M  V30 6656 H 614.465 5.22039 1.15669 0
M  V30 6657 H 614.808 3.69054 1.92626 0
M  V30 6658 H 615.341 3.9701 0.250645 0
M  V30 6659 H 612.08 6.3703 -1.54509 0
M  V30 6660 H 611.6 5.99667 0.126247 0
M  V30 6661 H 613.279 6.46558 -0.239014 0
M  V30 6662 N 613.412 0.11024 1.57214 0
M  V30 6663 C 614.658 -0.550684 1.9518 0
M  V30 6664 C 614.991 -1.66885 0.993122 0
M  V30 6665 O 614.266 -1.94479 0.0287907 0
M  V30 6666 C 614.549 -1.09163 3.43155 0
M  V30 6667 C 614.402 0.0225198 4.49794 0
M  V30 6668 C 615.721 -1.98527 3.92778 0
M  V30 6669 H 612.84 -0.198706 0.709708 0
M  V30 6670 H 615.482 0.184024 1.89107 0
M  V30 6671 H 613.632 -1.71775 3.48462 0
M  V30 6672 H 615.304 0.657443 4.56591 0
M  V30 6673 H 613.547 0.686868 4.28328 0
M  V30 6674 H 614.218 -0.39706 5.5057 0
M  V30 6675 H 616.694 -1.458 3.8972 0
M  V30 6676 H 615.57 -2.33298 4.96853 0
M  V30 6677 H 615.831 -2.90846 3.32958 0
M  V30 6678 N 614.89 -1.56749 -0.16351 0
M  V30 6679 C 616.115 -1.86938 -0.898264 0
M  V30 6680 C 616.54 -0.697456 -1.74692 0
M  V30 6681 O 615.898 0.353327 -1.77824 0
M  V30 6682 C 615.946 -3.15599 -1.74441 0
M  V30 6683 O 615.05 -2.98371 -2.8469 0
M  V30 6684 H 614.391 -0.614659 -0.251178 0
M  V30 6685 H 616.921 -2.03979 -0.159298 0
M  V30 6686 H 616.931 -3.47202 -2.14277 0
M  V30 6687 H 615.606 -4.00505 -1.1211 0
M  V30 6688 H 614.183 -2.7814 -2.4838 0
M  V30 6689 N 616.368 0.432326 -1.51554 0
M  V30 6690 C 617.614 1.18309 -1.64714 0
M  V30 6691 C 617.947 1.90745 -0.364696 0
M  V30 6692 O 617.222 1.8381 0.635936 0
M  V30 6693 C 617.505 2.1961 -2.85383 0
M  V30 6694 C 617.358 1.51223 -4.23617 0
M  V30 6695 C 618.677 3.20538 -3.01569 0
M  V30 6696 H 615.796 0.428751 -0.599451 0
M  V30 6697 H 618.438 0.471689 -1.84052 0
M  V30 6698 H 616.588 2.8028 -2.69027 0
M  V30 6699 H 618.26 0.938516 -4.51652 0
M  V30 6700 H 616.503 0.814501 -4.26085 0
M  V30 6701 H 617.174 2.25024 -5.04052 0
M  V30 6702 H 619.65 2.69926 -3.16669 0
M  V30 6703 H 618.526 3.88706 -3.87555 0
M  V30 6704 H 618.787 3.86933 -2.13859 0
M  V30 6705 N 617.846 1.41785 0.688094 0
M  V30 6706 C 618.793 1.44221 1.80191 0
M  V30 6707 C 619.763 0.295688 1.63447 0
M  V30 6708 O 620.948 0.49783 1.84191 0
M  V30 6709 C 618.088 1.33743 3.1813 0
M  V30 6710 C 617.201 2.58325 3.46254 0
M  V30 6711 C 616.336 2.40086 4.73848 0
M  V30 6712 C 615.375 3.60107 4.94964 0
M  V30 6713 N 614.512 3.40892 6.13789 0
M  V30 6714 H 619.352 2.39411 1.77444 0
M  V30 6715 H 616.889 1.18876 0.866423 0
M  V30 6716 H 618.847 1.25669 3.97823 0
M  V30 6717 H 617.477 0.42157 3.20035 0
M  V30 6718 H 616.529 2.7682 2.60912 0
M  V30 6719 H 617.841 3.4758 3.57756 0
M  V30 6720 H 616.995 2.29522 5.61609 0
M  V30 6721 H 615.734 1.483 4.64606 0
M  V30 6722 H 614.739 3.71118 4.05649 0
M  V30 6723 H 615.964 4.52857 5.06061 0
M  V30 6724 H 613.91 2.51812 6.05745 0
M  V30 6725 H 613.827 4.23727 6.26092 0
M  V30 6726 H 615.095 3.34114 7.04264 0
M  V30 6727 N 619.324 -0.923095 1.27737 0
M  V30 6728 C 620.572 -1.66797 1.14119 0
M  V30 6729 C 620.893 -1.92479 -0.312541 0
M  V30 6730 O 620.163 -1.53432 -1.218 0
M  V30 6731 H 618.743 -0.618196 0.419336 0
M  V30 6732 H 621.405 -1.10815 1.60331 0
M  V30 6733 H 620.501 -2.63424 1.67374 0
M  V30 6734 N 620.802 -1.09834 -1.13024 0
M  V30 6735 C 622.051 -0.831806 -1.83749 0
M  V30 6736 C 622.364 0.644763 -1.84668 0
M  V30 6737 O 623.57 1.02697 -2.51327 0
M  V30 6738 C 622.026 -1.43817 -3.29916 0
M  V30 6739 C 621.634 -2.94759 -3.37374 0
M  V30 6740 C 623.378 -1.25077 -4.05655 0
M  V30 6741 C 621.285 -3.48461 -4.77838 0
M  V30 6742 H 620.215 -0.30751 -0.688443 0
M  V30 6743 H 622.866 -1.32156 -1.27307 0
M  V30 6744 H 621.248 -0.876106 -3.86187 0
M  V30 6745 H 622.422 -3.57228 -2.91076 0
M  V30 6746 H 620.737 -3.12581 -2.75103 0
M  V30 6747 H 623.334 -1.62649 -5.09362 0
M  V30 6748 H 623.677 -0.191782 -4.15858 0
M  V30 6749 H 624.21 -1.78057 -3.55725 0
M  V30 6750 H 620.949 -4.53998 -4.72828 0
M  V30 6751 H 620.469 -2.90757 -5.24615 0
M  V30 6752 H 622.148 -3.45914 -5.46766 0
M  V30 6753 N 622.28 1.30327 -0.886154 0
M  V30 6754 C 623.696 1.48676 -0.580323 0
M  V30 6755 C 623.896 1.81189 0.881639 0
M  V30 6756 O 622.952 1.90021 1.66278 0
M  V30 6757 C 624.265 2.60932 -1.49449 0
M  V30 6758 C 625.813 2.74812 -1.49824 0
M  V30 6759 C 626.288 3.90183 -2.39836 0
M  V30 6760 N 627.779 3.97495 -2.37806 0
M  V30 6761 C 628.514 4.86078 -3.04165 0
M  V30 6762 N 628.01 5.79448 -3.79753 0
M  V30 6763 N 629.803 4.79456 -2.93391 0
M  V30 6764 H 621.954 1.07495 -1.8319 0
M  V30 6765 H 624.217 0.532661 -0.784204 0
M  V30 6766 H 623.923 2.43731 -2.5355 0
M  V30 6767 H 623.797 3.57437 -1.20494 0
M  V30 6768 H 626.184 2.91418 -0.464731 0
M  V30 6769 H 626.265 1.78924 -1.82811 0
M  V30 6770 H 625.909 3.74334 -3.43273 0
M  V30 6771 H 625.839 4.85411 -2.04166 0
M  V30 6772 H 628.33 3.30703 -1.82877 0
M  V30 6773 H 628.643 6.43805 -4.27475 0
M  V30 6774 H 626.988 5.79376 -3.8386 0
M  V30 6775 H 630.179 4.05494 -2.33864 0
M  V30 6776 H 630.352 5.48283 -3.45383 0
M  V30 6777 N 623.758 0.647228 1.43697 0
M  V30 6778 C 624.705 -0.0480092 2.3075 0
M  V30 6779 C 625.675 -0.820705 1.44408 0
M  V30 6780 O 626.86 -0.798515 1.73287 0
M  V30 6781 C 624 -1.01259 3.2991 0
M  V30 6782 C 623.113 -0.236629 4.31351 0
M  V30 6783 C 622.248 -1.19447 5.17596 0
M  V30 6784 C 621.287 -0.408595 6.10735 0
M  V30 6785 N 620.424 -1.31772 6.89623 0
M  V30 6786 H 625.264 0.700238 2.89656 0
M  V30 6787 H 622.801 0.357082 1.427 0
M  V30 6788 H 624.759 -1.58538 3.85903 0
M  V30 6789 H 623.389 -1.72778 2.72667 0
M  V30 6790 H 622.441 0.452353 3.77701 0
M  V30 6791 H 623.753 0.374731 4.9739 0
M  V30 6792 H 622.907 -1.83809 5.78186 0
M  V30 6793 H 621.646 -1.83975 4.51669 0
M  V30 6794 H 620.651 0.24841 5.49239 0
M  V30 6795 H 621.876 0.232188 6.78703 0
M  V30 6796 H 619.822 -1.94991 6.2635 0
M  V30 6797 H 619.739 -0.760779 7.52162 0
M  V30 6798 H 621.007 -1.94967 7.54724 0
M  V30 6799 N 625.236 -1.5273 0.388769 0
M  V30 6800 C 626.461 -2.0647 -0.19621 0
M  V30 6801 C 626.886 -1.25865 -1.39784 0
M  V30 6802 O 626.244 -0.283562 -1.79069 0
M  V30 6803 C 626.292 -3.56456 -0.5451 0
M  V30 6804 O 625.396 -3.78426 -1.63912 0
M  V30 6805 H 624.737 -0.663599 -0.023067 0
M  V30 6806 H 627.267 -1.96898 0.556084 0
M  V30 6807 H 627.277 -3.99888 -0.809557 0
M  V30 6808 H 625.952 -4.14561 0.333417 0
M  V30 6809 H 624.529 -3.46884 -1.36842 0
M  V30 6810 N 626.714 -0.118576 -1.57153 0
M  V30 6811 C 627.963 0.539339 -1.94355 0
M  V30 6812 C 628.276 1.67858 -1.00415 0
M  V30 6813 O 629.482 2.39922 -1.27081 0
M  V30 6814 C 627.938 1.01082 -3.45414 0
M  V30 6815 C 627.546 -0.0999402 -4.47889 0
M  V30 6816 C 629.29 1.64013 -3.91535 0
M  V30 6817 C 627.197 0.388212 -5.90124 0
M  V30 6818 H 626.127 0.205247 -0.725527 0
M  V30 6819 H 628.778 -0.19836 -1.82425 0
M  V30 6820 H 627.16 1.80292 -3.52577 0
M  V30 6821 H 628.334 -0.876189 -4.52393 0
M  V30 6822 H 626.649 -0.635885 -4.11516 0
M  V30 6823 H 629.246 2.01649 -4.95219 0
M  V30 6824 H 629.589 2.51836 -3.31488 0
M  V30 6825 H 630.122 0.913439 -3.87171 0
M  V30 6826 H 626.861 -0.453963 -6.53926 0
M  V30 6827 H 626.381 1.13095 -5.89041 0
M  V30 6828 H 628.06 0.849574 -6.41398 0
M  V30 6829 N 628.193 1.56834 0.155195 0
M  V30 6830 C 629.433 1.84701 0.875488 0
M  V30 6831 C 629.797 0.701747 1.78716 0
M  V30 6832 O 630.998 0.861263 2.54629 0
M  V30 6833 C 629.269 3.1773 1.63654 0
M  V30 6834 S 630.828 3.67128 2.40338 0
M  V30 6835 H 627.646 0.647856 0.292923 0
M  V30 6836 H 630.248 1.95026 0.136024 0
M  V30 6837 H 628.952 3.99059 0.958117 0
M  V30 6838 H 628.483 3.10388 2.41708 0
M  V30 6839 H 630.498 3.35739 3.65368 0
M  V30 6840 N 629.671 -0.424282 1.51781 0
M  V30 6841 C 630.92 -1.16961 1.64326 0
M  V30 6842 C 631.233 -1.92035 0.371749 0
M  V30 6843 O 632.439 -2.68873 0.37676 0
M  V30 6844 C 630.895 -2.12782 2.90262 0
M  V30 6845 C 630.503 -1.43295 4.24465 0
M  V30 6846 C 632.247 -2.87667 3.12166 0
M  V30 6847 C 630.154 -2.37676 5.41538 0
M  V30 6848 H 629.084 -0.440293 0.612093 0
M  V30 6849 H 631.735 -0.435431 1.78259 0
M  V30 6850 H 630.117 -2.8969 2.69992 0
M  V30 6851 H 631.291 -0.718564 4.55163 0
M  V30 6852 H 629.606 -0.805118 4.08542 0
M  V30 6853 H 632.203 -3.58395 3.96808 0
M  V30 6854 H 632.546 -3.49758 2.25776 0
M  V30 6855 H 633.079 -2.17863 3.32837 0
M  V30 6856 H 629.818 -1.80255 6.30229 0
M  V30 6857 H 629.338 -3.07132 5.15199 0
M  V30 6858 H 631.017 -2.98529 5.74012 0
M  V30 6859 N 631.149 -1.42148 -0.680565 0
M  V30 6860 C 632.059 -1.47565 -1.82378 0
M  V30 6861 C 633.075 -0.36489 -1.70131 0
M  V30 6862 O 634.251 -0.614916 -1.91783 0
M  V30 6863 C 631.316 -1.37013 -3.18478 0
M  V30 6864 C 630.377 -2.58532 -3.42724 0
M  V30 6865 C 629.61 -2.48473 -4.72331 0
M  V30 6866 O 629.833 -1.51745 -5.49845 0
M  V30 6867 O 628.767 -3.38503 -4.97694 0
M  V30 6868 H 632.593 -2.44045 -1.80764 0
M  V30 6869 H 630.178 -1.23849 -0.835569 0
M  V30 6870 H 632.06 -1.33468 -3.99705 0
M  V30 6871 H 630.735 -0.436552 -3.20743 0
M  V30 6872 H 629.642 -2.67652 -2.61368 0
M  V30 6873 H 630.975 -3.50769 -3.45286 0
M  V30 6874 N 632.627 0.916307 -1.28225 0
M  V30 6875 C 633.876 1.65975 -1.14608 0
M  V30 6876 C 634.189 1.93204 0.305191 0
M  V30 6877 O 635.395 2.65611 0.562432 0
M  V30 6878 C 633.851 2.98989 -2.00333 0
M  V30 6879 C 633.459 2.79417 -3.50186 0
M  V30 6880 C 635.203 3.76856 -1.95397 0
M  V30 6881 C 633.11 4.08056 -4.28071 0
M  V30 6882 H 632.04 0.622587 -0.425324 0
M  V30 6883 H 634.691 1.01705 -1.52736 0
M  V30 6884 H 633.073 3.6438 -1.5506 0
M  V30 6885 H 634.247 2.22723 -4.034 0
M  V30 6886 H 632.562 2.14966 -3.56621 0
M  V30 6887 H 635.159 4.72203 -2.50856 0
M  V30 6888 H 635.502 4.05776 -0.930137 0
M  V30 6889 H 636.035 3.1828 -2.38626 0
M  V30 6890 H 632.774 3.8431 -5.31024 0
M  V30 6891 H 632.294 4.64371 -3.79631 0
M  V30 6892 H 633.973 4.76333 -4.37854 0
M  V30 6893 N 634.105 1.10431 1.1244 0
M  V30 6894 C 635.053 0.747974 2.20246 0
M  V30 6895 C 636.047 -0.255848 1.67457 0
M  V30 6896 O 637.253 -0.116221 1.79624 0
M  V30 6897 H 633.628 0.223946 0.71788 0
M  V30 6898 H 635.599 1.6661 2.47556 0
M  V30 6899 C 634.348 0.195957 3.47147 0
M  V30 6900 H 633.671 0.959606 3.88113 0
M  V30 6901 H 635.111 -0.0153154 4.23997 0
M  V30 6902 C 633.57 -1.07132 3.19413 0
M  V30 6903 O 634.1 -2.15284 3.3914 0
M  V30 6904 N 632.306 -0.98994 2.73219 0
M  V30 6905 H 631.853 -0.109736 2.57366 0
M  V30 6906 H 631.811 -1.83856 2.55038 0
M  V30 6907 N 635.583 -1.29855 0.893053 0
M  V30 6908 C 636.531 -2.29867 0.355512 0
M  V30 6909 C 637.525 -1.60502 -0.541801 0
M  V30 6910 O 638.731 -1.74902 -0.425339 0
M  V30 6911 H 635.106 -0.745805 0.0963247 0
M  V30 6912 H 637.077 -2.72655 1.21252 0
M  V30 6913 C 635.826 -3.453 -0.407801 0
M  V30 6914 H 635.149 -3.98864 0.273426 0
M  V30 6915 H 636.589 -4.17334 -0.748887 0
M  V30 6916 C 635.048 -2.96051 -1.60795 0
M  V30 6917 O 635.578 -2.96763 -2.7073 0
M  V30 6918 N 633.784 -2.51963 -1.44786 0
M  V30 6919 H 633.331 -2.51583 -0.553498 0
M  V30 6920 H 633.289 -2.1937 -2.2522 0
M  V30 6921 N 637.061 -0.65484 -1.43351 0
M  V30 6922 C 638.309 -0.168559 -2.01396 0
M  V30 6923 C 638.63 1.22235 -1.51933 0
M  V30 6924 O 637.9 1.81685 -0.732627 0
M  V30 6925 H 636.48 -0.0593244 -0.744641 0
M  V30 6926 H 639.142 -0.846871 -1.75539 0
M  V30 6927 H 638.238 -0.154428 -3.11718 0
M  V30 6928 N 638.539 1.52521 -0.396863 0
M  V30 6929 C 639.449 2.30403 0.44178 0
M  V30 6930 C 640.465 1.37625 1.06468 0
M  V30 6931 O 641.641 1.70697 1.06886 0
M  V30 6932 C 638.706 3.1013 1.54986 0
M  V30 6933 C 637.767 4.18628 0.951279 0
M  V30 6934 C 637 4.94543 2.00655 0
M  V30 6935 O 637.223 4.70629 3.22281 0
M  V30 6936 O 636.157 5.797 1.61962 0
M  V30 6937 H 639.983 3.03087 -0.192892 0
M  V30 6938 H 637.568 1.48537 -0.16038 0
M  V30 6939 H 639.45 3.59816 2.19341 0
M  V30 6940 H 638.125 2.40251 2.16935 0
M  V30 6941 H 637.032 3.73119 0.270773 0
M  V30 6942 H 638.365 4.90763 0.375887 0
M  V30 6943 N 640.017 0.126909 1.57088 0
M  V30 6944 C 640.947 -0.816847 2.18746 0
M  V30 6945 C 641.928 -1.27161 1.12979 0
M  V30 6946 O 643.113 -1.33279 1.41246 0
M  V30 6947 C 640.243 -2.06398 2.79315 0
M  V30 6948 C 639.197 -1.74673 3.90735 0
M  V30 6949 C 638.523 -3.06482 4.38147 0
M  V30 6950 C 639.823 -1.0089 5.12463 0
M  V30 6951 H 641.517 -0.303032 2.97863 0
M  V30 6952 H 639.063 -0.144314 1.43275 0
M  V30 6953 H 641.016 -2.72885 3.2111 0
M  V30 6954 H 639.74 -2.60118 1.975 0
M  V30 6955 H 638.399 -1.10572 3.49527 0
M  V30 6956 H 638.047 -3.58152 3.5318 0
M  V30 6957 H 637.747 -2.86025 5.13287 0
M  V30 6958 H 639.271 -3.74073 4.82599 0
M  V30 6959 H 640.685 -1.57546 5.51228 0
M  V30 6960 H 639.082 -0.905006 5.93237 0
M  V30 6961 H 640.152 0.00297335 4.849 0
M  V30 6962 N 641.495 -1.56914 -0.146875 0
M  V30 6963 C 642.742 -1.83356 -0.859467 0
M  V30 6964 C 643.07 -0.707811 -1.81164 0
M  V30 6965 O 642.325 0.303155 -1.93338 0
M  V30 6966 C 642.624 -3.16128 -1.66727 0
M  V30 6967 C 642.29 -4.42586 -0.861881 0
M  V30 6968 C 640.952 -4.76929 -0.639687 0
M  V30 6969 C 643.304 -5.20344 -0.298643 0
M  V30 6970 C 640.632 -5.86491 0.156451 0
M  V30 6971 C 642.984 -6.30742 0.484536 0
M  V30 6972 C 641.648 -6.63635 0.717306 0
M  V30 6973 H 640.918 -0.670947 -0.314501 0
M  V30 6974 H 643.565 -1.91104 -0.123108 0
M  V30 6975 H 641.87 -3.03831 -2.47374 0
M  V30 6976 H 643.567 -3.33802 -2.2221 0
M  V30 6977 H 640.157 -4.15662 -1.04513 0
M  V30 6978 H 644.341 -4.94186 -0.457585 0
M  V30 6979 H 639.597 -6.10419 0.346292 0
M  V30 6980 H 643.771 -6.90188 0.928105 0
M  V30 6981 H 641.398 -7.48367 1.33607 0
M  V30 6982 N 642.974 0.416227 -1.52004 0
M  V30 6983 C 644.221 1.16383 -1.65714 0
M  V30 6984 C 644.549 1.9068 -0.383594 0
M  V30 6985 O 643.804 1.85174 0.633185 0
M  V30 6986 C 644.103 2.18923 -2.82502 0
M  V30 6987 C 643.769 1.61485 -4.20991 0
M  V30 6988 C 642.431 1.45545 -4.58661 0
M  V30 6989 C 644.783 1.19468 -5.07323 0
M  V30 6990 C 642.111 0.860937 -5.80349 0
M  V30 6991 C 644.463 0.614386 -6.29609 0
M  V30 6992 C 643.127 0.442056 -6.66035 0
M  V30 6993 H 642.397 0.425875 -0.606392 0
M  V30 6994 H 645.044 0.45199 -1.8609 0
M  V30 6995 H 643.349 2.96225 -2.56433 0
M  V30 6996 H 645.046 2.76628 -2.90307 0
M  V30 6997 H 641.636 1.74873 -3.91302 0
M  V30 6998 H 645.82 1.30596 -4.78809 0
M  V30 6999 H 641.076 0.715372 -6.072 0
M  V30 7000 H 645.25 0.280393 -6.95835 0
M  V30 7001 H 642.877 -0.0207218 -7.60197 0
M  V30 7002 N 644.452 1.42507 0.673017 0
M  V30 7003 C 645.698 1.43284 1.43519 0
M  V30 7004 C 646.031 0.049668 1.94136 0
M  V30 7005 O 645.306 -0.926369 1.71022 0
M  V30 7006 C 645.589 2.45874 2.63093 0
M  V30 7007 C 645.442 3.93388 2.18096 0
M  V30 7008 C 646.761 2.45431 3.6531 0
M  V30 7009 H 643.88 0.521752 0.520522 0
M  V30 7010 H 646.522 1.73932 0.764701 0
M  V30 7011 H 644.672 2.19869 3.20296 0
M  V30 7012 H 646.344 4.30379 1.66046 0
M  V30 7013 H 644.587 4.07169 1.49652 0
M  V30 7014 H 645.258 4.60752 3.03993 0
M  V30 7015 H 647.734 2.68561 3.17827 0
M  V30 7016 H 646.61 3.19189 4.46553 0
M  V30 7017 H 646.871 1.48092 4.16559 0
M  V30 7018 N 645.93 -0.909495 1.28709 0
M  V30 7019 C 646.893 -1.99399 1.13016 0
M  V30 7020 C 647.893 -1.60654 0.068536 0
M  V30 7021 O 649.083 -1.71334 0.314671 0
M  V30 7022 C 646.215 -3.33078 0.726085 0
M  V30 7023 H 647.408 -2.14751 2.09338 0
M  V30 7024 H 644.961 -1.09272 1.11756 0
M  V30 7025 H 645.696 -3.23428 -0.23771 0
M  V30 7026 H 645.481 -3.62562 1.49302 0
M  V30 7027 H 646.971 -4.12681 0.639058 0
M  V30 7028 N 647.408 -1.11026 -1.11852 0
M  V30 7029 C 648.633 -0.879064 -1.87849 0
M  V30 7030 C 649.058 0.565406 -1.79401 0
M  V30 7031 O 648.416 1.39886 -1.15333 0
M  V30 7032 C 648.464 -1.33985 -3.34784 0
M  V30 7033 O 647.568 -0.508803 -4.09249 0
M  V30 7034 H 646.909 -0.316992 -0.583448 0
M  V30 7035 H 649.439 -1.47863 -1.41413 0
M  V30 7036 H 649.449 -1.33248 -3.85628 0
M  V30 7037 H 648.124 -2.39172 -3.40249 0
M  V30 7038 H 646.701 -0.581913 -3.68332 0
M  V30 7039 N 648.886 1.2938 -0.899927 0
M  V30 7040 C 649.796 2.31462 -0.382437 0
M  V30 7041 C 650.812 1.65956 0.522929 0
M  V30 7042 O 651.988 1.97131 0.412454 0
M  V30 7043 C 649.053 3.44595 0.381472 0
M  V30 7044 C 648.114 4.25692 -0.555444 0
M  V30 7045 C 647.347 5.33422 0.172102 0
M  V30 7046 O 647.57 5.53053 1.396 0
M  V30 7047 O 646.504 5.99939 -0.485491 0
M  V30 7048 H 650.33 2.77706 -1.22934 0
M  V30 7049 H 647.915 1.33821 -0.664259 0
M  V30 7050 H 649.797 4.13474 0.813442 0
M  V30 7051 H 648.472 3.00458 1.20443 0
M  V30 7052 H 647.379 3.59453 -1.03653 0
M  V30 7053 H 648.712 4.73471 -1.34483 0
M  V30 7054 N 650.364 0.662433 1.43002 0
M  V30 7055 C 651.312 -0.035345 2.32573 0
M  V30 7056 C 652.306 -0.803505 1.49131 0
M  V30 7057 O 653.512 -0.712865 1.65282 0
M  V30 7058 H 649.887 -0.0302194 0.751393 0
M  V30 7059 H 651.858 0.737686 2.89138 0
M  V30 7060 C 650.607 -0.981575 3.33557 0
M  V30 7061 H 649.93 -0.399914 3.97795 0
M  V30 7062 H 651.37 -1.43873 3.98844 0
M  V30 7063 C 649.829 -2.08204 2.64863 0
M  V30 7064 O 650.359 -3.16698 2.47113 0
M  V30 7065 N 648.565 -1.85022 2.24088 0
M  V30 7066 H 648.112 -0.967909 2.38724 0
M  V30 7067 H 648.07 -2.58845 1.78457 0
M  V30 7068 N 651.842 -1.52309 0.404946 0
M  V30 7069 C 653.067 -2.06666 -0.1743 0
M  V30 7070 C 653.492 -1.27341 -1.38441 0
M  V30 7071 O 652.85 -0.302539 -1.78758 0
M  V30 7072 C 652.898 -3.57014 -0.507262 0
M  V30 7073 O 652.002 -3.80144 -1.59889 0
M  V30 7074 H 651.343 -0.663807 -0.0160273 0
M  V30 7075 H 653.873 -1.96297 0.576937 0
M  V30 7076 H 653.883 -4.00724 -0.767098 0
M  V30 7077 H 652.558 -4.14184 0.377368 0
M  V30 7078 H 651.135 -3.48316 -1.33155 0
M  V30 7079 N 653.32 -0.135238 -1.57019 0
M  V30 7080 C 654.55 0.525303 -1.9981 0
M  V30 7081 C 654.958 1.59724 -1.01415 0
M  V30 7082 O 654.301 1.837 -0.00130938 0
M  V30 7083 C 654.363 1.19578 -3.3903 0
M  V30 7084 C 654.027 0.269855 -4.56203 0
M  V30 7085 C 655.024 -0.497905 -5.1751 0
M  V30 7086 C 652.709 0.176188 -5.01991 0
M  V30 7087 C 654.703 -1.3469 -6.23007 0
M  V30 7088 C 652.39 -0.676422 -6.07345 0
M  V30 7089 C 653.388 -1.43658 -6.67721 0
M  V30 7090 O 653.076 -2.27501 -7.71037 0
M  V30 7091 H 652.808 0.142296 -0.660854 0
M  V30 7092 H 655.362 -0.223272 -2.04183 0
M  V30 7093 H 653.592 1.99176 -3.3146 0
M  V30 7094 H 655.281 1.75486 -3.66005 0
M  V30 7095 H 656.047 -0.435507 -4.83041 0
M  V30 7096 H 651.926 0.757583 -4.54733 0
M  V30 7097 H 655.47 -1.9407 -6.70062 0
M  V30 7098 H 651.367 -0.740154 -6.41243 0
M  V30 7099 H 652.135 -2.20619 -7.88206 0
M  V30 7100 N 654.798 1.5699 0.138552 0
M  V30 7101 C 655.746 1.99858 1.18994 0
M  V30 7102 C 656.74 0.89231 1.43994 0
M  V30 7103 O 657.946 1.0775 1.44187 0
M  V30 7104 H 654.321 0.636325 0.400743 0
M  V30 7105 H 656.292 2.87427 0.801755 0
M  V30 7106 C 655.041 2.40235 2.51361 0
M  V30 7107 H 654.364 3.24917 2.32957 0
M  V30 7108 H 655.804 2.74045 3.23535 0
M  V30 7109 C 654.263 1.25829 3.1252 0
M  V30 7110 O 654.793 0.563604 3.97727 0
M  V30 7111 N 652.999 1.02036 2.72097 0
M  V30 7112 H 652.546 1.58705 2.02905 0
M  V30 7113 H 652.504 0.256796 3.1335 0
M  V30 7114 N 656.276 -0.40816 1.52223 0
M  V30 7115 C 657.553 -1.16807 1.56893 0
M  V30 7116 C 657.933 -2.08169 0.350537 0
M  V30 7117 O 657.281 -2.18684 -0.662536 0
M  V30 7118 C 657.491 -1.94451 2.8981 0
M  V30 7119 C 658.839 -2.50484 3.42845 0
M  V30 7120 O 659.863 -2.0463 2.91556 0
M  V30 7121 O 658.722 -3.34192 4.3241 0
M  V30 7122 H 655.816 -0.533382 0.632007 0
M  V30 7123 H 658.362 -0.414862 1.64551 0
M  V30 7124 H 657.134 -1.27527 3.69936 0
M  V30 7125 H 656.757 -2.76775 2.85449 0
M  V30 7126 N 657.755 -1.42862 -0.66545 0
M  V30 7127 C 659.032 -1.3431 -1.42197 0
M  V30 7128 C 659.412 0.0150265 -2.11095 0
M  V30 7129 O 658.76 1.03101 -2.03918 0
M  V30 7130 C 658.97 -2.51783 -2.41674 0
M  V30 7131 C 660.318 -2.94321 -3.0604 0
M  V30 7132 O 661.342 -2.51741 -2.52001 0
M  V30 7133 O 660.201 -3.68047 -4.03985 0
M  V30 7134 H 657.295 -0.530159 -0.634713 0
M  V30 7135 H 659.841 -1.54888 -0.693386 0
M  V30 7136 H 658.613 -3.42282 -1.89627 0
M  V30 7137 H 658.236 -2.33241 -3.22001 0
M  V30 7138 N 659.233 0.902656 -1.29189 0
M  V30 7139 C 660.181 2.0278 -1.13943 0
M  V30 7140 C 661.175 1.69308 -0.055787 0
M  V30 7141 O 662.381 1.78707 -0.215371 0
M  V30 7142 H 658.756 0.664595 -0.351877 0
M  V30 7143 H 660.727 2.12778 -2.09208 0
M  V30 7144 C 659.476 3.37657 -0.82966 0
M  V30 7145 H 658.799 3.63913 -1.65551 0
M  V30 7146 H 660.239 4.17078 -0.762998 0
M  V30 7147 C 658.698 3.33648 0.466991 0
M  V30 7148 O 659.228 3.72886 1.49395 0
M  V30 7149 N 657.434 2.86745 0.471761 0
M  V30 7150 H 656.981 2.55009 -0.364406 0
M  V30 7151 H 656.939 2.84446 1.33933 0
M  V30 7152 N 660.711 1.11618 1.11262 0
M  V30 7153 C 661.96 0.860934 1.82403 0
M  V30 7154 C 662.273 -0.615303 1.8567 0
M  V30 7155 O 663.479 -0.986861 2.52929 0
M  V30 7156 C 661.935 1.49048 3.27586 0
M  V30 7157 C 661.543 3.00089 3.32642 0
M  V30 7158 C 663.287 1.31515 4.03614 0
M  V30 7159 C 661.194 3.56019 4.72234 0
M  V30 7160 H 660.124 0.318423 0.683464 0
M  V30 7161 H 662.775 1.34165 1.25188 0
M  V30 7162 H 661.157 0.937434 3.84744 0
M  V30 7163 H 662.331 3.61813 2.85356 0
M  V30 7164 H 660.646 3.16919 2.70096 0
M  V30 7165 H 663.243 1.70732 5.0671 0
M  V30 7166 H 663.586 0.257917 4.155 0
M  V30 7167 H 664.119 1.83694 3.52848 0
M  V30 7168 H 660.858 4.61463 4.65545 0
M  V30 7169 H 660.378 2.99066 5.19923 0
M  V30 7170 H 662.057 3.54568 5.41193 0
M  V30 7171 N 662.189 -1.289 0.906776 0
M  V30 7172 C 663.137 -2.29477 0.379873 0
M  V30 7173 C 664.131 -1.61068 -0.524747 0
M  V30 7174 O 665.337 -1.75344 -0.406765 0
M  V30 7175 H 661.712 -0.744742 0.10423 0
M  V30 7176 H 663.683 -2.71353 1.24137 0
M  V30 7177 C 662.432 -3.45713 -0.371154 0
M  V30 7178 H 661.755 -3.98551 0.315716 0
M  V30 7179 H 663.195 -4.18105 -0.704581 0
M  V30 7180 C 661.654 -2.9774 -1.57646 0
M  V30 7181 O 662.184 -2.99618 -2.67567 0
M  V30 7182 N 660.39 -2.53485 -1.42105 0
M  V30 7183 H 659.937 -2.52156 -0.526783 0
M  V30 7184 H 659.895 -2.21747 -2.22881 0
M  V30 7185 N 663.667 -0.670007 -1.42649 0
M  V30 7186 C 664.895 -0.19854 -2.05945 0
M  V30 7187 C 665.31 1.14243 -1.50313 0
M  V30 7188 O 664.667 1.70872 -0.641027 0
M  V30 7189 C 664.718 -0.11966 -3.61302 0
M  V30 7190 O 664.439 -1.40764 -4.1487 0
M  V30 7191 C 665.94 0.375878 -4.41704 0
M  V30 7192 H 663.16 -0.0976894 -0.663851 0
M  V30 7193 H 665.704 -0.915392 -1.82868 0
M  V30 7194 H 663.859 0.547851 -3.83507 0
M  V30 7195 H 664.273 -1.27784 -5.08696 0
M  V30 7196 H 665.747 0.379988 -5.50691 0
M  V30 7197 H 666.224 1.41028 -4.15942 0
M  V30 7198 H 666.83 -0.259727 -4.24506 0
M  V30 7199 N 665.145 1.52092 -0.413018 0
M  V30 7200 C 666.556 1.86617 0.0556967 0
M  V30 7201 C 666.907 1.33156 1.44097 0
M  V30 7202 O 666.032 0.672417 2.05688 0
M  V30 7203 C 666.627 3.38628 0.107844 0
M  V30 7204 C 665.186 3.72778 0.520904 0
M  V30 7205 C 664.333 2.75649 -0.302109 0
M  V30 7206 H 667.284 1.45663 -0.629919 0
M  V30 7207 H 667.305 3.69152 0.922324 0
M  V30 7208 H 666.817 3.77508 -0.900506 0
M  V30 7209 H 664.918 3.39478 1.53575 0
M  V30 7210 H 665.031 4.7838 0.262591 0
M  V30 7211 H 663.395 2.53603 0.236115 0
M  V30 7212 H 664.178 3.17369 -1.30888 0
M  V30 7213 N 666.623 0.143563 1.56945 0
M  V30 7214 C 667.57 -0.797433 2.16586 0
M  V30 7215 C 668.54 -1.24654 1.09775 0
M  V30 7216 O 669.725 -1.31968 1.37801 0
M  V30 7217 C 666.865 -2.03253 2.78895 0
M  V30 7218 C 665.978 -1.62954 4.00087 0
M  V30 7219 C 665.113 -2.81617 4.50406 0
M  V30 7220 C 664.152 -2.37675 5.64072 0
M  V30 7221 N 663.289 -3.49335 6.09023 0
M  V30 7222 H 668.129 -0.282023 2.96662 0
M  V30 7223 H 665.666 -0.127494 1.46546 0
M  V30 7224 H 667.624 -2.75653 3.13163 0
M  V30 7225 H 666.254 -2.52211 2.01469 0
M  V30 7226 H 665.306 -0.803322 3.71821 0
M  V30 7227 H 666.618 -1.26679 4.82446 0
M  V30 7228 H 665.772 -3.62212 4.86711 0
M  V30 7229 H 664.511 -3.21134 3.67048 0
M  V30 7230 H 663.516 -1.55519 5.27346 0
M  V30 7231 H 664.741 -1.99247 6.49213 0
M  V30 7232 H 662.687 -3.8848 5.28601 0
M  V30 7233 H 662.604 -3.17064 6.86299 0
M  V30 7234 H 663.872 -4.30297 6.49973 0
M  V30 7235 N 668.101 -1.57061 -0.130224 0
M  V30 7236 C 669.011 -2.02802 -1.17934 0
M  V30 7237 C 670.027 -0.946378 -1.46013 0
M  V30 7238 O 671.203 -1.25708 -1.57351 0
M  V30 7239 C 668.268 -2.41368 -2.48882 0
M  V30 7240 C 667.329 -3.63561 -2.28301 0
M  V30 7241 C 666.562 -4.00279 -3.53005 0
M  V30 7242 O 666.785 -3.37463 -4.59864 0
M  V30 7243 O 665.719 -4.93441 -3.44673 0
M  V30 7244 H 669.545 -2.92394 -0.820958 0
M  V30 7245 H 667.13 -1.45475 -0.340197 0
M  V30 7246 H 669.012 -2.66958 -3.26054 0
M  V30 7247 H 667.687 -1.54926 -2.84217 0
M  V30 7248 H 666.594 -3.43136 -1.49025 0
M  V30 7249 H 667.927 -4.50673 -1.97875 0
M  V30 7250 N 669.579 0.400081 -1.52437 0
M  V30 7251 C 670.828 1.14332 -1.66166 0
M  V30 7252 C 671.141 1.91419 -0.402253 0
M  V30 7253 O 672.347 2.6824 -0.419487 0
M  V30 7254 C 670.803 2.08137 -2.9361 0
M  V30 7255 C 670.411 1.36524 -4.26691 0
M  V30 7256 C 672.155 2.82664 -3.16703 0
M  V30 7257 C 670.062 2.29031 -5.45251 0
M  V30 7258 H 668.992 0.430499 -0.61902 0
M  V30 7259 H 671.643 0.407017 -1.78929 0
M  V30 7260 H 670.025 2.85358 -2.74567 0
M  V30 7261 H 671.199 0.646061 -4.56249 0
M  V30 7262 H 669.514 0.74002 -4.09771 0
M  V30 7263 H 672.111 3.52037 -4.0246 0
M  V30 7264 H 672.454 3.46122 -2.31312 0
M  V30 7265 H 672.987 2.12541 -3.36261 0
M  V30 7266 H 669.726 1.70206 -6.33017 0
M  V30 7267 H 669.246 2.98896 -5.2002 0
M  V30 7268 H 670.925 2.89359 -5.78689 0
M  V30 7269 N 671.057 1.43213 0.657864 0
M  V30 7270 C 672.334 1.35063 1.41483 0
M  V30 7271 C 672.714 -0.0038314 2.111 0
M  V30 7272 O 672.062 -1.02018 2.04462 0
M  V30 7273 C 672.272 2.53061 2.40335 0
M  V30 7274 C 673.62 2.9594 3.04474 0
M  V30 7275 O 674.644 2.53074 2.50663 0
M  V30 7276 O 673.503 3.70184 4.02027 0
M  V30 7277 H 670.597 0.533517 0.631893 0
M  V30 7278 H 673.143 1.55253 0.685162 0
M  V30 7279 H 671.915 3.43283 1.87809 0
M  V30 7280 H 671.538 2.34945 3.20759 0
M  V30 7281 N 672.536 -0.895792 1.29666 0
M  V30 7282 C 673.813 -1.62723 1.08538 0
M  V30 7283 C 674.193 -2.07848 -0.369119 0
M  V30 7284 O 673.541 -1.8372 -1.35864 0
M  V30 7285 C 673.751 -2.80505 2.07648 0
M  V30 7286 C 675.099 -3.51098 2.3878 0
M  V30 7287 O 676.123 -2.90679 2.05874 0
M  V30 7288 O 674.982 -4.60028 2.9502 0
M  V30 7289 H 672.076 -0.714692 0.416106 0
M  V30 7290 H 674.622 -0.943517 1.41053 0
M  V30 7291 H 673.394 -2.44386 3.05599 0
M  V30 7292 H 673.017 -3.5658 1.75887 0
M  V30 7293 N 674.014 -1.12206 -1.10668 0
M  V30 7294 C 675.242 -0.898635 -1.86366 0
M  V30 7295 C 675.657 0.551991 -1.80551 0
M  V30 7296 O 675.014 1.38152 -1.19249 0
M  V30 7297 C 675.065 -1.36199 -3.34861 0
M  V30 7298 O 674.786 -2.75576 -3.40573 0
M  V30 7299 C 676.287 -1.17515 -4.2744 0
M  V30 7300 H 673.507 -0.321281 -0.589084 0
M  V30 7301 H 676.051 -1.49142 -1.39918 0
M  V30 7302 H 674.206 -0.81249 -3.78784 0
M  V30 7303 H 674.62 -2.95851 -4.33096 0
M  V30 7304 H 676.094 -1.54827 -5.29842 0
M  V30 7305 H 676.571 -0.115486 -4.39048 0
M  V30 7306 H 677.177 -1.71203 -3.89319 0
M  V30 7307 N 675.492 1.28418 -0.913599 0
M  V30 7308 C 676.738 1.9527 -0.547484 0
M  V30 7309 C 677.071 1.71745 0.906486 0
M  V30 7310 O 676.346 1.03834 1.64465 0
M  V30 7311 C 676.629 3.49748 -0.857205 0
M  V30 7312 C 676.482 3.82675 -2.3639 0
M  V30 7313 C 677.801 4.3868 -0.353258 0
M  V30 7314 H 674.92 0.709236 -0.200381 0
M  V30 7315 H 677.562 1.51789 -1.14281 0
M  V30 7316 H 675.712 3.86915 -0.350548 0
M  V30 7317 H 677.384 3.55378 -2.94116 0
M  V30 7318 H 675.627 3.29724 -2.81894 0
M  V30 7319 H 676.298 4.90547 -2.53115 0
M  V30 7320 H 678.774 4.08584 -0.787288 0
M  V30 7321 H 677.65 5.45621 -0.599049 0
M  V30 7322 H 677.911 4.35753 0.746413 0
M  V30 7323 N 676.97 0.677563 1.42291 0
M  V30 7324 C 678.198 0.209459 2.05837 0
M  V30 7325 C 678.613 -1.13444 1.50917 0
M  V30 7326 O 677.97 -1.70529 0.65008 0
M  V30 7327 C 678.021 0.138819 3.61233 0
M  V30 7328 O 677.742 1.42962 4.14118 0
M  V30 7329 C 679.243 -0.352449 4.41897 0
M  V30 7330 H 676.463 0.101209 0.663323 0
M  V30 7331 H 679.007 0.925077 1.8238 0
M  V30 7332 H 677.162 -0.527505 3.83792 0
M  V30 7333 H 677.576 1.3048 5.08011 0
M  V30 7334 H 679.05 -0.350778 5.50884 0
M  V30 7335 H 679.527 -1.3882 4.16684 0
M  V30 7336 H 680.133 0.282236 4.24362 0
M  V30 7337 N 678.448 -1.51871 0.421078 0
M  V30 7338 C 679.673 -2.0684 -0.152371 0
M  V30 7339 C 680.098 -1.28802 -1.37083 0
M  V30 7340 O 679.456 -0.321482 -1.78427 0
M  V30 7341 C 679.504 -3.57532 -0.469368 0
M  V30 7342 O 678.608 -3.81818 -1.55848 0
M  V30 7343 H 677.949 -0.663939 -0.00898586 0
M  V30 7344 H 680.479 -1.95674 0.597724 0
M  V30 7345 H 680.489 -4.01515 -0.724553 0
M  V30 7346 H 679.164 -4.13761 0.421276 0
M  V30 7347 H 677.741 -3.49709 -1.29453 0
M  V30 7348 N 679.926 -0.151884 -1.56866 0
M  V30 7349 C 680.874 0.80299 -2.183 0
M  V30 7350 C 681.868 1.25174 -1.14139 0
M  V30 7351 O 683.074 1.21966 -1.3238 0
M  V30 7352 H 679.449 0.277169 -0.699057 0
M  V30 7353 H 681.42 0.260699 -2.97259 0
M  V30 7354 C 680.169 2.03009 -2.82281 0
M  V30 7355 H 679.492 1.69377 -3.62148 0
M  V30 7356 H 680.932 2.67753 -3.28762 0
M  V30 7357 C 679.391 2.84123 -1.81041 0
M  V30 7358 O 679.921 3.8063 -1.28388 0
M  V30 7359 N 678.127 2.48753 -1.50234 0
M  V30 7360 H 677.674 1.70337 -1.93244 0
M  V30 7361 H 677.632 3.03316 -0.827445 0
M  V30 7362 N 681.404 1.57128 0.121893 0
M  V30 7363 C 682.352 2.01109 1.16868 0
M  V30 7364 C 683.346 0.907532 1.43039 0
M  V30 7365 O 684.552 1.09274 1.43036 0
M  V30 7366 H 680.927 0.640539 0.393971 0
M  V30 7367 H 682.898 2.88261 0.771224 0
M  V30 7368 C 681.647 2.42887 2.48799 0
M  V30 7369 H 680.97 3.2737 2.29498 0
M  V30 7370 H 682.41 2.77461 3.20611 0
M  V30 7371 C 680.869 1.29137 3.11168 0
M  V30 7372 O 681.399 0.605756 3.97106 0
M  V30 7373 N 679.605 1.04916 2.71 0
M  V30 7374 H 679.152 1.60848 2.01211 0
M  V30 7375 H 679.11 0.290016 3.1306 0
M  V30 7376 N 682.882 -0.391992 1.52647 0
M  V30 7377 C 683.83 -1.4991 1.77848 0
M  V30 7378 C 684.824 -1.56587 0.646282 0
M  V30 7379 O 686.03 -1.59789 0.828698 0
M  V30 7380 H 682.405 -0.498883 0.56269 0
M  V30 7381 H 684.376 -1.25847 2.70564 0
M  V30 7382 C 683.125 -2.87081 1.96163 0
M  V30 7383 H 682.448 -2.82692 2.82711 0
M  V30 7384 H 683.888 -3.63792 2.17787 0
M  V30 7385 C 682.347 -3.28822 0.733348 0
M  V30 7386 O 682.877 -4.01598 -0.0906481 0
M  V30 7387 N 681.083 -2.85068 0.564317 0
M  V30 7388 H 680.63 -2.26012 1.23598 0
M  V30 7389 H 680.588 -3.13355 -0.256166 0
M  V30 7390 N 684.36 -1.4356 -0.65026 0
M  V30 7391 C 685.59 -1.48563 -1.4357 0
M  V30 7392 C 685.998 -0.103041 -1.88919 0
M  V30 7393 O 685.341 0.897602 -1.60277 0
M  V30 7394 C 685.403 -2.37181 -2.70158 0
M  V30 7395 C 685.067 -3.84673 -2.4673 0
M  V30 7396 C 686.064 -4.75704 -2.09765 0
M  V30 7397 C 683.749 -4.29189 -2.60963 0
M  V30 7398 C 685.743 -6.09249 -1.87334 0
M  V30 7399 C 683.43 -5.62787 -2.38147 0
M  V30 7400 C 684.428 -6.52634 -2.01389 0
M  V30 7401 O 684.116 -7.83761 -1.78813 0
M  V30 7402 H 683.848 -0.506743 -0.447423 0
M  V30 7403 H 686.402 -1.89001 -0.80423 0
M  V30 7404 H 684.632 -1.91636 -3.35876 0
M  V30 7405 H 686.321 -2.33354 -3.32116 0
M  V30 7406 H 687.087 -4.42589 -1.98343 0
M  V30 7407 H 682.966 -3.59529 -2.88548 0
M  V30 7408 H 686.51 -6.7934 -1.58567 0
M  V30 7409 H 682.407 -5.95469 -2.49173 0
M  V30 7410 H 683.175 -7.95368 -1.93214 0
M  V30 7411 N 685.838 0.888903 -1.30139 0
M  V30 7412 C 686.748 2.02705 -1.18101 0
M  V30 7413 C 687.764 1.73702 -0.101809 0
M  V30 7414 O 688.94 1.98906 -0.315984 0
M  V30 7415 C 686.005 3.35616 -0.869651 0
M  V30 7416 C 685.066 3.78067 -2.03381 0
M  V30 7417 C 684.299 5.04635 -1.73721 0
M  V30 7418 O 684.522 5.66531 -0.663267 0
M  V30 7419 O 683.456 5.43399 -2.58845 0
M  V30 7420 H 687.282 2.15788 -2.13704 0
M  V30 7421 H 684.867 1.01426 -1.09695 0
M  V30 7422 H 686.749 4.15358 -0.711043 0
M  V30 7423 H 685.424 3.23651 0.0565002 0
M  V30 7424 H 684.331 2.99046 -2.24772 0
M  V30 7425 H 685.664 3.94631 -2.94155 0
M  V30 7426 N 687.317 1.12792 1.10072 0
M  V30 7427 C 688.265 0.794523 2.18609 0
M  V30 7428 C 689.259 -0.220271 1.67962 0
M  V30 7429 O 690.465 -0.0780938 1.79831 0
M  V30 7430 H 686.84 0.239123 0.712969 0
M  V30 7431 H 688.811 1.71823 2.43966 0
M  V30 7432 C 687.56 0.269548 3.46654 0
M  V30 7433 H 686.883 1.04171 3.8599 0
M  V30 7434 H 688.323 0.0746242 4.23934 0
M  V30 7435 C 686.782 -1.00333 3.21613 0
M  V30 7436 O 687.312 -2.08042 3.4363 0
M  V30 7437 N 685.518 -0.931763 2.75257 0
M  V30 7438 H 685.065 -0.0551197 2.57541 0
M  V30 7439 H 685.023 -1.78405 2.58881 0
M  V30 7440 N 688.795 -1.27931 0.920396 0
M  V30 7441 C 690.072 -1.89728 0.475687 0
M  V30 7442 C 690.452 -1.8337 -1.04588 0
M  V30 7443 O 689.8 -1.27404 -1.89685 0
M  V30 7444 C 690.01 -3.33959 1.01354 0
M  V30 7445 C 691.358 -4.10907 1.06963 0
M  V30 7446 O 692.382 -3.42945 0.962646 0
M  V30 7447 O 691.241 -5.32399 1.23343 0
M  V30 7448 H 688.335 -0.81294 0.151845 0
M  V30 7449 H 690.881 -1.36252 1.01161 0
M  V30 7450 H 689.653 -3.32843 2.05746 0
M  V30 7451 H 689.276 -3.94944 0.458829 0
M  V30 7452 N 690.273 -0.685099 -1.4193 0
M  V30 7453 C 691.203 -0.0273506 -2.33484 0
M  V30 7454 C 692.184 0.778366 -1.51246 0
M  V30 7455 O 693.369 0.733449 -1.79817 0
M  V30 7456 C 690.499 0.917272 -3.34968 0
M  V30 7457 C 689.453 0.21941 -4.27437 0
M  V30 7458 C 688.779 1.27768 -5.1921 0
M  V30 7459 C 690.079 -0.907894 -5.14349 0
M  V30 7460 H 691.773 -0.791994 -2.88735 0
M  V30 7461 H 689.319 -0.382308 -1.38832 0
M  V30 7462 H 691.272 1.38657 -3.97935 0
M  V30 7463 H 689.996 1.71346 -2.78043 0
M  V30 7464 H 688.655 -0.229757 -3.65879 0
M  V30 7465 H 688.303 2.06612 -4.58607 0
M  V30 7466 H 688.003 0.815803 -5.81909 0
M  V30 7467 H 689.527 1.7477 -5.85054 0
M  V30 7468 H 690.941 -0.519348 -5.70943 0
M  V30 7469 H 689.338 -1.2962 -5.85934 0
M  V30 7470 H 690.408 -1.75218 -4.52136 0
M  V30 7471 N 691.751 1.51645 -0.429126 0
M  V30 7472 C 693.028 1.94579 0.199614 0
M  V30 7473 C 693.408 1.3673 1.60836 0
M  V30 7474 O 692.756 0.551062 2.21756 0
M  V30 7475 C 692.966 3.48506 0.185685 0
M  V30 7476 C 694.314 4.22756 0.395282 0
M  V30 7477 O 695.338 3.55219 0.264165 0
M  V30 7478 O 694.197 5.42555 0.655475 0
M  V30 7479 H 691.291 0.816007 0.134393 0
M  V30 7480 H 693.837 1.62577 -0.486513 0
M  V30 7481 H 692.609 3.83045 -0.799508 0
M  V30 7482 H 692.232 3.86927 0.91507 0
M  V30 7483 N 693.229 0.160201 1.56784 0
M  V30 7484 C 694.161 -0.80564 2.14574 0
M  V30 7485 C 695.174 -1.20154 1.09849 0
M  V30 7486 O 696.363 -1.14333 1.37078 0
M  V30 7487 C 693.463 -2.09434 2.6644 0
M  V30 7488 C 692.636 -1.86375 3.95706 0
M  V30 7489 C 691.695 -2.99358 4.32749 0
M  V30 7490 O 690.721 -2.70475 5.00831 0
M  V30 7491 N 691.923 -4.26867 3.93402 0
M  V30 7492 H 694.688 -0.311644 2.98075 0
M  V30 7493 H 692.249 -0.0229465 1.61884 0
M  V30 7494 H 694.241 -2.84091 2.88226 0
M  V30 7495 H 692.811 -2.50057 1.8759 0
M  V30 7496 H 692.031 -0.956821 3.82412 0
M  V30 7497 H 693.319 -1.68322 4.80151 0
M  V30 7498 H 692.717 -4.53197 3.38569 0
M  V30 7499 H 691.274 -4.98263 4.20211 0
M  V30 7500 N 694.707 -1.5719 -0.113559 0
M  V30 7501 C 695.953 -1.85412 -0.821597 0
M  V30 7502 C 696.286 -0.746722 -1.7927 0
M  V30 7503 O 695.561 0.246971 -1.92926 0
M  V30 7504 C 695.844 -3.24233 -1.56669 0
M  V30 7505 C 695.697 -4.45578 -0.614823 0
M  V30 7506 C 697.016 -3.60697 -2.52161 0
M  V30 7507 H 694.135 -0.674406 -0.29723 0
M  V30 7508 H 696.777 -1.89807 -0.085694 0
M  V30 7509 H 694.927 -3.20617 -2.19401 0
M  V30 7510 H 696.599 -4.613 0.00407137 0
M  V30 7511 H 694.842 -4.33738 0.0732332 0
M  V30 7512 H 695.513 -5.39395 -1.17292 0
M  V30 7513 H 697.989 -3.65139 -1.99532 0
M  V30 7514 H 696.865 -4.58798 -3.01323 0
M  V30 7515 H 697.126 -2.88403 -3.35076 0
M  V30 7516 N 696.185 0.383891 -1.52853 0
M  V30 7517 C 697.434 1.12563 -1.67369 0
M  V30 7518 C 697.747 1.90982 -0.422533 0
M  V30 7519 O 698.953 2.6778 -0.447914 0
M  V30 7520 C 697.409 2.05011 -2.95801 0
M  V30 7521 C 697.017 1.31991 -4.28115 0
M  V30 7522 C 698.761 2.79289 -3.19684 0
M  V30 7523 C 696.668 2.23235 -5.4765 0
M  V30 7524 H 695.598 0.42391 -0.623552 0
M  V30 7525 H 698.249 0.388016 -1.79351 0
M  V30 7526 H 696.631 2.82429 -2.77578 0
M  V30 7527 H 697.805 0.597633 -4.56908 0
M  V30 7528 H 696.12 0.696517 -4.10533 0
M  V30 7529 H 698.717 3.47749 -4.06171 0
M  V30 7530 H 699.06 3.43649 -2.3497 0
M  V30 7531 H 699.593 2.08962 -3.38496 0
M  V30 7532 H 696.332 1.63482 -6.34786 0
M  V30 7533 H 695.852 2.93364 -5.23161 0
M  V30 7534 H 697.531 2.83205 -5.81725 0
M  V30 7535 N 697.663 1.43903 0.642637 0
M  V30 7536 C 698.593 1.52697 1.76652 0
M  V30 7537 C 699.574 0.380816 1.65782 0
M  V30 7538 O 700.759 0.599432 1.84717 0
M  V30 7539 C 697.889 1.45975 3.15133 0
M  V30 7540 C 696.843 2.58949 3.40778 0
M  V30 7541 C 696.169 2.37279 4.79169 0
M  V30 7542 C 697.469 4.01153 3.34475 0
M  V30 7543 H 699.163 2.46766 1.69549 0
M  V30 7544 H 696.709 1.18767 0.814279 0
M  V30 7545 H 698.662 1.5073 3.93521 0
M  V30 7546 H 697.386 0.484162 3.22991 0
M  V30 7547 H 696.045 2.53564 2.64765 0
M  V30 7548 H 695.693 1.37939 4.83717 0
M  V30 7549 H 695.393 3.13016 4.97287 0
M  V30 7550 H 696.917 2.43834 5.59801 0
M  V30 7551 H 698.331 4.07968 4.02784 0
M  V30 7552 H 696.728 4.77001 3.64129 0
M  V30 7553 H 697.798 4.25539 2.32475 0
M  V30 7554 N 699.141 -0.881989 1.30609 0
M  V30 7555 C 700.089 -2.00942 1.17155 0
M  V30 7556 C 701.083 -1.69198 0.0827154 0
M  V30 7557 O 702.289 -1.78342 0.243775 0
M  V30 7558 H 698.664 -0.658913 0.362406 0
M  V30 7559 H 700.635 -2.09423 2.12567 0
M  V30 7560 C 699.384 -3.36294 0.883273 0
M  V30 7561 H 698.707 -3.61233 1.7132 0
M  V30 7562 H 700.147 -4.15812 0.829255 0
M  V30 7563 C 698.606 -3.34348 -0.413851 0
M  V30 7564 O 699.136 -3.75216 -1.43444 0
M  V30 7565 N 697.342 -2.87459 -0.426082 0
M  V30 7566 H 696.889 -2.54397 0.40493 0
M  V30 7567 H 696.847 -2.8654 -1.29391 0
M  V30 7568 N 700.619 -1.13374 -1.09472 0
M  V30 7569 C 701.866 -0.89519 -1.81639 0
M  V30 7570 C 702.194 0.57868 -1.85692 0
M  V30 7571 O 701.449 1.44426 -1.32059 0
M  V30 7572 C 701.748 -1.42759 -3.2765 0
M  V30 7573 C 701.414 -2.91822 -3.43731 0
M  V30 7574 C 700.076 -3.32521 -3.47827 0
M  V30 7575 C 702.428 -3.87727 -3.48307 0
M  V30 7576 C 699.756 -4.6781 -3.54078 0
M  V30 7577 C 702.108 -5.22859 -3.56091 0
M  V30 7578 C 700.772 -5.63086 -3.58456 0
M  V30 7579 H 700.042 -0.327573 -0.664663 0
M  V30 7580 H 702.689 -1.4156 -1.28969 0
M  V30 7581 H 700.994 -0.827871 -3.82954 0
M  V30 7582 H 702.691 -1.2191 -3.8202 0
M  V30 7583 H 699.281 -2.5935 -3.41226 0
M  V30 7584 H 703.465 -3.57371 -3.44383 0
M  V30 7585 H 698.721 -4.98353 -3.54195 0
M  V30 7586 H 702.895 -5.96989 -3.58577 0
M  V30 7587 H 700.522 -6.67905 -3.63052 0
M  V30 7588 N 702.098 1.27442 -0.927168 0
M  V30 7589 C 703.046 2.28844 -0.416333 0
M  V30 7590 C 704.04 1.61882 0.499057 0
M  V30 7591 O 705.246 1.75969 0.378817 0
M  V30 7592 H 701.621 0.742989 -0.116065 0
M  V30 7593 H 703.592 2.69344 -1.28438 0
M  V30 7594 C 702.341 3.4626 0.316107 0
M  V30 7595 H 701.664 3.97999 -0.379082 0
M  V30 7596 H 703.104 4.19173 0.637975 0
M  V30 7597 C 701.563 3.00211 1.5289 0
M  V30 7598 O 702.093 3.03837 2.62766 0
M  V30 7599 N 700.299 2.55713 1.38054 0
M  V30 7600 H 699.846 2.52962 0.4866 0
M  V30 7601 H 699.804 2.25264 2.19325 0
M  V30 7602 N 703.576 0.692616 1.41565 0
M  V30 7603 C 704.801 0.229776 2.06123 0
M  V30 7604 C 705.226 -1.11119 1.5177 0
M  V30 7605 O 704.584 -1.69498 0.643444 0
M  V30 7606 C 704.632 0.19469 3.60074 0
M  V30 7607 O 703.736 -0.831366 4.03933 0
M  V30 7608 H 703.077 0.113002 0.654314 0
M  V30 7609 H 705.607 0.946645 1.81383 0
M  V30 7610 H 705.617 0.0245487 4.07993 0
M  V30 7611 H 704.292 1.17339 3.99004 0
M  V30 7612 H 702.869 -0.630819 3.67526 0
M  V30 7613 N 705.054 -1.51416 0.437162 0
M  V30 7614 C 705.964 -2.31493 -0.380537 0
M  V30 7615 C 706.98 -1.40399 -1.02782 0
M  V30 7616 O 708.156 -1.73471 -1.02323 0
M  V30 7617 C 705.221 -3.1413 -1.46709 0
M  V30 7618 C 704.282 -4.21003 -0.839953 0
M  V30 7619 C 703.515 -4.9969 -1.87473 0
M  V30 7620 O 703.738 -4.79008 -3.09689 0
M  V30 7621 O 702.672 -5.8379 -1.46536 0
M  V30 7622 H 706.498 -3.02469 0.273183 0
M  V30 7623 H 704.083 -1.48059 0.199706 0
M  V30 7624 H 705.965 -3.65505 -2.09724 0
M  V30 7625 H 704.64 -2.45919 -2.10489 0
M  V30 7626 H 703.547 -3.73706 -0.171752 0
M  V30 7627 H 704.88 -4.91587 -0.245638 0
M  V30 7628 N 706.532 -0.168513 -1.56696 0
M  V30 7629 C 707.757 0.486688 -2.01609 0
M  V30 7630 C 708.182 1.56203 -1.04796 0
M  V30 7631 O 707.54 1.8128 -0.0270596 0
M  V30 7632 C 707.588 1.04451 -3.45141 0
M  V30 7633 O 706.692 2.15862 -3.51393 0
M  V30 7634 H 706.033 0.116831 -0.653641 0
M  V30 7635 H 708.563 -0.271579 -2.0279 0
M  V30 7636 H 708.573 1.36782 -3.84389 0
M  V30 7637 H 707.248 0.257155 -4.15104 0
M  V30 7638 H 705.825 1.84597 -3.24004 0
M  V30 7639 N 708.01 1.57248 0.105221 0
M  V30 7640 C 708.973 2.00388 1.11252 0
M  V30 7641 C 709.973 0.89594 1.33527 0
M  V30 7642 O 711.163 1.16166 1.29811 0
M  V30 7643 C 708.295 2.35589 2.46395 0
M  V30 7644 H 709.488 2.90591 0.741424 0
M  V30 7645 H 707.041 1.52332 0.349956 0
M  V30 7646 H 707.776 1.4831 2.884 0
M  V30 7647 H 707.561 3.16408 2.31578 0
M  V30 7648 H 709.051 2.69658 3.18864 0
M  V30 7649 N 709.488 -0.375779 1.53054 0
M  V30 7650 C 710.899 -0.95309 1.6054 0
M  V30 7651 C 711.25 -1.90575 0.466446 0
M  V30 7652 O 710.375 -2.12507 -0.408609 0
M  V30 7653 C 710.97 -1.73537 2.90982 0
M  V30 7654 C 709.529 -2.26218 3.00836 0
M  V30 7655 C 708.676 -1.07157 2.55759 0
M  V30 7656 H 711.627 -0.154895 1.57942 0
M  V30 7657 H 711.648 -2.59574 2.78211 0
M  V30 7658 H 711.16 -1.04176 3.73857 0
M  V30 7659 H 709.261 -2.98852 2.22527 0
M  V30 7660 H 709.374 -2.54799 4.05727 0
M  V30 7661 H 707.738 -1.43553 2.10391 0
M  V30 7662 H 708.521 -0.393099 3.41042 0
M  V30 7663 N 710.966 -1.44241 -0.634997 0
M  V30 7664 C 712.214 -1.46531 -1.39187 0
M  V30 7665 C 712.535 -0.0976441 -1.94755 0
M  V30 7666 O 711.805 0.869528 -1.75545 0
M  V30 7667 H 710.385 -0.539544 -0.516625 0
M  V30 7668 H 713.047 -1.79989 -0.747655 0
M  V30 7669 H 712.143 -2.18848 -2.22513 0
M  V30 7670 N 712.444 0.87505 -1.31075 0
M  V30 7671 C 713.374 1.99775 -1.20881 0
M  V30 7672 C 714.355 1.69822 -0.0971612 0
M  V30 7673 O 715.54 1.92158 -0.280895 0
M  V30 7674 C 712.67 3.35163 -0.910118 0
M  V30 7675 C 711.624 3.79406 -1.98078 0
M  V30 7676 C 710.95 5.12197 -1.53488 0
M  V30 7677 C 712.25 3.97061 -3.39323 0
M  V30 7678 H 713.944 2.08562 -2.14808 0
M  V30 7679 H 711.49 1.00207 -1.03415 0
M  V30 7680 H 713.443 4.13237 -0.825423 0
M  V30 7681 H 712.167 3.26536 0.064822 0
M  V30 7682 H 710.826 3.03568 -2.05528 0
M  V30 7683 H 710.474 5.00007 -0.547941 0
M  V30 7684 H 710.174 5.4277 -2.2511 0
M  V30 7685 H 711.698 5.92785 -1.46417 0
M  V30 7686 H 713.112 4.65545 -3.34576 0
M  V30 7687 H 711.509 4.39025 -4.09118 0
M  V30 7688 H 712.579 3.00601 -3.80483 0
M  V30 7689 N 713.922 1.13953 1.08869 0
M  V30 7690 C 715.147 0.928559 1.85452 0
M  V30 7691 C 715.572 -0.517642 1.80837 0
M  V30 7692 O 714.93 -1.36779 1.19001 0
M  V30 7693 C 714.978 1.42814 3.31114 0
M  V30 7694 O 714.082 0.617129 4.07756 0
M  V30 7695 H 713.423 0.33235 0.574839 0
M  V30 7696 H 715.953 1.5156 1.37443 0
M  V30 7697 H 715.963 1.43425 3.8196 0
M  V30 7698 H 714.638 2.48109 3.33788 0
M  V30 7699 H 713.215 0.679365 3.66659 0
M  V30 7700 N 715.4 -1.26948 0.933913 0
M  V30 7701 C 716.677 -1.89212 0.495784 0
M  V30 7702 C 717.057 -1.84469 -1.02637 0
M  V30 7703 O 716.405 -1.29409 -1.88323 0
M  V30 7704 C 716.615 -3.32865 1.0489 0
M  V30 7705 C 717.963 -4.09749 1.11315 0
M  V30 7706 O 718.987 -3.41905 0.998966 0
M  V30 7707 O 717.846 -5.31061 1.28983 0
M  V30 7708 H 714.94 -0.811284 0.160459 0
M  V30 7709 H 717.486 -1.35171 1.02601 0
M  V30 7710 H 716.258 -3.30642 2.09265 0
M  V30 7711 H 715.881 -3.94435 0.500692 0
M  V30 7712 N 716.879 -0.700114 -1.41195 0
M  V30 7713 C 717.789 -0.0382854 -2.34569 0
M  V30 7714 C 718.805 0.761036 -1.56474 0
M  V30 7715 O 719.981 0.697553 -1.88934 0
M  V30 7716 C 717.046 0.883522 -3.35253 0
M  V30 7717 C 716.107 0.0758957 -4.29233 0
M  V30 7718 C 715.34 0.9538 -5.25108 0
M  V30 7719 O 715.563 2.19326 -5.26547 0
M  V30 7720 O 714.497 0.401049 -6.00562 0
M  V30 7721 H 718.323 -0.808073 -2.92752 0
M  V30 7722 H 715.908 -0.460479 -1.42127 0
M  V30 7723 H 717.79 1.41199 -3.9704 0
M  V30 7724 H 716.465 1.63272 -2.79506 0
M  V30 7725 H 715.372 -0.497274 -3.7078 0
M  V30 7726 H 716.705 -0.634741 -4.8809 0
M  V30 7727 N 718.357 1.51182 -0.445186 0
M  V30 7728 C 719.304 2.27939 0.362291 0
M  V30 7729 C 720.274 1.31864 1.01 0
M  V30 7730 O 721.459 1.60776 1.02741 0
M  V30 7731 C 718.599 3.13016 1.45311 0
M  V30 7732 C 717.712 4.24093 0.822757 0
M  V30 7733 C 716.847 4.96467 1.88928 0
M  V30 7734 C 715.886 5.99454 1.23778 0
M  V30 7735 N 715.023 6.65206 2.24602 0
M  V30 7736 H 719.863 2.965 -0.29862 0
M  V30 7737 H 717.4 1.46237 -0.15911 0
M  V30 7738 H 719.358 3.60673 2.09692 0
M  V30 7739 H 717.988 2.46553 2.08354 0
M  V30 7740 H 717.04 3.80341 0.0670364 0
M  V30 7741 H 718.352 4.97853 0.307184 0
M  V30 7742 H 717.506 5.47712 2.60953 0
M  V30 7743 H 716.245 4.22355 2.4386 0
M  V30 7744 H 715.25 5.47494 0.503042 0
M  V30 7745 H 716.475 6.75527 0.695694 0
M  V30 7746 H 714.421 5.93901 2.78599 0
M  V30 7747 H 714.338 7.34756 1.77958 0
M  V30 7748 H 715.606 7.21078 2.96085 0
M  V30 7749 N 719.835 0.176821 1.56605 0
M  V30 7750 C 720.765 -0.746841 2.21234 0
M  V30 7751 C 721.746 -1.23502 1.16967 0
M  V30 7752 O 722.931 -1.28718 1.45414 0
M  V30 7753 C 720.061 -1.97407 2.8574 0
M  V30 7754 C 719.015 -1.62153 3.96094 0
M  V30 7755 C 718.341 -2.92387 4.47676 0
M  V30 7756 C 719.641 -0.845353 5.15413 0
M  V30 7757 H 721.335 -0.208116 2.98676 0
M  V30 7758 H 718.881 -0.0986594 1.43662 0
M  V30 7759 H 720.834 -2.62531 3.2963 0
M  V30 7760 H 719.558 -2.53703 2.05676 0
M  V30 7761 H 718.217 -0.993964 3.52868 0
M  V30 7762 H 717.865 -3.46734 3.64396 0
M  V30 7763 H 717.565 -2.69551 5.22127 0
M  V30 7764 H 719.089 -3.5853 4.94255 0
M  V30 7765 H 720.503 -1.39929 5.55961 0
M  V30 7766 H 718.9 -0.715814 5.95815 0
M  V30 7767 H 719.97 0.157239 4.84645 0
M  V30 7768 N 721.313 -1.57302 -0.09688 0
M  V30 7769 C 722.261 -2.02942 -1.13654 0
M  V30 7770 C 723.255 -0.930173 -1.41577 0
M  V30 7771 O 724.461 -1.11535 -1.41279 0
M  V30 7772 H 720.836 -0.646726 -0.383731 0
M  V30 7773 H 722.807 -2.89452 -0.725267 0
M  V30 7774 C 721.556 -2.46815 -2.44903 0
M  V30 7775 H 720.879 -3.30979 -2.24261 0
M  V30 7776 H 722.319 -2.82527 -3.16156 0
M  V30 7777 C 720.778 -1.34071 -3.09074 0
M  V30 7778 O 721.308 -0.668856 -3.96092 0
M  V30 7779 N 719.514 -1.09214 -2.69296 0
M  V30 7780 H 719.061 -1.64029 -1.98626 0
M  V30 7781 H 719.019 -0.339785 -3.12559 0
M  V30 7782 N 722.791 0.367657 -1.53252 0
M  V30 7783 C 723.721 1.45632 -1.8252 0
M  V30 7784 C 724.702 1.55979 -0.678568 0
M  V30 7785 O 725.887 1.70581 -0.928217 0
M  V30 7786 C 723.017 2.82994 -2.01325 0
M  V30 7787 C 721.971 2.87473 -3.17086 0
M  V30 7788 C 721.297 4.2749 -3.21179 0
M  V30 7789 C 722.597 2.55182 -4.55719 0
M  V30 7790 H 724.291 1.21387 -2.73689 0
M  V30 7791 H 721.837 0.58251 -1.31692 0
M  V30 7792 H 723.79 3.59179 -2.20383 0
M  V30 7793 H 722.514 3.08622 -1.06864 0
M  V30 7794 H 721.173 2.13739 -2.97844 0
M  V30 7795 H 720.821 4.5019 -2.24361 0
M  V30 7796 H 720.521 4.31403 -3.98955 0
M  V30 7797 H 722.045 5.0555 -3.42419 0
M  V30 7798 H 723.459 3.21081 -4.74953 0
M  V30 7799 H 721.856 2.70414 -5.3572 0
M  V30 7800 H 722.926 1.5044 -4.60973 0
M  V30 7801 N 724.269 1.44576 0.627338 0
M  V30 7802 C 725.497 1.51048 1.41394 0
M  V30 7803 C 725.912 0.136568 1.88305 0
M  V30 7804 O 725.269 -0.858251 1.6106 0
M  V30 7805 C 725.32 2.47837 2.63172 0
M  V30 7806 O 725.041 3.79887 2.18215 0
M  V30 7807 C 726.542 2.63811 3.56257 0
M  V30 7808 H 723.762 0.512171 0.4335 0
M  V30 7809 H 726.306 1.89576 0.766878 0
M  V30 7810 H 724.461 2.12433 3.23961 0
M  V30 7811 H 724.875 4.32177 2.97192 0
M  V30 7812 H 726.349 3.35554 4.38301 0
M  V30 7813 H 726.826 1.69169 4.05313 0
M  V30 7814 H 727.432 3.0013 3.01333 0
M  V30 7815 N 725.747 -0.868086 1.31537 0
M  V30 7816 C 726.996 -1.61607 1.20689 0
M  V30 7817 C 727.309 -1.94204 -0.233275 0
M  V30 7818 O 728.515 -2.67515 -0.463465 0
M  V30 7819 C 726.971 -2.91348 2.11292 0
M  V30 7820 C 726.579 -2.66227 3.60315 0
M  V30 7821 C 728.323 -3.69344 2.09249 0
M  V30 7822 C 726.23 -3.91887 4.42921 0
M  V30 7823 H 725.16 -0.606373 0.448138 0
M  V30 7824 H 727.811 -0.959666 1.56405 0
M  V30 7825 H 726.193 -3.58374 1.68477 0
M  V30 7826 H 727.367 -2.07597 4.11388 0
M  V30 7827 H 725.682 -2.01582 3.64354 0
M  V30 7828 H 728.279 -4.62567 2.68209 0
M  V30 7829 H 728.622 -4.02044 1.0801 0
M  V30 7830 H 729.155 -3.09205 2.50274 0
M  V30 7831 H 725.894 -3.64336 5.44922 0
M  V30 7832 H 725.414 -4.49961 3.96605 0
M  V30 7833 H 727.093 -4.59754 4.55231 0
M  V30 7834 N 727.225 -1.14528 -1.08264 0
M  V30 7835 C 728.157 -0.791325 -2.15106 0
M  V30 7836 C 729.17 0.192449 -1.61659 0
M  V30 7837 O 730.359 -0.0294704 -1.78476 0
M  V30 7838 C 727.459 -0.154183 -3.38549 0
M  V30 7839 C 726.632 -1.17305 -4.21377 0
M  V30 7840 C 725.691 -0.559401 -5.23218 0
M  V30 7841 O 724.717 -1.22277 -5.55911 0
M  V30 7842 N 725.919 0.663159 -5.767 0
M  V30 7843 H 728.684 -1.71076 -2.46075 0
M  V30 7844 H 726.245 -1.0399 -1.24087 0
M  V30 7845 H 728.237 0.268884 -4.03806 0
M  V30 7846 H 726.807 0.668418 -3.0537 0
M  V30 7847 H 726.027 -1.773 -3.52077 0
M  V30 7848 H 727.315 -1.86128 -4.73533 0
M  V30 7849 H 726.713 1.22066 -5.52373 0
M  V30 7850 H 725.27 1.02871 -6.43631 0
M  V30 7851 N 728.703 1.26451 -0.940633 0
M  V30 7852 C 729.651 2.28389 -0.440581 0
M  V30 7853 C 730.645 1.62402 0.481859 0
M  V30 7854 O 731.851 1.76361 0.360132 0
M  V30 7855 H 728.226 0.741716 -0.123938 0
M  V30 7856 H 730.197 2.67967 -1.31288 0
M  V30 7857 C 728.946 3.46576 0.279364 0
M  V30 7858 H 728.269 3.97574 -0.421274 0
M  V30 7859 H 729.709 4.19826 0.59348 0
M  V30 7860 C 728.168 3.01815 1.49697 0
M  V30 7861 O 728.698 3.06607 2.59529 0
M  V30 7862 N 726.904 2.57163 1.35334 0
M  V30 7863 H 726.451 2.53464 0.459743 0
M  V30 7864 H 726.409 2.27578 2.16923 0
M  V30 7865 N 730.181 0.707592 1.40822 0
M  V30 7866 C 731.458 0.171172 1.9485 0
M  V30 7867 C 731.838 -1.32143 1.64625 0
M  V30 7868 O 731.186 -2.07372 0.959647 0
M  V30 7869 C 731.396 0.475334 3.45748 0
M  V30 7870 C 732.744 0.409625 4.22619 0
M  V30 7871 O 733.768 0.410934 3.53822 0
M  V30 7872 O 732.627 0.380185 5.45176 0
M  V30 7873 H 729.721 0.022015 0.826707 0
M  V30 7874 H 732.267 0.784577 1.50474 0
M  V30 7875 H 731.039 1.50801 3.61075 0
M  V30 7876 H 730.662 -0.168439 3.97243 0
M  V30 7877 N 731.66 -1.50943 0.453197 0
M  V30 7878 C 732.623 -2.26684 -0.338705 0
M  V30 7879 C 733.623 -1.30748 -0.936032 0
M  V30 7880 O 734.813 -1.54327 -0.808002 0
M  V30 7881 C 731.945 -3.07063 -1.48071 0
M  V30 7882 H 733.138 -2.98131 0.325289 0
M  V30 7883 H 730.691 -1.54926 0.206771 0
M  V30 7884 H 731.426 -2.4007 -2.18029 0
M  V30 7885 H 731.211 -3.77545 -1.0584 0
M  V30 7886 H 732.701 -3.64393 -2.0398 0
M  V30 7887 N 733.138 -0.185124 -1.56509 0
M  V30 7888 C 734.368 0.461469 -2.0138 0
M  V30 7889 C 734.776 1.56417 -1.06445 0
M  V30 7890 O 734.119 1.83603 -0.0597515 0
M  V30 7891 C 734.181 1.08731 -3.42663 0
M  V30 7892 C 733.845 0.124581 -4.5683 0
M  V30 7893 C 734.842 -0.662295 -5.15664 0
M  V30 7894 C 732.527 0.0163947 -5.02297 0
M  V30 7895 C 734.521 -1.54442 -6.18406 0
M  V30 7896 C 732.208 -0.869301 -6.04885 0
M  V30 7897 C 733.206 -1.64828 -6.62813 0
M  V30 7898 O 732.894 -2.51915 -7.63409 0
M  V30 7899 H 732.626 0.1212 -0.665046 0
M  V30 7900 H 735.18 -0.288119 -2.03369 0
M  V30 7901 H 733.41 1.8853 -3.37629 0
M  V30 7902 H 735.099 1.63753 -3.71403 0
M  V30 7903 H 735.865 -0.588963 -4.81411 0
M  V30 7904 H 731.744 0.61253 -4.56913 0
M  V30 7905 H 735.288 -2.15289 -6.63548 0
M  V30 7906 H 731.185 -0.943786 -6.38563 0
M  V30 7907 H 731.953 -2.45584 -7.80789 0
M  V30 7908 N 734.616 1.57351 0.0885366 0
M  V30 7909 C 735.865 1.85604 0.789556 0
M  V30 7910 C 736.178 0.775352 1.79576 0
M  V30 7911 O 737.384 0.945206 2.54515 0
M  V30 7912 C 735.84 3.29175 1.45506 0
M  V30 7913 C 735.448 4.45331 0.488278 0
M  V30 7914 C 737.192 3.66646 2.13942 0
M  V30 7915 C 735.099 5.79937 1.15874 0
M  V30 7916 H 734.029 0.692346 0.298619 0
M  V30 7917 H 736.68 1.83451 0.0425821 0
M  V30 7918 H 735.062 3.25889 2.24972 0
M  V30 7919 H 736.236 4.59977 -0.275359 0
M  V30 7920 H 734.551 4.16301 -0.0907363 0
M  V30 7921 H 737.148 4.64498 2.6485 0
M  V30 7922 H 737.491 2.956 2.93132 0
M  V30 7923 H 738.024 3.71848 1.41328 0
M  V30 7924 H 734.763 6.54232 0.407508 0
M  V30 7925 H 734.283 5.69123 1.89364 0
M  V30 7926 H 735.962 6.24718 1.68336 0
M  V30 7927 N 736.094 -0.359525 1.53444 0
M  V30 7928 C 737.505 -0.936009 1.61542 0
M  V30 7929 C 737.856 -1.90069 0.486633 0
M  V30 7930 O 736.981 -2.12929 -0.386047 0
M  V30 7931 C 737.576 -1.70441 2.92806 0
M  V30 7932 C 736.135 -2.23015 3.03218 0
M  V30 7933 C 735.282 -1.04438 2.56881 0
M  V30 7934 H 738.233 -0.138134 1.58098 0
M  V30 7935 H 738.254 -2.56609 2.80948 0
M  V30 7936 H 737.766 -1.00205 3.74941 0
M  V30 7937 H 735.867 -2.96475 2.25684 0
M  V30 7938 H 735.98 -2.50481 4.08407 0
M  V30 7939 H 734.344 -1.41314 2.11902 0
M  V30 7940 H 735.127 -0.356905 3.4144 0
M  V30 7941 N 737.572 -1.44907 -0.619662 0
M  V30 7942 C 738.519 -1.52654 -1.73105 0
M  V30 7943 C 739.489 -0.373334 -1.6185 0
M  V30 7944 O 740.674 -0.585143 -1.81606 0
M  V30 7945 C 737.814 -1.48769 -3.11387 0
M  V30 7946 C 736.927 -2.74551 -3.33535 0
M  V30 7947 C 736.062 -2.62421 -4.61854 0
M  V30 7948 C 735.101 -3.83312 -4.77219 0
M  V30 7949 N 734.238 -3.69789 -5.96826 0
M  V30 7950 H 739.078 -2.47605 -1.65819 0
M  V30 7951 H 736.615 -1.22875 -0.808719 0
M  V30 7952 H 738.573 -1.44507 -3.91374 0
M  V30 7953 H 737.203 -0.573783 -3.1766 0
M  V30 7954 H 736.255 -2.88953 -2.47408 0
M  V30 7955 H 737.567 -3.64253 -3.40765 0
M  V30 7956 H 736.721 -2.56056 -5.50019 0
M  V30 7957 H 735.46 -1.70298 -4.57001 0
M  V30 7958 H 734.465 -3.90049 -3.87481 0
M  V30 7959 H 735.69 -4.76486 -4.83878 0
M  V30 7960 H 733.636 -2.80426 -5.93041 0
M  V30 7961 H 733.553 -4.53116 -6.05163 0
M  V30 7962 H 734.821 -3.67335 -6.87521 0
M  V30 7963 N 739.05 0.861098 -1.31996 0
M  V30 7964 C 740.28 1.64501 -1.24992 0
M  V30 7965 C 740.688 1.88288 0.185576 0
M  V30 7966 O 740.031 1.44756 1.131 0
M  V30 7967 C 740.093 3.03098 -1.93319 0
M  V30 7968 C 739.757 3.02381 -3.42658 0
M  V30 7969 C 740.754 2.79696 -4.38254 0
M  V30 7970 C 738.439 3.23221 -3.84491 0
M  V30 7971 C 740.433 2.77843 -5.73657 0
M  V30 7972 C 738.12 3.20996 -5.20005 0
M  V30 7973 C 739.118 2.98335 -6.14398 0
M  V30 7974 O 738.806 2.95971 -7.47433 0
M  V30 7975 H 738.538 0.519309 -0.432775 0
M  V30 7976 H 741.092 1.08241 -1.74565 0
M  V30 7977 H 739.322 3.61121 -1.38306 0
M  V30 7978 H 741.011 3.63751 -1.8011 0
M  V30 7979 H 741.777 2.63368 -4.07262 0
M  V30 7980 H 737.656 3.39887 -3.11445 0
M  V30 7981 H 741.2 2.60074 -6.47308 0
M  V30 7982 H 737.097 3.36865 -5.50629 0
M  V30 7983 H 737.865 3.1197 -7.56714 0
M  V30 7984 N 740.528 1.15101 1.07655 0
M  V30 7985 C 741.805 0.834578 1.76902 0
M  V30 7986 C 742.185 -0.670431 2.00171 0
M  V30 7987 O 741.533 -1.61378 1.6177 0
M  V30 7988 C 741.743 1.64191 3.07965 0
M  V30 7989 C 743.091 1.84615 3.82364 0
M  V30 7990 O 744.115 1.60941 3.17768 0
M  V30 7991 O 742.974 2.24244 4.98374 0
M  V30 7992 H 740.068 0.306608 0.768063 0
M  V30 7993 H 742.614 1.25663 1.14048 0
M  V30 7994 H 741.386 2.66386 2.86626 0
M  V30 7995 H 741.009 1.216 3.78549 0
M  V30 7996 N 742.006 -1.2595 0.947325 0
M  V30 7997 C 743.231 -1.98083 0.614633 0
M  V30 7998 C 743.656 -1.70013 -0.804815 0
M  V30 7999 O 743.014 -0.95175 -1.54309 0
M  V30 8000 C 743.062 -3.4993 0.870706 0
M  V30 8001 O 742.166 -4.12364 -0.0541451 0
M  V30 8002 H 741.507 -0.621232 0.234451 0
M  V30 8003 H 744.037 -1.60259 1.27193 0
M  V30 8004 H 744.047 -4.00198 0.794051 0
M  V30 8005 H 742.722 -3.69691 1.90529 0
M  V30 8006 H 741.299 -3.72826 0.0740917 0
M  V30 8007 N 743.484 -0.715051 -1.40445 0
M  V30 8008 C 744.432 -0.0509974 -2.32544 0
M  V30 8009 C 745.426 0.747602 -1.52011 0
M  V30 8010 O 746.632 0.651031 -1.67814 0
M  V30 8011 H 743.007 0.00231113 -0.751996 0
M  V30 8012 H 744.978 -0.84449 -2.86201 0
M  V30 8013 C 743.727 0.857101 -3.3697 0
M  V30 8014 H 743.05 0.252 -3.99005 0
M  V30 8015 H 744.49 1.28971 -4.03909 0
M  V30 8016 C 742.949 1.98231 -2.72408 0
M  V30 8017 O 743.479 3.07309 -2.58697 0
M  V30 8018 N 741.685 1.76577 -2.308 0
M  V30 8019 H 741.232 0.878641 -2.42152 0
M  V30 8020 H 741.19 2.52043 -1.87941 0
M  V30 8021 N 744.962 1.50701 -0.461195 0
M  V30 8022 C 746.21 2.01867 0.0970051 0
M  V30 8023 C 746.531 1.34591 1.41104 0
M  V30 8024 O 745.801 0.488041 1.89723 0
M  V30 8025 H 744.381 0.74599 0.0388392 0
M  V30 8026 H 747.043 1.85129 -0.609357 0
M  V30 8027 H 746.139 3.11051 0.255688 0
M  V30 8028 N 746.441 0.193421 1.56409 0
M  V30 8029 C 747.669 -0.451438 2.01915 0
M  V30 8030 C 748.084 -1.55306 1.07357 0
M  V30 8031 O 747.441 -1.82333 0.0781512 0
M  V30 8032 C 747.492 -1.00931 3.47124 0
M  V30 8033 O 747.213 0.0483623 4.38073 0
M  V30 8034 C 748.714 -1.73021 4.0814 0
M  V30 8035 H 745.934 -0.113495 0.661332 0
M  V30 8036 H 748.478 0.301636 2.02263 0
M  V30 8037 H 746.633 -1.71277 3.47481 0
M  V30 8038 H 747.047 -0.366644 5.23217 0
M  V30 8039 H 748.521 -2.07289 5.11601 0
M  V30 8040 H 748.998 -2.6333 3.51502 0
M  V30 8041 H 749.604 -1.07264 4.11551 0
M  V30 8042 N 747.919 -1.57396 -0.0801906 0
M  V30 8043 C 749.144 -1.91437 -0.797909 0
M  V30 8044 C 749.569 -0.789075 -1.70749 0
M  V30 8045 O 748.927 0.25857 -1.79447 0
M  V30 8046 C 748.975 -3.24402 -1.57467 0
M  V30 8047 O 748.079 -3.13043 -2.68473 0
M  V30 8048 H 747.42 -0.627109 -0.218243 0
M  V30 8049 H 749.95 -2.04537 -0.050949 0
M  V30 8050 H 749.96 -3.58072 -1.95571 0
M  V30 8051 H 748.635 -4.05884 -0.907229 0
M  V30 8052 H 747.212 -2.90915 -2.33287 0
M  V30 8053 N 749.397 0.351382 -1.53633 0
M  V30 8054 C 750.674 1.10903 -1.6112 0
M  V30 8055 C 751.054 2.06725 -0.427556 0
M  V30 8056 O 750.402 2.20992 0.580916 0
M  V30 8057 C 750.612 1.83561 -2.96827 0
M  V30 8058 C 751.96 2.37587 -3.51906 0
M  V30 8059 O 752.984 1.93669 -2.9895 0
M  V30 8060 O 751.843 3.17913 -4.44515 0
M  V30 8061 H 748.937 0.509558 -0.651368 0
M  V30 8062 H 751.483 0.353504 -1.65977 0
M  V30 8063 H 750.255 1.1371 -3.74414 0
M  V30 8064 H 749.878 2.6599 -2.95525 0
M  V30 8065 N 750.875 1.45233 0.611969 0
M  V30 8066 C 752.124 1.48296 1.36716 0
M  V30 8067 C 752.437 0.12706 1.95187 0
M  V30 8068 O 753.643 0.0353066 2.71477 0
M  V30 8069 C 752.099 2.61168 2.47627 0
M  V30 8070 C 751.707 4.03051 1.95587 0
M  V30 8071 C 753.451 2.73472 3.24674 0
M  V30 8072 C 751.358 5.07312 3.03954 0
M  V30 8073 H 750.288 0.5518 0.513841 0
M  V30 8074 H 752.939 1.7136 0.656359 0
M  V30 8075 H 751.321 2.31379 3.21372 0
M  V30 8076 H 752.495 4.42497 1.2858 0
M  V30 8077 H 750.81 3.95158 1.31298 0
M  V30 8078 H 753.407 3.48537 4.05494 0
M  V30 8079 H 753.75 1.79953 3.75397 0
M  V30 8080 H 754.283 3.02765 2.58028 0
M  V30 8081 H 751.022 6.02525 2.58154 0
M  V30 8082 H 750.542 4.7244 3.69541 0
M  V30 8083 H 752.221 5.31867 3.6841 0
M  V30 8084 N 752.353 -0.854086 1.3245 0
M  V30 8085 C 753.263 -1.99503 1.23434 0
M  V30 8086 C 754.279 -1.73371 0.147828 0
M  V30 8087 O 755.455 -1.97998 0.368609 0
M  V30 8088 C 752.52 -3.33192 0.958328 0
M  V30 8089 C 751.581 -3.72542 2.13333 0
M  V30 8090 C 750.814 -4.99852 1.8704 0
M  V30 8091 O 751.037 -5.64573 0.813239 0
M  V30 8092 O 749.971 -5.36345 2.73161 0
M  V30 8093 H 753.797 -2.10046 2.1935 0
M  V30 8094 H 751.382 -0.984823 1.12346 0
M  V30 8095 H 753.264 -4.13327 0.820918 0
M  V30 8096 H 751.939 -3.23687 0.0293299 0
M  V30 8097 H 750.846 -2.92981 2.32622 0
M  V30 8098 H 752.179 -3.86694 3.04514 0
M  V30 8099 N 753.831 -1.1567 -1.07043 0
M  V30 8100 C 754.763 -0.814095 -2.14255 0
M  V30 8101 C 755.776 0.175293 -1.61854 0
M  V30 8102 O 756.965 -0.0483984 -1.78434 0
M  V30 8103 C 754.065 -0.190082 -3.38367 0
M  V30 8104 C 753.238 -1.21768 -4.20109 0
M  V30 8105 C 752.297 -0.614863 -5.22595 0
M  V30 8106 O 751.323 -1.28167 -5.54583 0
M  V30 8107 N 752.525 0.601955 -5.77371 0
M  V30 8108 H 755.29 -1.73677 -2.44247 0
M  V30 8109 H 752.851 -1.05301 -1.22977 0
M  V30 8110 H 754.843 0.22604 -4.04068 0
M  V30 8111 H 753.413 0.635992 -3.06062 0
M  V30 8112 H 752.633 -1.81025 -3.50177 0
M  V30 8113 H 753.921 -1.9114 -4.71533 0
M  V30 8114 H 753.319 1.162 -5.53637 0
M  V30 8115 H 751.876 0.96039 -6.44686 0
M  V30 8116 N 755.309 1.25446 -0.953992 0
M  V30 8117 C 756.259 2.23627 -0.444413 0
M  V30 8118 C 757.243 1.54004 0.465993 0
M  V30 8119 O 758.435 1.74454 0.29915 0
M  V30 8120 C 755.564 3.42179 0.277175 0
M  V30 8121 C 754.65 4.1907 -0.651263 0
M  V30 8122 N 755.041 4.73346 -1.78262 0
M  V30 8123 C 753.339 4.43628 -0.459338 0
M  V30 8124 C 754.04 5.31576 -2.36224 0
M  V30 8125 N 753.016 5.17991 -1.64884 0
M  V30 8126 H 756.818 2.63197 -1.30785 0
M  V30 8127 H 754.332 1.40677 -0.811402 0
M  V30 8128 H 756.329 4.11653 0.659367 0
M  V30 8129 H 754.989 3.04134 1.13723 0
M  V30 8130 H 756 4.705 -2.1645 0
M  V30 8131 H 752.677 4.15963 0.357885 0
M  V30 8132 H 754.067 5.84361 -3.3162 0
M  V30 8133 N 756.787 0.722489 1.40064 0
M  V30 8134 C 758.064 0.191829 1.94657 0
M  V30 8135 C 758.444 -1.30389 1.66018 0
M  V30 8136 O 757.792 -2.06342 0.981588 0
M  V30 8137 C 758.002 0.511978 3.45224 0
M  V30 8138 C 759.35 0.454426 4.22161 0
M  V30 8139 O 760.374 0.448438 3.53366 0
M  V30 8140 O 759.233 0.437986 5.44742 0
M  V30 8141 H 756.327 0.0307821 0.826427 0
M  V30 8142 H 758.873 0.800493 1.49634 0
M  V30 8143 H 757.645 1.54622 3.59455 0
M  V30 8144 H 757.268 -0.126296 3.97399 0
M  V30 8145 N 758.265 -1.50454 0.469181 0
M  V30 8146 C 759.511 -2.02615 -0.0865971 0
M  V30 8147 C 759.844 -1.35062 -1.39542 0
M  V30 8148 O 759.119 -0.475701 -1.88593 0
M  V30 8149 C 759.402 -3.59068 -0.272385 0
M  V30 8150 C 759.255 -4.37196 1.05733 0
M  V30 8151 C 760.574 -4.2793 -1.0278 0
M  V30 8152 H 757.693 -0.736389 -0.0299977 0
M  V30 8153 H 760.335 -1.79792 0.614399 0
M  V30 8154 H 758.485 -3.78646 -0.869471 0
M  V30 8155 H 760.157 -4.29195 1.69084 0
M  V30 8156 H 758.4 -4.01013 1.65442 0
M  V30 8157 H 759.071 -5.44924 0.880997 0
M  V30 8158 H 761.547 -4.12816 -0.521718 0
M  V30 8159 H 760.423 -5.37214 -1.12659 0
M  V30 8160 H 760.684 -3.90968 -2.0639 0
M  V30 8161 N 759.743 -0.201713 -1.56304 0
M  V30 8162 C 760.691 0.733133 -2.20744 0
M  V30 8163 C 761.685 1.2148 -1.18064 0
M  V30 8164 O 762.891 1.17692 -1.36193 0
M  V30 8165 H 759.266 0.254789 -0.707521 0
M  V30 8166 H 761.237 0.165996 -2.97938 0
M  V30 8167 C 759.986 1.93925 -2.88597 0
M  V30 8168 H 759.309 1.5777 -3.67353 0
M  V30 8169 H 760.749 2.57158 -3.37114 0
M  V30 8170 C 759.208 2.78219 -1.89989 0
M  V30 8171 O 759.738 3.76353 -1.40432 0
M  V30 8172 N 757.944 2.43847 -1.58072 0
M  V30 8173 H 757.491 1.64103 -1.98565 0
M  V30 8174 H 757.449 3.0053 -0.923524 0
M  V30 8175 N 761.222 1.57436 0.0718424 0
M  V30 8176 C 762.132 2.07039 1.10326 0
M  V30 8177 C 763.148 0.999918 1.424 0
M  V30 8178 O 764.324 1.31462 1.52577 0
M  V30 8179 C 761.389 2.50439 2.39752 0
M  V30 8180 C 760.45 3.71784 2.14651 0
M  V30 8181 C 759.683 4.13104 3.37906 0
M  V30 8182 O 759.906 3.54298 4.47023 0
M  V30 8183 O 758.84 5.05894 3.26121 0
M  V30 8184 H 762.666 2.95239 0.711872 0
M  V30 8185 H 760.251 1.46638 0.28597 0
M  V30 8186 H 762.133 2.78876 3.15921 0
M  V30 8187 H 760.808 1.65368 2.78271 0
M  V30 8188 H 759.715 3.48431 1.36187 0
M  V30 8189 H 761.048 4.57707 1.81012 0
M  V30 8190 N 762.7 -0.34323 1.53817 0
M  V30 8191 C 763.63 -1.42709 1.84814 0
M  V30 8192 C 764.611 -1.5488 0.703297 0
M  V30 8193 O 765.796 -1.69082 0.955237 0
M  V30 8194 C 762.926 -2.79756 2.05801 0
M  V30 8195 C 761.88 -2.82392 3.21619 0
M  V30 8196 C 761.206 -4.22326 3.2794 0
M  V30 8197 C 762.506 -2.479 4.59721 0
M  V30 8198 H 764.2 -1.17018 2.75585 0
M  V30 8199 H 761.746 -0.561485 1.32602 0
M  V30 8200 H 763.699 -3.55627 2.26069 0
M  V30 8201 H 762.423 -3.06883 1.11761 0
M  V30 8202 H 761.082 -2.08974 3.01207 0
M  V30 8203 H 760.73 -4.46564 2.31494 0
M  V30 8204 H 760.43 -4.25001 4.05768 0
M  V30 8205 H 761.954 -5.00039 3.50419 0
M  V30 8206 H 763.368 -3.13484 4.80001 0
M  V30 8207 H 761.765 -2.61857 5.39954 0
M  V30 8208 H 762.835 -1.43087 4.63308 0
M  V30 8209 N 764.178 -1.45556 -0.604258 0
M  V30 8210 C 765.126 -1.5482 -1.7359 0
M  V30 8211 C 766.12 -0.417966 -1.64163 0
M  V30 8212 O 767.326 -0.594007 -1.69916 0
M  V30 8213 H 763.701 -0.486352 -0.573556 0
M  V30 8214 H 765.672 -2.5001 -1.62903 0
M  V30 8215 C 764.421 -1.53521 -3.11972 0
M  V30 8216 H 763.744 -2.39818 -3.19886 0
M  V30 8217 H 765.184 -1.64061 -3.90973 0
M  V30 8218 C 763.643 -0.260191 -3.35894 0
M  V30 8219 O 764.173 0.658582 -3.96265 0
M  V30 8220 N 762.379 -0.154839 -2.90187 0
M  V30 8221 H 761.926 -0.903378 -2.4124 0
M  V30 8222 H 761.884 0.697437 -3.06567 0
M  V30 8223 N 765.656 0.84705 -1.32902 0
M  V30 8224 C 766.902 1.60414 -1.24078 0
M  V30 8225 C 767.235 1.93217 0.195105 0
M  V30 8226 O 766.51 1.58001 1.13428 0
M  V30 8227 C 766.793 2.91951 -2.108 0
M  V30 8228 C 766.646 2.6588 -3.62805 0
M  V30 8229 C 767.965 3.93299 -1.97494 0
M  V30 8230 H 765.084 0.58206 -0.452079 0
M  V30 8231 H 767.726 0.977562 -1.62922 0
M  V30 8232 H 765.876 3.45425 -1.77802 0
M  V30 8233 H 767.548 2.18902 -4.06054 0
M  V30 8234 H 765.791 1.99716 -3.85092 0
M  V30 8235 H 766.462 3.59574 -4.1882 0
M  V30 8236 H 768.938 3.49105 -2.26417 0
M  V30 8237 H 767.814 4.8318 -2.60438 0
M  V30 8238 H 768.075 4.31887 -0.944782 0
M  V30 8239 N 767.134 1.16236 1.06428 0
M  V30 8240 C 768.381 0.943034 1.79201 0
M  V30 8241 C 768.709 -0.529243 1.87161 0
M  V30 8242 O 767.964 -1.40874 1.35842 0
M  V30 8243 C 768.263 1.51396 3.2375 0
M  V30 8244 C 767.929 3.00833 3.35873 0
M  V30 8245 C 766.591 3.41626 3.38888 0
M  V30 8246 C 768.943 3.96825 3.37904 0
M  V30 8247 C 766.271 4.77033 3.4155 0
M  V30 8248 C 768.623 5.32116 3.42104 0
M  V30 8249 C 767.287 5.72392 3.43401 0
M  V30 8250 H 766.557 0.34508 0.655744 0
M  V30 8251 H 769.204 1.44929 1.25171 0
M  V30 8252 H 767.509 0.929114 3.80624 0
M  V30 8253 H 769.206 1.31996 3.78653 0
M  V30 8254 H 765.796 2.68306 3.3423 0
M  V30 8255 H 769.98 3.66376 3.34787 0
M  V30 8256 H 765.236 5.07569 3.40858 0
M  V30 8257 H 769.41 6.06286 3.42623 0
M  V30 8258 H 767.037 6.77296 3.45216 0
M  V30 8259 N 768.612 -1.24939 0.960631 0
M  V30 8260 C 769.859 -1.92818 0.618663 0
M  V30 8261 C 770.187 -1.75177 -0.845173 0
M  V30 8262 O 769.442 -1.09412 -1.62258 0
M  V30 8263 C 769.741 -3.45066 0.930809 0
M  V30 8264 C 769.407 -3.82869 2.38164 0
M  V30 8265 C 768.069 -3.92899 2.7782 0
M  V30 8266 C 770.421 -4.01483 3.32356 0
M  V30 8267 C 767.749 -4.18955 4.10723 0
M  V30 8268 C 770.101 -4.29033 4.6488 0
M  V30 8269 C 768.765 -4.37282 5.04322 0
M  V30 8270 H 768.035 -0.705571 0.226385 0
M  V30 8271 H 770.682 -1.48365 1.21079 0
M  V30 8272 H 768.987 -3.9096 0.256355 0
M  V30 8273 H 770.684 -3.95783 0.644712 0
M  V30 8274 H 767.274 -3.75622 2.06413 0
M  V30 8275 H 771.458 -3.93143 3.02907 0
M  V30 8276 H 766.714 -4.23558 4.40918 0
M  V30 8277 H 770.888 -4.42381 5.3784 0
M  V30 8278 H 768.515 -4.57225 6.0733 0
M  V30 8279 N 770.09 -0.729906 -1.39679 0
M  V30 8280 C 771.32 -0.285295 -2.04621 0
M  V30 8281 C 771.728 1.08304 -1.55135 0
M  V30 8282 O 771.071 1.6946 -0.709146 0
M  V30 8283 C 771.133 -0.203129 -3.58926 0
M  V30 8284 C 770.797 -1.50909 -4.31365 0
M  V30 8285 C 771.794 -2.45381 -4.58349 0
M  V30 8286 C 769.479 -1.77198 -4.70007 0
M  V30 8287 C 771.473 -3.64379 -5.22979 0
M  V30 8288 C 769.16 -2.96474 -5.34365 0
M  V30 8289 C 770.158 -3.89886 -5.60783 0
M  V30 8290 O 769.846 -5.07069 -6.23808 0
M  V30 8291 H 769.578 -0.123373 -0.664647 0
M  V30 8292 H 772.132 -0.992901 -1.79807 0
M  V30 8293 H 770.362 0.560538 -3.82616 0
M  V30 8294 H 772.051 0.208811 -4.05363 0
M  V30 8295 H 772.817 -2.2634 -4.28947 0
M  V30 8296 H 768.696 -1.05337 -4.48804 0
M  V30 8297 H 772.24 -4.37307 -5.43515 0
M  V30 8298 H 768.137 -3.15419 -5.63188 0
M  V30 8299 H 768.905 -5.07335 -6.42303 0
M  V30 8300 N 771.568 1.50203 -0.477153 0
M  V30 8301 C 772.498 2.31517 0.303646 0
M  V30 8302 C 773.479 1.38696 0.984753 0
M  V30 8303 O 774.664 1.67615 0.980758 0
M  V30 8304 C 771.794 3.18598 1.38249 0
M  V30 8305 C 770.748 4.2002 0.822645 0
M  V30 8306 C 770.074 4.95878 2.00024 0
M  V30 8307 C 771.374 5.22023 -0.170185 0
M  V30 8308 H 773.068 2.97042 -0.375027 0
M  V30 8309 H 770.614 1.42848 -0.181802 0
M  V30 8310 H 772.567 3.74282 1.93625 0
M  V30 8311 H 771.291 2.5097 2.09002 0
M  V30 8312 H 769.95 3.65445 0.290813 0
M  V30 8313 H 769.598 4.24717 2.69489 0
M  V30 8314 H 769.298 5.64487 1.63183 0
M  V30 8315 H 770.822 5.54399 2.55878 0
M  V30 8316 H 772.236 5.72543 0.294606 0
M  V30 8317 H 770.633 5.98386 -0.453181 0
M  V30 8318 H 771.703 4.72396 -1.09408 0
M  V30 8319 N 773.046 0.209999 1.56195 0
M  V30 8320 C 774.323 -0.473214 1.89789 0
M  V30 8321 C 774.703 -1.78581 1.1257 0
M  V30 8322 O 774.051 -2.27325 0.231398 0
M  V30 8323 C 774.261 -0.677458 3.42362 0
M  V30 8324 C 775.609 -0.990114 4.12895 0
M  V30 8325 O 776.633 -0.764655 3.47896 0
M  V30 8326 O 775.492 -1.41737 5.278 0
M  V30 8327 H 772.586 -0.248622 0.788743 0
M  V30 8328 H 775.132 0.251324 1.67829 0
M  V30 8329 H 773.904 0.248878 3.90508 0
M  V30 8330 H 773.527 -1.45391 3.70064 0
M  V30 8331 N 774.524 -1.57472 -0.0634922 0
M  V30 8332 C 775.487 -2.03268 -1.059 0
M  V30 8333 C 776.487 -0.931028 -1.31105 0
M  V30 8334 O 777.677 -1.19567 -1.26686 0
M  V30 8335 C 774.809 -2.42039 -2.40062 0
M  V30 8336 H 776.002 -2.92454 -0.664119 0
M  V30 8337 H 773.555 -1.53206 -0.309444 0
M  V30 8338 H 774.29 -1.55904 -2.84367 0
M  V30 8339 H 774.075 -3.22437 -2.23108 0
M  V30 8340 H 775.565 -2.78017 -3.11603 0
M  V30 8341 N 776.003 0.335068 -1.53997 0
M  V30 8342 C 776.935 1.4327 -1.78903 0
M  V30 8343 C 777.948 1.48347 -0.670598 0
M  V30 8344 O 779.137 1.51277 -0.947494 0
M  V30 8345 C 776.237 2.81878 -1.88144 0
M  V30 8346 C 775.41 3.00141 -3.18174 0
M  V30 8347 C 774.469 4.19041 -3.18263 0
M  V30 8348 O 773.495 4.12751 -3.9195 0
M  V30 8349 N 774.697 5.28004 -2.41231 0
M  V30 8350 H 777.462 1.22272 -2.73623 0
M  V30 8351 H 775.023 0.524996 -1.53152 0
M  V30 8352 H 777.015 3.59609 -1.85644 0
M  V30 8353 H 775.585 2.9598 -1.00572 0
M  V30 8354 H 774.805 2.09808 -3.33728 0
M  V30 8355 H 776.093 3.0923 -4.04047 0
M  V30 8356 H 775.491 5.35986 -1.8093 0
M  V30 8357 H 774.048 6.04196 -2.44521 0
M  V30 8358 N 777.481 1.45874 0.596531 0
M  V30 8359 C 778.428 1.55389 1.70655 0
M  V30 8360 C 779.398 0.399036 1.61236 0
M  V30 8361 O 780.583 0.61396 1.80652 0
M  V30 8362 C 777.723 1.53705 3.0898 0
M  V30 8363 C 776.836 2.79823 3.29125 0
M  V30 8364 C 775.971 2.69735 4.5762 0
M  V30 8365 C 775.01 3.90856 4.71061 0
M  V30 8366 N 774.147 3.79237 5.90867 0
M  V30 8367 H 778.987 2.50211 1.61859 0
M  V30 8368 H 776.524 1.24146 0.789069 0
M  V30 8369 H 778.482 1.50715 3.89026 0
M  V30 8370 H 777.112 0.624247 3.16706 0
M  V30 8371 H 776.164 2.92852 2.42779 0
M  V30 8372 H 777.476 3.69628 3.34927 0
M  V30 8373 H 776.63 2.64773 5.45875 0
M  V30 8374 H 775.369 1.77547 4.54234 0
M  V30 8375 H 774.374 3.96164 3.81227 0
M  V30 8376 H 775.599 4.84124 4.76236 0
M  V30 8377 H 773.545 2.89825 5.88504 0
M  V30 8378 H 773.462 4.62686 5.97877 0
M  V30 8379 H 774.73 3.78227 6.8159 0
M  V30 8380 N 778.959 -0.83999 1.33349 0
M  V30 8381 C 780.205 -1.59753 1.24927 0
M  V30 8382 C 780.538 -1.93318 -0.184855 0
M  V30 8383 O 779.813 -1.586 -1.12589 0
M  V30 8384 C 780.096 -2.90829 2.12345 0
M  V30 8385 C 779.949 -2.63953 3.6421 0
M  V30 8386 C 781.268 -3.92246 1.99577 0
M  V30 8387 H 778.387 -0.579654 0.45516 0
M  V30 8388 H 781.029 -0.968909 1.63439 0
M  V30 8389 H 779.179 -3.44478 1.79631 0
M  V30 8390 H 780.851 -2.16745 4.07209 0
M  V30 8391 H 779.094 -1.97671 3.86146 0
M  V30 8392 H 779.765 -3.57348 4.20721 0
M  V30 8393 H 782.241 -3.479 2.28265 0
M  V30 8394 H 781.117 -4.81793 2.62996 0
M  V30 8395 H 781.378 -4.3138 0.967673 0
M  V30 8396 N 780.437 -1.16799 -1.0581 0
M  V30 8397 C 781.848 -0.95945 -1.60161 0
M  V30 8398 C 782.199 0.49543 -1.89842 0
M  V30 8399 O 781.324 1.36957 -1.67546 0
M  V30 8400 C 781.919 -1.73527 -2.90987 0
M  V30 8401 C 780.478 -1.57158 -3.42021 0
M  V30 8402 C 779.625 -1.74089 -2.15843 0
M  V30 8403 H 782.576 -1.31598 -0.886992 0
M  V30 8404 H 782.597 -1.21397 -3.60615 0
M  V30 8405 H 782.109 -2.79411 -2.69353 0
M  V30 8406 H 780.21 -0.537361 -3.68705 0
M  V30 8407 H 780.323 -2.35858 -4.17022 0
M  V30 8408 H 778.687 -1.16874 -2.26302 0
M  V30 8409 H 779.47 -2.81371 -1.96686 0
M  V30 8410 N 781.915 1.24427 -0.967243 0
M  V30 8411 C 782.825 2.29109 -0.504592 0
M  V30 8412 C 783.841 1.68495 0.434224 0
M  V30 8413 O 785.017 1.99041 0.307379 0
M  V30 8414 C 782.082 3.46133 0.198273 0
M  V30 8415 C 781.143 4.22149 -0.780313 0
M  V30 8416 C 780.376 5.33585 -0.110896 0
M  V30 8417 O 780.599 5.59676 1.10088 0
M  V30 8418 O 779.533 5.96522 -0.802823 0
M  V30 8419 H 783.359 2.708 -1.37482 0
M  V30 8420 H 780.944 1.30111 -0.73426 0
M  V30 8421 H 782.826 4.17205 0.593124 0
M  V30 8422 H 781.501 3.0642 1.04347 0
M  V30 8423 H 780.408 3.53454 -1.22561 0
M  V30 8424 H 781.741 4.65677 -1.59392 0
M  V30 8425 N 783.393 0.737304 1.3929 0
M  V30 8426 C 784.641 0.285691 2.00071 0
M  V30 8427 C 784.962 -1.13169 1.58801 0
M  V30 8428 O 784.232 -1.77104 0.837308 0
M  V30 8429 H 782.812 0.102638 0.739915 0
M  V30 8430 H 785.474 0.947775 1.70303 0
M  V30 8431 H 784.57 0.335906 3.10287 0
M  V30 8432 N 784.871 -1.49948 0.485112 0
M  V30 8433 C 785.781 -2.32587 -0.306697 0
M  V30 8434 C 786.797 -1.43598 -0.982632 0
M  V30 8435 O 787.973 -1.76638 -0.967519 0
M  V30 8436 C 785.038 -3.18638 -1.3664 0
M  V30 8437 C 784.099 -4.23462 -0.705589 0
M  V30 8438 C 783.332 -5.05401 -1.7148 0
M  V30 8439 O 783.555 -4.88618 -2.94293 0
M  V30 8440 O 782.489 -5.88157 -1.27889 0
M  V30 8441 H 786.315 -3.01447 0.369272 0
M  V30 8442 H 783.9 -1.47349 0.246709 0
M  V30 8443 H 785.782 -3.71992 -1.9799 0
M  V30 8444 H 784.457 -2.52491 -2.02559 0
M  V30 8445 H 783.364 -3.74063 -0.0527733 0
M  V30 8446 H 784.697 -4.92119 -0.0891187 0
M  V30 8447 N 786.349 -0.21828 -1.56081 0
M  V30 8448 C 787.297 0.709679 -2.21509 0
M  V30 8449 C 788.291 1.20221 -1.19346 0
M  V30 8450 O 789.497 1.16241 -1.37433 0
M  V30 8451 H 785.872 0.247271 -0.710184 0
M  V30 8452 H 787.843 0.134386 -2.98097 0
M  V30 8453 C 786.592 1.90853 -2.90638 0
M  V30 8454 H 785.915 1.53865 -3.69006 0
M  V30 8455 H 787.355 2.53568 -3.39822 0
M  V30 8456 C 785.814 2.76189 -1.92929 0
M  V30 8457 O 786.344 3.74842 -1.44416 0
M  V30 8458 N 784.55 2.42157 -1.6065 0
M  V30 8459 H 784.097 1.61987 -2.00294 0
M  V30 8460 H 784.055 2.99534 -0.955347 0
M  V30 8461 N 787.827 1.57504 0.0551401 0
M  V30 8462 C 788.775 2.05884 1.08233 0
M  V30 8463 C 789.769 0.967383 1.39061 0
M  V30 8464 O 790.975 1.15242 1.38273 0
M  V30 8465 H 787.35 0.656673 0.366449 0
M  V30 8466 H 789.321 2.91273 0.648269 0
M  V30 8467 C 788.07 2.53221 2.38273 0
M  V30 8468 H 787.393 3.36809 2.15406 0
M  V30 8469 H 788.833 2.9081 3.08554 0
M  V30 8470 C 787.292 1.42218 3.05411 0
M  V30 8471 O 787.822 0.773638 3.9418 0
M  V30 8472 N 786.028 1.16316 2.66306 0
M  V30 8473 H 785.575 1.69237 1.94207 0
M  V30 8474 H 785.533 0.422534 3.11548 0
M  V30 8475 N 789.305 -0.326896 1.54172 0
M  V30 8476 C 790.551 -1.06681 1.72473 0
M  V30 8477 C 790.884 -1.87779 0.49523 0
M  V30 8478 O 790.159 -1.87754 -0.507803 0
M  V30 8479 C 790.442 -1.99429 2.99834 0
M  V30 8480 C 790.295 -1.21682 4.33028 0
M  V30 8481 C 791.614 -2.99002 3.22933 0
M  V30 8482 H 788.733 -0.386438 0.627563 0
M  V30 8483 H 791.375 -0.343779 1.86864 0
M  V30 8484 H 789.525 -2.61081 2.87696 0
M  V30 8485 H 791.197 -0.625153 4.57044 0
M  V30 8486 H 789.44 -0.519045 4.30684 0
M  V30 8487 H 790.111 -1.89766 5.18356 0
M  V30 8488 H 792.587 -2.4747 3.34511 0
M  V30 8489 H 791.463 -3.61085 4.13412 0
M  V30 8490 H 791.724 -3.71281 2.40006 0
M  V30 8491 N 790.784 -1.46188 -0.588786 0
M  V30 8492 C 791.732 -1.56653 -1.71938 0
M  V30 8493 C 792.726 -0.435354 -1.6371 0
M  V30 8494 O 793.932 -0.611996 -1.69277 0
M  V30 8495 H 790.307 -0.492408 -0.568365 0
M  V30 8496 H 792.278 -2.51724 -1.60242 0
M  V30 8497 C 791.027 -1.56822 -3.10326 0
M  V30 8498 H 790.35 -2.43198 -3.17325 0
M  V30 8499 H 791.79 -1.68199 -3.89211 0
M  V30 8500 C 790.249 -0.295802 -3.35599 0
M  V30 8501 O 790.779 0.616515 -3.96941 0
M  V30 8502 N 788.985 -0.185609 -2.90007 0
M  V30 8503 H 788.532 -0.928914 -2.40269 0
M  V30 8504 H 788.49 0.664883 -3.07289 0
M  V30 8505 N 792.262 0.832906 -1.33792 0
M  V30 8506 C 793.192 1.95828 -1.27176 0
M  V30 8507 C 794.173 1.69427 -0.15114 0
M  V30 8508 O 795.358 1.91167 -0.341886 0
M  V30 8509 C 792.488 3.32098 -1.01629 0
M  V30 8510 C 791.442 3.72912 -2.10049 0
M  V30 8511 C 790.768 5.07054 -1.69706 0
M  V30 8512 C 792.068 3.86064 -3.51783 0
M  V30 8513 H 793.762 2.01622 -2.21334 0
M  V30 8514 H 791.308 0.96866 -1.0655 0
M  V30 8515 H 793.261 4.10402 -0.956474 0
M  V30 8516 H 791.985 3.26577 -0.0390956 0
M  V30 8517 H 790.644 2.96876 -2.15082 0
M  V30 8518 H 790.292 4.9801 -0.706737 0
M  V30 8519 H 789.992 5.35333 -2.42264 0
M  V30 8520 H 791.516 5.87827 -1.65202 0
M  V30 8521 H 792.93 4.54665 -3.49218 0
M  V30 8522 H 791.327 4.25787 -4.22878 0
M  V30 8523 H 792.397 2.88344 -3.89854 0
M  V30 8524 N 793.74 1.17359 1.05189 0
M  V30 8525 C 794.968 0.986529 1.81866 0
M  V30 8526 C 795.383 -0.46522 1.82979 0
M  V30 8527 O 794.74 -1.32305 1.25705 0
M  V30 8528 C 794.791 1.52021 3.27982 0
M  V30 8529 O 794.512 2.91511 3.27037 0
M  V30 8530 C 796.013 1.37774 4.21347 0
M  V30 8531 H 793.233 0.349021 0.573084 0
M  V30 8532 H 795.777 1.55648 1.32643 0
M  V30 8533 H 793.932 0.992287 3.74476 0
M  V30 8534 H 794.346 3.16178 4.18488 0
M  V30 8535 H 795.82 1.7993 5.21852 0
M  V30 8536 H 796.297 0.32483 4.37997 0
M  V30 8537 H 796.903 1.89583 3.80708 0
M  V30 8538 N 795.218 -1.23913 0.973828 0
M  V30 8539 C 796.443 -1.96735 0.656511 0
M  V30 8540 C 796.868 -1.71682 -0.768571 0
M  V30 8541 O 796.226 -0.984267 -1.52256 0
M  V30 8542 C 796.274 -3.48004 0.944735 0
M  V30 8543 O 795.378 -4.12387 0.0333357 0
M  V30 8544 H 794.719 -0.616119 0.247575 0
M  V30 8545 H 797.249 -1.57525 1.30564 0
M  V30 8546 H 797.259 -3.98424 0.87876 0
M  V30 8547 H 795.934 -3.65567 1.98328 0
M  V30 8548 H 794.511 -3.72585 0.153157 0
M  V30 8549 N 796.696 -0.74468 -1.38897 0
M  V30 8550 C 797.921 -0.306119 -2.05128 0
M  V30 8551 C 798.346 1.0541 -1.55789 0
M  V30 8552 O 797.704 1.66993 -0.705909 0
M  V30 8553 C 797.752 -0.328195 -3.59103 0
M  V30 8554 O 796.856 0.680876 -4.06741 0
M  V30 8555 H 796.197 -0.137209 -0.649669 0
M  V30 8556 H 798.727 -1.01331 -1.77745 0
M  V30 8557 H 798.737 -0.175956 -4.0762 0
M  V30 8558 H 797.412 -1.32067 -3.94374 0
M  V30 8559 H 795.989 0.49398 -3.69614 0
M  V30 8560 N 798.174 1.49689 -0.493057 0
M  V30 8561 C 799.423 2.01622 0.0560733 0
M  V30 8562 C 799.736 1.37838 1.3878 0
M  V30 8563 O 800.942 1.81054 2.02316 0
M  V30 8564 C 799.398 3.59586 0.150409 0
M  V30 8565 C 799.006 4.32338 -1.1742 0
M  V30 8566 C 800.75 4.19489 0.650327 0
M  V30 8567 C 798.657 5.8214 -1.04246 0
M  V30 8568 H 797.587 0.753594 0.0247297 0
M  V30 8569 H 800.238 1.723 -0.631279 0
M  V30 8570 H 798.62 3.8559 0.902035 0
M  V30 8571 H 799.794 4.18042 -1.9385 0
M  V30 8572 H 798.109 3.84144 -1.60694 0
M  V30 8573 H 800.706 5.29181 0.766272 0
M  V30 8574 H 801.049 3.82326 1.6472 0
M  V30 8575 H 801.582 3.97775 -0.0445371 0
M  V30 8576 H 798.321 6.23814 -2.01336 0
M  V30 8577 H 797.841 5.98952 -0.31892 0
M  V30 8578 H 799.52 6.43004 -0.717957 0
M  V30 8579 N 799.652 0.226554 1.55963 0
M  V30 8580 C 800.929 -0.453058 1.90281 0
M  V30 8581 C 801.309 -1.77377 1.14458 0
M  V30 8582 O 800.657 -2.27067 0.255496 0
M  V30 8583 C 800.867 -0.641108 3.43061 0
M  V30 8584 C 802.215 -0.946265 4.13921 0
M  V30 8585 O 803.239 -0.727713 3.48687 0
M  V30 8586 O 802.098 -1.36131 5.29274 0
M  V30 8587 H 799.192 -0.240242 0.791336 0
M  V30 8588 H 801.738 0.26911 1.67553 0
M  V30 8589 H 800.51 0.290283 3.90222 0
M  V30 8590 H 800.133 -1.41458 3.71585 0
M  V30 8591 N 801.13 -1.57531 -0.0467866 0
M  V30 8592 C 802.358 -1.92696 -0.753371 0
M  V30 8593 C 802.773 -0.824792 -1.69831 0
M  V30 8594 O 802.13 0.200155 -1.81399 0
M  V30 8595 C 802.181 -3.27728 -1.52566 0
M  V30 8596 O 801.902 -4.3371 -0.618674 0
M  V30 8597 C 803.403 -3.77066 -2.33101 0
M  V30 8598 H 800.623 -0.636367 -0.212788 0
M  V30 8599 H 803.167 -2.04498 -0.00959361 0
M  V30 8600 H 801.322 -3.17378 -2.22148 0
M  V30 8601 H 801.736 -5.11548 -1.15839 0
M  V30 8602 H 803.21 -4.74109 -2.82709 0
M  V30 8603 H 803.687 -3.07348 -3.13741 0
M  V30 8604 H 804.293 -3.90442 -1.68628 0
M  V30 8605 N 802.608 0.318715 -1.54344 0
M  V30 8606 C 803.571 1.37545 -1.83342 0
M  V30 8607 C 804.571 1.445 -0.705444 0
M  V30 8608 O 805.761 1.44443 -0.973752 0
M  V30 8609 C 802.893 2.76225 -1.99781 0
M  V30 8610 H 804.086 1.13084 -2.77762 0
M  V30 8611 H 801.639 0.554457 -1.46135 0
M  V30 8612 H 802.374 3.05934 -1.07588 0
M  V30 8613 H 802.159 2.7257 -2.81865 0
M  V30 8614 H 803.649 3.52664 -2.23647 0
M  V30 8615 N 804.086 1.46499 0.581025 0
M  V30 8616 C 805.016 1.60052 1.70017 0
M  V30 8617 C 805.997 0.450788 1.64018 0
M  V30 8618 O 807.182 0.677237 1.82009 0
M  V30 8619 C 804.312 1.5921 3.08658 0
M  V30 8620 C 803.266 2.73169 3.29488 0
M  V30 8621 C 802.592 2.57389 4.68674 0
M  V30 8622 C 803.892 4.14978 3.1716 0
M  V30 8623 H 805.586 2.53735 1.5893 0
M  V30 8624 H 803.132 1.22113 0.763173 0
M  V30 8625 H 805.085 1.67285 3.86773 0
M  V30 8626 H 803.809 0.620718 3.20647 0
M  V30 8627 H 802.468 2.64566 2.53773 0
M  V30 8628 H 802.116 1.58331 4.77431 0
M  V30 8629 H 801.816 3.33826 4.83564 0
M  V30 8630 H 803.34 2.67358 5.48956 0
M  V30 8631 H 804.754 4.24684 3.85119 0
M  V30 8632 H 803.151 4.92016 3.4357 0
M  V30 8633 H 804.221 4.35016 2.14218 0
M  V30 8634 N 805.565 -0.825799 1.34232 0
M  V30 8635 C 806.495 -1.95151 1.28212 0
M  V30 8636 C 807.476 -1.69345 0.160123 0
M  V30 8637 O 808.661 -1.90983 0.352019 0
M  V30 8638 C 805.791 -3.31554 1.03388 0
M  V30 8639 C 804.745 -3.71793 2.12023 0
M  V30 8640 C 804.071 -5.06147 1.72392 0
M  V30 8641 C 805.371 -3.84193 3.53826 0
M  V30 8642 H 807.065 -2.00445 2.22401 0
M  V30 8643 H 804.611 -0.962996 1.07063 0
M  V30 8644 H 806.564 -4.09889 0.978225 0
M  V30 8645 H 805.288 -3.26551 0.0564142 0
M  V30 8646 H 803.947 -2.95731 2.16654 0
M  V30 8647 H 803.595 -4.97628 0.733137 0
M  V30 8648 H 803.295 -5.34041 2.451 0
M  V30 8649 H 804.819 -5.86943 1.68317 0
M  V30 8650 H 806.233 -4.52806 3.51624 0
M  V30 8651 H 804.63 -4.23538 4.2513 0
M  V30 8652 H 805.7 -2.86272 3.91377 0
M  V30 8653 N 807.043 -1.17915 -1.04565 0
M  V30 8654 C 807.953 -0.916449 -2.15959 0
M  V30 8655 C 808.969 0.117655 -1.73602 0
M  V30 8656 O 810.145 -0.063089 -2.01301 0
M  V30 8657 C 807.21 -0.440262 -3.43893 0
M  V30 8658 C 806.271 -1.54172 -4.00661 0
M  V30 8659 C 805.504 -1.08816 -5.22489 0
M  V30 8660 O 805.727 0.0551547 -5.70373 0
M  V30 8661 O 804.661 -1.88383 -5.7166 0
M  V30 8662 H 808.487 -1.8484 -2.40972 0
M  V30 8663 H 806.072 -0.960552 -1.14428 0
M  V30 8664 H 807.954 -0.182537 -4.21004 0
M  V30 8665 H 806.629 0.46346 -3.20365 0
M  V30 8666 H 805.536 -1.85341 -3.24961 0
M  V30 8667 H 806.869 -2.42139 -4.2852 0
M  V30 8668 N 808.521 1.23394 -0.980386 0
M  V30 8669 C 809.453 2.24146 -0.478657 0
M  V30 8670 C 810.466 1.57303 0.419492 0
M  V30 8671 O 811.655 1.77094 0.223631 0
M  V30 8672 C 808.755 3.3732 0.326913 0
M  V30 8673 C 807.928 4.33744 -0.56436 0
M  V30 8674 C 806.987 5.25866 0.187358 0
M  V30 8675 O 806.013 5.67626 -0.423019 0
M  V30 8676 N 807.215 5.61492 1.47335 0
M  V30 8677 H 809.98 2.67826 -1.34496 0
M  V30 8678 H 807.541 1.37566 -0.853653 0
M  V30 8679 H 809.533 3.95926 0.838148 0
M  V30 8680 H 808.103 2.92823 1.09422 0
M  V30 8681 H 807.323 3.73641 -1.25642 0
M  V30 8682 H 808.611 4.95123 -1.17177 0
M  V30 8683 H 808.009 5.29514 1.99077 0
M  V30 8684 H 806.566 6.2257 1.93002 0
M  V30 8685 N 809.999 0.752036 1.385 0
M  V30 8686 C 811.41 0.375385 1.82887 0
M  V30 8687 C 811.761 -1.09575 1.62751 0
M  V30 8688 O 810.886 -1.84685 1.12785 0
M  V30 8689 C 811.481 0.674563 3.32017 0
M  V30 8690 C 810.04 0.351208 3.74758 0
M  V30 8691 C 809.187 0.928531 2.61292 0
M  V30 8692 H 812.138 0.948313 1.27251 0
M  V30 8693 H 812.159 -0.0477781 3.8047 0
M  V30 8694 H 811.671 1.74533 3.46641 0
M  V30 8695 H 809.772 -0.713042 3.65714 0
M  V30 8696 H 809.885 0.845675 4.71577 0
M  V30 8697 H 808.249 0.354012 2.52228 0
M  V30 8698 H 809.032 2.0043 2.78716 0
M  V30 8699 N 811.477 -1.49425 0.500989 0
M  V30 8700 C 812.424 -2.29126 -0.277443 0
M  V30 8701 C 813.394 -1.35522 -0.960363 0
M  V30 8702 O 814.579 -1.64479 -0.967027 0
M  V30 8703 C 811.719 -3.18193 -1.33593 0
M  V30 8704 C 810.832 -4.26854 -0.664791 0
M  V30 8705 C 809.967 -5.03137 -1.70372 0
M  V30 8706 C 809.006 -6.03635 -1.01445 0
M  V30 8707 N 808.143 -6.73083 -1.99758 0
M  V30 8708 H 812.983 -2.95187 0.408458 0
M  V30 8709 H 810.52 -1.45546 0.213275 0
M  V30 8710 H 812.478 -3.68207 -1.96161 0
M  V30 8711 H 811.108 -2.54116 -1.9906 0
M  V30 8712 H 810.16 -3.80328 0.0741708 0
M  V30 8713 H 811.472 -4.9865 -0.122197 0
M  V30 8714 H 810.626 -5.5702 -2.40445 0
M  V30 8715 H 809.365 -4.31114 -2.28017 0
M  V30 8716 H 808.37 -5.48984 -0.299496 0
M  V30 8717 H 809.595 -6.77644 -0.444497 0
M  V30 8718 H 807.541 -6.03832 -2.56365 0
M  V30 8719 H 807.458 -7.40855 -1.50565 0
M  V30 8720 H 808.726 -7.3157 -2.69119 0
M  V30 8721 N 812.955 -0.234822 -1.55841 0
M  V30 8722 C 814.204 0.393685 -1.97821 0
M  V30 8723 C 814.517 1.59947 -1.1259 0
M  V30 8724 O 815.723 2.29835 -1.44528 0
M  V30 8725 C 814.179 0.751811 -3.5196 0
M  V30 8726 C 813.787 -0.431898 -4.45913 0
M  V30 8727 C 815.531 1.34518 -4.02623 0
M  V30 8728 C 813.438 -0.0505976 -5.91378 0
M  V30 8729 H 812.368 0.150864 -0.738753 0
M  V30 8730 H 815.019 -0.333132 -1.80451 0
M  V30 8731 H 813.401 1.53642 -3.6498 0
M  V30 8732 H 814.575 -1.20935 -4.44647 0
M  V30 8733 H 812.89 -0.939385 -4.05666 0
M  V30 8734 H 815.487 1.64359 -5.08813 0
M  V30 8735 H 815.83 2.26554 -3.49255 0
M  V30 8736 H 816.363 0.623729 -3.9288 0
M  V30 8737 H 813.102 -0.937779 -6.48757 0
M  V30 8738 H 812.622 0.690898 -5.95808 0
M  V30 8739 H 814.301 0.37146 -6.45933 0
M  V30 8740 N 814.433 1.57553 0.0384317 0
M  V30 8741 C 815.663 1.92813 0.742064 0
M  V30 8742 C 816.071 0.832157 1.69917 0
M  V30 8743 O 815.414 -0.200917 1.82598 0
M  V30 8744 C 815.476 3.23806 1.56172 0
M  V30 8745 C 815.14 4.50459 0.770407 0
M  V30 8746 C 816.137 5.19846 0.0748006 0
M  V30 8747 C 813.822 4.97001 0.727714 0
M  V30 8748 C 815.816 6.34047 -0.652902 0
M  V30 8749 C 813.503 6.111 -0.00373992 0
M  V30 8750 C 814.501 6.79477 -0.692816 0
M  V30 8751 O 814.189 7.91395 -1.41241 0
M  V30 8752 H 813.921 0.641174 0.214179 0
M  V30 8753 H 816.475 2.054 0.00285095 0
M  V30 8754 H 814.705 3.0752 2.34453 0
M  V30 8755 H 816.394 3.44463 2.14709 0
M  V30 8756 H 817.16 4.84899 0.098875 0
M  V30 8757 H 813.039 4.43629 1.25355 0
M  V30 8758 H 816.583 6.87353 -1.1913 0
M  V30 8759 H 812.48 6.45493 -0.0297703 0
M  V30 8760 H 813.248 8.07702 -1.32512 0
M  V30 8761 N 815.911 -0.310526 1.54511 0
M  V30 8762 C 817.139 -1.06611 1.77318 0
M  V30 8763 C 817.554 -1.81265 0.528043 0
M  V30 8764 O 816.911 -1.75466 -0.50178 0
M  V30 8765 C 816.962 -2.05409 2.97472 0
M  V30 8766 O 816.683 -1.33785 4.17173 0
M  V30 8767 C 818.184 -2.93082 3.32593 0
M  V30 8768 H 815.404 -0.316578 0.591624 0
M  V30 8769 H 817.948 -0.352691 2.01436 0
M  V30 8770 H 816.103 -2.72266 2.7559 0
M  V30 8771 H 816.517 -2.00055 4.84849 0
M  V30 8772 H 817.991 -3.58274 4.19933 0
M  V30 8773 H 818.468 -3.60877 2.50329 0
M  V30 8774 H 819.074 -2.31768 3.566 0
M  V30 8775 N 817.389 -1.46805 -0.573248 0
M  V30 8776 C 818.636 -1.52604 -1.3311 0
M  V30 8777 C 818.964 -0.181633 -1.9365 0
M  V30 8778 O 818.219 0.823775 -1.77517 0
M  V30 8779 C 818.518 -2.58001 -2.47326 0
M  V30 8780 C 818.184 -4.01747 -2.04719 0
M  V30 8781 C 816.846 -4.40881 -1.92814 0
M  V30 8782 C 819.198 -4.92008 -1.71982 0
M  V30 8783 C 816.526 -5.68129 -1.46445 0
M  V30 8784 C 818.878 -6.19703 -1.27089 0
M  V30 8785 C 817.542 -6.57733 -1.13768 0
M  V30 8786 H 816.812 -0.558417 -0.487084 0
M  V30 8787 H 819.459 -1.80327 -0.644538 0
M  V30 8788 H 817.764 -2.23974 -3.2147 0
M  V30 8789 H 819.461 -2.59715 -3.05531 0
M  V30 8790 H 816.051 -3.70819 -2.14922 0
M  V30 8791 H 820.235 -4.62485 -1.8006 0
M  V30 8792 H 815.491 -5.96359 -1.34783 0
M  V30 8793 H 819.665 -6.89064 -1.00814 0
M  V30 8794 H 817.292 -7.56228 -0.776142 0
M  V30 8795 N 818.867 0.818669 -1.34668 0
M  V30 8796 C 820.114 1.57512 -1.27264 0
M  V30 8797 C 820.442 1.93871 0.156254 0
M  V30 8798 O 819.697 1.60582 1.11857 0
M  V30 8799 C 819.996 2.88245 -2.11304 0
M  V30 8800 C 819.662 2.71159 -3.60255 0
M  V30 8801 C 818.324 2.66207 -4.00858 0
M  V30 8802 C 820.676 2.54538 -4.54819 0
M  V30 8803 C 818.004 2.4256 -5.34211 0
M  V30 8804 C 820.356 2.32421 -5.88356 0
M  V30 8805 C 819.02 2.25884 -6.28118 0
M  V30 8806 H 818.29 0.576378 -0.465692 0
M  V30 8807 H 820.937 0.9469 -1.66451 0
M  V30 8808 H 819.242 3.55381 -1.64958 0
M  V30 8809 H 820.939 3.45869 -2.02919 0
M  V30 8810 H 817.529 2.75856 -3.28027 0
M  V30 8811 H 821.713 2.57384 -4.24343 0
M  V30 8812 H 816.969 2.35959 -5.64033 0
M  V30 8813 H 821.143 2.18548 -6.61218 0
M  V30 8814 H 818.77 2.07322 -7.31383 0
M  V30 8815 N 820.346 1.18468 1.03938 0
M  V30 8816 C 821.571 1.00638 1.81347 0
M  V30 8817 C 821.996 -0.440477 1.8287 0
M  V30 8818 O 821.354 -1.31609 1.24695 0
M  V30 8819 C 821.402 1.5673 3.24759 0
M  V30 8820 O 820.506 0.789517 4.04772 0
M  V30 8821 H 819.847 0.356432 0.560225 0
M  V30 8822 H 822.377 1.57253 1.30891 0
M  V30 8823 H 822.387 1.59496 3.75533 0
M  V30 8824 H 821.062 2.62043 3.22965 0
M  V30 8825 H 819.639 0.834267 3.63448 0
M  V30 8826 N 821.824 -1.22873 0.986916 0
M  V30 8827 C 823.049 -1.96028 0.677341 0
M  V30 8828 C 823.474 -1.72487 -0.750319 0
M  V30 8829 O 822.832 -1.00036 -1.51203 0
M  V30 8830 C 822.88 -3.46983 0.981593 0
M  V30 8831 O 821.984 -4.12328 0.0770729 0
M  V30 8832 H 821.325 -0.613458 0.254096 0
M  V30 8833 H 823.855 -1.56132 1.32227 0
M  V30 8834 H 823.865 -3.9747 0.920969 0
M  V30 8835 H 822.54 -3.63442 2.02194 0
M  V30 8836 H 821.117 -3.72402 0.192666 0
M  V30 8837 N 823.302 -0.75937 -1.38099 0
M  V30 8838 C 824.212 -0.13774 -2.34195 0
M  V30 8839 C 825.228 0.693985 -1.59561 0
M  V30 8840 O 826.404 0.616792 -1.91723 0
M  V30 8841 C 823.469 0.740535 -3.38699 0
M  V30 8842 C 822.53 -0.106225 -4.29169 0
M  V30 8843 C 821.763 0.730225 -5.28681 0
M  V30 8844 O 821.986 1.96796 -5.35376 0
M  V30 8845 O 820.92 0.145969 -6.01723 0
M  V30 8846 H 824.746 -0.931512 -2.89061 0
M  V30 8847 H 822.331 -0.520345 -1.40046 0
M  V30 8848 H 824.213 1.24232 -4.02672 0
M  V30 8849 H 822.888 1.51271 -2.8618 0
M  V30 8850 H 821.795 -0.654088 -3.68337 0
M  V30 8851 H 823.128 -0.841186 -4.84959 0
M  V30 8852 N 824.78 1.49157 -0.508906 0
M  V30 8853 C 826.027 2.02473 0.0327983 0
M  V30 8854 C 826.355 1.38792 1.36261 0
M  V30 8855 O 825.61 0.515576 1.88786 0
M  V30 8856 C 825.909 3.56687 0.225717 0
M  V30 8857 C 825.575 4.39046 -1.02708 0
M  V30 8858 C 824.237 4.61271 -1.37048 0
M  V30 8859 C 826.589 4.86902 -1.85946 0
M  V30 8860 C 823.917 5.28598 -2.54562 0
M  V30 8861 C 826.269 5.55521 -3.0262 0
M  V30 8862 C 824.933 5.7599 -3.3733 0
M  V30 8863 H 824.203 0.740903 0.0120017 0
M  V30 8864 H 826.85 1.79372 -0.670665 0
M  V30 8865 H 825.155 3.78511 1.01177 0
M  V30 8866 H 826.852 3.95541 0.659433 0
M  V30 8867 H 823.442 4.21994 -0.749615 0
M  V30 8868 H 827.626 4.69553 -1.6073 0
M  V30 8869 H 822.882 5.42646 -2.81682 0
M  V30 8870 H 827.056 5.91576 -3.67438 0
M  V30 8871 H 824.683 6.27934 -4.2849 0
M  V30 8872 N 826.258 0.243083 1.55714 0
M  V30 8873 C 827.507 -0.383188 1.98027 0
M  V30 8874 C 827.82 -1.59347 1.13436 0
M  V30 8875 O 829.026 -2.29065 1.45745 0
M  V30 8876 C 827.482 -0.733135 3.52354 0
M  V30 8877 C 827.09 0.455539 4.45678 0
M  V30 8878 C 828.834 -1.32381 4.03331 0
M  V30 8879 C 826.741 0.0819591 5.91343 0
M  V30 8880 H 825.671 -0.146944 0.739543 0
M  V30 8881 H 828.322 0.342697 1.80272 0
M  V30 8882 H 826.704 -1.51704 3.65789 0
M  V30 8883 H 827.878 1.23291 4.44 0
M  V30 8884 H 826.193 0.960886 4.05162 0
M  V30 8885 H 828.79 -1.61658 5.09677 0
M  V30 8886 H 829.133 -2.24698 3.50452 0
M  V30 8887 H 829.666 -0.602885 3.93205 0
M  V30 8888 H 826.405 0.972171 6.48251 0
M  V30 8889 H 825.925 -0.659291 5.96166 0
M  V30 8890 H 827.604 -0.3372 6.46121 0
M  V30 8891 N 827.736 -1.57571 -0.0300757 0
M  V30 8892 C 828.684 -2.0758 -1.04944 0
M  V30 8893 C 829.678 -0.989384 -1.37505 0
M  V30 8894 O 830.884 -1.17427 -1.36422 0
M  V30 8895 H 827.259 -0.662419 -0.355956 0
M  V30 8896 H 829.23 -2.92268 -0.601848 0
M  V30 8897 C 827.979 -2.5698 -2.34215 0
M  V30 8898 H 827.302 -3.40193 -2.10021 0
M  V30 8899 H 828.742 -2.95682 -3.03888 0
M  V30 8900 C 827.201 -1.47059 -3.03109 0
M  V30 8901 O 827.731 -0.83625 -3.92899 0
M  V30 8902 N 825.937 -1.20538 -2.64422 0
M  V30 8903 H 825.484 -1.72305 -1.9149 0
M  V30 8904 H 825.442 -0.472045 -3.10836 0
M  V30 8905 N 829.214 0.302327 -1.54673 0
M  V30 8906 C 830.162 1.39286 -1.86285 0
M  V30 8907 C 831.156 1.52553 -0.736478 0
M  V30 8908 O 832.362 1.54686 -0.92045 0
M  V30 8909 H 828.737 0.465228 -0.590819 0
M  V30 8910 H 830.708 1.09859 -2.77441 0
M  V30 8911 C 829.457 2.75155 -2.12567 0
M  V30 8912 H 828.78 2.65728 -2.98712 0
M  V30 8913 H 830.22 3.50476 -2.38627 0
M  V30 8914 C 828.679 3.23987 -0.923813 0
M  V30 8915 O 829.209 4.01443 -0.143649 0
M  V30 8916 N 827.415 2.81293 -0.72956 0
M  V30 8917 H 826.962 2.18421 -1.36565 0
M  V30 8918 H 826.92 3.14315 0.0730351 0
M  V30 8919 N 830.692 1.47107 0.565454 0
M  V30 8920 C 831.938 1.53535 1.32495 0
M  V30 8921 C 832.271 0.193537 1.93233 0
M  V30 8922 O 831.546 -0.796956 1.77423 0
M  V30 8923 C 831.829 2.64712 2.4413 0
M  V30 8924 C 831.682 4.08482 1.88314 0
M  V30 8925 C 833.001 2.71853 3.46098 0
M  V30 8926 H 830.12 0.558926 0.480386 0
M  V30 8927 H 832.762 1.79125 0.633575 0
M  V30 8928 H 830.912 2.43023 3.03104 0
M  V30 8929 H 832.584 4.4151 1.33665 0
M  V30 8930 H 830.827 4.17148 1.19037 0
M  V30 8931 H 831.498 4.82032 2.68978 0
M  V30 8932 H 833.974 2.91397 2.97031 0
M  V30 8933 H 832.85 3.51433 4.21646 0
M  V30 8934 H 833.111 1.78584 4.04426 0
M  V30 8935 N 832.17 -0.811516 1.35101 0
M  V30 8936 C 833.118 -1.94449 1.27642 0
M  V30 8937 C 834.112 -1.68522 0.172287 0
M  V30 8938 O 835.318 -1.76799 0.337967 0
M  V30 8939 H 831.693 -0.638776 0.396824 0
M  V30 8940 H 833.664 -1.97861 2.23369 0
M  V30 8941 C 832.413 -3.31139 1.06029 0
M  V30 8942 H 831.736 -3.51644 1.90227 0
M  V30 8943 H 833.176 -4.10831 1.0485 0
M  V30 8944 C 831.635 -3.36072 -0.236039 0
M  V30 8945 O 832.165 -3.82292 -1.23353 0
M  V30 8946 N 830.371 -2.89314 -0.273107 0
M  V30 8947 H 829.918 -2.51893 0.539211 0
M  V30 8948 H 829.876 -2.92996 -1.1402 0
M  V30 8949 N 833.648 -1.19017 -1.03309 0
M  V30 8950 C 834.595 -0.924088 -2.11493 0
M  V30 8951 C 835.565 0.139464 -1.65513 0
M  V30 8952 O 836.75 -0.00178761 -1.908 0
M  V30 8953 C 833.89 -0.464255 -3.41963 0
M  V30 8954 C 833.003 -1.5941 -4.01513 0
M  V30 8955 C 832.138 -1.08622 -5.19976 0
M  V30 8956 C 831.177 -2.19024 -5.71572 0
M  V30 8957 N 830.314 -1.69575 -6.81314 0
M  V30 8958 H 835.154 -1.85039 -2.33591 0
M  V30 8959 H 832.691 -0.922593 -1.14572 0
M  V30 8960 H 834.649 -0.179078 -4.16815 0
M  V30 8961 H 833.279 0.425062 -3.19989 0
M  V30 8962 H 832.331 -1.99458 -3.23915 0
M  V30 8963 H 833.643 -2.42604 -4.35826 0
M  V30 8964 H 832.797 -0.756022 -6.01971 0
M  V30 8965 H 831.536 -0.223955 -4.87186 0
M  V30 8966 H 830.541 -2.5288 -4.88193 0
M  V30 8967 H 831.766 -3.05699 -6.06403 0
M  V30 8968 H 829.712 -0.856494 -6.50385 0
M  V30 8969 H 829.629 -2.46361 -7.14732 0
M  V30 8970 H 830.897 -1.39505 -7.66915 0
M  V30 8971 N 835.127 1.22348 -0.993418 0
M  V30 8972 C 836.538 1.72893 -0.704616 0
M  V30 8973 C 836.889 1.80095 0.778483 0
M  V30 8974 O 836.014 1.4476 1.60853 0
M  V30 8975 C 836.609 3.14 -1.27237 0
M  V30 8976 C 835.168 3.61949 -1.03294 0
M  V30 8977 C 834.315 2.39816 -1.39225 0
M  V30 8978 H 837.266 1.07688 -1.16572 0
M  V30 8979 H 837.287 3.74886 -0.651212 0
M  V30 8980 H 836.799 3.08727 -2.3518 0
M  V30 8981 H 834.9 3.72588 0.0298329 0
M  V30 8982 H 835.013 4.48051 -1.69668 0
M  V30 8983 H 833.377 2.41448 -0.810849 0
M  V30 8984 H 834.16 2.37203 -2.48172 0
M  V30 8985 N 836.605 0.766683 1.37694 0
M  V30 8986 C 837.851 0.329201 2.0011 0
M  V30 8987 C 838.184 -1.09004 1.60723 0
M  V30 8988 O 837.459 -1.74895 0.850989 0
M  V30 8989 C 837.742 0.466989 3.57059 0
M  V30 8990 C 837.595 1.92828 4.06371 0
M  V30 8991 C 838.914 -0.131792 4.39903 0
M  V30 8992 H 836.033 0.12109 0.726984 0
M  V30 8993 H 838.675 0.968779 1.63446 0
M  V30 8994 H 836.825 -0.0775023 3.88423 0
M  V30 8995 H 838.497 2.53208 3.85595 0
M  V30 8996 H 836.74 2.43884 3.58752 0
M  V30 8997 H 837.411 1.97577 5.15429 0
M  V30 8998 H 839.887 0.332731 4.14768 0
M  V30 8999 H 838.763 -0.005217 5.489 0
M  V30 9000 H 839.024 -1.22156 4.24889 0
M  V30 9001 N 838.083 -1.48885 0.516809 0
M  V30 9002 C 839.015 -2.27357 -0.290061 0
M  V30 9003 C 840.028 -1.34558 -0.916406 0
M  V30 9004 O 841.217 -1.59715 -0.797073 0
M  V30 9005 C 838.317 -3.07496 -1.42476 0
M  V30 9006 C 837.49 -4.27982 -0.902793 0
M  V30 9007 C 836.549 -4.90038 -1.91701 0
M  V30 9008 O 835.575 -5.49643 -1.47922 0
M  V30 9009 N 836.777 -4.811 -3.24843 0
M  V30 9010 H 839.542 -2.97244 0.382884 0
M  V30 9011 H 837.103 -1.58064 0.35032 0
M  V30 9012 H 839.095 -3.45882 -2.10113 0
M  V30 9013 H 837.665 -2.40115 -2.00159 0
M  V30 9014 H 836.885 -3.94167 -0.0508272 0
M  V30 9015 H 838.173 -5.06003 -0.532723 0
M  V30 9016 H 837.571 -4.33801 -3.63088 0
M  V30 9017 H 836.128 -5.23625 -3.8815 0
M  V30 9018 N 839.561 -0.251338 -1.55583 0
M  V30 9019 C 840.524 0.63305 -2.20284 0
M  V30 9020 C 841.524 1.09941 -1.17344 0
M  V30 9021 O 842.714 1.00341 -1.42399 0
M  V30 9022 C 839.846 1.8706 -2.84993 0
M  V30 9023 H 841.039 0.0684846 -2.99822 0
M  V30 9024 H 838.592 -0.00181653 -1.563 0
M  V30 9025 H 839.327 2.47629 -2.09405 0
M  V30 9026 H 839.112 1.54436 -3.60405 0
M  V30 9027 H 840.602 2.50004 -3.34496 0
M  V30 9028 N 841.039 1.57585 0.0217189 0
M  V30 9029 C 842.002 2.06004 1.00474 0
M  V30 9030 C 843.002 0.965461 1.2859 0
M  V30 9031 O 844.192 1.22884 1.23471 0
M  V30 9032 C 841.324 2.48319 2.33561 0
M  V30 9033 H 842.517 2.94112 0.586346 0
M  V30 9034 H 840.07 1.53973 0.268716 0
M  V30 9035 H 840.805 1.63389 2.80133 0
M  V30 9036 H 840.59 3.28239 2.1448 0
M  V30 9037 H 842.08 2.86181 3.04122 0
M  V30 9038 N 842.517 -0.29412 1.54831 0
M  V30 9039 C 843.447 -1.36757 1.89261 0
M  V30 9040 C 844.428 -1.52564 0.752214 0
M  V30 9041 O 845.613 -1.65958 1.00855 0
M  V30 9042 C 842.743 -2.73066 2.14597 0
M  V30 9043 C 841.697 -2.72017 3.3044 0
M  V30 9044 C 841.023 -4.11679 3.4121 0
M  V30 9045 C 842.323 -2.33149 4.67375 0
M  V30 9046 H 844.017 -1.08191 2.79169 0
M  V30 9047 H 841.563 -0.519014 1.34321 0
M  V30 9048 H 843.516 -3.48255 2.37269 0
M  V30 9049 H 842.24 -3.03172 1.21467 0
M  V30 9050 H 840.899 -1.99285 3.07703 0
M  V30 9051 H 840.547 -4.38973 2.45584 0
M  V30 9052 H 840.247 -4.11877 4.19084 0
M  V30 9053 H 841.771 -4.88637 3.6615 0
M  V30 9054 H 843.185 -2.98054 4.89731 0
M  V30 9055 H 841.582 -2.44546 5.48012 0
M  V30 9056 H 842.652 -1.28275 4.67626 0
M  V30 9057 N 843.995 -1.47404 -0.557645 0
M  V30 9058 C 845.242 -1.54007 -1.31484 0
M  V30 9059 C 845.57 -0.202162 -1.93447 0
M  V30 9060 O 844.825 0.804901 -1.78381 0
M  V30 9061 C 845.124 -2.6061 -2.44575 0
M  V30 9062 C 844.79 -4.03896 -2.00446 0
M  V30 9063 C 843.452 -4.42901 -1.88127 0
M  V30 9064 C 845.804 -4.93804 -1.66754 0
M  V30 9065 C 843.132 -5.6965 -1.40411 0
M  V30 9066 C 845.484 -6.21016 -1.20509 0
M  V30 9067 C 844.148 -6.58903 -1.06786 0
M  V30 9068 H 843.418 -0.563552 -0.481134 0
M  V30 9069 H 846.065 -1.81001 -0.625375 0
M  V30 9070 H 844.37 -2.27371 -3.19076 0
M  V30 9071 H 846.067 -2.62941 -3.02759 0
M  V30 9072 H 842.657 -3.73077 -2.10977 0
M  V30 9073 H 846.841 -4.64369 -1.75144 0
M  V30 9074 H 842.097 -5.97755 -1.2845 0
M  V30 9075 H 846.271 -6.90095 -0.935001 0
M  V30 9076 H 843.898 -7.57008 -0.695891 0
M  V30 9077 N 845.473 0.80434 -1.35529 0
M  V30 9078 C 846.719 1.56385 -1.29118 0
M  V30 9079 C 847.052 1.9374 0.133536 0
M  V30 9080 O 846.327 1.6153 1.08344 0
M  V30 9081 C 846.61 2.85097 -2.19981 0
M  V30 9082 C 846.463 2.54204 -3.7108 0
M  V30 9083 C 847.782 3.86817 -2.09907 0
M  V30 9084 H 844.901 0.567382 -0.470368 0
M  V30 9085 H 847.543 0.925235 -1.6595 0
M  V30 9086 H 845.693 3.39594 -1.88701 0
M  V30 9087 H 847.365 2.05872 -4.12813 0
M  V30 9088 H 845.608 1.87364 -3.91251 0
M  V30 9089 H 846.279 3.46068 -4.30048 0
M  V30 9090 H 848.755 3.41725 -2.37409 0
M  V30 9091 H 847.631 4.7465 -2.75678 0
M  V30 9092 H 847.892 4.28663 -1.08171 0
M  V30 9093 N 846.951 1.19563 1.02676 0
M  V30 9094 C 848.176 1.02556 1.80269 0
M  V30 9095 C 848.601 -0.421056 1.83327 0
M  V30 9096 O 847.959 -1.30279 1.26084 0
M  V30 9097 C 848.007 1.60165 3.23078 0
M  V30 9098 O 847.111 0.832404 4.03912 0
M  V30 9099 H 846.452 0.362354 0.556413 0
M  V30 9100 H 848.982 1.58633 1.29216 0
M  V30 9101 H 848.992 1.6347 3.7382 0
M  V30 9102 H 847.667 2.65454 3.20167 0
M  V30 9103 H 846.244 0.872768 3.62543 0
M  V30 9104 N 848.429 -1.21819 0.999893 0
M  V30 9105 C 849.675 -1.91325 0.690373 0
M  V30 9106 C 850.03 -1.76323 -0.769929 0
M  V30 9107 O 849.323 -1.12585 -1.55033 0
M  V30 9108 C 849.517 -3.4193 1.04012 0
M  V30 9109 C 849.346 -3.71585 2.53287 0
M  V30 9110 C 848.116 -3.91219 3.19806 0
M  V30 9111 C 850.314 -3.75502 3.5143 0
M  V30 9112 N 848.296 -4.08246 4.58485 0
M  V30 9113 C 849.667 -3.97753 4.75597 0
M  V30 9114 C 851.722 -3.58383 3.45638 0
M  V30 9115 C 850.425 -4.04662 5.94677 0
M  V30 9116 C 852.451 -3.66555 4.64103 0
M  V30 9117 C 851.813 -3.89263 5.87072 0
M  V30 9118 H 847.912 -0.720484 0.304018 0
M  V30 9119 H 850.496 -1.46595 1.28133 0
M  V30 9120 H 848.667 -3.85452 0.477671 0
M  V30 9121 H 850.399 -3.98846 0.685864 0
M  V30 9122 H 847.154 -3.88917 2.7026 0
M  V30 9123 H 847.578 -4.20673 5.30437 0
M  V30 9124 H 852.22 -3.39807 2.51576 0
M  V30 9125 H 849.938 -4.22039 6.89136 0
M  V30 9126 H 853.524 -3.54639 4.61218 0
M  V30 9127 H 852.404 -3.95424 6.77207 0
M  V30 9128 N 849.908 -0.773975 -1.37286 0
M  V30 9129 C 851.157 -0.335977 -1.98882 0
M  V30 9130 C 851.47 1.09416 -1.62134 0
M  V30 9131 O 852.676 1.63366 -2.1685 0
M  V30 9132 C 851.132 -0.549756 -3.55676 0
M  V30 9133 C 850.74 -1.9903 -4.01361 0
M  V30 9134 C 852.484 -0.175493 -4.24137 0
M  V30 9135 C 850.391 -2.15156 -5.50874 0
M  V30 9136 H 849.321 -0.121877 -0.744085 0
M  V30 9137 H 851.972 -0.953419 -1.56787 0
M  V30 9138 H 850.354 0.137175 -3.95762 0
M  V30 9139 H 851.528 -2.71237 -3.72515 0
M  V30 9140 H 849.843 -2.32137 -3.4569 0
M  V30 9141 H 852.44 -0.274463 -5.33995 0
M  V30 9142 H 852.783 0.874524 -4.07011 0
M  V30 9143 H 853.316 -0.815058 -3.89361 0
M  V30 9144 H 850.055 -3.18485 -5.72929 0
M  V30 9145 H 849.575 -1.47435 -5.81397 0
M  V30 9146 H 851.254 -1.95124 -6.16876 0
M  V30 9147 N 851.386 1.48609 -0.524698 0
M  V30 9148 C 852.318 2.27508 0.278 0
M  V30 9149 C 853.331 1.35042 0.909258 0
M  V30 9150 O 854.52 1.60136 0.788592 0
M  V30 9151 C 851.62 3.08247 1.40843 0
M  V30 9152 C 850.793 4.28455 0.880083 0
M  V30 9153 C 849.852 4.91048 1.891 0
M  V30 9154 O 848.878 5.5042 1.45005 0
M  V30 9155 N 850.08 4.82816 3.22288 0
M  V30 9156 H 852.845 2.97037 -0.398642 0
M  V30 9157 H 850.406 1.57876 -0.358698 0
M  V30 9158 H 852.398 3.46992 2.08276 0
M  V30 9159 H 850.968 2.41173 1.98883 0
M  V30 9160 H 850.188 3.94189 0.0299228 0
M  V30 9161 H 851.476 5.06279 0.505881 0
M  V30 9162 H 850.874 4.3572 3.60783 0
M  V30 9163 H 849.431 5.25676 3.85368 0
M  V30 9164 N 852.864 0.259585 1.55447 0
M  V30 9165 C 853.796 -0.667548 2.19263 0
M  V30 9166 C 854.809 -1.12925 1.17268 0
M  V30 9167 O 855.998 -1.05384 1.44071 0
M  V30 9168 C 853.098 -1.92066 2.7922 0
M  V30 9169 C 852.271 -1.60832 4.06758 0
M  V30 9170 C 851.33 -2.71231 4.50911 0
M  V30 9171 O 850.356 -2.38077 5.17019 0
M  V30 9172 N 851.558 -4.00984 4.19752 0
M  V30 9173 H 854.323 -0.121449 2.99454 0
M  V30 9174 H 851.884 0.0800519 1.61702 0
M  V30 9175 H 853.876 -2.65186 3.0571 0
M  V30 9176 H 852.446 -2.37621 2.03113 0
M  V30 9177 H 851.666 -0.711685 3.87722 0
M  V30 9178 H 852.954 -1.37445 4.89884 0
M  V30 9179 H 852.352 -4.30748 3.66706 0
M  V30 9180 H 850.909 -4.7053 4.51048 0
M  V30 9181 N 854.342 -1.57594 -0.0133615 0
M  V30 9182 C 855.588 -1.90262 -0.702019 0
M  V30 9183 C 855.921 -0.859219 -1.74158 0
M  V30 9184 O 855.196 0.123778 -1.94106 0
M  V30 9185 C 855.479 -3.3354 -1.35732 0
M  V30 9186 C 855.332 -4.48586 -0.330208 0
M  V30 9187 C 856.651 -3.76004 -2.28712 0
M  V30 9188 H 853.77 -0.691943 -0.253739 0
M  V30 9189 H 856.412 -1.89967 0.0351894 0
M  V30 9190 H 854.562 -3.33921 -1.98567 0
M  V30 9191 H 856.234 -4.6034 0.297433 0
M  V30 9192 H 854.477 -4.32394 0.348926 0
M  V30 9193 H 855.148 -5.45762 -0.827508 0
M  V30 9194 H 857.624 -3.77089 -1.75906 0
M  V30 9195 H 856.5 -4.77032 -2.71535 0
M  V30 9196 H 856.761 -3.09129 -3.16056 0
M  V30 9197 N 855.82 0.285905 -1.54985 0
M  V30 9198 C 856.75 1.35752 -1.89983 0
M  V30 9199 C 857.731 1.52163 -0.760295 0
M  V30 9200 O 858.916 1.65421 -1.01733 0
M  V30 9201 C 856.046 2.71925 -2.16042 0
M  V30 9202 C 855 2.70261 -3.31878 0
M  V30 9203 C 854.326 4.09864 -3.43388 0
M  V30 9204 C 855.626 2.30667 -4.68604 0
M  V30 9205 H 857.32 1.06709 -2.79738 0
M  V30 9206 H 854.866 0.511884 -1.34595 0
M  V30 9207 H 856.819 3.46992 -2.39113 0
M  V30 9208 H 855.543 3.02523 -1.23074 0
M  V30 9209 H 854.202 1.97651 -3.08755 0
M  V30 9210 H 853.85 4.37664 -2.47909 0
M  V30 9211 H 853.55 4.09648 -4.21262 0
M  V30 9212 H 855.074 4.86689 -3.68736 0
M  V30 9213 H 856.488 2.95453 -4.91305 0
M  V30 9214 H 854.885 2.41637 -5.49301 0
M  V30 9215 H 855.955 1.25793 -4.68299 0
M  V30 9216 N 857.298 1.47698 0.54982 0
M  V30 9217 C 858.544 1.54931 1.30859 0
M  V30 9218 C 858.877 0.214021 1.93017 0
M  V30 9219 O 858.152 -0.778093 1.78258 0
M  V30 9220 C 858.435 2.67286 2.41309 0
M  V30 9221 C 858.288 4.10457 1.83971 0
M  V30 9222 C 859.607 2.75509 3.43195 0
M  V30 9223 H 856.726 0.56399 0.474431 0
M  V30 9224 H 859.368 1.79787 0.614541 0
M  V30 9225 H 857.518 2.46224 3.0051 0
M  V30 9226 H 859.19 4.42903 1.28974 0
M  V30 9227 H 857.433 4.18387 1.14606 0
M  V30 9228 H 858.104 4.84857 2.63851 0
M  V30 9229 H 860.58 2.94531 2.93923 0
M  V30 9230 H 859.456 3.55886 4.17895 0
M  V30 9231 H 859.717 1.82863 4.02509 0
M  V30 9232 N 858.776 -0.797141 1.35954 0
M  V30 9233 C 860.053 -1.54224 1.2031 0
M  V30 9234 C 860.433 -2.10013 -0.213926 0
M  V30 9235 O 859.781 -1.93292 -1.21862 0
M  V30 9236 C 859.991 -2.6433 2.27883 0
M  V30 9237 C 861.339 -3.32418 2.64165 0
M  V30 9238 O 862.363 -2.74607 2.26868 0
M  V30 9239 O 861.222 -4.36876 3.28331 0
M  V30 9240 H 858.316 -0.681857 0.467974 0
M  V30 9241 H 860.862 -0.836288 1.47663 0
M  V30 9242 H 859.634 -2.21044 3.22885 0
M  V30 9243 H 859.257 -3.42551 2.01853 0
M  V30 9244 N 860.254 -1.20106 -1.0204 0
M  V30 9245 C 861.501 -1.00889 -1.75578 0
M  V30 9246 C 861.829 0.459415 -1.88996 0
M  V30 9247 O 861.084 1.35735 -1.40977 0
M  V30 9248 C 861.383 -1.63308 -3.17908 0
M  V30 9249 C 861.049 -3.13091 -3.24476 0
M  V30 9250 C 859.711 -3.53968 -3.25976 0
M  V30 9251 C 862.063 -4.09093 -3.22944 0
M  V30 9252 C 859.391 -4.89381 -3.2361 0
M  V30 9253 C 861.743 -5.44447 -3.22119 0
M  V30 9254 C 860.407 -5.84742 -3.2192 0
M  V30 9255 H 859.677 -0.36918 -0.642485 0
M  V30 9256 H 862.324 -1.49475 -1.19706 0
M  V30 9257 H 860.629 -1.06974 -3.76914 0
M  V30 9258 H 862.326 -1.45958 -3.73493 0
M  V30 9259 H 858.916 -2.80526 -3.24042 0
M  V30 9260 H 863.1 -3.78549 -3.20958 0
M  V30 9261 H 858.356 -5.1987 -3.21785 0
M  V30 9262 H 862.53 -6.18584 -3.19885 0
M  V30 9263 H 860.157 -6.89642 -3.19841 0
M  V30 9264 N 861.732 1.21287 -1.00634 0
M  V30 9265 C 862.96 1.94385 -0.708678 0
M  V30 9266 C 863.375 1.7416 0.728957 0
M  V30 9267 O 862.732 1.04906 1.49335 0
M  V30 9268 C 862.783 3.46755 -1.02193 0
M  V30 9269 O 862.504 3.6631 -2.40309 0
M  V30 9270 C 864.005 4.37014 -0.743867 0
M  V30 9271 H 861.225 0.618136 -0.261052 0
M  V30 9272 H 863.769 1.54067 -1.34475 0
M  V30 9273 H 861.924 3.8499 -0.431441 0
M  V30 9274 H 862.338 4.60393 -2.51274 0
M  V30 9275 H 863.812 5.42621 -1.01321 0
M  V30 9276 H 864.289 4.38017 0.322084 0
M  V30 9277 H 864.895 4.04426 -1.31603 0
M  V30 9278 N 863.21 0.781244 1.36873 0
M  V30 9279 C 864.438 0.361566 2.03716 0
M  V30 9280 C 864.853 -1.01937 1.58916 0
M  V30 9281 O 864.21 -1.65237 0.774783 0
M  V30 9282 C 864.261 0.406391 3.59208 0
M  V30 9283 O 863.982 1.73286 4.02372 0
M  V30 9284 C 865.483 -0.0236894 4.43294 0
M  V30 9285 H 862.703 0.150133 0.653988 0
M  V30 9286 H 865.247 1.05781 1.75016 0
M  V30 9287 H 863.402 -0.241364 3.86647 0
M  V30 9288 H 863.816 1.67804 4.96933 0
M  V30 9289 H 865.29 0.0588205 5.51969 0
M  V30 9290 H 865.767 -1.07529 4.25833 0
M  V30 9291 H 866.373 0.59624 4.211 0
M  V30 9292 N 864.689 -1.48329 0.532571 0
M  V30 9293 C 865.599 -2.33445 -0.232546 0
M  V30 9294 C 866.615 -1.46651 -0.93645 0
M  V30 9295 O 867.791 -1.79627 -0.910834 0
M  V30 9296 C 864.856 -3.22824 -1.26434 0
M  V30 9297 C 863.917 -4.25492 -0.570511 0
M  V30 9298 C 863.15 -5.10601 -1.55315 0
M  V30 9299 O 863.373 -4.97733 -2.78599 0
M  V30 9300 O 862.307 -5.91927 -1.09112 0
M  V30 9301 H 866.133 -3.00119 0.464988 0
M  V30 9302 H 863.718 -1.46489 0.293462 0
M  V30 9303 H 865.6 -3.78103 -1.86055 0
M  V30 9304 H 864.275 -2.58807 -1.94424 0
M  V30 9305 H 863.182 -3.74041 0.0662587 0
M  V30 9306 H 864.515 -4.92154 0.0674904 0
M  V30 9307 N 866.167 -0.267825 -1.55308 0
M  V30 9308 C 867.13 0.60965 -2.20943 0
M  V30 9309 C 868.13 1.0869 -1.18504 0
M  V30 9310 O 869.32 0.988248 -1.43455 0
M  V30 9311 C 866.452 1.84027 -2.86961 0
M  V30 9312 H 867.645 0.0366806 -2.99878 0
M  V30 9313 H 865.198 -0.0183941 -1.56289 0
M  V30 9314 H 865.933 2.45394 -2.1202 0
M  V30 9315 H 865.718 1.50605 -3.62023 0
M  V30 9316 H 867.208 2.46442 -3.37129 0
M  V30 9317 N 867.645 1.57599 0.00500368 0
M  V30 9318 C 868.593 2.09223 1.01628 0
M  V30 9319 C 869.587 1.01113 1.35913 0
M  V30 9320 O 870.793 1.19583 1.34536 0
M  V30 9321 H 867.168 0.667999 0.345372 0
M  V30 9322 H 869.139 2.93188 0.555274 0
M  V30 9323 C 867.888 2.60674 2.30097 0
M  V30 9324 H 867.211 3.43491 2.04582 0
M  V30 9325 H 868.651 3.00479 2.99146 0
M  V30 9326 C 867.11 1.51862 3.00731 0
M  V30 9327 O 867.64 0.898651 3.91519 0
M  V30 9328 N 865.846 1.24729 2.62471 0
M  V30 9329 H 865.393 1.7533 1.88725 0
M  V30 9330 H 865.351 0.521437 3.10046 0
M  V30 9331 N 869.123 -0.277682 1.55134 0
M  V30 9332 C 870.055 -1.36531 1.84098 0
M  V30 9333 C 871.068 -1.45756 0.725194 0
M  V30 9334 O 872.257 -1.47656 1.00299 0
M  V30 9335 C 869.357 -2.74701 1.98476 0
M  V30 9336 C 868.53 -2.88125 3.29094 0
M  V30 9337 C 867.589 -4.0694 3.33596 0
M  V30 9338 O 866.615 -3.9792 4.06999 0
M  V30 9339 N 867.817 -5.18687 2.60661 0
M  V30 9340 H 870.582 -1.12032 2.77973 0
M  V30 9341 H 868.143 -0.467793 1.54995 0
M  V30 9342 H 870.135 -3.52471 1.98863 0
M  V30 9343 H 868.705 -2.92043 1.11488 0
M  V30 9344 H 867.925 -1.97277 3.41285 0
M  V30 9345 H 869.213 -2.94021 4.15246 0
M  V30 9346 H 868.611 -5.28901 2.00699 0
M  V30 9347 H 867.168 -5.94705 2.66776 0
M  V30 9348 N 870.601 -1.47988 -0.541979 0
M  V30 9349 C 871.548 -1.61615 -1.6477 0
M  V30 9350 C 872.518 -0.458602 -1.59644 0
M  V30 9351 O 873.703 -0.680585 -1.78249 0
M  V30 9352 C 870.843 -1.65066 -3.03063 0
M  V30 9353 C 869.956 -2.91845 -3.18513 0
M  V30 9354 C 869.091 -2.86534 -4.47294 0
M  V30 9355 C 868.13 -4.0807 -4.5623 0
M  V30 9356 N 867.267 -4.00905 -5.76385 0
M  V30 9357 H 872.107 -2.56046 -1.52461 0
M  V30 9358 H 869.644 -1.26989 -0.742449 0
M  V30 9359 H 871.602 -1.65049 -3.83164 0
M  V30 9360 H 870.232 -0.74136 -3.14171 0
M  V30 9361 H 869.284 -3.01661 -2.31743 0
M  V30 9362 H 870.596 -3.81804 -3.20978 0
M  V30 9363 H 869.75 -2.84851 -5.35672 0
M  V30 9364 H 868.489 -1.94283 -4.47332 0
M  V30 9365 H 867.494 -4.10041 -3.66261 0
M  V30 9366 H 868.719 -5.01465 -4.5794 0
M  V30 9367 H 866.665 -3.11467 -5.77342 0
M  V30 9368 H 866.582 -4.84557 -5.80293 0
M  V30 9369 H 867.85 -4.03263 -6.67083 0
M  V30 9370 N 872.079 0.78992 -1.36375 0
M  V30 9371 C 873.304 1.58389 -1.33895 0
M  V30 9372 C 873.729 1.8794 0.0774934 0
M  V30 9373 O 873.087 1.4785 1.0493 0
M  V30 9374 C 873.135 2.88201 -2.16732 0
M  V30 9375 O 872.239 3.81778 -1.55946 0
M  V30 9376 H 871.58 0.480471 -0.458305 0
M  V30 9377 H 874.11 0.979119 -1.79651 0
M  V30 9378 H 874.12 3.37475 -2.29292 0
M  V30 9379 H 872.795 2.66019 -3.19698 0
M  V30 9380 H 871.372 3.40371 -1.52323 0
M  V30 9381 N 873.557 1.20646 1.01402 0
M  V30 9382 C 874.785 1.04389 1.78635 0
M  V30 9383 C 875.2 -0.406771 1.84366 0
M  V30 9384 O 874.557 -1.28239 1.2985 0
M  V30 9385 C 874.608 1.62378 3.22979 0
M  V30 9386 O 874.329 3.01768 3.17597 0
M  V30 9387 C 875.83 1.5111 4.1675 0
M  V30 9388 H 873.05 0.367077 0.56169 0
M  V30 9389 H 875.594 1.59789 1.27624 0
M  V30 9390 H 873.749 1.11092 3.7113 0
M  V30 9391 H 874.163 3.29331 4.08217 0
M  V30 9392 H 875.637 1.96441 5.15863 0
M  V30 9393 H 876.114 0.464011 4.36742 0
M  V30 9394 H 876.72 2.01599 3.74483 0
M  V30 9395 N 875.035 -1.20752 1.01276 0
M  V30 9396 C 876.281 -1.90302 0.700924 0
M  V30 9397 C 876.614 -1.78406 -0.767142 0
M  V30 9398 O 875.889 -1.16575 -1.55694 0
M  V30 9399 C 876.172 -3.41831 1.13242 0
M  V30 9400 C 876.025 -3.6268 2.66051 0
M  V30 9401 C 877.344 -4.34486 0.700738 0
M  V30 9402 H 874.463 -0.69107 0.256107 0
M  V30 9403 H 877.105 -1.42227 1.25982 0
M  V30 9404 H 875.255 -3.82906 0.656902 0
M  V30 9405 H 876.927 -3.30882 3.21426 0
M  V30 9406 H 875.17 -3.06281 3.07204 0
M  V30 9407 H 875.841 -4.68882 2.91296 0
M  V30 9408 H 878.317 -4.01036 1.10948 0
M  V30 9409 H 877.193 -5.39136 1.03073 0
M  V30 9410 H 877.454 -4.40307 -0.39778 0
M  V30 9411 N 876.513 -0.788492 -1.36457 0
M  V30 9412 C 877.79 -0.284484 -1.9352 0
M  V30 9413 C 878.17 1.2232 -1.7205 0
M  V30 9414 O 877.518 2.01424 -1.07892 0
M  V30 9415 C 877.728 -0.676106 -3.42388 0
M  V30 9416 C 879.076 -0.655327 -4.19512 0
M  V30 9417 O 880.1 -0.616523 -3.50824 0
M  V30 9418 O 878.959 -0.697391 -5.42032 0
M  V30 9419 H 876.053 -0.0701769 -0.824017 0
M  V30 9420 H 878.599 -0.870974 -1.45644 0
M  V30 9421 H 877.371 -1.71596 -3.51668 0
M  V30 9422 H 876.994 -0.0634517 -3.97549 0
M  V30 9423 N 877.991 1.48044 -0.54043 0
M  V30 9424 C 878.938 2.29781 0.216597 0
M  V30 9425 C 879.908 1.38021 0.924094 0
M  V30 9426 O 881.093 1.66985 0.923078 0
M  V30 9427 C 878.233 3.21623 1.2511 0
M  V30 9428 C 877.346 4.28467 0.551384 0
M  V30 9429 C 876.481 5.07477 1.56972 0
M  V30 9430 C 875.52 6.06113 0.854048 0
M  V30 9431 N 874.657 6.78143 1.81842 0
M  V30 9432 H 879.497 2.94001 -0.486578 0
M  V30 9433 H 877.034 1.44929 -0.251789 0
M  V30 9434 H 878.992 3.73279 1.8633 0
M  V30 9435 H 877.622 2.59305 1.92252 0
M  V30 9436 H 876.674 3.79997 -0.174982 0
M  V30 9437 H 877.986 4.98799 -0.0100542 0
M  V30 9438 H 877.14 5.63199 2.25592 0
M  V30 9439 H 875.879 4.37008 2.16507 0
M  V30 9440 H 874.884 5.49585 0.153838 0
M  V30 9441 H 876.109 6.78584 0.264675 0
M  V30 9442 H 874.055 6.10417 2.40265 0
M  V30 9443 H 873.972 7.44587 1.3087 0
M  V30 9444 H 875.24 7.38448 2.49628 0
M  V30 9445 N 879.47 0.276058 1.55163 0
M  V30 9446 C 880.719 -0.341098 1.98795 0
M  V30 9447 C 881.032 -1.56905 1.16791 0
M  V30 9448 O 882.238 -2.25922 1.50571 0
M  V30 9449 C 880.694 -0.658231 3.5383 0
M  V30 9450 C 880.302 0.549972 4.44611 0
M  V30 9451 C 882.046 -1.23796 4.06048 0
M  V30 9452 C 879.953 0.207373 5.91036 0
M  V30 9453 H 878.883 -0.131224 0.742493 0
M  V30 9454 H 881.534 0.380858 1.79504 0
M  V30 9455 H 879.916 -1.43911 3.68925 0
M  V30 9456 H 881.09 1.32681 4.41285 0
M  V30 9457 H 879.405 1.04661 4.03032 0
M  V30 9458 H 882.002 -1.50811 5.12991 0
M  V30 9459 H 882.345 -2.17214 3.55139 0
M  V30 9460 H 882.878 -0.519345 3.94395 0
M  V30 9461 H 879.617 1.10946 6.46043 0
M  V30 9462 H 879.137 -0.532687 5.9743 0
M  V30 9463 H 880.816 -0.200072 6.46691 0
M  V30 9464 N 880.948 -1.576 0.00335426 0
M  V30 9465 C 881.911 -2.07576 -0.971838 0
M  V30 9466 C 882.911 -0.985796 -1.27038 0
M  V30 9467 O 884.101 -1.24833 -1.21501 0
M  V30 9468 C 881.233 -2.52003 -2.29581 0
M  V30 9469 H 882.426 -2.95008 -0.539481 0
M  V30 9470 H 879.979 -1.54381 -0.244186 0
M  V30 9471 H 880.714 -1.67825 -2.77498 0
M  V30 9472 H 880.499 -3.31609 -2.09231 0
M  V30 9473 H 881.989 -2.90983 -2.99531 0
M  V30 9474 N 882.426 0.269451 -1.5528 0
M  V30 9475 C 883.703 1.02207 -1.66773 0
M  V30 9476 C 884.083 2.04168 -0.536536 0
M  V30 9477 O 883.431 2.23761 0.462956 0
M  V30 9478 C 883.641 1.67569 -3.0614 0
M  V30 9479 C 884.989 2.18599 -3.64005 0
M  V30 9480 O 886.013 1.7755 -3.08795 0
M  V30 9481 O 884.872 2.93903 -4.60742 0
M  V30 9482 H 881.966 0.474314 -0.677462 0
M  V30 9483 H 884.512 0.265026 -1.67618 0
M  V30 9484 H 883.284 0.937029 -3.79915 0
M  V30 9485 H 882.907 2.49951 -3.09209 0
M  V30 9486 N 883.904 1.48273 0.534124 0
M  V30 9487 C 885.153 1.55334 1.28663 0
M  V30 9488 C 885.466 0.230345 1.94239 0
M  V30 9489 O 886.672 0.179161 2.70908 0
M  V30 9490 C 885.128 2.73927 2.33435 0
M  V30 9491 C 884.736 4.12852 1.73947 0
M  V30 9492 C 886.48 2.90298 3.09722 0
M  V30 9493 C 884.387 5.22711 2.76636 0
M  V30 9494 H 883.317 0.578262 0.483869 0
M  V30 9495 H 885.968 1.74598 0.564602 0
M  V30 9496 H 884.35 2.48089 3.08655 0
M  V30 9497 H 885.524 4.48691 1.04944 0
M  V30 9498 H 883.839 4.01562 1.10167 0
M  V30 9499 H 886.436 3.69542 3.86449 0
M  V30 9500 H 886.779 1.99598 3.6533 0
M  V30 9501 H 887.312 3.16017 2.41616 0
M  V30 9502 H 884.051 6.15362 2.25852 0
M  V30 9503 H 883.571 4.91364 3.43979 0
M  V30 9504 H 885.25 5.50648 3.39699 0
M  V30 9505 N 885.382 -0.782676 1.36792 0
M  V30 9506 C 886.607 -1.57676 1.34733 0
M  V30 9507 C 887.032 -1.87979 -0.0675253 0
M  V30 9508 O 886.39 -1.48404 -1.04144 0
M  V30 9509 C 886.438 -2.87047 2.18257 0
M  V30 9510 O 885.542 -3.80946 1.57969 0
M  V30 9511 H 884.883 -0.478034 0.460846 0
M  V30 9512 H 887.413 -0.969578 1.80168 0
M  V30 9513 H 887.423 -3.36254 2.31079 0
M  V30 9514 H 886.098 -2.64319 3.21104 0
M  V30 9515 H 884.675 -3.39558 1.54126 0
M  V30 9516 N 886.86 -1.21182 -1.00761 0
M  V30 9517 C 888.109 -1.02166 -1.73911 0
M  V30 9518 C 888.422 0.445638 -1.90456 0
M  V30 9519 O 889.628 0.755132 -2.60787 0
M  V30 9520 C 888.084 -1.77936 -3.12837 0
M  V30 9521 C 887.692 -3.28819 -3.04273 0
M  V30 9522 C 889.436 -1.67319 -3.90134 0
M  V30 9523 C 887.343 -3.97089 -4.38262 0
M  V30 9524 H 886.273 -0.378665 -0.652019 0
M  V30 9525 H 888.924 -1.44891 -1.12601 0
M  V30 9526 H 887.306 -1.28003 -3.74742 0
M  V30 9527 H 888.48 -3.86035 -2.51622 0
M  V30 9528 H 886.795 -3.39949 -2.40465 0
M  V30 9529 H 889.392 -2.15659 -4.8928 0
M  V30 9530 H 889.735 -0.630959 -4.11491 0
M  V30 9531 H 890.268 -2.14716 -3.34876 0
M  V30 9532 H 887.007 -5.01503 -4.22107 0
M  V30 9533 H 886.527 -3.44662 -4.90885 0
M  V30 9534 H 888.206 -4.01854 -5.07072 0
M  V30 9535 N 888.338 1.20213 -1.01915 0
M  V30 9536 C 889.584 1.89928 -0.711007 0
M  V30 9537 C 889.917 1.7881 0.75767 0
M  V30 9538 O 889.192 1.17399 1.55073 0
M  V30 9539 C 889.475 3.41225 -1.15053 0
M  V30 9540 C 889.328 3.61264 -2.67971 0
M  V30 9541 C 890.647 4.34108 -0.72377 0
M  V30 9542 H 887.766 0.689702 -0.259768 0
M  V30 9543 H 890.408 1.41557 -1.26734 0
M  V30 9544 H 888.558 3.82552 -0.677199 0
M  V30 9545 H 890.23 3.29173 -3.23176 0
M  V30 9546 H 888.473 3.04647 -3.08824 0
M  V30 9547 H 889.144 4.67331 -2.93779 0
M  V30 9548 H 891.62 4.00442 -1.13073 0
M  V30 9549 H 890.496 5.38581 -1.05931 0
M  V30 9550 H 890.757 4.40512 0.374424 0
M  V30 9551 N 889.816 0.795718 1.36037 0
M  V30 9552 C 891.062 0.371574 1.99367 0
M  V30 9553 C 891.395 -1.0557 1.62999 0
M  V30 9554 O 890.67 -1.73051 0.887895 0
M  V30 9555 C 890.953 0.542622 3.55988 0
M  V30 9556 C 890.806 2.01404 4.0219 0
M  V30 9557 C 892.125 -0.0384527 4.40083 0
M  V30 9558 H 889.244 0.136483 0.724252 0
M  V30 9559 H 891.886 1.00323 1.61355 0
M  V30 9560 H 890.036 0.0049053 3.885 0
M  V30 9561 H 891.708 2.6133 3.80137 0
M  V30 9562 H 889.951 2.51439 3.53498 0
M  V30 9563 H 890.622 2.08466 5.11122 0
M  V30 9564 H 893.098 0.420634 4.13968 0
M  V30 9565 H 891.974 0.111214 5.48787 0
M  V30 9566 H 892.235 -1.13116 4.27384 0
M  V30 9567 N 891.294 -1.47756 0.548274 0
M  V30 9568 C 892.705 -1.8636 0.112547 0
M  V30 9569 C 893.056 -1.45589 -1.31523 0
M  V30 9570 O 892.181 -0.854874 -1.98799 0
M  V30 9571 C 892.776 -3.38224 0.197473 0
M  V30 9572 C 891.335 -3.75954 -0.183163 0
M  V30 9573 C 890.482 -2.7181 0.549059 0
M  V30 9574 H 893.433 -1.394 0.758506 0
M  V30 9575 H 893.454 -3.75957 -0.586217 0
M  V30 9576 H 892.966 -3.67868 1.23673 0
M  V30 9577 H 891.067 -3.51926 -1.22387 0
M  V30 9578 H 891.18 -4.78801 0.169178 0
M  V30 9579 H 889.544 -2.54699 -0.00682862 0
M  V30 9580 H 890.327 -3.04296 1.5893 0
M  V30 9581 N 892.772 -0.284283 -1.55015 0
M  V30 9582 C 894.002 0.332465 -2.03907 0
M  V30 9583 C 894.41 1.49331 -1.16177 0
M  V30 9584 O 893.753 1.82851 -0.176395 0
M  V30 9585 C 893.815 0.867193 -3.48884 0
M  V30 9586 C 893.479 -0.166198 -4.56698 0
M  V30 9587 C 894.476 -0.988898 -5.10408 0
M  V30 9588 C 892.161 -0.303081 -5.01385 0
M  V30 9589 C 894.155 -1.93458 -6.07333 0
M  V30 9590 C 891.842 -1.25223 -5.98133 0
M  V30 9591 C 892.84 -2.06647 -6.50988 0
M  V30 9592 O 892.528 -2.99955 -7.45843 0
M  V30 9593 H 892.26 0.0786597 -0.671408 0
M  V30 9594 H 894.814 -0.416871 -2.01125 0
M  V30 9595 H 893.044 1.66676 -3.48935 0
M  V30 9596 H 894.733 1.39802 -3.81065 0
M  V30 9597 H 895.499 -0.89393 -4.76691 0
M  V30 9598 H 891.378 0.320711 -4.59883 0
M  V30 9599 H 894.922 -2.57053 -6.48513 0
M  V30 9600 H 890.819 -1.34798 -6.31268 0
M  V30 9601 H 891.587 -2.94742 -7.6359 0
M  V30 9602 N 894.251 1.57596 -0.0117121 0
M  V30 9603 C 895.5 1.9025 0.669921 0
M  V30 9604 C 895.813 0.887986 1.74282 0
M  V30 9605 O 897.019 1.10516 2.47989 0
M  V30 9606 C 895.475 3.37762 1.24277 0
M  V30 9607 C 895.083 4.47535 0.204076 0
M  V30 9608 C 896.827 3.79509 1.90192 0
M  V30 9609 C 894.734 5.86132 0.787577 0
M  V30 9610 H 893.664 0.709935 0.253984 0
M  V30 9611 H 896.315 1.8335 -0.0741718 0
M  V30 9612 H 894.697 3.39537 2.03791 0
M  V30 9613 H 895.871 4.57294 -0.56733 0
M  V30 9614 H 894.186 4.14881 -0.355305 0
M  V30 9615 H 896.783 4.80402 2.34773 0
M  V30 9616 H 897.126 3.13643 2.7374 0
M  V30 9617 H 897.659 3.80084 1.17394 0
M  V30 9618 H 894.398 6.55499 -0.00938418 0
M  V30 9619 H 893.918 5.80014 1.52787 0
M  V30 9620 H 895.597 6.34158 1.28265 0
M  V30 9621 N 895.729 -0.261212 1.5542 0
M  V30 9622 C 896.977 -0.989272 1.76232 0
M  V30 9623 C 897.298 -1.86389 0.573067 0
M  V30 9624 O 896.568 -1.91526 -0.41166 0
M  V30 9625 H 895.148 -0.368256 0.64992 0
M  V30 9626 H 897.81 -0.282603 1.9284 0
M  V30 9627 H 896.906 -1.61935 2.66802 0
M  V30 9628 N 897.207 -1.48554 -0.526253 0
M  V30 9629 C 898.137 -1.66252 -1.63959 0
M  V30 9630 C 899.118 -0.511351 -1.62232 0
M  V30 9631 O 900.303 -0.744322 -1.7937 0
M  V30 9632 C 897.433 -1.70556 -3.02536 0
M  V30 9633 C 896.387 -2.8521 -3.19123 0
M  V30 9634 C 895.713 -2.74606 -4.58798 0
M  V30 9635 C 897.013 -4.26463 -3.0154 0
M  V30 9636 H 898.707 -2.59459 -1.49404 0
M  V30 9637 H 896.253 -1.24862 -0.717326 0
M  V30 9638 H 898.206 -1.81524 -3.80298 0
M  V30 9639 H 896.93 -0.739297 -3.18123 0
M  V30 9640 H 895.589 -2.73802 -2.43779 0
M  V30 9641 H 895.237 -1.75941 -4.71226 0
M  V30 9642 H 894.937 -3.51544 -4.70841 0
M  V30 9643 H 896.461 -2.87548 -5.38655 0
M  V30 9644 H 897.875 -4.38685 -3.69091 0
M  V30 9645 H 896.272 -5.04428 -3.25073 0
M  V30 9646 H 897.342 -4.42667 -1.97925 0
M  V30 9647 N 898.685 0.775411 -1.37205 0
M  V30 9648 C 899.648 1.8702 -1.325 0
M  V30 9649 C 900.648 1.5915 -0.229793 0
M  V30 9650 O 901.838 1.673 -0.485423 0
M  V30 9651 C 898.97 3.24085 -1.05745 0
M  V30 9652 H 900.163 1.92604 -2.29878 0
M  V30 9653 H 897.716 0.97476 -1.22181 0
M  V30 9654 H 898.451 3.24178 -0.0888371 0
M  V30 9655 H 898.236 3.45705 -1.85016 0
M  V30 9656 H 899.726 4.0416 -1.05094 0
M  V30 9657 N 900.163 1.21714 1.00117 0
M  V30 9658 C 901.093 1.00397 2.10815 0
M  V30 9659 C 902.074 -0.0723502 1.69946 0
M  V30 9660 O 903.259 0.0882398 1.93999 0
M  V30 9661 C 900.389 0.572001 3.42557 0
M  V30 9662 C 899.343 1.59331 3.97237 0
M  V30 9663 C 898.669 1.01746 5.2493 0
M  V30 9664 C 899.969 2.98117 4.28863 0
M  V30 9665 H 901.663 1.92983 2.28906 0
M  V30 9666 H 899.209 0.929273 1.10002 0
M  V30 9667 H 901.162 0.410018 4.19401 0
M  V30 9668 H 899.886 -0.38951 3.24269 0
M  V30 9669 H 898.545 1.74293 3.22518 0
M  V30 9670 H 898.193 0.0475491 5.02978 0
M  V30 9671 H 897.893 1.69969 5.62481 0
M  V30 9672 H 899.417 0.866881 6.04415 0
M  V30 9673 H 900.831 2.86578 4.96534 0
M  V30 9674 H 899.228 3.63389 4.77565 0
M  V30 9675 H 900.298 3.48674 3.36979 0
M  V30 9676 N 901.641 -1.19671 1.02551 0
M  V30 9677 C 902.589 -2.24812 0.596867 0
M  V30 9678 C 903.583 -1.65336 -0.368839 0
M  V30 9679 O 904.789 -1.78422 -0.237786 0
M  V30 9680 H 901.164 -0.731417 0.174739 0
M  V30 9681 H 903.135 -2.58286 1.49435 0
M  V30 9682 C 901.884 -3.47677 -0.0399514 0
M  V30 9683 H 901.207 -3.93728 0.694153 0
M  V30 9684 H 902.647 -4.22917 -0.302861 0
M  V30 9685 C 901.106 -3.11411 -1.2855 0
M  V30 9686 O 901.636 -3.23757 -2.37791 0
M  V30 9687 N 899.842 -2.65875 -1.17297 0
M  V30 9688 H 899.389 -2.56029 -0.284045 0
M  V30 9689 H 899.347 -2.41981 -2.00731 0
M  V30 9690 N 903.119 -0.802921 -1.35613 0
M  V30 9691 C 904.368 -0.378087 -1.98125 0
M  V30 9692 C 904.681 1.05953 -1.64418 0
M  V30 9693 O 905.887 1.58729 -2.20266 0
M  V30 9694 C 904.343 -0.625077 -3.5443 0
M  V30 9695 C 903.951 -2.07499 -3.97049 0
M  V30 9696 C 905.695 -0.265419 -4.23669 0
M  V30 9697 C 903.602 -2.26793 -5.46186 0
M  V30 9698 H 902.532 -0.137633 -0.741332 0
M  V30 9699 H 905.183 -0.986461 -1.54729 0
M  V30 9700 H 903.565 0.0531975 -3.95964 0
M  V30 9701 H 904.739 -2.79077 -3.66678 0
M  V30 9702 H 903.054 -2.39417 -3.40688 0
M  V30 9703 H 905.651 -0.387669 -5.33293 0
M  V30 9704 H 905.994 0.787994 -4.08774 0
M  V30 9705 H 906.527 -0.897464 -3.87544 0
M  V30 9706 H 903.266 -3.30566 -5.66045 0
M  V30 9707 H 902.786 -1.59735 -5.78139 0
M  V30 9708 H 904.465 -2.08165 -6.12598 0
M  V30 9709 N 904.597 1.47463 -0.556102 0
M  V30 9710 C 905.845 2.02075 -0.0315712 0
M  V30 9711 C 906.166 1.43292 1.32259 0
M  V30 9712 O 905.436 0.60771 1.86236 0
M  V30 9713 H 904.016 0.74695 -0.0086816 0
M  V30 9714 H 906.678 1.80879 -0.725859 0
M  V30 9715 H 905.774 3.12047 0.0573538 0
M  V30 9716 N 906.075 0.2925 1.54862 0
M  V30 9717 C 907.023 -0.603186 2.24643 0
M  V30 9718 C 908.017 -1.1439 1.24946 0
M  V30 9719 O 909.223 -1.09552 1.42823 0
M  V30 9720 H 905.598 -0.213105 0.721173 0
M  V30 9721 H 907.569 0.00799278 2.98399 0
M  V30 9722 C 906.318 -1.76769 2.99413 0
M  V30 9723 H 905.641 -1.36084 3.75927 0
M  V30 9724 H 907.081 -2.37066 3.51533 0
M  V30 9725 C 905.54 -2.66669 2.05886 0
M  V30 9726 O 906.07 -3.67525 1.62136 0
M  V30 9727 N 904.276 -2.34216 1.7202 0
M  V30 9728 H 903.823 -1.52246 2.07795 0
M  V30 9729 H 903.781 -2.94635 1.09717 0
M  V30 9730 N 907.553 -1.57587 0.0200696 0
M  V30 9731 C 908.463 -2.13119 -0.980676 0
M  V30 9732 C 909.479 -1.08124 -1.36328 0
M  V30 9733 O 910.655 -1.40134 -1.44653 0
M  V30 9734 C 907.72 -2.63991 -2.24743 0
M  V30 9735 C 906.781 -3.83667 -1.9261 0
M  V30 9736 C 906.014 -4.32103 -3.13246 0
M  V30 9737 O 906.237 -3.79758 -4.25606 0
M  V30 9738 O 905.171 -5.24047 -2.96072 0
M  V30 9739 H 908.997 -2.98887 -0.538528 0
M  V30 9740 H 906.582 -1.48055 -0.19999 0
M  V30 9741 H 908.464 -2.9682 -2.99125 0
M  V30 9742 H 907.139 -1.81311 -2.68157 0
M  V30 9743 H 906.046 -3.55778 -1.15641 0
M  V30 9744 H 907.379 -4.67482 -1.54019 0
M  V30 9745 N 909.032 0.252966 -1.55557 0
M  V30 9746 C 909.995 1.29645 -1.8901 0
M  V30 9747 C 910.995 1.41378 -0.766096 0
M  V30 9748 O 912.185 1.40183 -1.03414 0
M  V30 9749 C 909.317 2.67504 -2.11316 0
M  V30 9750 H 910.51 1.01202 -2.82309 0
M  V30 9751 H 908.063 0.491977 -1.48355 0
M  V30 9752 H 908.798 3.01095 -1.20466 0
M  V30 9753 H 908.583 2.6037 -2.93172 0
M  V30 9754 H 910.073 3.42861 -2.38403 0
M  V30 9755 N 910.51 1.48831 0.518367 0
M  V30 9756 C 911.442 1.60317 1.63802 0
M  V30 9757 C 912.455 0.486771 1.55352 0
M  V30 9758 O 913.644 0.758111 1.61601 0
M  V30 9759 C 910.744 1.52771 3.02513 0
M  V30 9760 C 909.917 2.79649 3.36326 0
M  V30 9761 C 908.976 2.65396 4.54369 0
M  V30 9762 O 908.002 3.39304 4.57013 0
M  V30 9763 N 909.204 1.75784 5.53245 0
M  V30 9764 H 911.969 2.56878 1.54383 0
M  V30 9765 H 909.53 1.45701 0.705889 0
M  V30 9766 H 911.522 1.40914 3.79375 0
M  V30 9767 H 910.092 0.641381 3.05949 0
M  V30 9768 H 909.312 3.05985 2.48529 0
M  V30 9769 H 910.6 3.63799 3.55707 0
M  V30 9770 H 909.998 1.14961 5.53896 0
M  V30 9771 H 908.555 1.69859 6.29278 0
M  V30 9772 N 911.988 -0.768124 1.37614 0
M  V30 9773 C 912.935 -1.88151 1.33671 0
M  V30 9774 C 913.905 -1.64871 0.201645 0
M  V30 9775 O 915.09 -1.86739 0.391582 0
M  V30 9776 C 912.23 -3.25264 1.15314 0
M  V30 9777 C 911.343 -3.60473 2.38082 0
M  V30 9778 C 910.478 -4.86814 2.12569 0
M  V30 9779 C 909.517 -5.14765 3.31184 0
M  V30 9780 N 908.654 -6.32295 3.052 0
M  V30 9781 H 913.494 -1.90857 2.28862 0
M  V30 9782 H 911.031 -0.933048 1.13722 0
M  V30 9783 H 912.989 -4.04364 1.02691 0
M  V30 9784 H 911.619 -3.21924 0.237689 0
M  V30 9785 H 910.671 -2.7633 2.61431 0
M  V30 9786 H 911.983 -3.77065 3.26532 0
M  V30 9787 H 911.137 -5.73826 1.96999 0
M  V30 9788 H 909.876 -4.72333 1.21462 0
M  V30 9789 H 908.881 -4.26227 3.4729 0
M  V30 9790 H 910.106 -5.31153 4.23147 0
M  V30 9791 H 908.052 -6.19166 2.16726 0
M  V30 9792 H 907.969 -6.4932 3.87195 0
M  V30 9793 H 909.237 -7.22234 2.93254 0
M  V30 9794 N 913.466 -1.22244 -0.994698 0
M  V30 9795 C 914.714 -1.04384 -1.73056 0
M  V30 9796 C 915.035 0.422204 -1.90374 0
M  V30 9797 O 914.305 1.30383 -1.46209 0
M  V30 9798 H 912.885 -0.383263 -0.641185 0
M  V30 9799 H 915.547 -1.53725 -1.1981 0
M  V30 9800 H 914.643 -1.52021 -2.72573 0
M  V30 9801 N 914.944 1.19125 -1.03184 0
M  V30 9802 C 915.892 2.24492 -0.608781 0
M  V30 9803 C 916.886 1.65529 0.360065 0
M  V30 9804 O 918.092 1.78546 0.22832 0
M  V30 9805 H 914.467 0.73048 -0.178616 0
M  V30 9806 H 916.438 2.5749 -1.50803 0
M  V30 9807 C 915.187 3.47693 0.0215126 0
M  V30 9808 H 914.51 3.93354 -0.715024 0
M  V30 9809 H 915.95 4.23072 0.280429 0
M  V30 9810 C 914.409 3.12088 1.26896 0
M  V30 9811 O 914.939 3.25013 2.36071 0
M  V30 9812 N 913.145 2.66494 1.15886 0
M  V30 9813 H 912.692 2.56176 0.270463 0
M  V30 9814 H 912.65 2.43042 1.99444 0
M  V30 9815 N 916.422 0.810101 1.35185 0
M  V30 9816 C 917.669 0.392117 1.98667 0
M  V30 9817 C 917.997 -1.0416 1.64259 0
M  V30 9818 O 917.252 -1.73795 0.899647 0
M  V30 9819 C 917.551 0.526561 3.535 0
M  V30 9820 C 917.217 1.92411 4.07785 0
M  V30 9821 C 915.879 2.30644 4.22323 0
M  V30 9822 C 918.231 2.83827 4.37141 0
M  V30 9823 C 915.559 3.59655 4.63536 0
M  V30 9824 C 917.911 4.12287 4.79794 0
M  V30 9825 C 916.575 4.50515 4.92536 0
M  V30 9826 H 915.845 0.143486 0.726975 0
M  V30 9827 H 918.492 1.03157 1.61341 0
M  V30 9828 H 916.797 -0.19633 3.91308 0
M  V30 9829 H 918.494 0.183871 4.00578 0
M  V30 9830 H 915.084 1.61707 3.96924 0
M  V30 9831 H 919.268 2.55536 4.25459 0
M  V30 9832 H 914.524 3.89117 4.71591 0
M  V30 9833 H 918.698 4.83221 5.01468 0
M  V30 9834 H 916.325 5.50535 5.24229 0
M  V30 9835 N 917.9 -1.47166 0.563914 0
M  V30 9836 C 918.847 -2.30097 -0.180013 0
M  V30 9837 C 919.817 -1.39473 -0.902019 0
M  V30 9838 O 921.002 -1.68432 -0.896396 0
M  V30 9839 C 918.142 -3.23573 -1.19978 0
M  V30 9840 C 917.255 -4.2929 -0.483149 0
M  V30 9841 C 916.39 -5.0991 -1.48879 0
M  V30 9842 C 915.429 -6.07395 -0.757513 0
M  V30 9843 N 914.566 -6.8095 -1.71031 0
M  V30 9844 H 919.406 -2.93189 0.53329 0
M  V30 9845 H 916.943 -1.4451 0.274814 0
M  V30 9846 H 918.901 -3.76196 -1.80368 0
M  V30 9847 H 917.531 -2.6233 -1.88103 0
M  V30 9848 H 916.583 -3.79671 0.235414 0
M  V30 9849 H 917.895 -4.9872 0.0894075 0
M  V30 9850 H 917.049 -5.66717 -2.16603 0
M  V30 9851 H 915.788 -4.40397 -2.09527 0
M  V30 9852 H 914.793 -5.4976 -0.0663841 0
M  V30 9853 H 916.018 -6.78919 -0.156685 0
M  V30 9854 H 913.964 -6.14162 -2.30524 0
M  V30 9855 H 913.881 -7.46574 -1.19007 0
M  V30 9856 H 915.149 -7.42326 -2.37849 0
M  V30 9857 N 919.378 -0.300708 -1.54705 0
M  V30 9858 C 920.655 0.361757 -1.92226 0
M  V30 9859 C 921.035 1.71714 -1.2279 0
M  V30 9860 O 920.383 2.2559 -0.363542 0
M  V30 9861 C 920.593 0.476699 -3.45729 0
M  V30 9862 C 921.941 0.7477 -4.17965 0
M  V30 9863 O 922.965 0.560521 -3.51762 0
M  V30 9864 O 921.824 1.10724 -5.35166 0
M  V30 9865 H 918.918 0.202213 -0.801897 0
M  V30 9866 H 921.464 -0.348746 -1.66078 0
M  V30 9867 H 920.236 -0.476132 -3.88392 0
M  V30 9868 H 919.859 1.23568 -3.77911 0
M  V30 9869 N 920.856 1.57574 -0.0284266 0
M  V30 9870 C 921.819 2.09096 0.938691 0
M  V30 9871 C 922.819 1.00588 1.25454 0
M  V30 9872 O 924.009 1.2675 1.19499 0
M  V30 9873 C 921.141 2.55624 2.25542 0
M  V30 9874 H 922.334 2.95829 0.49248 0
M  V30 9875 H 919.887 1.5475 0.219594 0
M  V30 9876 H 920.622 1.72218 2.74793 0
M  V30 9877 H 920.407 3.34896 2.03929 0
M  V30 9878 H 921.897 2.95712 2.94863 0
M  V30 9879 N 922.334 -0.244713 1.55689 0
M  V30 9880 C 923.264 -1.30667 1.93516 0
M  V30 9881 C 924.245 -1.50094 0.800371 0
M  V30 9882 O 925.43 -1.62665 1.06083 0
M  V30 9883 C 922.56 -2.66101 2.23176 0
M  V30 9884 C 921.514 -2.61366 3.38927 0
M  V30 9885 C 920.84 -4.00616 3.54134 0
M  V30 9886 C 922.14 -2.18161 4.74555 0
M  V30 9887 H 923.834 -0.992546 2.82469 0
M  V30 9888 H 921.38 -0.476018 1.35905 0
M  V30 9889 H 923.333 -3.4053 2.48228 0
M  V30 9890 H 922.057 -2.99154 1.31051 0
M  V30 9891 H 920.716 -1.89395 3.13887 0
M  V30 9892 H 920.364 -4.30938 2.59426 0
M  V30 9893 H 920.064 -3.98335 4.31975 0
M  V30 9894 H 921.588 -4.76741 3.8151 0
M  V30 9895 H 923.002 -2.82323 4.98965 0
M  V30 9896 H 921.399 -2.26988 5.55515 0
M  V30 9897 H 922.469 -1.13333 4.7147 0
M  V30 9898 N 923.813 -1.49104 -0.510467 0
M  V30 9899 C 924.723 -1.67792 -1.6396 0
M  V30 9900 C 925.739 -0.560454 -1.64727 0
M  V30 9901 O 926.915 -0.833985 -1.83321 0
M  V30 9902 C 923.98 -1.73154 -3.00364 0
M  V30 9903 C 923.041 -2.9667 -3.10299 0
M  V30 9904 C 922.274 -3.01767 -4.40196 0
M  V30 9905 O 922.497 -2.1472 -5.28443 0
M  V30 9906 O 921.431 -3.94137 -4.54906 0
M  V30 9907 H 925.257 -2.63428 -1.51126 0
M  V30 9908 H 922.842 -1.32734 -0.685719 0
M  V30 9909 H 924.724 -1.79089 -3.81451 0
M  V30 9910 H 923.399 -0.806952 -3.1348 0
M  V30 9911 H 922.306 -2.96257 -2.28435 0
M  V30 9912 H 923.639 -3.88578 -3.02106 0
M  V30 9913 N 925.291 0.760815 -1.38019 0
M  V30 9914 C 926.221 1.88811 -1.37377 0
M  V30 9915 C 927.202 1.68388 -0.240737 0
M  V30 9916 O 928.387 1.89086 -0.442739 0
M  V30 9917 C 925.517 3.26244 -1.1909 0
M  V30 9918 C 924.471 3.61254 -2.29521 0
M  V30 9919 C 923.797 4.97346 -1.96345 0
M  V30 9920 C 925.097 3.66874 -3.71753 0
M  V30 9921 H 926.791 1.89606 -2.31711 0
M  V30 9922 H 924.337 0.910818 -1.11535 0
M  V30 9923 H 926.29 4.04755 -1.17267 0
M  V30 9924 H 925.014 3.2591 -0.212152 0
M  V30 9925 H 923.673 2.85057 -2.30517 0
M  V30 9926 H 923.321 4.93564 -0.969728 0
M  V30 9927 H 923.021 5.21739 -2.703 0
M  V30 9928 H 924.545 5.78244 -1.96129 0
M  V30 9929 H 925.959 4.35514 -3.72828 0
M  V30 9930 H 924.356 4.02772 -4.44853 0
M  V30 9931 H 925.426 2.67273 -4.0459 0
M  V30 9932 N 926.769 1.22769 0.988202 0
M  V30 9933 C 927.699 1.02627 2.09738 0
M  V30 9934 C 928.68 -0.0543211 1.70013 0
M  V30 9935 O 929.865 0.108811 1.93895 0
M  V30 9936 C 926.995 0.608302 3.41931 0
M  V30 9937 C 925.949 1.63536 3.95525 0
M  V30 9938 C 925.275 1.07308 5.23822 0
M  V30 9939 C 926.575 3.02649 4.25677 0
M  V30 9940 H 928.269 1.954 2.26847 0
M  V30 9941 H 925.815 0.940888 1.09011 0
M  V30 9942 H 927.768 0.454478 4.18942 0
M  V30 9943 H 926.492 -0.355095 3.24664 0
M  V30 9944 H 925.151 1.77704 3.20651 0
M  V30 9945 H 924.799 0.100894 5.02899 0
M  V30 9946 H 924.499 1.75925 5.60646 0
M  V30 9947 H 926.023 0.930938 6.03462 0
M  V30 9948 H 927.437 2.91828 4.93467 0
M  V30 9949 H 925.834 3.68434 4.73684 0
M  V30 9950 H 926.904 3.52228 3.33262 0
M  V30 9951 N 928.247 -1.18576 1.03814 0
M  V30 9952 C 929.495 -1.88121 0.738574 0
M  V30 9953 C 929.816 -1.80587 -0.735744 0
M  V30 9954 O 929.086 -1.22251 -1.53074 0
M  V30 9955 H 927.666 -0.696417 0.270208 0
M  V30 9956 H 930.328 -1.43912 1.31435 0
M  V30 9957 H 929.424 -2.94222 1.04115 0
M  V30 9958 N 929.725 -0.817259 -1.34754 0
M  V30 9959 C 930.688 -0.240611 -2.27934 0
M  V30 9960 C 931.688 0.578219 -1.50044 0
M  V30 9961 O 932.878 0.395148 -1.69659 0
M  V30 9962 C 930.01 0.663318 -3.34384 0
M  V30 9963 H 931.203 -1.06257 -2.80445 0
M  V30 9964 H 928.756 -0.588697 -1.4479 0
M  V30 9965 H 929.491 1.50855 -2.87077 0
M  V30 9966 H 929.276 0.0777388 -3.92023 0
M  V30 9967 H 930.766 1.06076 -4.03903 0
M  V30 9968 N 931.203 1.46865 -0.571711 0
M  V30 9969 C 932.451 2.0203 -0.0530022 0
M  V30 9970 C 932.772 1.44687 1.30731 0
M  V30 9971 O 932.042 0.627429 1.85581 0
M  V30 9972 H 930.622 0.746815 -0.0166035 0
M  V30 9973 H 933.284 1.80099 -0.745003 0
M  V30 9974 H 932.38 3.12091 0.0242538 0
M  V30 9975 N 932.681 0.308908 1.54543 0
M  V30 9976 C 933.93 -0.298854 1.99474 0
M  V30 9977 C 934.243 -1.54393 1.20093 0
M  V30 9978 O 935.449 -2.22677 1.55329 0
M  V30 9979 C 933.905 -0.58303 3.55146 0
M  V30 9980 C 933.513 0.644157 4.43345 0
M  V30 9981 C 935.257 -1.15155 4.08582 0
M  V30 9982 C 933.164 0.332694 5.90463 0
M  V30 9983 H 932.094 -0.115445 0.74511 0
M  V30 9984 H 934.745 0.418848 1.78656 0
M  V30 9985 H 933.127 -1.36053 3.71894 0
M  V30 9986 H 934.301 1.42012 4.38371 0
M  V30 9987 H 932.616 1.13186 4.00722 0
M  V30 9988 H 935.213 -1.39896 5.16075 0
M  V30 9989 H 935.556 -2.09632 3.59667 0
M  V30 9990 H 936.089 -0.435571 3.95408 0
M  V30 9991 H 932.828 1.24624 6.43544 0
M  V30 9992 H 932.348 -0.405844 5.98425 0
M  V30 9993 H 934.027 -0.0628545 6.46969 0
M  V30 9994 N 934.159 -1.57557 0.0367827 0
M  V30 9995 C 935.089 -2.13712 -0.940719 0
M  V30 9996 C 936.07 -1.05515 -1.33419 0
M  V30 9997 O 937.255 -1.33385 -1.41146 0
M  V30 9998 C 934.385 -2.67043 -2.22048 0
M  V30 9999 C 933.339 -3.80096 -1.96752 0
M  V30 10000 C 932.665 -4.19886 -3.31059 0
M  V30 10001 C 933.965 -5.05848 -1.30058 0
M  V30 10002 H 935.659 -2.9564 -0.473033 0
M  V30 10003 H 933.205 -1.42214 -0.226089 0
M  V30 10004 H 935.158 -3.04964 -2.90818 0
M  V30 10005 H 933.882 -1.82287 -2.70996 0
M  V30 10006 H 932.541 -3.42625 -1.30398 0
M  V30 10007 H 932.189 -3.32101 -3.77781 0
M  V30 10008 H 931.889 -4.96073 -3.14937 0
M  V30 10009 H 933.413 -4.60395 -4.01084 0
M  V30 10010 H 934.827 -5.41306 -1.8884 0
M  V30 10011 H 933.224 -5.87084 -1.24309 0
M  V30 10012 H 934.294 -4.84122 -0.274591 0
M  V30 10013 N 935.637 0.236453 -1.55816 0
M  V30 10014 C 936.567 1.29639 -1.94206 0
M  V30 10015 C 937.548 1.49667 -0.808319 0
M  V30 10016 O 938.733 1.621 -1.06945 0
M  V30 10017 C 935.863 2.64914 -2.24584 0
M  V30 10018 C 934.817 2.59565 -3.40308 0
M  V30 10019 C 934.143 3.98732 -3.56254 0
M  V30 10020 C 935.443 2.15642 -4.75706 0
M  V30 10021 H 937.137 0.977552 -2.82992 0
M  V30 10022 H 934.683 0.468804 -1.36155 0
M  V30 10023 H 936.636 3.39209 -2.50031 0
M  V30 10024 H 935.36 2.98455 -1.32636 0
M  V30 10025 H 934.019 1.87728 -3.14887 0
M  V30 10026 H 933.667 4.29556 -2.61707 0
M  V30 10027 H 933.367 3.96039 -4.34082 0
M  V30 10028 H 934.891 4.74711 -3.84033 0
M  V30 10029 H 936.305 2.79673 -5.00456 0
M  V30 10030 H 934.702 2.24039 -5.56711 0
M  V30 10031 H 935.772 1.10831 -4.72064 0
M  V30 10032 N 937.115 1.49373 0.502552 0
M  V30 10033 C 938.025 1.68659 1.63068 0
M  V30 10034 C 939.041 0.569182 1.64427 0
M  V30 10035 O 940.217 0.843695 1.82876 0
M  V30 10036 C 937.282 1.74745 2.99441 0
M  V30 10037 C 936.343 2.98311 3.08721 0
M  V30 10038 C 935.576 3.04097 4.38589 0
M  V30 10039 O 935.799 2.17519 5.27297 0
M  V30 10040 O 934.733 3.96544 4.52809 0
M  V30 10041 H 938.559 2.64226 1.49727 0
M  V30 10042 H 936.144 1.33096 0.67867 0
M  V30 10043 H 938.026 1.8111 3.80496 0
M  V30 10044 H 936.701 0.823565 3.13048 0
M  V30 10045 H 935.608 2.97465 2.2686 0
M  V30 10046 H 936.941 3.90174 3.00041 0
M  V30 10047 N 938.594 -0.753485 1.38421 0
M  V30 10048 C 939.841 -1.51261 1.34634 0
M  V30 10049 C 940.169 -1.94396 -0.0635771 0
M  V30 10050 O 939.424 -1.65736 -1.04068 0
M  V30 10051 C 939.723 -2.77836 2.24816 0
M  V30 10052 C 939.389 -2.53662 3.72782 0
M  V30 10053 C 938.051 -2.46779 4.13103 0
M  V30 10054 C 940.403 -2.32548 4.66445 0
M  V30 10055 C 937.731 -2.16796 5.45176 0
M  V30 10056 C 940.083 -2.04085 5.98775 0
M  V30 10057 C 938.747 -1.95658 6.3818 0
M  V30 10058 H 938.017 -0.553503 0.492661 0
M  V30 10059 H 940.664 -0.866406 1.7078 0
M  V30 10060 H 938.969 -3.47106 1.81726 0
M  V30 10061 H 940.666 -3.35793 2.19189 0
M  V30 10062 H 937.256 -2.59891 3.40815 0
M  V30 10063 H 941.44 -2.36845 4.3614 0
M  V30 10064 H 936.696 -2.0878 5.74648 0
M  V30 10065 H 940.87 -1.86751 6.70893 0
M  V30 10066 H 938.497 -1.7219 7.40442 0
M  V30 10067 N 940.072 -1.23292 -0.981677 0
M  V30 10068 C 940.982 -1.02964 -2.10798 0
M  V30 10069 C 941.998 0.0254674 -1.73981 0
M  V30 10070 O 943.174 -0.169706 -2.00684 0
M  V30 10071 C 940.239 -0.621934 -3.41076 0
M  V30 10072 C 939.3 -1.75194 -3.91926 0
M  V30 10073 C 938.533 -1.36359 -5.15986 0
M  V30 10074 O 938.756 -0.247265 -5.69864 0
M  V30 10075 O 937.69 -2.18421 -5.60871 0
M  V30 10076 H 941.516 -1.97354 -2.30836 0
M  V30 10077 H 939.101 -1.01986 -1.09175 0
M  V30 10078 H 940.983 -0.405446 -4.19445 0
M  V30 10079 H 939.658 0.29299 -3.22371 0
M  V30 10080 H 938.565 -2.02305 -3.1468 0
M  V30 10081 H 939.898 -2.64513 -4.15083 0
M  V30 10082 N 941.55 1.18024 -1.04442 0
M  V30 10083 C 942.961 1.69749 -0.777312 0
M  V30 10084 C 943.312 1.83234 0.701399 0
M  V30 10085 O 942.437 1.51452 1.54568 0
M  V30 10086 C 943.032 3.08321 -1.40441 0
M  V30 10087 C 941.591 3.57243 -1.18553 0
M  V30 10088 C 940.738 2.33695 -1.49271 0
M  V30 10089 H 943.689 1.02647 -1.21035 0
M  V30 10090 H 943.71 3.71787 -0.809628 0
M  V30 10091 H 943.222 2.98474 -2.48062 0
M  V30 10092 H 941.323 3.72379 -0.128221 0
M  V30 10093 H 941.436 4.40451 -1.88519 0
M  V30 10094 H 939.8 2.37792 -0.912526 0
M  V30 10095 H 940.583 2.26464 -2.5801 0
M  V30 10096 N 943.028 0.824394 1.34319 0
M  V30 10097 C 943.938 0.24932 2.33271 0
M  V30 10098 C 944.954 -0.617066 1.62691 0
M  V30 10099 O 946.13 -0.524616 1.94447 0
M  V30 10100 C 943.195 -0.578094 3.41846 0
M  V30 10101 C 942.256 0.310866 4.28173 0
M  V30 10102 C 941.489 -0.477153 5.31563 0
M  V30 10103 O 941.712 -1.71028 5.44156 0
M  V30 10104 O 940.646 0.141287 6.01734 0
M  V30 10105 H 944.472 1.06837 2.84288 0
M  V30 10106 H 942.057 0.58657 1.37403 0
M  V30 10107 H 943.939 -1.04878 4.0814 0
M  V30 10108 H 942.614 -1.37444 2.93071 0
M  V30 10109 H 941.521 0.829081 3.64797 0
M  V30 10110 H 942.854 1.07161 4.80393 0
M  V30 10111 N 944.506 -1.46559 0.579492 0
M  V30 10112 C 945.436 -2.33059 -0.143437 0
M  V30 10113 C 946.417 -1.4515 -0.886868 0
M  V30 10114 O 947.602 -1.73973 -0.862961 0
M  V30 10115 C 944.732 -3.27364 -1.15973 0
M  V30 10116 C 943.686 -4.24689 -0.531348 0
M  V30 10117 C 943.012 -5.08479 -1.65388 0
M  V30 10118 C 944.312 -5.1961 0.529391 0
M  V30 10119 H 946.006 -2.93753 0.578762 0
M  V30 10120 H 943.552 -1.41256 0.279775 0
M  V30 10121 H 945.505 -3.86732 -1.67382 0
M  V30 10122 H 944.229 -2.64771 -1.91217 0
M  V30 10123 H 942.888 -3.6658 -0.0383749 0
M  V30 10124 H 942.536 -4.42273 -2.3959 0
M  V30 10125 H 942.236 -5.74387 -1.23909 0
M  V30 10126 H 943.76 -5.70709 -2.17079 0
M  V30 10127 H 945.174 -5.73212 0.100506 0
M  V30 10128 H 943.571 -5.93843 0.86432 0
M  V30 10129 H 944.641 -4.63737 1.4169 0
M  V30 10130 N 945.984 -0.3171 -1.54377 0
M  V30 10131 C 946.914 0.544623 -2.2706 0
M  V30 10132 C 947.895 1.12469 -1.27611 0
M  V30 10133 O 949.08 1.15103 -1.56413 0
M  V30 10134 C 946.21 1.70879 -3.02353 0
M  V30 10135 C 945.164 1.25833 -4.09084 0
M  V30 10136 C 944.49 2.50894 -4.72182 0
M  V30 10137 C 945.79 0.377876 -5.20931 0
M  V30 10138 H 947.484 -0.0616372 -2.99337 0
M  V30 10139 H 945.03 -0.0310848 -1.43966 0
M  V30 10140 H 946.983 2.31787 -3.51927 0
M  V30 10141 H 945.707 2.34155 -2.27682 0
M  V30 10142 H 944.366 0.672228 -3.60384 0
M  V30 10143 H 944.014 3.12518 -3.94134 0
M  V30 10144 H 943.714 2.21447 -5.44275 0
M  V30 10145 H 945.238 3.12575 -5.24528 0
M  V30 10146 H 946.652 0.893056 -5.66302 0
M  V30 10147 H 945.049 0.176474 -5.9984 0
M  V30 10148 H 946.119 -0.592943 -4.81261 0
M  V30 10149 N 947.462 1.57535 -0.0451378 0
M  V30 10150 C 948.711 1.91628 0.629415 0
M  V30 10151 C 949.024 0.924754 1.72359 0
M  V30 10152 O 950.23 1.15751 2.45589 0
M  V30 10153 C 948.686 3.40322 1.17084 0
M  V30 10154 C 948.294 4.47867 0.109101 0
M  V30 10155 C 950.038 3.83458 1.82099 0
M  V30 10156 C 947.945 5.87671 0.663072 0
M  V30 10157 H 946.875 0.715163 0.238868 0
M  V30 10158 H 949.526 1.83151 -0.113046 0
M  V30 10159 H 947.908 3.43783 1.96543 0
M  V30 10160 H 949.082 4.55988 -0.664201 0
M  V30 10161 H 947.397 4.14034 -0.443227 0
M  V30 10162 H 949.994 4.85273 2.2453 0
M  V30 10163 H 950.337 3.19379 2.67026 0
M  V30 10164 H 950.87 3.82488 1.09305 0
M  V30 10165 H 947.609 6.55332 -0.148423 0
M  V30 10166 H 947.129 5.83124 1.4045 0
M  V30 10167 H 948.808 6.36737 1.14785 0
M  V30 10168 N 948.94 -0.228186 1.55939 0
M  V30 10169 C 950.351 -0.795734 1.68893 0
M  V30 10170 C 950.702 -1.85261 0.645967 0
M  V30 10171 O 949.827 -2.15434 -0.2042 0
M  V30 10172 C 950.422 -1.45013 3.06197 0
M  V30 10173 C 948.981 -1.96514 3.21028 0
M  V30 10174 C 948.128 -0.822918 2.64808 0
M  V30 10175 H 951.079 -0.0036485 1.587 0
M  V30 10176 H 951.1 -2.31875 3.01685 0
M  V30 10177 H 950.612 -0.680678 3.82084 0
M  V30 10178 H 948.713 -2.76282 2.49998 0
M  V30 10179 H 948.826 -2.14967 4.28166 0
M  V30 10180 H 947.19 -1.22846 2.23116 0
M  V30 10181 H 947.973 -0.0662493 3.43236 0
M  V30 10182 N 950.418 -1.49637 -0.494624 0
M  V30 10183 C 951.646 -1.63164 -1.2722 0
M  V30 10184 C 952.061 -0.305552 -1.86311 0
M  V30 10185 O 951.418 0.709758 -1.68133 0
M  V30 10186 C 951.469 -2.70524 -2.39789 0
M  V30 10187 O 951.19 -3.97991 -1.83126 0
M  V30 10188 C 952.691 -2.94814 -3.31058 0
M  V30 10189 H 949.911 -0.54912 -0.385627 0
M  V30 10190 H 952.455 -1.95711 -0.593081 0
M  V30 10191 H 950.61 -2.40738 -3.03519 0
M  V30 10192 H 951.024 -4.57179 -2.57075 0
M  V30 10193 H 952.498 -3.73653 -4.06309 0
M  V30 10194 H 952.975 -2.04974 -3.88436 0
M  V30 10195 H 953.581 -3.26042 -2.73088 0
M  V30 10196 N 951.896 0.746133 -1.38819 0
M  V30 10197 C 953.145 1.50085 -1.34749 0
M  V30 10198 C 953.458 1.95516 0.0574786 0
M  V30 10199 O 954.664 2.70601 0.22073 0
M  V30 10200 C 953.12 2.71141 -2.36665 0
M  V30 10201 C 952.728 2.32706 -3.82821 0
M  V30 10202 C 954.472 3.49005 -2.41652 0
M  V30 10203 C 952.379 3.50418 -4.76405 0
M  V30 10204 H 951.309 0.563563 -0.500912 0
M  V30 10205 H 953.96 0.814951 -1.6441 0
M  V30 10206 H 952.342 3.4175 -2.00058 0
M  V30 10207 H 953.516 1.69715 -4.28408 0
M  V30 10208 H 951.831 1.67959 -3.81023 0
M  V30 10209 H 954.428 4.36541 -3.08766 0
M  V30 10210 H 954.771 3.90687 -1.43769 0
M  V30 10211 H 955.304 2.85416 -2.77097 0
M  V30 10212 H 952.043 3.13795 -5.75511 0
M  V30 10213 H 951.563 4.12426 -4.35505 0
M  V30 10214 H 953.242 4.16901 -4.94775 0
M  V30 10215 N 953.375 1.23811 0.975125 0
M  V30 10216 C 954.305 1.04846 2.08638 0
M  V30 10217 C 955.286 -0.0362859 1.70061 0
M  V30 10218 O 956.471 0.12937 1.93769 0
M  V30 10219 C 953.601 0.644534 3.41267 0
M  V30 10220 C 952.555 1.67722 3.93768 0
M  V30 10221 C 951.881 1.12857 5.22654 0
M  V30 10222 C 953.181 3.07147 4.22443 0
M  V30 10223 H 954.875 1.97795 2.24761 0
M  V30 10224 H 952.421 0.952397 1.08006 0
M  V30 10225 H 954.374 0.498887 4.18436 0
M  V30 10226 H 953.098 -0.320641 3.25022 0
M  V30 10227 H 951.757 1.81095 3.18748 0
M  V30 10228 H 951.405 0.154227 5.02764 0
M  V30 10229 H 951.105 1.81862 5.58749 0
M  V30 10230 H 952.629 0.994891 6.0244 0
M  V30 10231 H 954.043 2.97045 4.90344 0
M  V30 10232 H 952.44 3.73437 4.6975 0
M  V30 10233 H 953.51 3.55743 3.29507 0
M  V30 10234 N 954.853 -1.17469 1.05066 0
M  V30 10235 C 956.099 -1.87976 0.761113 0
M  V30 10236 C 956.432 -1.80756 -0.709995 0
M  V30 10237 O 955.707 -1.21469 -1.51906 0
M  V30 10238 C 955.99 -3.38055 1.2406 0
M  V30 10239 C 955.843 -3.54032 2.77455 0
M  V30 10240 C 957.162 -4.32036 0.838612 0
M  V30 10241 H 954.281 -0.682573 0.277963 0
M  V30 10242 H 956.923 -1.38147 1.30443 0
M  V30 10243 H 955.073 -3.80622 0.778388 0
M  V30 10244 H 956.745 -3.20489 3.3179 0
M  V30 10245 H 954.988 -2.96352 3.16793 0
M  V30 10246 H 955.659 -4.59377 3.06066 0
M  V30 10247 H 958.135 -3.97303 1.23651 0
M  V30 10248 H 957.011 -5.35583 1.20173 0
M  V30 10249 H 957.272 -4.41349 -0.257498 0
M  V30 10250 N 956.331 -0.831506 -1.3388 0
M  V30 10251 C 957.578 -0.423674 -1.98018 0
M  V30 10252 C 957.906 1.01533 -1.65895 0
M  V30 10253 O 957.161 1.72342 -0.927183 0
M  V30 10254 C 957.46 -0.582733 -3.52617 0
M  V30 10255 C 957.126 -1.98874 -4.04673 0
M  V30 10256 C 955.788 -2.37334 -4.186 0
M  V30 10257 C 958.14 -2.90745 -4.3257 0
M  V30 10258 C 955.468 -3.66984 -4.57755 0
M  V30 10259 C 957.82 -4.19868 -4.73174 0
M  V30 10260 C 956.484 -4.58294 -4.85307 0
M  V30 10261 H 955.754 -0.155033 -0.7246 0
M  V30 10262 H 958.401 -1.05711 -1.59679 0
M  V30 10263 H 956.706 0.134052 -3.91571 0
M  V30 10264 H 958.403 -0.247576 -4.00235 0
M  V30 10265 H 954.993 -1.68001 -3.94301 0
M  V30 10266 H 959.177 -2.62272 -4.2134 0
M  V30 10267 H 954.433 -3.9657 -4.65341 0
M  V30 10268 H 958.607 -4.91138 -4.93717 0
M  V30 10269 H 956.234 -5.58805 -5.15404 0
M  V30 10270 N 957.809 1.4625 -0.587256 0
M  V30 10271 C 959.037 2.06744 -0.08033 0
M  V30 10272 C 959.452 1.43527 1.2266 0
M  V30 10273 O 958.809 0.542168 1.74261 0
M  V30 10274 C 958.86 3.61394 0.0873469 0
M  V30 10275 O 958.581 4.22247 -1.16785 0
M  V30 10276 C 960.082 4.38828 0.628095 0
M  V30 10277 H 957.302 0.668354 -0.0595301 0
M  V30 10278 H 959.846 1.87808 -0.809217 0
M  V30 10279 H 958.001 3.79742 0.766473 0
M  V30 10280 H 958.415 5.15176 -0.984565 0
M  V30 10281 H 959.889 5.47613 0.694583 0
M  V30 10282 H 960.366 4.07188 1.64606 0
M  V30 10283 H 960.972 4.25297 -0.0163115 0
M  V30 10284 N 959.287 0.325282 1.54207 0
M  V30 10285 C 960.536 -0.27768 1.99779 0
M  V30 10286 C 960.849 -1.5311 1.21723 0
M  V30 10287 O 962.055 -2.21017 1.57682 0
M  V30 10288 C 960.511 -0.545329 3.55745 0
M  V30 10289 C 960.119 0.691143 4.42637 0
M  V30 10290 C 961.863 -1.10815 4.09781 0
M  V30 10291 C 959.77 0.395302 5.90077 0
M  V30 10292 H 958.7 -0.107536 0.746292 0
M  V30 10293 H 961.351 0.437773 1.78202 0
M  V30 10294 H 959.733 -1.32101 3.73317 0
M  V30 10295 H 960.907 1.46653 4.3684 0
M  V30 10296 H 959.222 1.1743 3.99499 0
M  V30 10297 H 961.819 -1.34414 5.1753 0
M  V30 10298 H 962.162 -2.05806 3.6187 0
M  V30 10299 H 962.695 -0.393608 3.95848 0
M  V30 10300 H 959.434 1.31443 6.42186 0
M  V30 10301 H 958.954 -0.34235 5.98822 0
M  V30 10302 H 960.633 0.00576877 6.47 0
M  V30 10303 N 960.765 -1.57509 0.0534917 0
M  V30 10304 C 961.712 -2.11667 -0.920101 0
M  V30 10305 C 962.682 -1.0246 -1.30733 0
M  V30 10306 O 963.867 -1.30021 -1.39639 0
M  V30 10307 C 961.007 -2.66803 -2.18883 0
M  V30 10308 C 960.12 -3.90104 -1.85588 0
M  V30 10309 C 959.255 -4.33547 -3.06937 0
M  V30 10310 C 958.294 -5.49542 -2.69573 0
M  V30 10311 N 957.431 -5.88029 -3.83623 0
M  V30 10312 H 962.271 -2.94562 -0.451371 0
M  V30 10313 H 959.808 -1.45576 -0.211168 0
M  V30 10314 H 961.766 -2.96871 -2.93127 0
M  V30 10315 H 960.396 -1.86702 -2.63329 0
M  V30 10316 H 959.448 -3.66613 -1.01484 0
M  V30 10317 H 960.76 -4.74404 -1.54087 0
M  V30 10318 H 959.914 -4.6518 -3.89477 0
M  V30 10319 H 958.653 -3.48064 -3.41618 0
M  V30 10320 H 957.658 -5.17579 -1.8545 0
M  V30 10321 H 958.883 -6.36743 -2.36082 0
M  V30 10322 H 956.829 -5.05498 -4.181 0
M  V30 10323 H 956.746 -6.67025 -3.55828 0
M  V30 10324 H 958.014 -6.24277 -4.66796 0
M  V30 10325 N 962.243 0.219913 -1.56058 0
M  V30 10326 C 963.468 0.965073 -1.83579 0
M  V30 10327 C 963.893 1.77092 -0.634024 0
M  V30 10328 O 963.251 1.76434 0.417205 0
M  V30 10329 C 963.299 1.85705 -3.09105 0
M  V30 10330 O 962.403 2.95261 -2.87914 0
M  V30 10331 H 961.744 0.273173 -0.605204 0
M  V30 10332 H 964.274 0.23273 -2.03272 0
M  V30 10333 H 964.284 2.26655 -3.39252 0
M  V30 10334 H 962.959 1.26476 -3.96203 0
M  V30 10335 H 961.536 2.58246 -2.69005 0
M  V30 10336 N 963.721 1.49897 0.486681 0
M  V30 10337 C 964.968 1.60105 1.23986 0
M  V30 10338 C 965.296 0.294228 1.92262 0
M  V30 10339 O 964.551 -0.718876 1.82018 0
M  V30 10340 C 964.85 2.71982 2.31863 0
M  V30 10341 C 964.516 4.13 1.80948 0
M  V30 10342 C 963.178 4.51373 1.66782 0
M  V30 10343 C 965.53 5.01198 1.43004 0
M  V30 10344 C 962.858 5.75701 1.13072 0
M  V30 10345 C 965.21 6.26058 0.90742 0
M  V30 10346 C 963.874 6.63247 0.752269 0
M  V30 10347 H 963.144 0.585866 0.453698 0
M  V30 10348 H 965.791 1.83778 0.538305 0
M  V30 10349 H 964.096 2.42336 3.07865 0
M  V30 10350 H 965.793 2.77087 2.89869 0
M  V30 10351 H 962.383 3.82718 1.92937 0
M  V30 10352 H 966.567 4.72196 1.52789 0
M  V30 10353 H 961.823 6.03202 0.997842 0
M  V30 10354 H 965.997 6.9377 0.604684 0
M  V30 10355 H 963.624 7.59466 0.33392 0
M  V30 10356 N 965.199 -0.738761 1.39212 0
M  V30 10357 C 966.129 -1.86602 1.40364 0
M  V30 10358 C 967.11 -1.67984 0.267495 0
M  V30 10359 O 968.295 -1.88358 0.472765 0
M  V30 10360 C 965.425 -3.24308 1.24265 0
M  V30 10361 C 964.379 -3.57557 2.35239 0
M  V30 10362 C 963.705 -4.94159 2.04233 0
M  V30 10363 C 965.005 -3.60914 3.77543 0
M  V30 10364 H 966.699 -1.85896 2.34698 0
M  V30 10365 H 964.245 -0.892959 1.1297 0
M  V30 10366 H 966.198 -4.02838 1.23692 0
M  V30 10367 H 964.922 -3.25531 0.263974 0
M  V30 10368 H 963.581 -2.81354 2.35022 0
M  V30 10369 H 963.229 -4.91959 1.04813 0
M  V30 10370 H 962.929 -5.17373 2.78567 0
M  V30 10371 H 964.453 -5.7505 2.05303 0
M  V30 10372 H 965.867 -4.29528 3.79709 0
M  V30 10373 H 964.264 -3.95644 4.51205 0
M  V30 10374 H 965.334 -2.60803 4.08791 0
M  V30 10375 N 966.677 -1.24326 -0.968545 0
M  V30 10376 C 967.925 -1.08032 -1.70803 0
M  V30 10377 C 968.246 0.381728 -1.91227 0
M  V30 10378 O 967.516 1.27253 -1.48942 0
M  V30 10379 H 966.096 -0.396777 -0.632912 0
M  V30 10380 H 968.758 -1.56232 -1.16523 0
M  V30 10381 H 967.854 -1.57769 -2.69287 0
M  V30 10382 N 968.156 1.1691 -1.05688 0
M  V30 10383 C 969.381 1.91745 -0.790478 0
M  V30 10384 C 969.806 1.76568 0.648478 0
M  V30 10385 O 969.164 1.08682 1.45114 0
M  V30 10386 C 969.212 3.4067 -1.18222 0
M  V30 10387 O 968.316 4.11177 -0.317341 0
M  V30 10388 H 967.657 0.5976 -0.28943 0
M  V30 10389 H 970.187 1.48157 -1.41105 0
M  V30 10390 H 970.197 3.91424 -1.15114 0
M  V30 10391 H 968.872 3.51036 -2.2304 0
M  V30 10392 H 967.449 3.70645 -0.409459 0
M  V30 10393 N 969.634 0.838594 1.33437 0
M  V30 10394 C 970.859 0.446701 2.02532 0
M  V30 10395 C 971.284 -0.944275 1.62681 0
M  V30 10396 O 970.642 -1.61733 0.81927 0
M  V30 10397 C 970.69 0.574794 3.55989 0
M  V30 10398 O 969.794 -0.399063 4.10465 0
M  V30 10399 H 969.135 0.181637 0.638674 0
M  V30 10400 H 971.665 1.13335 1.70342 0
M  V30 10401 H 971.675 0.456339 4.0544 0
M  V30 10402 H 970.35 1.58921 3.8434 0
M  V30 10403 H 968.927 -0.238187 3.72139 0
M  V30 10404 N 971.112 -1.45937 0.595003 0
M  V30 10405 C 972.389 -1.95592 0.0178748 0
M  V30 10406 C 972.769 -1.53758 -1.44643 0
M  V30 10407 O 972.117 -0.794104 -2.14257 0
M  V30 10408 C 972.327 -3.4841 0.202789 0
M  V30 10409 C 973.675 -4.2453 0.0770121 0
M  V30 10410 O 974.699 -3.55954 0.132257 0
M  V30 10411 O 973.558 -5.46479 -0.0484271 0
M  V30 10412 H 970.652 -0.825888 -0.0428702 0
M  V30 10413 H 973.198 -1.56162 0.664184 0
M  V30 10414 H 971.97 -3.71787 1.22027 0
M  V30 10415 H 971.593 -3.947 -0.479376 0
M  V30 10416 N 972.59 -0.333456 -1.54032 0
M  V30 10417 C 973.538 0.543414 -2.26163 0
M  V30 10418 C 974.532 1.11037 -1.27934 0
M  V30 10419 O 975.738 1.05727 -1.45677 0
M  V30 10420 H 972.113 0.19391 -0.726569 0
M  V30 10421 H 974.084 -0.0871052 -2.98273 0
M  V30 10422 C 972.833 1.68769 -3.03994 0
M  V30 10423 H 972.156 1.26069 -3.79403 0
M  V30 10424 H 973.596 2.27662 -3.57695 0
M  V30 10425 C 972.055 2.61117 -2.12884 0
M  V30 10426 O 972.585 3.63097 -1.71823 0
M  V30 10427 N 970.791 2.29573 -1.7817 0
M  V30 10428 H 970.338 1.46684 -2.11759 0
M  V30 10429 H 970.296 2.91622 -1.1749 0
M  V30 10430 N 974.068 1.57479 -0.061844 0
M  V30 10431 C 975.015 2.12152 0.908862 0
M  V30 10432 C 975.985 1.03152 1.30188 0
M  V30 10433 O 977.17 1.3076 1.38948 0
M  V30 10434 C 974.31 2.6796 2.17465 0
M  V30 10435 C 973.423 3.91083 1.83517 0
M  V30 10436 C 972.558 4.35169 3.04633 0
M  V30 10437 C 971.597 5.50964 2.66655 0
M  V30 10438 N 970.734 5.90055 3.80499 0
M  V30 10439 H 975.574 2.94797 0.435743 0
M  V30 10440 H 973.111 1.45686 0.203445 0
M  V30 10441 H 975.069 2.98421 2.91548 0
M  V30 10442 H 973.699 1.88096 2.62335 0
M  V30 10443 H 972.751 3.67146 0.995381 0
M  V30 10444 H 974.063 4.75214 1.51569 0
M  V30 10445 H 973.217 4.67239 3.87005 0
M  V30 10446 H 971.956 3.49871 3.39767 0
M  V30 10447 H 970.961 5.18556 1.82703 0
M  V30 10448 H 972.186 6.37986 2.32702 0
M  V30 10449 H 970.132 5.07708 4.15414 0
M  V30 10450 H 970.049 6.68903 3.52285 0
M  V30 10451 H 971.317 6.26744 4.63479 0
M  V30 10452 N 975.546 -0.211634 1.56173 0
M  V30 10453 C 976.494 -1.28188 1.94089 0
M  V30 10454 C 977.488 -1.47999 0.824167 0
M  V30 10455 O 978.694 -1.49056 1.00907 0
M  V30 10456 H 975.069 -0.42999 0.616938 0
M  V30 10457 H 977.04 -0.934962 2.83374 0
M  V30 10458 C 975.789 -2.62294 2.28248 0
M  V30 10459 H 975.112 -2.4786 3.13696 0
M  V30 10460 H 976.552 -3.35967 2.58655 0
M  V30 10461 C 975.011 -3.18049 1.11113 0
M  V30 10462 O 975.541 -3.99923 0.377458 0
M  V30 10463 N 973.747 -2.76561 0.892321 0
M  V30 10464 H 973.294 -2.10088 1.49067 0
M  V30 10465 H 973.252 -3.14206 0.110344 0
M  V30 10466 N 977.024 -1.50153 -0.478725 0
M  V30 10467 C 977.971 -1.68458 -1.57767 0
M  V30 10468 C 978.941 -0.5259 -1.57555 0
M  V30 10469 O 980.126 -0.755574 -1.75202 0
M  V30 10470 C 977.266 -1.77772 -2.95789 0
M  V30 10471 C 976.379 -3.05092 -3.05848 0
M  V30 10472 C 975.514 -3.05247 -4.34739 0
M  V30 10473 C 974.553 -4.27053 -4.38512 0
M  V30 10474 N 973.69 -4.24991 -5.58862 0
M  V30 10475 H 978.53 -2.62282 -1.41464 0
M  V30 10476 H 976.067 -1.30023 -0.687921 0
M  V30 10477 H 978.025 -1.81152 -3.75819 0
M  V30 10478 H 976.655 -0.873944 -3.10744 0
M  V30 10479 H 975.707 -3.11219 -2.1874 0
M  V30 10480 H 977.019 -3.95075 -3.04495 0
M  V30 10481 H 976.173 -3.07314 -5.23109 0
M  V30 10482 H 974.912 -2.13081 -4.38689 0
M  V30 10483 H 973.917 -4.25206 -3.4854 0
M  V30 10484 H 975.142 -5.20437 -4.36259 0
M  V30 10485 H 973.088 -3.35674 -5.63612 0
M  V30 10486 H 973.005 -5.08734 -5.59219 0
M  V30 10487 H 974.273 -4.31193 -6.49379 0
M  V30 10488 N 978.502 0.731368 -1.39602 0
M  V30 10489 C 979.748 1.49321 -1.37227 0
M  V30 10490 C 980.081 1.94176 0.0306502 0
M  V30 10491 O 979.356 1.67046 0.996294 0
M  V30 10492 C 979.639 2.73035 -2.34784 0
M  V30 10493 C 979.492 2.34176 -3.84033 0
M  V30 10494 C 980.811 3.75146 -2.30116 0
M  V30 10495 H 977.93 0.541652 -0.499783 0
M  V30 10496 H 980.572 0.835968 -1.70621 0
M  V30 10497 H 978.722 3.29114 -2.06437 0
M  V30 10498 H 980.394 1.83701 -4.23145 0
M  V30 10499 H 978.637 1.66361 -4.00633 0
M  V30 10500 H 979.308 3.22786 -4.47787 0
M  V30 10501 H 981.784 3.28661 -2.55189 0
M  V30 10502 H 980.66 4.5937 -3.00451 0
M  V30 10503 H 980.921 4.22326 -1.30741 0
M  V30 10504 N 979.98 1.24838 0.961938 0
M  V30 10505 C 981.229 1.0855 1.69999 0
M  V30 10506 C 981.542 -0.374645 1.91979 0
M  V30 10507 O 982.748 -0.657822 2.6341 0
M  V30 10508 C 981.204 1.89424 3.06017 0
M  V30 10509 C 980.812 3.39885 2.9186 0
M  V30 10510 C 982.556 1.81684 3.83655 0
M  V30 10511 C 980.463 4.13082 4.23223 0
M  V30 10512 H 979.393 0.402603 0.637516 0
M  V30 10513 H 982.044 1.4897 1.07146 0
M  V30 10514 H 980.426 1.41823 3.69733 0
M  V30 10515 H 981.6 3.95108 2.37121 0
M  V30 10516 H 979.915 3.4864 2.27683 0
M  V30 10517 H 982.512 2.3367 4.80939 0
M  V30 10518 H 982.855 0.783247 4.08865 0
M  V30 10519 H 983.388 2.26997 3.26676 0
M  V30 10520 H 980.127 5.16824 4.03204 0
M  V30 10521 H 979.647 3.62644 4.77755 0
M  V30 10522 H 981.326 4.20397 4.91808 0
M  V30 10523 N 981.458 -1.16348 1.06306 0
M  V30 10524 C 982.405 -2.20741 0.673962 0
M  V30 10525 C 983.375 -1.628 -0.329454 0
M  V30 10526 O 984.56 -1.89547 -0.218313 0
M  V30 10527 C 981.7 -3.45036 0.0667008 0
M  V30 10528 C 980.813 -4.17221 1.12031 0
M  V30 10529 C 979.948 -5.29034 0.479176 0
M  V30 10530 C 978.987 -5.93021 1.51631 0
M  V30 10531 N 978.124 -6.96327 0.898528 0
M  V30 10532 H 982.964 -2.53376 1.56859 0
M  V30 10533 H 980.501 -1.24449 0.784276 0
M  V30 10534 H 982.459 -4.16099 -0.302916 0
M  V30 10535 H 981.089 -3.1295 -0.791333 0
M  V30 10536 H 980.141 -3.4476 1.60763 0
M  V30 10537 H 981.453 -4.60902 1.90712 0
M  V30 10538 H 980.607 -6.06674 0.0565993 0
M  V30 10539 H 979.346 -4.86517 -0.33951 0
M  V30 10540 H 978.351 -5.14104 1.94878 0
M  V30 10541 H 979.576 -6.37618 2.3371 0
M  V30 10542 H 977.522 -6.55923 0.100555 0
M  V30 10543 H 977.439 -7.38379 1.62272 0
M  V30 10544 H 978.707 -7.77888 0.5011 0
M  V30 10545 N 982.937 -0.845659 -1.3299 0
M  V30 10546 C 983.9 -0.288905 -2.27372 0
M  V30 10547 C 984.9 0.546263 -1.51237 0
M  V30 10548 O 986.09 0.359072 -1.70459 0
M  V30 10549 C 983.222 0.59224 -3.35716 0
M  V30 10550 H 984.415 -1.12181 -2.78128 0
M  V30 10551 H 981.968 -0.619276 -1.43508 0
M  V30 10552 H 982.703 1.44732 -2.90212 0
M  V30 10553 H 982.488 -0.00543255 -3.921 0
M  V30 10554 H 983.978 0.974848 -4.06062 0
M  V30 10555 N 984.415 1.45619 -0.602734 0
M  V30 10556 C 985.664 2.01483 -0.0936395 0
M  V30 10557 C 985.977 1.47753 1.28173 0
M  V30 10558 O 987.183 1.95562 1.88329 0
M  V30 10559 C 985.639 3.59711 -0.116738 0
M  V30 10560 C 985.247 4.22437 -1.49166 0
M  V30 10561 C 986.991 4.23157 0.337368 0
M  V30 10562 C 984.898 5.72803 -1.47141 0
M  V30 10563 H 983.828 0.753353 -0.0312382 0
M  V30 10564 H 986.479 1.67142 -0.757347 0
M  V30 10565 H 984.861 3.91218 0.613529 0
M  V30 10566 H 986.035 4.02511 -2.24325 0
M  V30 10567 H 984.35 3.71166 -1.88746 0
M  V30 10568 H 986.947 5.33407 0.371628 0
M  V30 10569 H 987.29 3.93491 1.35906 0
M  V30 10570 H 987.823 3.96349 -0.339474 0
M  V30 10571 H 984.562 6.07161 -2.47055 0
M  V30 10572 H 984.082 5.94936 -0.762329 0
M  V30 10573 H 985.761 6.35907 -1.19294 0
M  V30 10574 N 985.893 0.34162 1.53853 0
M  V30 10575 C 986.841 -0.531412 2.26448 0
M  V30 10576 C 987.835 -1.10357 1.28521 0
M  V30 10577 O 989.041 -1.04953 1.46236 0
M  V30 10578 H 985.416 -0.190054 0.727588 0
M  V30 10579 H 987.387 0.102922 2.98222 0
M  V30 10580 C 986.136 -1.67154 3.04885 0
M  V30 10581 H 985.459 -1.24055 3.80066 0
M  V30 10582 H 986.899 -2.25762 3.58898 0
M  V30 10583 C 985.358 -2.59984 2.14266 0
M  V30 10584 O 985.888 -3.62181 1.73746 0
M  V30 10585 N 984.094 -2.28625 1.79385 0
M  V30 10586 H 983.641 -1.45559 2.12533 0
M  V30 10587 H 983.599 -2.90995 1.19035 0
M  V30 10588 N 987.371 -1.57444 0.0701946 0
M  V30 10589 C 988.319 -2.13834 -0.915302 0
M  V30 10590 C 989.313 -1.07483 -1.30934 0
M  V30 10591 O 990.519 -1.25865 -1.28678 0
M  V30 10592 H 986.894 -0.683716 -0.313108 0
M  V30 10593 H 988.865 -2.95503 -0.414758 0
M  V30 10594 C 987.614 -2.71355 -2.17398 0
M  V30 10595 H 986.937 -3.52861 -1.87961 0
M  V30 10596 H 988.377 -3.1441 -2.84469 0
M  V30 10597 C 986.836 -1.66038 -2.93143 0
M  V30 10598 O 987.366 -1.08443 -3.86786 0
M  V30 10599 N 985.572 -1.3711 -2.56221 0
M  V30 10600 H 985.119 -1.84135 -1.80145 0
M  V30 10601 H 985.077 -0.66877 -3.07205 0
M  V30 10602 N 988.849 0.203349 -1.56283 0
M  V30 10603 C 989.812 1.23566 -1.93039 0
M  V30 10604 C 990.812 1.38869 -0.810687 0
M  V30 10605 O 992.002 1.36822 -1.07821 0
M  V30 10606 C 989.134 2.60645 -2.1972 0
M  V30 10607 H 990.327 0.921692 -2.85385 0
M  V30 10608 H 987.88 0.44453 -1.49845 0
M  V30 10609 H 988.615 2.9711 -1.29985 0
M  V30 10610 H 988.4 2.50911 -3.01307 0
M  V30 10611 H 989.89 3.35103 -2.4919 0
M  V30 10612 N 990.327 1.50405 0.470755 0
M  V30 10613 C 991.257 1.72222 1.57676 0
M  V30 10614 C 992.238 0.57121 1.60222 0
M  V30 10615 O 993.423 0.810381 1.76484 0
M  V30 10616 C 990.553 1.81666 2.95998 0
M  V30 10617 C 989.507 2.96857 3.08318 0
M  V30 10618 C 988.833 2.91445 4.4829 0
M  V30 10619 C 990.133 4.37361 2.85504 0
M  V30 10620 H 991.827 2.64825 1.39671 0
M  V30 10621 H 989.373 1.27438 0.67049 0
M  V30 10622 H 991.326 1.95514 3.73299 0
M  V30 10623 H 990.05 0.856856 3.1516 0
M  V30 10624 H 988.709 2.82661 2.33449 0
M  V30 10625 H 988.357 1.93309 4.64371 0
M  V30 10626 H 988.057 3.68776 4.57469 0
M  V30 10627 H 989.581 3.07341 5.27611 0
M  V30 10628 H 990.995 4.52081 3.52555 0
M  V30 10629 H 989.392 5.16145 3.06127 0
M  V30 10630 H 990.462 4.49708 1.81359 0
M  V30 10631 N 991.805 -0.723954 1.39988 0
M  V30 10632 C 992.752 -1.83803 1.39589 0
M  V30 10633 C 993.722 -1.64146 0.253996 0
M  V30 10634 O 994.907 -1.85398 0.450793 0
M  V30 10635 C 992.047 -3.21431 1.25604 0
M  V30 10636 C 991.16 -3.52717 2.49429 0
M  V30 10637 C 990.295 -4.79805 2.27949 0
M  V30 10638 C 989.334 -5.03968 3.47394 0
M  V30 10639 N 988.471 -6.22266 3.25161 0
M  V30 10640 H 993.311 -1.83479 2.34818 0
M  V30 10641 H 990.848 -0.896396 1.16633 0
M  V30 10642 H 992.806 -4.00892 1.15504 0
M  V30 10643 H 991.436 -3.21005 0.339986 0
M  V30 10644 H 990.488 -2.67872 2.7009 0
M  V30 10645 H 991.8 -3.66486 3.38363 0
M  V30 10646 H 990.954 -5.67268 2.15155 0
M  V30 10647 H 989.693 -4.68229 1.36428 0
M  V30 10648 H 988.698 -4.14963 3.60674 0
M  V30 10649 H 989.923 -5.17422 4.39831 0
M  V30 10650 H 987.869 -6.11957 2.36314 0
M  V30 10651 H 987.786 -6.36673 4.07656 0
M  V30 10652 H 989.054 -7.12539 3.16083 0
M  V30 10653 N 993.283 -1.25346 -0.955304 0
M  V30 10654 C 994.193 -1.07412 -2.08566 0
M  V30 10655 C 995.209 -0.0114424 -1.73996 0
M  V30 10656 O 996.385 -0.212236 -2.00279 0
M  V30 10657 C 993.45 -0.694141 -3.3968 0
M  V30 10658 C 992.511 -1.83468 -3.88121 0
M  V30 10659 C 991.744 -1.47274 -5.12978 0
M  V30 10660 O 991.967 -0.368086 -5.69211 0
M  V30 10661 O 990.901 -2.30269 -5.56111 0
M  V30 10662 H 994.727 -2.02206 -2.26598 0
M  V30 10663 H 992.312 -1.04279 -1.06988 0
M  V30 10664 H 994.194 -0.494325 -4.18491 0
M  V30 10665 H 992.869 0.224545 -3.2292 0
M  V30 10666 H 991.776 -2.08935 -3.10318 0
M  V30 10667 H 993.109 -2.73258 -4.09379 0
M  V30 10668 N 994.761 1.15782 -1.06922 0
M  V30 10669 C 996.177 1.38454 -0.793896 0
M  V30 10670 C 996.377 1.92238 0.603875 0
M  V30 10671 O 995.433 2.1253 1.36335 0
M  V30 10672 C 996.746 2.3595 -1.86408 0
M  V30 10673 C 998.294 2.49622 -1.88833 0
M  V30 10674 C 998.769 3.50406 -2.94923 0
M  V30 10675 N 1000.26 3.57938 -2.93997 0
M  V30 10676 C 1001 4.35728 -3.72731 0
M  V30 10677 N 1000.49 5.16888 -4.61301 0
M  V30 10678 N 1002.28 4.30774 -3.61096 0
M  V30 10679 H 994.435 0.792101 -1.97077 0
M  V30 10680 H 996.698 0.410779 -0.85438 0
M  V30 10681 H 996.404 2.03537 -2.86819 0
M  V30 10682 H 996.278 3.35677 -1.72049 0
M  V30 10683 H 998.665 2.81335 -0.890759 0
M  V30 10684 H 998.746 1.49909 -2.0727 0
M  V30 10685 H 998.39 3.19429 -3.94877 0
M  V30 10686 H 998.32 4.49864 -2.73734 0
M  V30 10687 H 1000.81 3.00007 -2.29791 0
M  V30 10688 H 1001.12 5.73477 -5.18019 0
M  V30 10689 H 999.469 5.16209 -4.65353 0
M  V30 10690 H 1002.66 3.66432 -2.91282 0
M  V30 10691 H 1002.83 4.91151 -4.22699 0
M  V30 10692 N 996.239 0.8527 1.3254 0
M  V30 10693 C 997.516 0.376491 1.91942 0
M  V30 10694 C 997.896 -1.13972 1.7769 0
M  V30 10695 O 997.244 -1.96047 1.17379 0
M  V30 10696 C 997.454 0.838694 3.38773 0
M  V30 10697 C 998.802 0.854736 4.15908 0
M  V30 10698 O 999.826 0.783203 3.47483 0
M  V30 10699 O 998.685 0.955207 5.38087 0
M  V30 10700 H 995.779 0.109412 0.81973 0
M  V30 10701 H 998.325 0.93947 1.41322 0
M  V30 10702 H 997.097 1.88179 3.43081 0
M  V30 10703 H 996.72 0.253055 3.96794 0
M  V30 10704 N 997.718 -1.45297 0.610449 0
M  V30 10705 C 998.628 -2.34349 -0.108475 0
M  V30 10706 C 999.644 -1.51409 -0.857397 0
M  V30 10707 O 1000.82 -1.84202 -0.814337 0
M  V30 10708 C 997.885 -3.29072 -1.09144 0
M  V30 10709 C 996.946 -4.27918 -0.344165 0
M  V30 10710 C 996.179 -5.18116 -1.28031 0
M  V30 10711 O 996.402 -5.11802 -2.51824 0
M  V30 10712 O 995.336 -5.96879 -0.775821 0
M  V30 10713 H 999.162 -2.97232 0.623421 0
M  V30 10714 H 996.747 -1.44728 0.3707 0
M  V30 10715 H 998.629 -3.87433 -1.65751 0
M  V30 10716 H 997.304 -2.68749 -1.80431 0
M  V30 10717 H 996.211 -3.73164 0.264437 0
M  V30 10718 H 997.544 -4.91104 0.328275 0
M  V30 10719 N 999.196 -0.349774 -1.5367 0
M  V30 10720 C 1000.14 0.504121 -2.25227 0
M  V30 10721 C 1001.11 1.09048 -1.2529 0
M  V30 10722 O 1002.3 1.12594 -1.54037 0
M  V30 10723 C 999.438 1.64601 -3.03316 0
M  V30 10724 C 998.551 1.08635 -4.18118 0
M  V30 10725 C 997.686 2.19605 -4.83681 0
M  V30 10726 C 996.725 1.61023 -5.90541 0
M  V30 10727 N 995.862 2.6576 -6.49858 0
M  V30 10728 H 1000.7 -0.112621 -2.97787 0
M  V30 10729 H 998.239 -0.0673503 -1.46946 0
M  V30 10730 H 1000.2 2.31836 -3.46854 0
M  V30 10731 H 998.827 2.23364 -2.33041 0
M  V30 10732 H 997.879 0.304748 -3.79177 0
M  V30 10733 H 999.191 0.617911 -4.94958 0
M  V30 10734 H 998.345 2.94693 -5.30322 0
M  V30 10735 H 997.084 2.69795 -4.06278 0
M  V30 10736 H 996.089 0.844428 -5.43277 0
M  V30 10737 H 997.314 1.11677 -6.69855 0
M  V30 10738 H 995.26 3.15193 -5.75317 0
M  V30 10739 H 995.177 2.23557 -7.2219 0
M  V30 10740 H 996.445 3.40598 -7.01151 0
M  V30 10741 N 1000.67 1.57404 -0.0785433 0
M  V30 10742 C 1001.92 1.9484 0.583853 0
M  V30 10743 C 1002.27 0.958758 1.6681 0
M  V30 10744 O 1001.57 -0.0179065 1.91592 0
M  V30 10745 C 1001.76 3.36684 1.1991 0
M  V30 10746 C 1001.59 4.49356 0.175978 0
M  V30 10747 C 1000.36 5.04721 -0.241733 0
M  V30 10748 C 1002.56 5.10911 -0.589415 0
M  V30 10749 N 1000.54 6.00938 -1.25485 0
M  V30 10750 C 1001.91 6.0269 -1.45483 0
M  V30 10751 C 1003.97 4.93708 -0.644746 0
M  V30 10752 C 1002.67 6.79111 -2.37066 0
M  V30 10753 C 1004.7 5.70778 -1.54812 0
M  V30 10754 C 1004.06 6.6221 -2.40119 0
M  V30 10755 H 1000.16 0.75993 0.184472 0
M  V30 10756 H 1002.74 1.94064 -0.157259 0
M  V30 10757 H 1000.91 3.38186 1.91011 0
M  V30 10758 H 1002.64 3.6134 1.82251 0
M  V30 10759 H 999.399 4.73385 0.142732 0
M  V30 10760 H 999.823 6.53746 -1.75912 0
M  V30 10761 H 1004.46 4.228 0.000601434 0
M  V30 10762 H 1002.18 7.49292 -3.02634 0
M  V30 10763 H 1005.77 5.59485 -1.59586 0
M  V30 10764 H 1004.65 7.20804 -3.08887 0
M  V30 10765 N 1002.15 -0.195058 1.56388 0
M  V30 10766 C 1003.1 -1.24175 1.94549 0
M  V30 10767 C 1004.07 -1.45229 0.806089 0
M  V30 10768 O 1005.25 -1.58362 1.06425 0
M  V30 10769 C 1002.39 -2.58145 2.29031 0
M  V30 10770 C 1001.51 -2.44669 3.56035 0
M  V30 10771 C 1000.64 -3.71342 3.7984 0
M  V30 10772 C 999.681 -3.52699 5.0027 0
M  V30 10773 N 998.818 -4.71385 5.20328 0
M  V30 10774 H 1003.66 -0.909319 2.83788 0
M  V30 10775 H 1001.19 -0.437641 1.40439 0
M  V30 10776 H 1003.15 -3.36195 2.4704 0
M  V30 10777 H 1001.78 -2.8943 1.42933 0
M  V30 10778 H 1000.83 -1.57916 3.46073 0
M  V30 10779 H 1002.15 -2.26827 4.44242 0
M  V30 10780 H 1001.3 -4.57832 3.98088 0
M  V30 10781 H 1000.04 -3.92138 2.89964 0
M  V30 10782 H 999.045 -2.64594 4.81944 0
M  V30 10783 H 1000.27 -3.33349 5.91655 0
M  V30 10784 H 998.216 -4.92444 4.33399 0
M  V30 10785 H 998.133 -4.56368 6.02714 0
M  V30 10786 H 999.401 -5.59226 5.43035 0
M  V30 10787 N 1003.63 -1.50653 -0.462772 0
M  V30 10788 C 1004.54 -1.72923 -1.58539 0
M  V30 10789 C 1005.56 -0.612577 -1.6286 0
M  V30 10790 O 1006.73 -0.891885 -1.80575 0
M  V30 10791 C 1003.8 -1.82623 -2.94703 0
M  V30 10792 C 1002.86 -3.06392 -3.00704 0
M  V30 10793 C 1002.09 -3.15618 -4.30373 0
M  V30 10794 O 1002.31 -2.31423 -5.21344 0
M  V30 10795 O 1001.25 -4.0841 -4.42136 0
M  V30 10796 H 1005.07 -2.68103 -1.42669 0
M  V30 10797 H 1002.66 -1.34848 -0.643144 0
M  V30 10798 H 1004.54 -1.91134 -3.7556 0
M  V30 10799 H 1003.22 -0.906275 -3.10754 0
M  V30 10800 H 1002.12 -3.03375 -2.18894 0
M  V30 10801 H 1003.46 -3.97992 -2.89591 0
M  V30 10802 N 1005.11 0.71652 -1.4037 0
M  V30 10803 C 1006.35 1.47857 -1.38803 0
M  V30 10804 C 1006.69 1.94197 0.0100536 0
M  V30 10805 O 1005.96 1.68093 0.978521 0
M  V30 10806 C 1006.25 2.7053 -2.37667 0
M  V30 10807 C 1006.1 2.3009 -3.86496 0
M  V30 10808 C 1007.42 3.72684 -2.34082 0
M  V30 10809 H 1004.54 0.53632 -0.505499 0
M  V30 10810 H 1007.18 0.817824 -1.71498 0
M  V30 10811 H 1005.33 3.26906 -2.09916 0
M  V30 10812 H 1007 1.79202 -4.2507 0
M  V30 10813 H 1005.24 1.62102 -4.02375 0
M  V30 10814 H 1005.91 3.18018 -4.51186 0
M  V30 10815 H 1008.39 3.25935 -2.58661 0
M  V30 10816 H 1007.27 4.56157 -3.05306 0
M  V30 10817 H 1007.53 4.20916 -1.35213 0
M  V30 10818 N 1006.59 1.25851 0.948643 0
M  V30 10819 C 1007.82 1.13546 1.726 0
M  V30 10820 C 1008.22 -0.312857 1.86595 0
M  V30 10821 O 1007.57 -1.22657 1.36751 0
M  V30 10822 C 1007.63 1.72315 3.15512 0
M  V30 10823 C 1007.29 3.2136 3.24926 0
M  V30 10824 C 1008.29 4.18274 3.08777 0
M  V30 10825 C 1005.98 3.61683 3.48555 0
M  V30 10826 C 1007.97 5.53491 3.16112 0
M  V30 10827 C 1005.66 4.97035 3.55526 0
M  V30 10828 C 1006.65 5.92749 3.3932 0
M  V30 10829 O 1006.34 7.25637 3.45985 0
M  V30 10830 H 1006.07 0.396555 0.547467 0
M  V30 10831 H 1008.63 1.66822 1.19832 0
M  V30 10832 H 1006.86 1.13494 3.6967 0
M  V30 10833 H 1008.55 1.55024 3.7513 0
M  V30 10834 H 1009.31 3.88461 2.90385 0
M  V30 10835 H 1005.19 2.87674 3.60229 0
M  V30 10836 H 1008.74 6.28177 3.0338 0
M  V30 10837 H 1004.63 5.26512 3.73437 0
M  V30 10838 H 1005.4 7.33812 3.62577 0
M  V30 10839 N 1008.06 -1.15214 1.07534 0
M  V30 10840 C 1009.29 -1.90463 0.820883 0
M  V30 10841 C 1009.71 -1.77578 -0.620305 0
M  V30 10842 O 1009.07 -1.10976 -1.43366 0
M  V30 10843 C 1009.12 -3.38746 1.23627 0
M  V30 10844 O 1008.22 -4.1062 0.382715 0
M  V30 10845 H 1007.57 -0.59292 0.298901 0
M  V30 10846 H 1010.1 -1.45893 1.43445 0
M  V30 10847 H 1010.11 -3.89543 1.21327 0
M  V30 10848 H 1008.78 -3.47443 2.28596 0
M  V30 10849 H 1007.36 -3.69947 0.468374 0
M  V30 10850 N 1009.54 -0.859717 -1.32086 0
M  V30 10851 C 1010.79 -0.465581 -1.97075 0
M  V30 10852 C 1011.12 0.979917 -1.68012 0
M  V30 10853 O 1010.37 1.70337 -0.96353 0
M  V30 10854 C 1010.67 -0.657397 -3.51302 0
M  V30 10855 C 1010.34 -2.07413 -4.00363 0
M  V30 10856 C 1009 -2.4616 -4.13472 0
M  V30 10857 C 1011.35 -2.99855 -4.26305 0
M  V30 10858 C 1008.68 -3.76611 -4.49868 0
M  V30 10859 C 1011.03 -4.2981 -4.64161 0
M  V30 10860 C 1009.7 -4.68485 -4.75476 0
M  V30 10861 H 1008.97 -0.170368 -0.721149 0
M  V30 10862 H 1011.61 -1.09074 -1.57401 0
M  V30 10863 H 1009.92 0.0509638 -3.91767 0
M  V30 10864 H 1011.61 -0.332416 -3.9962 0
M  V30 10865 H 1008.2 -1.76327 -3.90649 0
M  V30 10866 H 1012.39 -2.7115 -4.15682 0
M  V30 10867 H 1007.64 -4.06352 -4.56824 0
M  V30 10868 H 1011.82 -5.015 -4.83188 0
M  V30 10869 H 1009.45 -5.69612 -5.03435 0
M  V30 10870 N 1011.02 1.44971 -0.618145 0
M  V30 10871 C 1012.27 2.01372 -0.115004 0
M  V30 10872 C 1012.58 1.49104 1.26599 0
M  V30 10873 O 1013.79 1.97549 1.86244 0
M  V30 10874 C 1012.24 3.59567 -0.154883 0
M  V30 10875 C 1011.85 4.20832 -1.53639 0
M  V30 10876 C 1013.6 4.23491 0.292468 0
M  V30 10877 C 1011.5 5.7121 -1.53208 0
M  V30 10878 H 1010.43 0.752979 -0.0392267 0
M  V30 10879 H 1013.08 1.66329 -0.775032 0
M  V30 10880 H 1011.47 3.91847 0.572001 0
M  V30 10881 H 1012.64 4.00109 -2.28582 0
M  V30 10882 H 1010.96 3.69143 -1.92672 0
M  V30 10883 H 1013.55 5.33771 0.315032 0
M  V30 10884 H 1013.9 3.9491 1.31725 0
M  V30 10885 H 1014.43 3.95967 -0.381493 0
M  V30 10886 H 1011.17 6.04506 -2.53481 0
M  V30 10887 H 1010.69 5.94094 -0.825387 0
M  V30 10888 H 1012.37 6.34606 -1.26032 0
M  V30 10889 N 1012.5 0.357919 1.53482 0
M  V30 10890 C 1013.74 -0.23451 2.0144 0
M  V30 10891 C 1014.08 -1.49044 1.24497 0
M  V30 10892 O 1013.35 -1.91566 0.336535 0
M  V30 10893 C 1013.64 -0.534193 3.56116 0
M  V30 10894 C 1013.49 0.734834 4.43757 0
M  V30 10895 C 1014.81 -1.33793 4.1927 0
M  V30 10896 H 1011.93 -0.0837595 0.732225 0
M  V30 10897 H 1014.57 0.481297 1.83803 0
M  V30 10898 H 1012.72 -1.144 3.71275 0
M  V30 10899 H 1014.39 1.37251 4.40409 0
M  V30 10900 H 1012.63 1.35678 4.12036 0
M  V30 10901 H 1013.3 0.48021 5.49907 0
M  V30 10902 H 1015.78 -0.822158 4.07897 0
M  V30 10903 H 1014.66 -1.51636 5.27539 0
M  V30 10904 H 1014.92 -2.34423 3.74831 0
M  V30 10905 N 1013.98 -1.5736 0.0868897 0
M  V30 10906 C 1015.2 -1.98809 -0.590757 0
M  V30 10907 C 1015.63 -0.965407 -1.61436 0
M  V30 10908 O 1014.98 0.067143 -1.81176 0
M  V30 10909 C 1015.03 -3.39249 -1.22238 0
M  V30 10910 O 1014.14 -3.39706 -2.33824 0
M  V30 10911 H 1013.48 -0.64669 -0.150626 0
M  V30 10912 H 1016.01 -2.03927 0.165873 0
M  V30 10913 H 1016.02 -3.76765 -1.56564 0
M  V30 10914 H 1014.69 -4.13208 -0.472434 0
M  V30 10915 H 1013.27 -3.13977 -2.01178 0
M  V30 10916 N 1015.45 0.186762 -1.56489 0
M  V30 10917 C 1016.4 1.25084 -1.96104 0
M  V30 10918 C 1017.4 1.4667 -0.847609 0
M  V30 10919 O 1018.6 1.47432 -1.03266 0
M  V30 10920 H 1014.98 0.420121 -0.623701 0
M  V30 10921 H 1016.95 0.889761 -2.84826 0
M  V30 10922 C 1015.7 2.5863 -2.32392 0
M  V30 10923 H 1015.02 2.42838 -3.176 0
M  V30 10924 H 1016.46 3.3181 -2.63967 0
M  V30 10925 C 1014.92 3.16241 -1.16159 0
M  V30 10926 O 1015.45 3.99272 -0.441034 0
M  V30 10927 N 1013.66 2.75106 -0.936206 0
M  V30 10928 H 1013.2 2.0769 -1.5239 0
M  V30 10929 H 1013.16 3.13991 -0.160317 0
M  V30 10930 N 1016.93 1.50896 0.454776 0
M  V30 10931 C 1018.18 1.63905 1.20444 0
M  V30 10932 C 1018.53 0.342692 1.89323 0
M  V30 10933 O 1017.83 -0.660465 1.79857 0
M  V30 10934 C 1018.02 2.76839 2.26042 0
M  V30 10935 C 1017.85 4.17332 1.67524 0
M  V30 10936 C 1016.62 4.83512 1.46779 0
M  V30 10937 C 1018.82 5.01022 1.1611 0
M  V30 10938 N 1016.8 6.08171 0.83675 0
M  V30 10939 C 1018.17 6.16538 0.654283 0
M  V30 10940 C 1020.23 4.86677 1.05119 0
M  V30 10941 C 1018.93 7.19284 0.0483821 0
M  V30 10942 C 1020.95 5.89614 0.459211 0
M  V30 10943 C 1020.32 7.0439 -0.0371476 0
M  V30 10944 H 1016.42 0.653802 0.42903 0
M  V30 10945 H 1019 1.88069 0.503783 0
M  V30 10946 H 1017.17 2.54369 2.93515 0
M  V30 10947 H 1018.9 2.7912 2.93043 0
M  V30 10948 H 1015.66 4.41082 1.72464 0
M  V30 10949 H 1016.08 6.7485 0.539176 0
M  V30 10950 H 1020.72 3.98211 1.42085 0
M  V30 10951 H 1018.44 8.07412 -0.333438 0
M  V30 10952 H 1022.03 5.80582 0.376315 0
M  V30 10953 H 1020.91 7.8268 -0.488035 0
M  V30 10954 N 1018.41 -0.709066 1.40748 0
M  V30 10955 C 1019.34 -1.83293 1.35937 0
M  V30 10956 C 1020.32 -1.60983 0.22871 0
M  V30 10957 O 1021.51 -1.8391 0.413435 0
M  V30 10958 C 1018.63 -3.19746 1.11714 0
M  V30 10959 C 1017.68 -3.60872 2.27319 0
M  V30 10960 S 1018.51 -3.67233 3.89743 0
M  V30 10961 C 1019.67 -5.06434 3.67797 0
M  V30 10962 H 1019.9 -1.87095 2.31047 0
M  V30 10963 H 1017.43 -0.876479 1.27111 0
M  V30 10964 H 1019.39 -3.98526 0.984245 0
M  V30 10965 H 1018.05 -3.1357 0.182472 0
M  V30 10966 H 1017.25 -4.59965 2.06029 0
M  V30 10967 H 1016.85 -2.89366 2.36946 0
M  V30 10968 H 1019.14 -5.93544 3.26668 0
M  V30 10969 H 1020.08 -5.32761 4.66445 0
M  V30 10970 H 1020.49 -4.77336 3.01348 0
M  V30 10971 N 1019.89 -1.26353 -0.941956 0
M  V30 10972 C 1021.12 -1.14626 -1.72245 0
M  V30 10973 C 1021.53 0.298588 -1.86424 0
M  V30 10974 O 1020.89 1.2045 -1.37106 0
M  V30 10975 C 1020.94 -1.80933 -3.12963 0
M  V30 10976 O 1020.66 -3.19771 -2.99463 0
M  V30 10977 C 1022.16 -1.7515 -4.07231 0
M  V30 10978 H 1019.38 -0.3992 -0.539333 0
M  V30 10979 H 1021.93 -1.66958 -1.1809 0
M  V30 10980 H 1020.08 -1.32541 -3.64021 0
M  V30 10981 H 1020.5 -3.52571 -3.88322 0
M  V30 10982 H 1021.97 -2.26183 -5.03533 0
M  V30 10983 H 1022.45 -0.717855 -4.33294 0
M  V30 10984 H 1023.05 -2.2309 -3.62093 0
M  V30 10985 N 1021.37 1.14642 -1.08144 0
M  V30 10986 C 1022.31 2.1964 -0.708995 0
M  V30 10987 C 1023.28 1.63303 0.303512 0
M  V30 10988 O 1024.47 1.8987 0.18813 0
M  V30 10989 C 1021.61 3.44886 -0.121585 0
M  V30 10990 C 1020.72 4.15386 -1.18654 0
M  V30 10991 C 1019.86 5.28205 -0.56328 0
M  V30 10992 C 1018.9 5.90534 -1.61046 0
M  V30 10993 N 1018.03 6.94809 -1.00919 0
M  V30 10994 H 1022.87 2.50848 -1.6087 0
M  V30 10995 H 1020.41 1.23185 -0.803975 0
M  V30 10996 H 1022.37 4.16528 0.23668 0
M  V30 10997 H 1021 3.14169 0.741445 0
M  V30 10998 H 1020.05 3.42159 -1.66227 0
M  V30 10999 H 1021.36 4.57809 -1.9802 0
M  V30 11000 H 1020.52 6.06507 -0.153109 0
M  V30 11001 H 1019.26 4.86995 0.262066 0
M  V30 11002 H 1018.26 5.10938 -2.03033 0
M  V30 11003 H 1019.49 6.33819 -2.43824 0
M  V30 11004 H 1017.43 6.5568 -0.204894 0
M  V30 11005 H 1017.35 7.35704 -1.73999 0
M  V30 11006 H 1018.62 7.76992 -0.624792 0
M  V30 11007 N 1022.85 0.866709 1.31628 0
M  V30 11008 C 1024.09 0.472185 1.96095 0
M  V30 11009 C 1024.41 -0.979873 1.69286 0
M  V30 11010 O 1025.61 -1.48039 2.27589 0
M  V30 11011 C 1024.07 0.793468 3.51044 0
M  V30 11012 C 1023.68 2.26206 3.86697 0
M  V30 11013 C 1025.42 0.467255 4.21921 0
M  V30 11014 C 1023.33 2.52593 5.34743 0
M  V30 11015 H 1022.26 0.172846 0.733921 0
M  V30 11016 H 1024.91 1.05916 1.49847 0
M  V30 11017 H 1023.29 0.135783 3.95767 0
M  V30 11018 H 1024.47 2.96254 3.52945 0
M  V30 11019 H 1022.78 2.55399 3.28877 0
M  V30 11020 H 1025.38 0.641669 5.30836 0
M  V30 11021 H 1025.72 -0.592065 4.12068 0
M  V30 11022 H 1026.25 1.08134 3.82821 0
M  V30 11023 H 1022.99 3.57196 5.49628 0
M  V30 11024 H 1022.51 1.87136 5.6986 0
M  V30 11025 H 1024.19 2.37156 6.01968 0
M  V30 11026 N 1024.32 -1.44642 0.625825 0
M  V30 11027 C 1025.27 -2.32408 -0.0945221 0
M  V30 11028 C 1026.27 -1.47038 -0.841198 0
M  V30 11029 O 1027.47 -1.63415 -0.754698 0
M  V30 11030 H 1023.85 -0.75038 -0.0493321 0
M  V30 11031 H 1025.82 -2.90922 0.663863 0
M  V30 11032 C 1024.57 -3.30951 -1.06615 0
M  V30 11033 H 1023.89 -3.96648 -0.501021 0
M  V30 11034 H 1025.33 -3.95054 -1.53976 0
M  V30 11035 C 1023.79 -2.59479 -2.14877 0
M  V30 11036 O 1024.32 -2.38974 -3.22885 0
M  V30 11037 N 1022.52 -2.19307 -1.90665 0
M  V30 11038 H 1022.07 -2.36184 -1.02835 0
M  V30 11039 H 1022.03 -1.71811 -2.63303 0
M  V30 11040 N 1025.8 -0.366053 -1.5329 0
M  V30 11041 C 1027.03 0.224236 -2.05681 0
M  V30 11042 C 1027.44 1.42412 -1.23952 0
M  V30 11043 O 1026.8 1.80334 -0.280309 0
M  V30 11044 C 1026.85 0.617266 -3.56191 0
M  V30 11045 O 1026.57 -0.534931 -4.34822 0
M  V30 11046 C 1028.07 1.26589 -4.24841 0
M  V30 11047 H 1025.29 0.0392928 -0.669849 0
M  V30 11048 H 1027.84 -0.52456 -1.97658 0
M  V30 11049 H 1025.99 1.31598 -3.64364 0
M  V30 11050 H 1026.41 -0.217123 -5.2405 0
M  V30 11051 H 1027.88 1.49146 -5.31469 0
M  V30 11052 H 1028.36 2.22633 -3.78591 0
M  V30 11053 H 1028.96 0.6086 -4.20923 0
M  V30 11054 N 1027.28 1.57312 -0.0952337 0
M  V30 11055 C 1028.21 2.11059 0.893678 0
M  V30 11056 C 1029.22 1.04787 1.24594 0
M  V30 11057 O 1030.41 1.32233 1.19903 0
M  V30 11058 C 1027.51 2.57552 2.20272 0
M  V30 11059 C 1026.69 3.87661 2.02578 0
M  V30 11060 C 1025.75 4.2 3.16996 0
M  V30 11061 O 1024.77 4.89219 2.90953 0
M  V30 11062 N 1025.97 3.75414 4.42769 0
M  V30 11063 H 1028.74 2.96532 0.434632 0
M  V30 11064 H 1026.3 1.6165 0.0898661 0
M  V30 11065 H 1028.29 2.76232 2.95766 0
M  V30 11066 H 1026.86 1.7709 2.576 0
M  V30 11067 H 1026.08 3.78128 1.11413 0
M  V30 11068 H 1027.37 4.7278 1.88032 0
M  V30 11069 H 1026.77 3.1954 4.66809 0
M  V30 11070 H 1025.32 3.99249 5.15212 0
M  V30 11071 N 1028.76 -0.17846 1.56586 0
M  V30 11072 C 1030 -0.896235 1.81587 0
M  V30 11073 C 1030.33 -1.82553 0.671168 0
M  V30 11074 O 1029.59 -1.92688 -0.342046 0
M  V30 11075 C 1029.89 -1.73063 3.12704 0
M  V30 11076 C 1029.55 -0.950877 4.4076 0
M  V30 11077 C 1028.21 -0.735647 4.75544 0
M  V30 11078 C 1030.57 -0.403419 5.19636 0
M  V30 11079 C 1027.89 0.0382562 5.86688 0
M  V30 11080 C 1030.25 0.357359 6.3159 0
M  V30 11081 C 1028.91 0.583455 6.64945 0
M  V30 11082 H 1028.18 -0.327956 0.664474 0
M  V30 11083 H 1030.83 -0.161586 1.90817 0
M  V30 11084 H 1029.13 -2.53446 2.98785 0
M  V30 11085 H 1030.83 -2.28891 3.29257 0
M  V30 11086 H 1027.42 -1.12866 4.13472 0
M  V30 11087 H 1031.6 -0.557059 4.93164 0
M  V30 11088 H 1026.86 0.223237 6.10992 0
M  V30 11089 H 1031.03 0.788861 6.91918 0
M  V30 11090 H 1028.66 1.18502 7.50907 0
M  V30 11091 N 1030.24 -1.51135 -0.446768 0
M  V30 11092 C 1031.18 -1.72328 -1.56224 0
M  V30 11093 C 1032.18 -0.589411 -1.58815 0
M  V30 11094 O 1033.38 -0.770554 -1.62673 0
M  V30 11095 H 1029.76 -0.544339 -0.518844 0
M  V30 11096 H 1031.73 -2.65851 -1.3552 0
M  V30 11097 C 1030.48 -1.85686 -2.93966 0
M  V30 11098 H 1029.8 -2.72336 -2.927 0
M  V30 11099 H 1031.24 -2.0453 -3.71407 0
M  V30 11100 C 1029.7 -0.614328 -3.31252 0
M  V30 11101 O 1030.23 0.235369 -4.0101 0
M  V30 11102 N 1028.44 -0.461181 -2.86917 0
M  V30 11103 H 1027.98 -1.15369 -2.30321 0
M  V30 11104 H 1027.94 0.368966 -3.12227 0
M  V30 11105 N 1031.71 0.701592 -1.41122 0
M  V30 11106 C 1032.66 1.81559 -1.42495 0
M  V30 11107 C 1033.63 1.63722 -0.280078 0
M  V30 11108 O 1034.82 1.84658 -0.480231 0
M  V30 11109 C 1031.96 3.19392 -1.30702 0
M  V30 11110 C 1031.07 3.48704 -2.55009 0
M  V30 11111 C 1030.2 4.76118 -2.35554 0
M  V30 11112 C 1029.24 4.98378 -3.55367 0
M  V30 11113 N 1028.38 6.17014 -3.3502 0
M  V30 11114 H 1033.22 1.7972 -2.37707 0
M  V30 11115 H 1030.76 0.877727 -1.18044 0
M  V30 11116 H 1032.71 3.99004 -1.21867 0
M  V30 11117 H 1031.34 3.20423 -0.391012 0
M  V30 11118 H 1030.4 2.63542 -2.74317 0
M  V30 11119 H 1031.71 3.61057 -3.44151 0
M  V30 11120 H 1030.86 5.63774 -2.24152 0
M  V30 11121 H 1029.6 4.66 -1.43859 0
M  V30 11122 H 1028.61 4.09172 -3.6723 0
M  V30 11123 H 1029.83 5.10359 -4.48007 0
M  V30 11124 H 1027.78 6.0812 -2.4602 0
M  V30 11125 H 1027.69 6.30107 -4.17733 0
M  V30 11126 H 1028.96 7.0742 -3.27379 0
M  V30 11127 N 1033.19 1.2685 0.935242 0
M  V30 11128 C 1034.61 1.04091 1.20984 0
M  V30 11129 C 1034.81 -0.230242 2.0018 0
M  V30 11130 O 1033.86 -0.93778 2.3444 0
M  V30 11131 C 1035.18 2.27586 1.96533 0
M  V30 11132 C 1036.72 2.32547 2.09501 0
M  V30 11133 C 1037.2 3.55751 2.88454 0
M  V30 11134 N 1038.69 3.56263 2.96025 0
M  V30 11135 C 1039.43 4.48262 3.57559 0
M  V30 11136 N 1038.92 5.50557 4.20546 0
M  V30 11137 N 1040.71 4.35901 3.5489 0
M  V30 11138 H 1032.87 2.08484 0.405954 0
M  V30 11139 H 1035.13 0.916548 0.242164 0
M  V30 11140 H 1034.83 3.20076 1.45753 0
M  V30 11141 H 1034.71 2.32305 2.97177 0
M  V30 11142 H 1037.1 1.40568 2.5947 0
M  V30 11143 H 1037.18 2.31836 1.08101 0
M  V30 11144 H 1036.82 4.48063 2.3917 0
M  V30 11145 H 1036.75 3.53711 3.90123 0
M  V30 11146 H 1039.24 2.82278 2.51252 0
M  V30 11147 H 1039.55 6.16935 4.65415 0
M  V30 11148 H 1037.9 5.54407 4.19115 0
M  V30 11149 H 1041.09 3.552 3.04879 0
M  V30 11150 H 1041.26 5.07792 4.02557 0
M  V30 11151 N 1034.67 -1.14067 1.0875 0
M  V30 11152 C 1035.62 -2.19261 0.720633 0
M  V30 11153 C 1036.59 -1.63462 -0.294847 0
M  V30 11154 O 1037.77 -1.89967 -0.178058 0
M  V30 11155 C 1034.91 -3.44816 0.139873 0
M  V30 11156 C 1034.03 -4.1475 1.20856 0
M  V30 11157 C 1033.16 -5.27899 0.591285 0
M  V30 11158 C 1032.2 -5.89672 1.64176 0
M  V30 11159 N 1031.34 -6.94264 1.04603 0
M  V30 11160 H 1036.18 -2.49991 1.62198 0
M  V30 11161 H 1033.71 -1.22757 0.810497 0
M  V30 11162 H 1035.67 -4.16648 -0.214587 0
M  V30 11163 H 1034.3 -3.14558 -0.724774 0
M  V30 11164 H 1033.35 -3.41272 1.6804 0
M  V30 11165 H 1034.67 -4.56753 2.00446 0
M  V30 11166 H 1033.82 -6.06417 0.185271 0
M  V30 11167 H 1032.56 -4.87128 -0.236236 0
M  V30 11168 H 1031.56 -5.09854 2.05739 0
M  V30 11169 H 1032.79 -6.32517 2.47182 0
M  V30 11170 H 1030.73 -6.55562 0.239664 0
M  V30 11171 H 1030.65 -7.34771 1.77898 0
M  V30 11172 H 1031.92 -7.7665 0.665989 0
M  V30 11173 N 1036.15 -0.873678 -1.31166 0
M  V30 11174 C 1037.06 -0.335726 -2.32185 0
M  V30 11175 C 1038.07 0.556259 -1.64869 0
M  V30 11176 O 1039.25 0.452087 -1.9626 0
M  V30 11177 C 1036.32 0.450822 -3.43756 0
M  V30 11178 C 1035.38 -0.469565 -4.26724 0
M  V30 11179 C 1034.61 0.279538 -5.32967 0
M  V30 11180 O 1034.83 1.50715 -5.50128 0
M  V30 11181 O 1033.77 -0.36452 -6.00795 0
M  V30 11182 H 1037.59 -1.17314 -2.80127 0
M  V30 11183 H 1035.18 -0.637163 -1.35132 0
M  V30 11184 H 1037.06 0.896582 -4.11752 0
M  V30 11185 H 1035.73 1.26472 -2.9797 0
M  V30 11186 H 1034.64 -0.963902 -3.61469 0
M  V30 11187 H 1035.97 -1.24916 -4.76085 0
M  V30 11188 N 1037.63 1.44308 -0.633487 0
M  V30 11189 C 1038.56 2.28943 0.108474 0
M  V30 11190 C 1039.57 1.41415 0.806582 0
M  V30 11191 O 1040.76 1.65544 0.667634 0
M  V30 11192 C 1037.86 3.17845 1.1759 0
M  V30 11193 C 1037.03 4.33802 0.559842 0
M  V30 11194 C 1036.09 5.03722 1.52154 0
M  V30 11195 O 1035.12 5.5966 1.03776 0
M  V30 11196 N 1036.32 5.05392 2.85586 0
M  V30 11197 H 1039.09 2.93262 -0.617879 0
M  V30 11198 H 1036.65 1.54781 -0.474819 0
M  V30 11199 H 1038.64 3.61485 1.81963 0
M  V30 11200 H 1037.21 2.55261 1.80445 0
M  V30 11201 H 1036.43 3.93325 -0.262559 0
M  V30 11202 H 1037.72 5.08637 0.128942 0
M  V30 11203 H 1037.11 4.61282 3.27468 0
M  V30 11204 H 1035.67 5.52813 3.45313 0
M  V30 11205 N 1039.1 0.374177 1.53094 0
M  V30 11206 C 1040.04 -0.511995 2.22382 0
M  V30 11207 C 1041.02 -1.07617 1.2189 0
M  V30 11208 O 1042.2 -1.13068 1.50824 0
M  V30 11209 C 1039.33 -1.70724 2.92525 0
M  V30 11210 C 1038.37 -1.26972 4.07161 0
M  V30 11211 S 1039.21 -0.263835 5.3485 0
M  V30 11212 C 1040.36 -1.46521 6.08508 0
M  V30 11213 H 1040.59 0.0764311 2.97202 0
M  V30 11214 H 1038.13 0.158307 1.53586 0
M  V30 11215 H 1040.09 -2.39279 3.3355 0
M  V30 11216 H 1038.75 -2.26693 2.17414 0
M  V30 11217 H 1037.94 -2.16172 4.55286 0
M  V30 11218 H 1037.54 -0.663273 3.68072 0
M  V30 11219 H 1039.83 -2.39483 6.33762 0
M  V30 11220 H 1040.78 -1.02517 7.0064 0
M  V30 11221 H 1041.18 -1.67516 5.39072 0
M  V30 11222 N 1040.58 -1.57259 0.103575 0
M  V30 11223 C 1041.81 -1.98711 -0.565454 0
M  V30 11224 C 1042.22 -0.981759 -1.61735 0
M  V30 11225 O 1041.56 0.0357019 -1.83665 0
M  V30 11226 C 1041.63 -3.36552 -1.26384 0
M  V30 11227 C 1041.29 -4.55566 -0.361714 0
M  V30 11228 C 1042.29 -5.18408 0.393539 0
M  V30 11229 C 1039.97 -5.01534 -0.277292 0
M  V30 11230 C 1041.97 -6.25594 1.2211 0
M  V30 11231 C 1039.65 -6.08584 0.553919 0
M  V30 11232 C 1040.65 -6.7048 1.30176 0
M  V30 11233 O 1040.34 -7.75464 2.1192 0
M  V30 11234 H 1040.07 -0.657853 -0.155582 0
M  V30 11235 H 1042.62 -2.04591 0.182089 0
M  V30 11236 H 1040.85 -3.2738 -2.05813 0
M  V30 11237 H 1042.54 -3.62395 -1.82824 0
M  V30 11238 H 1043.31 -4.8382 0.338098 0
M  V30 11239 H 1039.19 -4.53114 -0.849047 0
M  V30 11240 H 1042.73 -6.73836 1.80531 0
M  V30 11241 H 1038.63 -6.42604 0.610809 0
M  V30 11242 H 1039.4 -7.92491 2.04694 0
M  V30 11243 N 1042.06 0.170153 -1.56679 0
M  V30 11244 C 1042.99 1.23525 -1.93066 0
M  V30 11245 C 1044.01 1.40414 -0.823879 0
M  V30 11246 O 1045.19 1.40396 -1.10232 0
M  V30 11247 C 1042.29 2.60376 -2.16928 0
M  V30 11248 C 1041.47 2.6477 -3.4816 0
M  V30 11249 C 1040.53 3.82993 -3.60837 0
M  V30 11250 O 1039.55 3.68937 -4.33444 0
M  V30 11251 N 1040.75 4.99498 -2.95773 0
M  V30 11252 H 1043.52 0.926172 -2.8503 0
M  V30 11253 H 1041.08 0.359909 -1.57849 0
M  V30 11254 H 1043.07 3.37934 -2.22672 0
M  V30 11255 H 1041.64 2.83669 -1.31342 0
M  V30 11256 H 1040.86 1.73298 -3.54064 0
M  V30 11257 H 1042.15 2.64717 -4.34514 0
M  V30 11258 H 1041.55 5.13819 -2.36657 0
M  V30 11259 H 1040.11 5.74914 -3.07111 0
M  V30 11260 N 1043.54 1.5137 0.438746 0
M  V30 11261 C 1044.5 1.71993 1.51496 0
M  V30 11262 C 1045.5 0.589978 1.49586 0
M  V30 11263 O 1046.69 0.857505 1.51633 0
M  V30 11264 C 1043.82 1.77508 2.91039 0
M  V30 11265 H 1045.02 2.68041 1.34514 0
M  V30 11266 H 1042.57 1.41338 0.667326 0
M  V30 11267 H 1043.3 0.832698 3.13427 0
M  V30 11268 H 1043.09 2.59627 2.9383 0
M  V30 11269 H 1044.58 1.95308 3.69113 0
M  V30 11270 N 1045.02 -0.694098 1.41492 0
M  V30 11271 C 1045.95 -1.82042 1.46229 0
M  V30 11272 C 1046.93 -1.67047 0.320803 0
M  V30 11273 O 1048.11 -1.86758 0.53245 0
M  V30 11274 C 1045.24 -3.2019 1.34519 0
M  V30 11275 C 1044.2 -3.49892 2.46495 0
M  V30 11276 C 1043.52 -4.87411 2.1985 0
M  V30 11277 C 1044.82 -3.4872 3.88834 0
M  V30 11278 H 1046.52 -1.78335 2.40493 0
M  V30 11279 H 1044.06 -0.856566 1.15754 0
M  V30 11280 H 1046.02 -3.98699 1.36445 0
M  V30 11281 H 1044.74 -3.24527 0.367406 0
M  V30 11282 H 1043.4 -2.73734 2.43854 0
M  V30 11283 H 1043.05 -4.88375 1.20411 0
M  V30 11284 H 1042.75 -5.08248 2.94885 0
M  V30 11285 H 1044.27 -5.68228 2.23494 0
M  V30 11286 H 1045.68 -4.1723 3.93182 0
M  V30 11287 H 1044.08 -3.81089 4.63564 0
M  V30 11288 H 1045.15 -2.47665 4.16881 0
M  V30 11289 N 1046.49 -1.27344 -0.928501 0
M  V30 11290 C 1047.43 -1.05797 -2.03322 0
M  V30 11291 C 1048.44 -0.0143086 -1.62794 0
M  V30 11292 O 1049.63 -0.25578 -1.76658 0
M  V30 11293 C 1046.73 -0.582673 -3.33853 0
M  V30 11294 C 1045.9 -1.69844 -4.03078 0
M  V30 11295 C 1044.96 -1.21902 -5.11885 0
M  V30 11296 O 1043.99 -1.91853 -5.35893 0
M  V30 11297 N 1045.19 -0.0742392 -5.80453 0
M  V30 11298 H 1047.95 -2.00928 -2.22369 0
M  V30 11299 H 1045.51 -1.189 -1.09883 0
M  V30 11300 H 1047.51 -0.245862 -4.03952 0
M  V30 11301 H 1046.08 0.27539 -3.11385 0
M  V30 11302 H 1045.3 -2.20557 -3.26723 0
M  V30 11303 H 1046.58 -2.4473 -4.46077 0
M  V30 11304 H 1045.98 0.509631 -5.634 0
M  V30 11305 H 1044.54 0.203399 -6.51483 0
M  V30 11306 N 1047.97 1.13488 -1.09353 0
M  V30 11307 C 1048.92 2.20949 -0.726923 0
M  V30 11308 C 1049.91 1.67205 0.271816 0
M  V30 11309 O 1051.12 1.79505 0.133356 0
M  V30 11310 H 1047.5 0.719985 -0.217086 0
M  V30 11311 H 1049.47 2.49134 -1.6424 0
M  V30 11312 C 1048.22 3.47319 -0.162822 0
M  V30 11313 H 1047.54 3.89011 -0.922527 0
M  V30 11314 H 1048.98 4.23963 0.0557734 0
M  V30 11315 C 1047.44 3.18376 1.10175 0
M  V30 11316 O 1047.97 3.3707 2.18511 0
M  V30 11317 N 1046.17 2.72262 1.01597 0
M  V30 11318 H 1045.72 2.5725 0.134289 0
M  V30 11319 H 1045.68 2.53272 1.86281 0
M  V30 11320 N 1049.45 0.880621 1.30701 0
M  V30 11321 C 1050.38 0.301443 2.27209 0
M  V30 11322 C 1051.4 -0.541533 1.53529 0
M  V30 11323 O 1052.59 -0.361791 1.74795 0
M  V30 11324 C 1049.69 -0.59038 3.33718 0
M  V30 11325 C 1048.86 0.222549 4.36833 0
M  V30 11326 C 1047.92 -0.599083 5.22779 0
M  V30 11327 O 1046.94 -0.0233267 5.69195 0
M  V30 11328 N 1048.15 -1.90904 5.48211 0
M  V30 11329 H 1050.91 1.13083 2.77547 0
M  V30 11330 H 1048.47 0.743168 1.43835 0
M  V30 11331 H 1050.46 -1.14599 3.88135 0
M  V30 11332 H 1049.03 -1.32044 2.83343 0
M  V30 11333 H 1048.25 0.959606 3.82342 0
M  V30 11334 H 1049.54 0.779965 5.02786 0
M  V30 11335 H 1048.94 -2.3998 5.12275 0
M  V30 11336 H 1047.5 -2.4122 6.05521 0
M  V30 11337 N 1050.93 -1.4397 0.641131 0
M  V30 11338 C 1052.18 -2.02246 0.14985 0
M  V30 11339 C 1052.51 -1.50387 -1.22871 0
M  V30 11340 O 1051.78 -0.692003 -1.81773 0
M  V30 11341 C 1052.07 -3.59798 0.147449 0
M  V30 11342 C 1051.92 -4.21916 1.55907 0
M  V30 11343 C 1053.24 -4.36985 -0.522667 0
M  V30 11344 H 1050.36 -0.734875 0.0559274 0
M  V30 11345 H 1053 -1.71418 0.819513 0
M  V30 11346 H 1051.15 -3.86193 -0.422789 0
M  V30 11347 H 1052.82 -4.06594 2.17896 0
M  V30 11348 H 1051.06 -3.79028 2.10998 0
M  V30 11349 H 1051.74 -5.30964 1.50934 0
M  V30 11350 H 1054.21 -4.16083 -0.0376226 0
M  V30 11351 H 1053.09 -5.46676 -0.493572 0
M  V30 11352 H 1053.35 -4.12335 -1.59475 0
M  V30 11353 N 1052.41 -0.382291 -1.52893 0
M  V30 11354 C 1053.36 0.471187 -2.27778 0
M  V30 11355 C 1054.35 1.0691 -1.31402 0
M  V30 11356 O 1055.56 1.01038 -1.48967 0
M  V30 11357 H 1051.93 0.170696 -0.732371 0
M  V30 11358 H 1053.9 -0.181954 -2.97845 0
M  V30 11359 C 1052.65 1.59012 -3.09209 0
M  V30 11360 H 1051.97 1.13935 -3.83222 0
M  V30 11361 H 1053.41 2.16167 -3.64757 0
M  V30 11362 C 1051.87 2.54212 -2.21084 0
M  V30 11363 O 1052.4 3.57447 -1.83288 0
M  V30 11364 N 1050.61 2.23789 -1.85383 0
M  V30 11365 H 1050.16 1.39872 -2.16318 0
M  V30 11366 H 1050.11 2.87737 -1.26708 0
M  V30 11367 N 1053.89 1.57202 -0.111913 0
M  V30 11368 C 1054.85 2.13778 0.826534 0
M  V30 11369 C 1055.85 1.07097 1.19945 0
M  V30 11370 O 1057.04 1.32906 1.12613 0
M  V30 11371 C 1054.17 2.6722 2.11675 0
M  V30 11372 H 1055.36 2.98023 0.334975 0
M  V30 11373 H 1052.92 1.55696 0.137256 0
M  V30 11374 H 1053.65 1.86542 2.65278 0
M  V30 11375 H 1053.44 3.45235 1.8589 0
M  V30 11376 H 1054.93 3.10926 2.78774 0
M  V30 11377 N 1055.36 -0.161842 1.56767 0
M  V30 11378 C 1056.61 -0.875278 1.81719 0
M  V30 11379 C 1056.93 -1.82998 0.690739 0
M  V30 11380 O 1058.13 -2.58648 0.82545 0
M  V30 11381 C 1056.59 -1.60703 3.22029 0
M  V30 11382 C 1056.2 -0.695486 4.42569 0
M  V30 11383 C 1057.94 -2.30813 3.56266 0
M  V30 11384 C 1055.85 -1.42801 5.73901 0
M  V30 11385 H 1054.78 -0.330591 0.677662 0
M  V30 11386 H 1057.43 -0.128112 1.83052 0
M  V30 11387 H 1055.81 -2.39929 3.1504 0
M  V30 11388 H 1056.98 0.0604882 4.6076 0
M  V30 11389 H 1055.3 -0.10356 4.16271 0
M  V30 11390 H 1057.9 -2.86229 4.51638 0
M  V30 11391 H 1058.24 -3.06603 2.81604 0
M  V30 11392 H 1058.77 -1.5852 3.64851 0
M  V30 11393 H 1055.51 -0.712253 6.51619 0
M  V30 11394 H 1055.03 -2.15707 5.5967 0
M  V30 11395 H 1056.71 -1.97295 6.16185 0
M  V30 11396 N 1056.84 -1.516 -0.430713 0
M  V30 11397 C 1057.79 -1.73392 -1.52328 0
M  V30 11398 C 1058.76 -0.575758 -1.55802 0
M  V30 11399 O 1059.94 -0.810931 -1.72709 0
M  V30 11400 C 1057.08 -1.87092 -2.89984 0
M  V30 11401 C 1056.2 -3.14668 -2.95987 0
M  V30 11402 C 1055.33 -3.18923 -4.24807 0
M  V30 11403 C 1054.37 -4.40787 -4.24703 0
M  V30 11404 N 1053.51 -4.42556 -5.45059 0
M  V30 11405 H 1058.35 -2.6665 -1.33048 0
M  V30 11406 H 1055.88 -1.32146 -0.646207 0
M  V30 11407 H 1057.84 -1.93017 -3.69865 0
M  V30 11408 H 1056.47 -0.972363 -3.07807 0
M  V30 11409 H 1055.52 -3.1802 -2.08728 0
M  V30 11410 H 1056.84 -4.04562 -2.91772 0
M  V30 11411 H 1055.99 -3.23801 -5.13067 0
M  V30 11412 H 1054.73 -2.2693 -4.31688 0
M  V30 11413 H 1053.73 -4.36079 -3.34836 0
M  V30 11414 H 1054.96 -5.34053 -4.19481 0
M  V30 11415 H 1052.91 -3.53435 -5.52648 0
M  V30 11416 H 1052.82 -5.26267 -5.42751 0
M  V30 11417 H 1054.09 -4.51634 -6.35332 0
M  V30 11418 N 1058.32 0.686584 -1.41858 0
M  V30 11419 C 1059.55 1.47519 -1.45072 0
M  V30 11420 C 1059.96 1.88709 -0.0585868 0
M  V30 11421 O 1059.32 1.57373 0.924116 0
M  V30 11422 C 1059.37 2.73195 -2.36742 0
M  V30 11423 O 1059.09 2.33736 -3.70539 0
M  V30 11424 C 1060.59 3.66861 -2.48854 0
M  V30 11425 H 1057.81 0.454307 -0.493808 0
M  V30 11426 H 1060.36 0.844612 -1.86243 0
M  V30 11427 H 1058.51 3.32468 -1.98856 0
M  V30 11428 H 1058.93 3.14809 -4.19518 0
M  V30 11429 H 1060.4 4.51801 -3.17143 0
M  V30 11430 H 1060.88 4.11961 -1.52265 0
M  V30 11431 H 1061.48 3.13486 -2.87414 0
M  V30 11432 N 1059.8 1.27835 0.921735 0
M  V30 11433 C 1061.05 1.13904 1.6646 0
M  V30 11434 C 1061.36 -0.313379 1.93073 0
M  V30 11435 O 1062.57 -0.573687 2.6537 0
M  V30 11436 C 1061.02 1.99064 2.99836 0
M  V30 11437 C 1060.63 3.48998 2.80899 0
M  V30 11438 C 1062.37 1.93797 3.77681 0
M  V30 11439 C 1060.28 4.26337 4.09867 0
M  V30 11440 H 1059.21 0.422681 0.624385 0
M  V30 11441 H 1061.86 1.52303 1.02352 0
M  V30 11442 H 1060.24 1.53514 3.65034 0
M  V30 11443 H 1061.42 4.02452 2.24431 0
M  V30 11444 H 1059.73 3.55707 2.16476 0
M  V30 11445 H 1062.33 2.48852 4.73262 0
M  V30 11446 H 1062.67 0.912928 4.06167 0
M  V30 11447 H 1063.21 2.37275 3.19289 0
M  V30 11448 H 1059.94 5.2939 3.86557 0
M  V30 11449 H 1059.46 3.77659 4.65976 0
M  V30 11450 H 1061.14 4.3583 4.78185 0
M  V30 11451 N 1061.28 -1.12907 1.09954 0
M  V30 11452 C 1062.52 -1.83661 0.833761 0
M  V30 11453 C 1062.84 -1.84736 -0.642798 0
M  V30 11454 O 1064.04 -2.51437 -1.0243 0
M  V30 11455 C 1062.5 -3.29763 1.44168 0
M  V30 11456 C 1062.11 -3.3706 2.95118 0
M  V30 11457 C 1063.85 -4.05522 1.25509 0
M  V30 11458 C 1061.76 -4.77467 3.48969 0
M  V30 11459 H 1060.69 -0.688115 0.308242 0
M  V30 11460 H 1063.34 -1.27166 1.32291 0
M  V30 11461 H 1061.72 -3.86094 0.880215 0
M  V30 11462 H 1062.9 -2.90695 3.57537 0
M  V30 11463 H 1061.21 -2.7477 3.12874 0
M  V30 11464 H 1063.81 -5.09188 1.63191 0
M  V30 11465 H 1064.15 -4.15837 0.196208 0
M  V30 11466 H 1064.68 -3.55536 1.78435 0
M  V30 11467 H 1061.42 -4.72344 4.54501 0
M  V30 11468 H 1060.94 -5.24305 2.91315 0
M  V30 11469 H 1062.62 -5.46397 3.46495 0
M  V30 11470 N 1062.75 -0.88754 -1.30232 0
M  V30 11471 C 1063.66 -0.360333 -2.31816 0
M  V30 11472 C 1064.68 0.538741 -1.6545 0
M  V30 11473 O 1065.86 0.431246 -1.96729 0
M  V30 11474 C 1062.92 0.414336 -3.44215 0
M  V30 11475 C 1061.98 -0.514799 -4.26202 0
M  V30 11476 C 1061.21 0.222994 -5.33234 0
M  V30 11477 O 1061.44 1.44871 -5.51696 0
M  V30 11478 O 1060.37 -0.428221 -6.00375 0
M  V30 11479 H 1064.2 -1.20279 -2.78867 0
M  V30 11480 H 1061.78 -0.651459 -1.34448 0
M  V30 11481 H 1063.66 0.852859 -4.12679 0
M  V30 11482 H 1062.34 1.23305 -2.99295 0
M  V30 11483 H 1061.25 -1.00219 -3.60426 0
M  V30 11484 H 1062.58 -1.29959 -4.74733 0
M  V30 11485 N 1064.23 1.43628 -0.648757 0
M  V30 11486 C 1065.46 2.06732 -0.166284 0
M  V30 11487 C 1065.88 1.48281 1.15734 0
M  V30 11488 O 1065.24 0.591018 1.71396 0
M  V30 11489 C 1065.29 3.60502 -0.0838732 0
M  V30 11490 O 1064.39 4.01186 0.955185 0
M  V30 11491 H 1063.73 0.657479 -0.0928285 0
M  V30 11492 H 1066.26 1.84208 -0.890421 0
M  V30 11493 H 1066.27 4.07875 0.100923 0
M  V30 11494 H 1064.95 4.02424 -1.05014 0
M  V30 11495 H 1063.53 3.65412 0.743537 0
M  V30 11496 N 1065.71 0.390394 1.52688 0
M  V30 11497 C 1066.66 -0.444229 2.26485 0
M  V30 11498 C 1067.63 -1.05688 1.28138 0
M  V30 11499 O 1068.81 -1.0847 1.56968 0
M  V30 11500 C 1065.95 -1.56501 3.07574 0
M  V30 11501 C 1065.07 -0.975111 4.20851 0
M  V30 11502 C 1064.2 -2.06704 4.89333 0
M  V30 11503 C 1063.24 -1.45309 5.94602 0
M  V30 11504 N 1062.38 -2.48437 6.56676 0
M  V30 11505 H 1067.22 0.191535 2.97384 0
M  V30 11506 H 1064.75 0.106287 1.46716 0
M  V30 11507 H 1066.71 -2.22558 3.52879 0
M  V30 11508 H 1065.34 -2.17107 2.38881 0
M  V30 11509 H 1064.39 -0.204109 3.79852 0
M  V30 11510 H 1065.71 -0.486465 4.96422 0
M  V30 11511 H 1064.86 -2.80528 5.37949 0
M  V30 11512 H 1063.6 -2.58928 4.13289 0
M  V30 11513 H 1062.6 -0.700091 5.45324 0
M  V30 11514 H 1063.83 -0.938775 6.7258 0
M  V30 11515 H 1061.77 -2.99829 5.83471 0
M  V30 11516 H 1061.69 -2.04331 7.27863 0
M  V30 11517 H 1062.96 -3.21888 7.09935 0
M  V30 11518 N 1067.19 -1.57141 0.120249 0
M  V30 11519 C 1068.42 -1.993 -0.544346 0
M  V30 11520 C 1068.83 -0.998858 -1.60684 0
M  V30 11521 O 1068.17 0.0162197 -1.83693 0
M  V30 11522 C 1068.23 -3.37874 -1.22808 0
M  V30 11523 C 1067.9 -4.55924 -0.313374 0
M  V30 11524 C 1068.89 -5.17962 0.448501 0
M  V30 11525 C 1066.58 -5.018 -0.224082 0
M  V30 11526 C 1068.57 -6.24264 1.28739 0
M  V30 11527 C 1066.26 -6.07963 0.618437 0
M  V30 11528 C 1067.26 -6.69061 1.3728 0
M  V30 11529 O 1066.94 -7.73173 2.20133 0
M  V30 11530 H 1066.68 -0.659466 -0.148596 0
M  V30 11531 H 1069.23 -2.04387 0.203779 0
M  V30 11532 H 1067.46 -3.29545 -2.02329 0
M  V30 11533 H 1069.15 -3.64314 -1.7897 0
M  V30 11534 H 1069.92 -4.83434 0.389395 0
M  V30 11535 H 1065.79 -4.53989 -0.80094 0
M  V30 11536 H 1069.34 -6.71883 1.87667 0
M  V30 11537 H 1065.24 -6.4192 0.678932 0
M  V30 11538 H 1066 -7.90276 2.13088 0
M  V30 11539 N 1068.67 0.153526 -1.5685 0
M  V30 11540 C 1069.61 1.20896 -1.98713 0
M  V30 11541 C 1070.61 1.44839 -0.878529 0
M  V30 11542 O 1071.81 1.45208 -1.0637 0
M  V30 11543 H 1068.19 0.406797 -0.632472 0
M  V30 11544 H 1070.16 0.829145 -2.86649 0
M  V30 11545 C 1068.91 2.53642 -2.37825 0
M  V30 11546 H 1068.23 2.36047 -3.22679 0
M  V30 11547 H 1069.67 3.26136 -2.70946 0
M  V30 11548 C 1068.13 3.13706 -1.22841 0
M  V30 11549 O 1068.66 3.98246 -0.525626 0
M  V30 11550 N 1066.87 2.73059 -0.99435 0
M  V30 11551 H 1066.41 2.0441 -1.56761 0
M  V30 11552 H 1066.37 3.1358 -0.226883 0
M  V30 11553 N 1070.14 1.51827 0.422667 0
M  V30 11554 C 1071.37 1.69337 1.19748 0
M  V30 11555 C 1071.79 0.396312 1.83878 0
M  V30 11556 O 1071.15 -0.644976 1.6944 0
M  V30 11557 C 1071.2 2.82082 2.24637 0
M  V30 11558 O 1070.3 2.46708 3.30468 0
M  V30 11559 H 1069.65 0.564154 0.35018 0
M  V30 11560 H 1072.18 1.98465 0.497289 0
M  V30 11561 H 1072.19 3.06599 2.69186 0
M  V30 11562 H 1070.86 3.76195 1.77341 0
M  V30 11563 H 1069.44 2.32815 2.91293 0
M  V30 11564 N 1071.62 -0.679052 1.4222 0
M  V30 11565 C 1072.85 -1.46534 1.45641 0
M  V30 11566 C 1073.26 -1.89088 0.0649574 0
M  V30 11567 O 1072.6 -1.58436 -0.929712 0
M  V30 11568 C 1072.67 -2.74882 2.3169 0
M  V30 11569 C 1072.33 -2.5443 3.79624 0
M  V30 11570 C 1073.33 -2.19307 4.71382 0
M  V30 11571 C 1071.01 -2.69557 4.23845 0
M  V30 11572 C 1073.01 -1.99571 6.05351 0
M  V30 11573 C 1070.69 -2.49437 5.57875 0
M  V30 11574 C 1071.69 -2.14497 6.48444 0
M  V30 11575 O 1071.38 -1.94567 7.79999 0
M  V30 11576 H 1071.11 -0.457542 0.497626 0
M  V30 11577 H 1073.66 -0.842145 1.87342 0
M  V30 11578 H 1071.89 -3.39669 1.8483 0
M  V30 11579 H 1073.58 -3.3675 2.26615 0
M  V30 11580 H 1074.35 -2.0722 4.38503 0
M  V30 11581 H 1070.23 -2.95733 3.53642 0
M  V30 11582 H 1073.77 -1.72222 6.76007 0
M  V30 11583 H 1069.67 -2.61119 5.90328 0
M  V30 11584 H 1070.44 -2.092 7.91314 0
M  V30 11585 N 1073.1 -1.28322 -0.914942 0
M  V30 11586 C 1074.33 -1.18254 -1.69775 0
M  V30 11587 C 1074.74 0.258978 -1.87015 0
M  V30 11588 O 1074.1 1.17514 -1.3963 0
M  V30 11589 C 1074.15 -1.8753 -3.09054 0
M  V30 11590 O 1073.87 -3.26051 -2.92613 0
M  V30 11591 C 1075.37 -1.83749 -4.03424 0
M  V30 11592 H 1072.59 -0.41055 -0.530744 0
M  V30 11593 H 1075.14 -1.69425 -1.14523 0
M  V30 11594 H 1073.29 -1.40233 -3.61128 0
M  V30 11595 H 1073.71 -3.60729 -3.80756 0
M  V30 11596 H 1075.18 -2.36813 -4.98622 0
M  V30 11597 H 1075.66 -0.809601 -4.31674 0
M  V30 11598 H 1076.26 -2.3072 -3.57279 0
M  V30 11599 N 1074.58 1.12322 -1.10551 0
M  V30 11600 C 1075.51 2.20176 -0.777486 0
M  V30 11601 C 1076.49 1.68252 0.250069 0
M  V30 11602 O 1077.67 1.93856 0.115574 0
M  V30 11603 C 1074.8 3.46666 -0.209822 0
M  V30 11604 C 1073.76 4.11749 -1.1682 0
M  V30 11605 C 1073.08 5.32703 -0.461684 0
M  V30 11606 C 1074.38 4.57746 -2.51527 0
M  V30 11607 H 1076.08 2.47872 -1.67928 0
M  V30 11608 H 1073.62 1.19136 -0.808863 0
M  V30 11609 H 1075.58 4.21388 0.0318068 0
M  V30 11610 H 1074.3 3.18401 0.727226 0
M  V30 11611 H 1072.96 3.39009 -1.3953 0
M  V30 11612 H 1072.61 5.00706 0.479875 0
M  V30 11613 H 1072.31 5.77197 -1.1008 0
M  V30 11614 H 1073.83 6.10172 -0.228629 0
M  V30 11615 H 1075.25 5.23835 -2.32958 0
M  V30 11616 H 1073.64 5.13021 -3.11335 0
M  V30 11617 H 1074.71 3.71667 -3.11435 0
M  V30 11618 N 1076.06 0.894434 1.2976 0
M  V30 11619 C 1076.97 0.372622 2.31622 0
M  V30 11620 C 1077.98 -0.52996 1.65733 0
M  V30 11621 O 1079.16 -0.420807 1.96955 0
M  V30 11622 C 1076.22 -0.396076 3.4443 0
M  V30 11623 C 1075.28 0.537394 4.25923 0
M  V30 11624 C 1074.52 -0.194713 5.33345 0
M  V30 11625 O 1074.74 -1.41943 5.52457 0
M  V30 11626 O 1073.67 0.460055 6.00139 0
M  V30 11627 H 1077.5 1.21756 2.78225 0
M  V30 11628 H 1075.09 0.65858 1.34101 0
M  V30 11629 H 1076.97 -0.830962 4.13126 0
M  V30 11630 H 1075.64 -1.21716 2.99945 0
M  V30 11631 H 1074.55 1.02129 3.5989 0
M  V30 11632 H 1075.88 1.32475 4.74037 0
M  V30 11633 N 1077.53 -1.43282 0.656365 0
M  V30 11634 C 1078.44 -2.34576 -0.033864 0
M  V30 11635 C 1079.46 -1.5406 -0.808793 0
M  V30 11636 O 1080.64 -1.867 -0.755322 0
M  V30 11637 C 1077.7 -3.32378 -0.986197 0
M  V30 11638 C 1076.76 -4.28797 -0.207851 0
M  V30 11639 C 1076 -5.21927 -1.11482 0
M  V30 11640 O 1076.22 -5.19554 -2.35414 0
M  V30 11641 O 1075.15 -5.99045 -0.585536 0
M  V30 11642 H 1078.98 -2.95099 0.717668 0
M  V30 11643 H 1076.56 -1.43475 0.416556 0
M  V30 11644 H 1078.45 -3.9251 -1.53341 0
M  V30 11645 H 1077.12 -2.74354 -1.7179 0
M  V30 11646 H 1076.03 -3.72134 0.383022 0
M  V30 11647 H 1077.36 -4.89811 0.48435 0
M  V30 11648 N 1079.01 -0.398486 -1.52479 0
M  V30 11649 C 1079.96 0.432212 -2.26717 0
M  V30 11650 C 1080.93 1.05007 -1.28696 0
M  V30 11651 O 1082.12 1.07636 -1.57541 0
M  V30 11652 C 1079.26 1.54868 -3.08399 0
M  V30 11653 C 1078.37 0.952779 -4.21362 0
M  V30 11654 C 1077.5 2.04106 -4.90423 0
M  V30 11655 C 1076.54 1.42153 -5.95364 0
M  V30 11656 N 1075.68 2.44951 -6.57984 0
M  V30 11657 H 1080.52 -0.207303 -2.97278 0
M  V30 11658 H 1078.06 -0.114066 -1.46657 0
M  V30 11659 H 1080.01 2.20684 -3.54054 0
M  V30 11660 H 1078.64 2.15837 -2.4003 0
M  V30 11661 H 1077.7 0.183962 -3.79955 0
M  V30 11662 H 1079.01 0.460131 -4.96673 0
M  V30 11663 H 1078.16 2.77672 -5.39429 0
M  V30 11664 H 1076.9 2.56733 -4.14656 0
M  V30 11665 H 1075.91 0.671161 -5.45688 0
M  V30 11666 H 1077.13 0.903093 -6.73068 0
M  V30 11667 H 1075.08 2.9673 -5.85053 0
M  V30 11668 H 1074.99 2.00468 -7.28937 0
M  V30 11669 H 1076.26 3.18119 -7.11632 0
M  V30 11670 N 1080.49 1.57075 -0.12858 0
M  V30 11671 C 1081.44 2.17084 0.835308 0
M  V30 11672 C 1082.43 1.12268 1.26855 0
M  V30 11673 O 1083.64 1.30554 1.23917 0
M  V30 11674 H 1080.01 0.694866 0.287516 0
M  V30 11675 H 1081.99 2.96839 0.304798 0
M  V30 11676 C 1080.73 2.79237 2.07177 0
M  V30 11677 H 1080.06 3.59594 1.74735 0
M  V30 11678 H 1081.5 3.24751 2.72604 0
M  V30 11679 C 1079.96 1.76803 2.86779 0
M  V30 11680 O 1080.49 1.22723 3.82494 0
M  V30 11681 N 1078.69 1.46525 2.50956 0
M  V30 11682 H 1078.24 1.90694 1.73187 0
M  V30 11683 H 1078.2 0.782326 3.04511 0
M  V30 11684 N 1081.97 -0.145205 1.5693 0
M  V30 11685 C 1082.88 -1.19864 2.01667 0
M  V30 11686 C 1083.9 -1.46909 0.932402 0
M  V30 11687 O 1085.07 -1.58543 1.24201 0
M  V30 11688 C 1082.14 -2.51174 2.38982 0
M  V30 11689 C 1081.2 -2.3176 3.61366 0
M  V30 11690 C 1080.43 -3.56809 3.96892 0
M  V30 11691 O 1080.65 -4.63063 3.33059 0
M  V30 11692 O 1079.59 -3.49366 4.9013 0
M  V30 11693 H 1083.41 -0.848821 2.91597 0
M  V30 11694 H 1081 -0.354063 1.45144 0
M  V30 11695 H 1082.88 -3.28587 2.63835 0
M  V30 11696 H 1081.56 -2.85683 1.52207 0
M  V30 11697 H 1080.46 -1.52293 3.41698 0
M  V30 11698 H 1081.8 -2.02167 4.48764 0
M  V30 11699 N 1083.45 -1.52049 -0.414609 0
M  V30 11700 C 1084.38 -1.77956 -1.51175 0
M  V30 11701 C 1085.36 -0.630282 -1.57992 0
M  V30 11702 O 1086.54 -0.875324 -1.73354 0
M  V30 11703 C 1083.67 -1.92527 -2.89051 0
M  V30 11704 C 1082.63 -3.08096 -2.97087 0
M  V30 11705 C 1081.95 -3.07882 -4.37164 0
M  V30 11706 C 1083.25 -4.47656 -2.69075 0
M  V30 11707 H 1084.95 -2.69827 -1.29746 0
M  V30 11708 H 1082.49 -1.29839 -0.62273 0
M  V30 11709 H 1084.45 -2.09234 -3.65786 0
M  V30 11710 H 1083.17 -0.973235 -3.11762 0
M  V30 11711 H 1081.83 -2.91131 -2.22797 0
M  V30 11712 H 1081.48 -2.10411 -4.56877 0
M  V30 11713 H 1081.18 -3.85501 -4.43467 0
M  V30 11714 H 1082.7 -3.26712 -5.15841 0
M  V30 11715 H 1084.12 -4.64855 -3.35534 0
M  V30 11716 H 1082.51 -5.27151 -2.8676 0
M  V30 11717 H 1083.58 -4.56129 -1.64544 0
M  V30 11718 N 1084.93 0.6715 -1.42579 0
M  V30 11719 C 1086.15 1.45972 -1.46628 0
M  V30 11720 C 1086.57 1.88636 -0.0785986 0
M  V30 11721 O 1085.93 1.58345 0.907372 0
M  V30 11722 C 1085.98 2.70668 -2.39627 0
M  V30 11723 O 1085.7 2.29793 -3.72997 0
M  V30 11724 C 1087.2 3.64201 -2.52731 0
M  V30 11725 H 1084.42 0.449044 -0.498598 0
M  V30 11726 H 1086.96 0.824811 -1.87129 0
M  V30 11727 H 1085.12 3.3034 -2.02371 0
M  V30 11728 H 1085.53 3.10341 -4.22834 0
M  V30 11729 H 1087.01 4.48412 -3.21918 0
M  V30 11730 H 1087.48 4.10323 -1.56626 0
M  V30 11731 H 1088.09 3.1042 -2.90722 0
M  V30 11732 N 1086.4 1.28806 0.908124 0
M  V30 11733 C 1087.35 1.13083 2.03261 0
M  V30 11734 C 1088.35 0.0486094 1.6933 0
M  V30 11735 O 1089.55 0.207794 1.78797 0
M  V30 11736 H 1085.93 0.349057 0.666081 0
M  V30 11737 H 1087.9 2.08304 2.13663 0
M  V30 11738 C 1086.65 0.815339 3.38005 0
M  V30 11739 H 1085.97 1.64007 3.64612 0
M  V30 11740 H 1087.41 0.745311 4.17398 0
M  V30 11741 C 1085.87 -0.48113 3.33447 0
M  V30 11742 O 1086.4 -1.50974 3.7225 0
M  V30 11743 N 1084.6 -0.483912 2.86543 0
M  V30 11744 H 1084.15 0.353593 2.55162 0
M  V30 11745 H 1084.11 -1.35138 2.83875 0
M  V30 11746 N 1087.88 -1.11734 1.11145 0
M  V30 11747 C 1088.83 -2.17683 0.766979 0
M  V30 11748 C 1089.8 -1.64051 -0.260108 0
M  V30 11749 O 1090.98 -1.90302 -0.137723 0
M  V30 11750 C 1088.12 -3.44442 0.212982 0
M  V30 11751 C 1087.24 -4.12094 1.29626 0
M  V30 11752 C 1086.37 -5.26526 0.703127 0
M  V30 11753 C 1085.41 -5.86057 1.76647 0
M  V30 11754 N 1084.55 -6.91889 1.19306 0
M  V30 11755 H 1089.39 -2.46495 1.67465 0
M  V30 11756 H 1086.92 -1.21011 0.836353 0
M  V30 11757 H 1088.88 -4.17009 -0.126162 0
M  V30 11758 H 1087.51 -3.16025 -0.657888 0
M  V30 11759 H 1086.56 -3.37631 1.75241 0
M  V30 11760 H 1087.88 -4.52398 2.10089 0
M  V30 11761 H 1087.03 -6.05888 0.313859 0
M  V30 11762 H 1085.77 -4.87519 -0.132856 0
M  V30 11763 H 1084.77 -5.05375 2.16508 0
M  V30 11764 H 1086 -6.27132 2.60543 0
M  V30 11765 H 1083.95 -6.54906 0.378664 0
M  V30 11766 H 1083.86 -7.30832 1.93443 0
M  V30 11767 H 1085.13 -7.75062 0.830578 0
M  V30 11768 N 1089.36 -0.901303 -1.29284 0
M  V30 11769 C 1090.59 -0.542723 -1.99344 0
M  V30 11770 C 1091 0.877357 -1.67628 0
M  V30 11771 O 1090.34 1.59088 -0.918515 0
M  V30 11772 C 1090.4 -0.657088 -3.53444 0
M  V30 11773 C 1090.07 -2.04444 -4.0872 0
M  V30 11774 C 1091.06 -3.01577 -4.23494 0
M  V30 11775 C 1088.75 -2.35425 -4.43712 0
M  V30 11776 C 1090.74 -4.27816 -4.72496 0
M  V30 11777 C 1088.43 -3.61906 -4.9241 0
M  V30 11778 C 1089.43 -4.57916 -5.06757 0
M  V30 11779 O 1089.12 -5.8215 -5.54397 0
M  V30 11780 H 1088.85 -0.206742 -0.64361 0
M  V30 11781 H 1091.4 -1.21311 -1.65749 0
M  V30 11782 H 1089.63 0.0703305 -3.86636 0
M  V30 11783 H 1091.32 -0.307425 -4.04734 0
M  V30 11784 H 1092.09 -2.78957 -3.96747 0
M  V30 11785 H 1087.97 -1.61454 -4.31803 0
M  V30 11786 H 1091.51 -5.0276 -4.83609 0
M  V30 11787 H 1087.41 -3.84356 -5.18595 0
M  V30 11788 H 1088.17 -5.84762 -5.72709 0
M  V30 11789 N 1090.84 1.42931 -0.663954 0
M  V30 11790 C 1092.11 1.95284 -0.111174 0
M  V30 11791 C 1092.49 1.60484 1.37142 0
M  V30 11792 O 1091.84 0.895425 2.10225 0
M  V30 11793 C 1092.05 3.47046 -0.368789 0
M  V30 11794 C 1093.4 4.23679 -0.279473 0
M  V30 11795 O 1094.42 3.54918 -0.301937 0
M  V30 11796 O 1093.28 5.46087 -0.21236 0
M  V30 11797 H 1090.38 0.826993 0.00341718 0
M  V30 11798 H 1092.92 1.52816 -0.737935 0
M  V30 11799 H 1091.7 3.65541 -1.39626 0
M  V30 11800 H 1091.32 3.96537 0.290514 0
M  V30 11801 N 1092.32 0.406567 1.52266 0
M  V30 11802 C 1093.56 -0.171391 2.00971 0
M  V30 11803 C 1093.88 -1.46443 1.29668 0
M  V30 11804 O 1095.08 -2.12348 1.69176 0
M  V30 11805 C 1093.54 -0.35599 3.58135 0
M  V30 11806 C 1093.15 0.924803 4.38351 0
M  V30 11807 C 1094.89 -0.889378 4.15079 0
M  V30 11808 C 1092.8 0.707534 5.87152 0
M  V30 11809 H 1091.73 -0.0678253 0.750943 0
M  V30 11810 H 1094.38 0.531619 1.7563 0
M  V30 11811 H 1092.76 -1.12127 3.79794 0
M  V30 11812 H 1093.94 1.69603 4.28452 0
M  V30 11813 H 1092.25 1.38442 3.92712 0
M  V30 11814 H 1094.85 -1.06792 5.23927 0
M  V30 11815 H 1095.19 -1.86334 3.7227 0
M  V30 11816 H 1095.72 -0.183224 3.97378 0
M  V30 11817 H 1092.46 1.65299 6.34316 0
M  V30 11818 H 1091.98 -0.024446 5.99795 0
M  V30 11819 H 1093.66 0.348721 6.4606 0
M  V30 11820 N 1093.79 -1.57004 0.136909 0
M  V30 11821 C 1094.74 -2.16246 -0.806607 0
M  V30 11822 C 1095.71 -1.09246 -1.25118 0
M  V30 11823 O 1096.9 -1.3724 -1.32551 0
M  V30 11824 C 1094.04 -2.78031 -2.04433 0
M  V30 11825 C 1093.15 -3.99393 -1.64649 0
M  V30 11826 C 1092.28 -4.49208 -2.83524 0
M  V30 11827 C 1091.32 -5.63059 -2.40064 0
M  V30 11828 N 1090.46 -6.07537 -3.51913 0
M  V30 11829 H 1095.3 -2.9654 -0.294596 0
M  V30 11830 H 1092.84 -1.46491 -0.133705 0
M  V30 11831 H 1094.8 -3.11992 -2.76978 0
M  V30 11832 H 1093.43 -2.00398 -2.53062 0
M  V30 11833 H 1092.48 -3.71477 -0.819077 0
M  V30 11834 H 1093.79 -4.81904 -1.28723 0
M  V30 11835 H 1092.94 -4.85171 -3.64271 0
M  V30 11836 H 1091.68 -3.65683 -3.22688 0
M  V30 11837 H 1090.69 -5.26682 -1.57754 0
M  V30 11838 H 1091.91 -6.48362 -2.01997 0
M  V30 11839 H 1089.86 -5.2695 -3.90717 0
M  V30 11840 H 1089.78 -6.84949 -3.1997 0
M  V30 11841 H 1091.04 -6.48143 -4.33048 0
M  V30 11842 N 1095.27 0.136881 -1.57004 0
M  V30 11843 C 1096.2 1.19402 -1.95642 0
M  V30 11844 C 1097.22 1.38635 -0.853478 0
M  V30 11845 O 1098.41 1.38027 -1.13185 0
M  V30 11846 C 1095.51 2.55716 -2.22402 0
M  V30 11847 C 1094.68 2.57325 -3.53698 0
M  V30 11848 C 1093.74 3.75253 -3.68879 0
M  V30 11849 O 1092.76 3.5966 -4.41173 0
M  V30 11850 N 1093.97 4.93112 -3.06302 0
M  V30 11851 H 1096.73 0.865504 -2.8693 0
M  V30 11852 H 1094.29 0.326346 -1.58577 0
M  V30 11853 H 1096.28 3.33135 -2.29789 0
M  V30 11854 H 1094.85 2.80819 -1.37329 0
M  V30 11855 H 1094.07 1.65749 -3.5766 0
M  V30 11856 H 1095.36 2.55441 -4.40031 0
M  V30 11857 H 1094.76 5.08684 -2.47502 0
M  V30 11858 H 1093.32 5.68271 -3.19236 0
M  V30 11859 N 1096.75 1.52266 0.40654 0
M  V30 11860 C 1098 1.6568 1.15035 0
M  V30 11861 C 1098.31 0.394135 1.91588 0
M  V30 11862 O 1099.52 0.408113 2.68415 0
M  V30 11863 C 1097.97 2.92725 2.0938 0
M  V30 11864 C 1097.58 4.26108 1.38332 0
M  V30 11865 C 1099.33 3.15502 2.84004 0
M  V30 11866 C 1097.23 5.44275 2.3134 0
M  V30 11867 H 1096.16 0.61719 0.43312 0
M  V30 11868 H 1098.81 1.78755 0.414598 0
M  V30 11869 H 1097.2 2.73355 2.86519 0
M  V30 11870 H 1098.37 4.55971 0.665396 0
M  V30 11871 H 1096.69 4.09454 0.757384 0
M  V30 11872 H 1099.28 4.00964 3.5374 0
M  V30 11873 H 1099.63 2.29842 3.471 0
M  V30 11874 H 1100.16 3.35357 2.13964 0
M  V30 11875 H 1096.9 6.3229 1.72887 0
M  V30 11876 H 1096.42 5.18749 3.01098 0
M  V30 11877 H 1098.1 5.77457 2.91809 0
M  V30 11878 N 1098.23 -0.663929 1.42933 0
M  V30 11879 C 1099.14 -1.80643 1.49683 0
M  V30 11880 C 1100.15 -1.69694 0.38472 0
M  V30 11881 O 1101.33 -1.91052 0.637256 0
M  V30 11882 C 1098.4 -3.16858 1.4072 0
M  V30 11883 C 1097.46 -3.39684 2.62514 0
M  V30 11884 C 1096.69 -4.69399 2.53969 0
M  V30 11885 O 1096.91 -5.48037 1.58152 0
M  V30 11886 O 1095.85 -4.93709 3.44289 0
M  V30 11887 H 1099.67 -1.77903 2.46138 0
M  V30 11888 H 1097.26 -0.821059 1.24816 0
M  V30 11889 H 1099.14 -3.9812 1.38124 0
M  V30 11890 H 1097.81 -3.20211 0.473954 0
M  V30 11891 H 1096.72 -2.58227 2.70684 0
M  V30 11892 H 1098.05 -3.41169 3.54774 0
M  V30 11893 N 1099.71 -1.29285 -0.901281 0
M  V30 11894 C 1100.65 -1.14159 -2.02659 0
M  V30 11895 C 1101.65 -0.0575887 -1.69302 0
M  V30 11896 O 1102.85 -0.217273 -1.78684 0
M  V30 11897 H 1099.23 -0.352584 -0.66422 0
M  V30 11898 H 1101.2 -2.09434 -2.12555 0
M  V30 11899 C 1099.95 -0.833253 -3.37568 0
M  V30 11900 H 1099.27 -1.65939 -3.63737 0
M  V30 11901 H 1100.71 -0.767436 -4.16997 0
M  V30 11902 C 1099.17 0.46344 -3.33697 0
M  V30 11903 O 1099.7 1.48998 -3.73045 0
M  V30 11904 N 1097.91 0.468709 -2.86795 0
M  V30 11905 H 1097.45 -0.36712 -2.54971 0
M  V30 11906 H 1097.41 1.3363 -2.84588 0
M  V30 11907 N 1101.18 1.11143 -1.11736 0
M  V30 11908 C 1102.09 2.20851 -0.791331 0
M  V30 11909 C 1103.11 1.72644 0.216833 0
M  V30 11910 O 1104.29 2.01332 0.0522401 0
M  V30 11911 C 1101.35 3.4585 -0.242694 0
M  V30 11912 C 1100.41 4.08829 -1.30986 0
M  V30 11913 C 1099.65 5.27861 -0.787305 0
M  V30 11914 O 1099.87 5.69122 0.381549 0
M  V30 11915 O 1098.8 5.81506 -1.55352 0
M  V30 11916 H 1102.63 2.51158 -1.70744 0
M  V30 11917 H 1100.21 1.19739 -0.893478 0
M  V30 11918 H 1102.1 4.21359 0.0587472 0
M  V30 11919 H 1100.77 3.17187 0.646079 0
M  V30 11920 H 1099.68 3.35037 -1.66436 0
M  V30 11921 H 1101.01 4.41678 -2.17213 0
M  V30 11922 N 1102.66 0.908147 1.28804 0
M  V30 11923 C 1103.59 0.409106 2.29888 0
M  V30 11924 C 1104.57 -0.520338 1.61946 0
M  V30 11925 O 1105.76 -0.429268 1.89396 0
M  V30 11926 C 1102.89 -0.35669 3.45463 0
M  V30 11927 C 1101.84 0.4831 4.25265 0
M  V30 11928 C 1101.17 -0.4107 5.3312 0
M  V30 11929 C 1102.47 1.73744 4.92555 0
M  V30 11930 H 1104.16 1.25386 2.7188 0
M  V30 11931 H 1101.71 0.604368 1.30703 0
M  V30 11932 H 1103.66 -0.71661 4.15262 0
M  V30 11933 H 1102.39 -1.2353 3.02337 0
M  V30 11934 H 1101.04 0.825464 3.57186 0
M  V30 11935 H 1100.69 -1.28769 4.86238 0
M  V30 11936 H 1100.39 0.14756 5.87415 0
M  V30 11937 H 1101.92 -0.766626 6.05768 0
M  V30 11938 H 1103.33 1.44676 5.54745 0
M  V30 11939 H 1101.73 2.23767 5.5682 0
M  V30 11940 H 1102.8 2.46853 4.17363 0
M  V30 11941 N 1104.14 -1.42577 0.671525 0
M  V30 11942 C 1105.09 -2.32591 -0.0205354 0
M  V30 11943 C 1106.08 -1.4964 -0.793993 0
M  V30 11944 O 1107.29 -1.65733 -0.702327 0
M  V30 11945 H 1103.66 -0.75157 -0.0254344 0
M  V30 11946 H 1105.63 -2.88662 0.756082 0
M  V30 11947 C 1104.38 -3.34175 -0.960316 0
M  V30 11948 H 1103.71 -3.98041 -0.374577 0
M  V30 11949 H 1105.15 -3.99752 -1.4133 0
M  V30 11950 C 1103.61 -2.66184 -2.06513 0
M  V30 11951 O 1104.14 -2.49125 -3.15119 0
M  V30 11952 N 1102.34 -2.25261 -1.83591 0
M  V30 11953 H 1101.89 -2.39336 -0.952689 0
M  V30 11954 H 1101.85 -1.80101 -2.57703 0
M  V30 11955 N 1105.62 -0.414636 -1.52048 0
M  V30 11956 C 1106.55 0.443601 -2.24866 0
M  V30 11957 C 1107.56 1.00556 -1.28032 0
M  V30 11958 O 1108.75 0.903566 -1.53941 0
M  V30 11959 C 1105.85 1.63004 -2.97124 0
M  V30 11960 C 1105.03 1.191 -4.20873 0
M  V30 11961 C 1104.08 2.24497 -4.75907 0
M  V30 11962 O 1103.11 1.84861 -5.38345 0
M  V30 11963 N 1104.31 3.56727 -4.57959 0
M  V30 11964 H 1107.08 -0.180393 -2.99157 0
M  V30 11965 H 1104.64 -0.242305 -1.60077 0
M  V30 11966 H 1106.63 2.33089 -3.30835 0
M  V30 11967 H 1105.2 2.15984 -2.25986 0
M  V30 11968 H 1104.42 0.318059 -3.92915 0
M  V30 11969 H 1105.71 0.874699 -5.01225 0
M  V30 11970 H 1105.11 3.91675 -4.08175 0
M  V30 11971 H 1103.66 4.22772 -4.96092 0
M  V30 11972 N 1107.1 1.56929 -0.145233 0
M  V30 11973 C 1108.04 2.16671 0.795128 0
M  V30 11974 C 1109.01 1.09908 1.24537 0
M  V30 11975 O 1110.2 1.37941 1.31821 0
M  V30 11976 C 1107.34 2.79111 2.02956 0
M  V30 11977 C 1106.45 4.00261 1.62528 0
M  V30 11978 C 1105.59 4.50705 2.81137 0
M  V30 11979 C 1104.63 5.64324 2.37075 0
M  V30 11980 N 1103.76 6.09395 3.48687 0
M  V30 11981 H 1108.6 2.96692 0.278865 0
M  V30 11982 H 1106.14 1.4656 0.125934 0
M  V30 11983 H 1108.1 3.13456 2.7532 0
M  V30 11984 H 1106.73 2.01737 2.51996 0
M  V30 11985 H 1105.78 3.71906 0.799365 0
M  V30 11986 H 1107.09 4.8258 1.26166 0
M  V30 11987 H 1106.25 4.87096 3.61693 0
M  V30 11988 H 1104.98 3.67389 3.20744 0
M  V30 11989 H 1103.99 5.27511 1.54958 0
M  V30 11990 H 1105.21 6.49425 1.98556 0
M  V30 11991 H 1103.16 5.29014 3.87917 0
M  V30 11992 H 1103.08 6.86636 3.16333 0
M  V30 11993 H 1104.35 6.50431 4.29605 0
M  V30 11994 N 1108.58 -0.128553 1.57075 0
M  V30 11995 C 1109.82 -0.839252 1.8462 0
M  V30 11996 C 1110.15 -1.79974 0.729582 0
M  V30 11997 O 1109.43 -1.92681 -0.265369 0
M  V30 11998 C 1109.71 -1.59756 3.22723 0
M  V30 11999 C 1109.57 -0.657313 4.44971 0
M  V30 12000 C 1110.88 -2.55592 3.58275 0
M  V30 12001 H 1108 -0.303652 0.671539 0
M  V30 12002 H 1110.65 -0.103802 1.89716 0
M  V30 12003 H 1108.8 -2.22451 3.18509 0
M  V30 12004 H 1110.47 -0.0399471 4.61283 0
M  V30 12005 H 1108.71 0.0318416 4.33788 0
M  V30 12006 H 1109.38 -1.22433 5.38251 0
M  V30 12007 H 1111.86 -2.03007 3.63218 0
M  V30 12008 H 1110.73 -3.05687 4.55902 0
M  V30 12009 H 1110.99 -3.37813 2.85193 0
M  V30 12010 N 1110.05 -1.5248 -0.398459 0
M  V30 12011 C 1111.28 -1.71221 -1.17039 0
M  V30 12012 C 1111.7 -0.425515 -1.83224 0
M  V30 12013 O 1111.06 0.617938 -1.70444 0
M  V30 12014 C 1111.11 -2.8562 -2.20121 0
M  V30 12015 O 1110.21 -2.51934 -3.26501 0
M  V30 12016 H 1109.55 -0.569654 -0.34116 0
M  V30 12017 H 1112.08 -1.99231 -0.465652 0
M  V30 12018 H 1112.09 -3.10842 -2.64275 0
M  V30 12019 H 1110.77 -3.78969 -1.71334 0
M  V30 12020 H 1109.35 -2.3742 -2.87552 0
M  V30 12021 N 1111.53 0.65634 -1.43283 0
M  V30 12022 C 1112.78 1.41212 -1.44021 0
M  V30 12023 C 1113.09 1.95485 -0.0669783 0
M  V30 12024 O 1114.3 2.71457 0.0481909 0
M  V30 12025 C 1112.76 2.55541 -2.5343 0
M  V30 12026 C 1112.36 2.07889 -3.96845 0
M  V30 12027 C 1114.11 3.3293 -2.63359 0
M  V30 12028 C 1112.01 3.19411 -4.97726 0
M  V30 12029 H 1110.94 0.530566 -0.535739 0
M  V30 12030 H 1113.6 0.708743 -1.6926 0
M  V30 12031 H 1111.98 3.28335 -2.21387 0
M  V30 12032 H 1113.15 1.42127 -4.38334 0
M  V30 12033 H 1111.47 1.43388 -3.90933 0
M  V30 12034 H 1114.06 4.1602 -3.35903 0
M  V30 12035 H 1114.41 3.80753 -1.68324 0
M  V30 12036 H 1114.94 2.67216 -2.94687 0
M  V30 12037 H 1111.68 2.7656 -5.94302 0
M  V30 12038 H 1111.2 3.83895 -4.60853 0
M  V30 12039 H 1112.88 3.84591 -5.20287 0
M  V30 12040 N 1113.01 1.29761 0.894412 0
M  V30 12041 C 1113.97 1.15335 1.98067 0
M  V30 12042 C 1114.97 0.0872804 1.60563 0
M  V30 12043 O 1116.16 0.334645 1.70955 0
M  V30 12044 C 1113.29 0.764907 3.32208 0
M  V30 12045 H 1114.49 2.11829 2.12293 0
M  V30 12046 H 1112.04 1.13023 1.0796 0
M  V30 12047 H 1112.78 -0.199948 3.23683 0
M  V30 12048 H 1112.56 1.53523 3.60795 0
M  V30 12049 H 1114.05 0.687176 4.11907 0
M  V30 12050 N 1114.49 -1.10549 1.12324 0
M  V30 12051 C 1115.42 -2.16081 0.733768 0
M  V30 12052 C 1116.4 -1.60266 -0.274511 0
M  V30 12053 O 1117.58 -1.87743 -0.168742 0
M  V30 12054 C 1114.71 -3.38591 0.0858914 0
M  V30 12055 C 1113.76 -4.13097 1.0608 0
M  V30 12056 S 1114.59 -4.68821 2.5878 0
M  V30 12057 C 1115.74 -5.94644 1.95319 0
M  V30 12058 H 1115.98 -2.48784 1.62769 0
M  V30 12059 H 1113.51 -1.22318 0.942209 0
M  V30 12060 H 1115.47 -4.09533 -0.281538 0
M  V30 12061 H 1114.13 -3.04129 -0.785122 0
M  V30 12062 H 1113.32 -5.00934 0.555095 0
M  V30 12063 H 1112.92 -3.4796 1.37112 0
M  V30 12064 H 1115.22 -6.65004 1.29523 0
M  V30 12065 H 1116.16 -6.49875 2.81191 0
M  V30 12066 H 1116.57 -5.4662 1.40951 0
M  V30 12067 N 1115.97 -0.914965 -1.28321 0
M  V30 12068 C 1116.91 -0.394477 -2.29231 0
M  V30 12069 C 1117.91 0.514481 -1.61398 0
M  V30 12070 O 1119.11 0.395591 -1.75599 0
M  V30 12071 H 1115.49 -0.108969 -0.744063 0
M  V30 12072 H 1117.46 -1.25862 -2.70557 0
M  V30 12073 C 1116.21 0.349134 -3.45943 0
M  V30 12074 H 1115.53 -0.341087 -3.98342 0
M  V30 12075 H 1116.97 0.677944 -4.18545 0
M  V30 12076 C 1115.43 1.55747 -2.98738 0
M  V30 12077 O 1115.96 2.65654 -3.01315 0
M  V30 12078 N 1114.17 1.40488 -2.54384 0
M  V30 12079 H 1113.71 0.510716 -2.52487 0
M  V30 12080 H 1113.67 2.21464 -2.23161 0
M  V30 12081 N 1117.44 1.42219 -0.679077 0
M  V30 12082 C 1118.39 2.32599 0.00820028 0
M  V30 12083 C 1119.39 1.50059 0.786046 0
M  V30 12084 O 1120.59 1.66103 0.693528 0
M  V30 12085 H 1116.97 0.751694 0.0214483 0
M  V30 12086 H 1118.94 2.88257 -0.77138 0
M  V30 12087 C 1117.69 3.3468 0.942581 0
M  V30 12088 H 1117.01 3.98234 0.353463 0
M  V30 12089 H 1118.45 4.00496 1.39208 0
M  V30 12090 C 1116.91 2.67275 2.05099 0
M  V30 12091 O 1117.44 2.50793 3.13793 0
M  V30 12092 N 1115.64 2.26232 1.82394 0
M  V30 12093 H 1115.19 2.39838 0.939983 0
M  V30 12094 H 1115.15 1.81465 2.56744 0
M  V30 12095 N 1118.92 0.422693 1.51826 0
M  V30 12096 C 1120.17 -0.150066 2.01141 0
M  V30 12097 C 1120.48 -1.45059 1.31214 0
M  V30 12098 O 1121.69 -2.10542 1.71419 0
M  V30 12099 C 1120.15 -0.317985 3.58492 0
M  V30 12100 C 1119.75 0.971244 4.37345 0
M  V30 12101 C 1121.5 -0.845303 4.15999 0
M  V30 12102 C 1119.4 0.769769 5.86369 0
M  V30 12103 H 1118.33 -0.0598567 0.75162 0
M  V30 12104 H 1120.99 0.550217 1.75057 0
M  V30 12105 H 1119.37 -1.08092 3.80962 0
M  V30 12106 H 1120.54 1.74138 4.26629 0
M  V30 12107 H 1118.86 1.42599 3.91222 0
M  V30 12108 H 1121.45 -1.01229 5.2503 0
M  V30 12109 H 1121.8 -1.82375 3.74226 0
M  V30 12110 H 1122.33 -0.141067 3.9755 0
M  V30 12111 H 1119.07 1.72017 6.32527 0
M  V30 12112 H 1118.59 0.0391717 5.99787 0
M  V30 12113 H 1120.27 0.417225 6.45653 0
M  V30 12114 N 1120.4 -1.5685 0.153553 0
M  V30 12115 C 1121.68 -1.8796 -0.541328 0
M  V30 12116 C 1122.06 -1.06059 -1.82523 0
M  V30 12117 O 1121.4 -0.149295 -2.28012 0
M  V30 12118 C 1121.61 -3.39697 -0.800442 0
M  V30 12119 C 1122.96 -4.09057 -1.13832 0
M  V30 12120 O 1123.99 -3.44913 -0.889578 0
M  V30 12121 O 1122.85 -5.22347 -1.60673 0
M  V30 12122 H 1119.94 -0.779268 -0.276895 0
M  V30 12123 H 1122.49 -1.68626 0.190657 0
M  V30 12124 H 1121.26 -3.91151 0.107935 0
M  V30 12125 H 1120.88 -3.64582 -1.58638 0
M  V30 12126 N 1121.88 0.120221 -1.57141 0
M  V30 12127 C 1123.29 0.473718 -1.52408 0
M  V30 12128 C 1123.49 1.81925 -0.866354 0
M  V30 12129 O 1122.55 2.48491 -0.448173 0
M  V30 12130 C 1123.86 0.459338 -2.97171 0
M  V30 12131 C 1125.41 0.542975 -3.08254 0
M  V30 12132 C 1125.89 0.558996 -4.54576 0
M  V30 12133 N 1127.38 0.620469 -4.59026 0
M  V30 12134 C 1128.11 0.654292 -5.69655 0
M  V30 12135 N 1127.61 0.645835 -6.89783 0
M  V30 12136 N 1129.4 0.697208 -5.57759 0
M  V30 12137 H 1121.55 -0.76142 -1.98283 0
M  V30 12138 H 1123.81 -0.280736 -0.905479 0
M  V30 12139 H 1123.52 -0.461654 -3.48657 0
M  V30 12140 H 1123.39 1.28759 -3.54543 0
M  V30 12141 H 1125.78 1.45439 -2.56772 0
M  V30 12142 H 1125.86 -0.312936 -2.53879 0
M  V30 12143 H 1125.51 -0.348367 -5.06704 0
M  V30 12144 H 1125.44 1.43177 -5.06762 0
M  V30 12145 H 1127.93 0.633218 -3.72557 0
M  V30 12146 H 1128.24 0.674233 -7.69853 0
M  V30 12147 H 1126.59 0.613279 -6.92289 0
M  V30 12148 H 1129.78 0.70117 -4.62819 0
M  V30 12149 H 1129.95 0.7201 -6.43986 0
M  V30 12150 N 1123.36 1.52689 0.390367 0
M  V30 12151 C 1124.6 1.67666 1.13553 0
M  V30 12152 C 1124.93 0.415903 1.90001 0
M  V30 12153 O 1124.19 -0.601664 1.86222 0
M  V30 12154 C 1124.49 2.86177 2.14096 0
M  V30 12155 C 1124.15 4.23671 1.54316 0
M  V30 12156 C 1122.81 4.61066 1.37739 0
M  V30 12157 C 1125.17 5.09278 1.1084 0
M  V30 12158 C 1122.49 5.81727 0.76231 0
M  V30 12159 C 1124.85 6.30562 0.507433 0
M  V30 12160 C 1123.51 6.66689 0.328945 0
M  V30 12161 H 1122.78 0.613533 0.415521 0
M  V30 12162 H 1125.43 1.8683 0.420339 0
M  V30 12163 H 1123.73 2.61424 2.9183 0
M  V30 12164 H 1125.43 2.9496 2.7166 0
M  V30 12165 H 1122.02 3.94214 1.68207 0
M  V30 12166 H 1126.2 4.80957 1.2245 0
M  V30 12167 H 1121.46 6.08327 0.612208 0
M  V30 12168 H 1125.63 6.96211 0.162248 0
M  V30 12169 H 1123.26 7.60052 -0.149748 0
M  V30 12170 N 1124.83 -0.648732 1.43629 0
M  V30 12171 C 1125.76 -1.77298 1.51947 0
M  V30 12172 C 1126.75 -1.65942 0.373785 0
M  V30 12173 O 1127.93 -1.8497 0.591596 0
M  V30 12174 C 1125.06 -3.15749 1.44638 0
M  V30 12175 C 1124.01 -3.41872 2.57502 0
M  V30 12176 C 1123.34 -4.8017 2.35246 0
M  V30 12177 C 1124.64 -3.36173 3.99731 0
M  V30 12178 H 1126.33 -1.70594 2.46045 0
M  V30 12179 H 1123.88 -0.819306 1.1842 0
M  V30 12180 H 1125.83 -3.94156 1.4906 0
M  V30 12181 H 1124.56 -3.23194 0.470466 0
M  V30 12182 H 1123.22 -2.65838 2.5244 0
M  V30 12183 H 1122.86 -4.84297 1.35887 0
M  V30 12184 H 1122.56 -4.9861 3.10906 0
M  V30 12185 H 1124.09 -5.6083 2.41459 0
M  V30 12186 H 1125.5 -4.0451 4.06257 0
M  V30 12187 H 1123.9 -3.66148 4.75453 0
M  V30 12188 H 1124.97 -2.34277 4.24549 0
M  V30 12189 N 1126.31 -1.30234 -0.887518 0
M  V30 12190 C 1127.54 -1.21829 -1.67229 0
M  V30 12191 C 1127.96 0.219251 -1.87523 0
M  V30 12192 O 1127.31 1.14526 -1.42091 0
M  V30 12193 C 1127.36 -1.94044 -3.05007 0
M  V30 12194 O 1127.08 -3.32185 -2.85631 0
M  V30 12195 C 1128.59 -1.92265 -3.99436 0
M  V30 12196 H 1125.81 -0.421716 -0.521916 0
M  V30 12197 H 1128.35 -1.71816 -1.10903 0
M  V30 12198 H 1126.5 -1.47861 -3.58072 0
M  V30 12199 H 1126.92 -3.68724 -3.73018 0
M  V30 12200 H 1128.39 -2.47336 -4.93486 0
M  V30 12201 H 1128.87 -0.900984 -4.29859 0
M  V30 12202 H 1129.48 -2.38247 -3.52305 0
M  V30 12203 N 1127.79 1.09952 -1.12909 0
M  V30 12204 C 1128.7 2.19999 -0.81471 0
M  V30 12205 C 1129.72 1.72864 0.19851 0
M  V30 12206 O 1130.89 2.01376 0.0308832 0
M  V30 12207 C 1127.96 3.45573 -0.279363 0
M  V30 12208 C 1127.02 4.07417 -1.35314 0
M  V30 12209 C 1126.25 5.26996 -0.843247 0
M  V30 12210 O 1126.47 5.69495 0.321164 0
M  V30 12211 O 1125.41 5.79826 -1.61511 0
M  V30 12212 H 1129.23 2.49333 -1.73398 0
M  V30 12213 H 1126.82 1.18784 -0.906128 0
M  V30 12214 H 1128.7 4.21398 0.0140531 0
M  V30 12215 H 1127.38 3.17854 0.612401 0
M  V30 12216 H 1126.28 3.33253 -1.6998 0
M  V30 12217 H 1127.62 4.39349 -2.21885 0
M  V30 12218 N 1129.27 0.921757 1.27833 0
M  V30 12219 C 1130.49 0.574599 1.99281 0
M  V30 12220 C 1130.92 -0.838905 1.68357 0
M  V30 12221 O 1130.28 -1.56196 0.920468 0
M  V30 12222 C 1130.32 0.800027 3.51613 0
M  V30 12223 O 1129.43 -0.137215 4.12172 0
M  V30 12224 H 1128.77 0.221887 0.625829 0
M  V30 12225 H 1131.3 1.23939 1.62789 0
M  V30 12226 H 1131.31 0.71326 4.01717 0
M  V30 12227 H 1129.98 1.83042 3.73455 0
M  V30 12228 H 1128.56 -0.00103872 3.729 0
M  V30 12229 N 1130.75 -1.41857 0.686609 0
M  V30 12230 C 1131.97 -2.06219 0.221037 0
M  V30 12231 C 1132.4 -1.51298 -1.11762 0
M  V30 12232 O 1131.75 -0.636253 -1.69769 0
M  V30 12233 C 1131.8 -3.60153 0.179425 0
M  V30 12234 O 1130.91 -4.03577 -0.848481 0
M  V30 12235 H 1130.25 -0.654787 0.110228 0
M  V30 12236 H 1132.78 -1.81783 0.938948 0
M  V30 12237 H 1132.79 -4.07999 0.00725332 0
M  V30 12238 H 1131.46 -3.99498 1.15647 0
M  V30 12239 H 1130.04 -3.67255 -0.646393 0
M  V30 12240 N 1132.22 -0.430739 -1.51599 0
M  V30 12241 C 1133.47 0.139396 -2.01218 0
M  V30 12242 C 1133.79 1.44361 -1.31982 0
M  V30 12243 O 1134.99 2.0963 -1.72533 0
M  V30 12244 C 1133.45 0.298969 -3.58656 0
M  V30 12245 C 1133.06 -0.994424 -4.36824 0
M  V30 12246 C 1134.8 0.82323 -4.16441 0
M  V30 12247 C 1132.71 -0.800855 -5.85952 0
M  V30 12248 H 1131.64 0.0558698 -0.751927 0
M  V30 12249 H 1134.29 -0.559493 -1.74762 0
M  V30 12250 H 1132.67 1.06071 -3.8153 0
M  V30 12251 H 1133.84 -1.76398 -4.257 0
M  V30 12252 H 1132.16 -1.44672 -3.9046 0
M  V30 12253 H 1134.76 0.984434 -5.2556 0
M  V30 12254 H 1135.1 1.80388 -3.75188 0
M  V30 12255 H 1135.63 0.119982 -3.97619 0
M  V30 12256 H 1132.37 -1.75369 -6.31606 0
M  V30 12257 H 1131.89 -0.0709793 -5.99758 0
M  V30 12258 H 1133.57 -0.451459 -6.45423 0
M  V30 12259 N 1133.7 1.56767 -0.161869 0
M  V30 12260 C 1134.93 2.01401 0.49523 0
M  V30 12261 C 1135.35 1.04133 1.56646 0
M  V30 12262 O 1134.71 0.0193747 1.8129 0
M  V30 12263 C 1134.76 3.44695 1.05913 0
M  V30 12264 O 1133.86 3.50475 2.1735 0
M  V30 12265 H 1133.2 0.65314 0.1196 0
M  V30 12266 H 1135.73 2.02903 -0.26298 0
M  V30 12267 H 1135.74 3.83805 1.3841 0
M  V30 12268 H 1134.42 4.14991 0.274749 0
M  V30 12269 H 1133 3.23218 1.85969 0
M  V30 12270 N 1135.18 -0.111886 1.57202 0
M  V30 12271 C 1136.41 -0.8312 1.89142 0
M  V30 12272 C 1136.82 -1.73614 0.751987 0
M  V30 12273 O 1136.16 -1.81462 -0.285877 0
M  V30 12274 C 1136.22 -1.71107 3.16169 0
M  V30 12275 C 1135.89 -0.9797 4.46375 0
M  V30 12276 C 1136.88 -0.317219 5.18931 0
M  V30 12277 C 1134.57 -0.958764 4.93065 0
M  V30 12278 C 1136.56 0.356419 6.36403 0
M  V30 12279 C 1134.25 -0.281332 6.10452 0
M  V30 12280 C 1135.25 0.375098 6.81969 0
M  V30 12281 O 1134.94 1.0417 7.97122 0
M  V30 12282 H 1134.67 -0.243855 0.630484 0
M  V30 12283 H 1137.22 -0.0986634 2.05163 0
M  V30 12284 H 1135.45 -2.48543 2.96249 0
M  V30 12285 H 1137.14 -2.30544 3.34072 0
M  V30 12286 H 1137.91 -0.324965 4.8391 0
M  V30 12287 H 1133.79 -1.45913 4.37299 0
M  V30 12288 H 1137.33 0.869362 6.92162 0
M  V30 12289 H 1133.23 -0.271374 6.44929 0
M  V30 12290 H 1134 0.946899 8.13004 0
M  V30 12291 N 1136.66 -1.52894 -0.382264 0
M  V30 12292 C 1137.59 -1.81122 -1.47367 0
M  V30 12293 C 1138.57 -0.663653 -1.56619 0
M  V30 12294 O 1139.75 -0.911898 -1.71459 0
M  V30 12295 C 1136.88 -1.98615 -2.84902 0
M  V30 12296 C 1135.84 -3.14328 -2.90485 0
M  V30 12297 C 1135.16 -3.17086 -4.30535 0
M  V30 12298 C 1136.46 -4.53263 -2.59519 0
M  V30 12299 H 1138.16 -2.72518 -1.23993 0
M  V30 12300 H 1135.7 -1.3113 -0.595049 0
M  V30 12301 H 1137.66 -2.16946 -3.61265 0
M  V30 12302 H 1136.38 -1.03915 -3.09628 0
M  V30 12303 H 1135.04 -2.95791 -2.16572 0
M  V30 12304 H 1134.69 -2.20055 -4.52311 0
M  V30 12305 H 1134.39 -3.94821 -4.3519 0
M  V30 12306 H 1135.91 -3.3758 -5.08795 0
M  V30 12307 H 1137.33 -4.71867 -3.25598 0
M  V30 12308 H 1135.72 -5.33115 -2.75514 0
M  V30 12309 H 1136.79 -4.59516 -1.54831 0
M  V30 12310 N 1138.14 0.641106 -1.43971 0
M  V30 12311 C 1139.07 1.76599 -1.44527 0
M  V30 12312 C 1140.05 1.59709 -0.305257 0
M  V30 12313 O 1141.23 1.81728 -0.50071 0
M  V30 12314 C 1138.36 3.14052 -1.26843 0
M  V30 12315 C 1137.41 3.49615 -2.44278 0
M  V30 12316 S 1138.24 3.4822 -4.06821 0
M  V30 12317 C 1139.39 4.8831 -3.91541 0
M  V30 12318 H 1139.63 1.75858 -2.3971 0
M  V30 12319 H 1137.16 0.814834 -1.31148 0
M  V30 12320 H 1139.12 3.93376 -1.17327 0
M  V30 12321 H 1137.78 3.12342 -0.331872 0
M  V30 12322 H 1136.97 4.49611 -2.2774 0
M  V30 12323 H 1136.57 2.77732 -2.50482 0
M  V30 12324 H 1138.87 5.77282 -3.54615 0
M  V30 12325 H 1139.81 5.099 -4.91333 0
M  V30 12326 H 1140.22 4.62414 -3.2378 0
M  V30 12327 N 1139.62 1.30703 0.880598 0
M  V30 12328 C 1140.56 1.17455 1.98678 0
M  V30 12329 C 1141.53 0.0629569 1.65981 0
M  V30 12330 O 1142.72 0.233926 1.89361 0
M  V30 12331 C 1139.86 0.876882 3.33774 0
M  V30 12332 C 1138.97 2.07078 3.79134 0
M  V30 12333 C 1138.11 1.71082 5.02896 0
M  V30 12334 C 1137.14 2.86942 5.40676 0
M  V30 12335 N 1136.28 2.51212 6.55619 0
M  V30 12336 H 1141.12 2.12086 2.09341 0
M  V30 12337 H 1138.66 1.05514 1.02495 0
M  V30 12338 H 1140.62 0.684899 4.1154 0
M  V30 12339 H 1139.25 -0.0325633 3.22784 0
M  V30 12340 H 1138.3 2.37388 2.97239 0
M  V30 12341 H 1139.61 2.9383 4.0307 0
M  V30 12342 H 1138.76 1.48284 5.883 0
M  V30 12343 H 1137.5 0.815064 4.80841 0
M  V30 12344 H 1136.51 3.10401 4.53797 0
M  V30 12345 H 1137.73 3.77211 5.64703 0
M  V30 12346 H 1135.68 1.64147 6.35131 0
M  V30 12347 H 1135.6 3.31495 6.79446 0
M  V30 12348 H 1136.86 2.31781 7.44243 0
M  V30 12349 N 1141.09 -1.09351 1.1349 0
M  V30 12350 C 1142.34 -1.80915 0.89177 0
M  V30 12351 C 1142.66 -1.86688 -0.5837 0
M  V30 12352 O 1143.86 -2.54568 -0.943788 0
M  V30 12353 C 1142.32 -3.25009 1.54587 0
M  V30 12354 C 1141.93 -3.27501 3.05691 0
M  V30 12355 C 1143.67 -4.01323 1.38346 0
M  V30 12356 C 1141.58 -4.66123 3.63983 0
M  V30 12357 H 1140.51 -0.677961 0.329978 0
M  V30 12358 H 1143.16 -1.22893 1.3627 0
M  V30 12359 H 1141.54 -3.83098 1.0026 0
M  V30 12360 H 1142.71 -2.79174 3.66604 0
M  V30 12361 H 1141.03 -2.64677 3.21457 0
M  V30 12362 H 1143.63 -5.03739 1.79307 0
M  V30 12363 H 1143.97 -4.15003 0.328404 0
M  V30 12364 H 1144.5 -3.49679 1.89656 0
M  V30 12365 H 1141.24 -4.57646 4.69298 0
M  V30 12366 H 1140.76 -5.14772 3.07848 0
M  V30 12367 H 1142.44 -5.35097 3.63703 0
M  V30 12368 N 1142.57 -0.928524 -1.27343 0
M  V30 12369 C 1143.82 -0.565207 -1.93619 0
M  V30 12370 C 1144.13 0.897988 -1.73769 0
M  V30 12371 O 1145.34 1.37012 -2.34393 0
M  V30 12372 C 1143.8 -0.960052 -3.46859 0
M  V30 12373 C 1143.4 -2.44399 -3.75464 0
M  V30 12374 C 1145.15 -0.668026 -4.19211 0
M  V30 12375 C 1143.05 -2.77819 -5.22083 0
M  V30 12376 H 1141.98 -0.207665 -0.724839 0
M  V30 12377 H 1144.64 -1.12945 -1.44623 0
M  V30 12378 H 1143.02 -0.324454 -3.94669 0
M  V30 12379 H 1144.19 -3.12756 -3.38408 0
M  V30 12380 H 1142.51 -2.70799 -3.16317 0
M  V30 12381 H 1145.1 -0.894207 -5.2717 0
M  V30 12382 H 1145.45 0.394788 -4.14424 0
M  V30 12383 H 1145.98 -1.26276 -3.77226 0
M  V30 12384 H 1142.72 -3.83013 -5.3196 0
M  V30 12385 H 1142.24 -2.14112 -5.60282 0
M  V30 12386 H 1143.92 -2.65607 -5.89968 0
M  V30 12387 N 1144.05 1.41491 -0.694123 0
M  V30 12388 C 1145 2.32594 -0.0164704 0
M  V30 12389 C 1145.99 1.50884 0.770086 0
M  V30 12390 O 1147.2 1.66829 0.675871 0
M  V30 12391 H 1143.57 0.751879 0.0134743 0
M  V30 12392 H 1145.54 2.87423 -0.80191 0
M  V30 12393 C 1144.29 3.35661 0.90703 0
M  V30 12394 H 1143.62 3.98587 0.311205 0
M  V30 12395 H 1145.06 4.0195 1.34952 0
M  V30 12396 C 1143.51 2.69436 2.02253 0
M  V30 12397 O 1144.04 2.54107 3.11115 0
M  V30 12398 N 1142.25 2.28154 1.79984 0
M  V30 12399 H 1141.8 2.40821 0.914492 0
M  V30 12400 H 1141.76 1.84178 2.54805 0
M  V30 12401 N 1145.53 0.438773 1.51369 0
M  V30 12402 C 1146.44 -0.378074 2.31534 0
M  V30 12403 C 1147.45 -1.02632 1.40508 0
M  V30 12404 O 1148.63 -1.02138 1.73579 0
M  V30 12405 C 1145.69 -1.46374 3.14286 0
M  V30 12406 C 1144.76 -0.835473 4.21092 0
M  V30 12407 C 1143.99 -1.86941 4.99889 0
M  V30 12408 O 1144.21 -3.0918 4.79337 0
M  V30 12409 O 1143.15 -1.45914 5.83946 0
M  V30 12410 H 1146.97 0.276401 3.0244 0
M  V30 12411 H 1144.56 0.201281 1.48038 0
M  V30 12412 H 1146.44 -2.09335 3.65728 0
M  V30 12413 H 1145.11 -2.10227 2.46143 0
M  V30 12414 H 1144.02 -0.167775 3.73724 0
M  V30 12415 H 1145.35 -0.240406 4.91613 0
M  V30 12416 N 1147.01 -1.56678 0.170181 0
M  V30 12417 C 1148.25 -1.9714 -0.475767 0
M  V30 12418 C 1148.58 -1.05611 -1.62972 0
M  V30 12419 O 1147.86 -0.103017 -1.94227 0
M  V30 12420 C 1148.14 -3.47072 -0.959828 0
M  V30 12421 C 1148 -4.4938 0.194225 0
M  V30 12422 C 1149.31 -4.00071 -1.83387 0
M  V30 12423 H 1146.43 -0.716776 -0.171466 0
M  V30 12424 H 1149.08 -1.88266 0.256086 0
M  V30 12425 H 1147.23 -3.54766 -1.58346 0
M  V30 12426 H 1148.9 -4.53748 0.83128 0
M  V30 12427 H 1147.14 -4.25393 0.849893 0
M  V30 12428 H 1147.81 -5.51685 -0.186575 0
M  V30 12429 H 1150.29 -3.95002 -1.30815 0
M  V30 12430 H 1149.16 -5.05398 -2.14159 0
M  V30 12431 H 1149.42 -3.43819 -2.77923 0
M  V30 12432 N 1148.48 0.103547 -1.57259 0
M  V30 12433 C 1149.43 1.12621 -2.01458 0
M  V30 12434 C 1150.4 1.40282 -0.889391 0
M  V30 12435 O 1151.59 1.51887 -1.15477 0
M  V30 12436 C 1148.73 2.44352 -2.43692 0
M  V30 12437 C 1147.84 2.23495 -3.69695 0
M  V30 12438 C 1146.97 3.48565 -4.00844 0
M  V30 12439 C 1146.01 3.22932 -5.19982 0
M  V30 12440 N 1145.15 4.40246 -5.46926 0
M  V30 12441 H 1149.99 0.742315 -2.88606 0
M  V30 12442 H 1147.53 0.355016 -1.42752 0
M  V30 12443 H 1149.48 3.2122 -2.66221 0
M  V30 12444 H 1148.11 2.80605 -1.59565 0
M  V30 12445 H 1147.17 1.3747 -3.54692 0
M  V30 12446 H 1148.48 2.0054 -4.56711 0
M  V30 12447 H 1147.63 4.33844 -4.24104 0
M  V30 12448 H 1146.37 3.74565 -3.12333 0
M  V30 12449 H 1145.38 2.36045 -4.96551 0
M  V30 12450 H 1146.6 2.98286 -6.10084 0
M  V30 12451 H 1144.55 4.66338 -4.61373 0
M  V30 12452 H 1144.46 4.20452 -6.28296 0
M  V30 12453 H 1145.73 5.26614 -5.74716 0
M  V30 12454 N 1149.96 1.53094 0.37415 0
M  V30 12455 C 1151.21 1.68082 1.11495 0
M  V30 12456 C 1151.52 0.434685 1.90709 0
M  V30 12457 O 1152.73 0.464956 2.67489 0
M  V30 12458 C 1151.19 2.97101 2.03124 0
M  V30 12459 C 1150.79 4.28947 1.29262 0
M  V30 12460 C 1152.54 3.21456 2.77248 0
M  V30 12461 C 1150.44 5.4906 2.19743 0
M  V30 12462 H 1149.37 0.626238 0.419931 0
M  V30 12463 H 1152.03 1.79594 0.376588 0
M  V30 12464 H 1150.41 2.79371 2.80656 0
M  V30 12465 H 1151.58 4.57279 0.568528 0
M  V30 12466 H 1149.9 4.10968 0.670362 0
M  V30 12467 H 1152.49 4.08377 3.45155 0
M  V30 12468 H 1152.84 2.37153 3.42146 0
M  V30 12469 H 1153.37 3.3982 2.06803 0
M  V30 12470 H 1150.11 6.35815 1.59437 0
M  V30 12471 H 1149.63 5.25019 2.90027 0
M  V30 12472 H 1151.31 5.83517 2.79495 0
M  V30 12473 N 1151.44 -0.633461 1.44309 0
M  V30 12474 C 1152.39 -1.76674 1.51292 0
M  V30 12475 C 1153.38 -1.64972 0.384807 0
M  V30 12476 O 1154.59 -1.71079 0.559653 0
M  V30 12477 H 1150.96 -0.583238 0.474697 0
M  V30 12478 H 1152.93 -1.67907 2.46678 0
M  V30 12479 C 1151.68 -3.15002 1.47205 0
M  V30 12480 H 1151.01 -3.24653 2.33325 0
M  V30 12481 H 1152.45 -3.94199 1.56151 0
M  V30 12482 C 1150.9 -3.3635 0.192464 0
M  V30 12483 O 1151.43 -3.94857 -0.738285 0
M  V30 12484 N 1149.64 -2.9044 0.0963424 0
M  V30 12485 H 1149.19 -2.43011 0.85459 0
M  V30 12486 H 1149.15 -3.05099 -0.759061 0
M  V30 12487 N 1152.92 -1.31168 -0.873655 0
M  V30 12488 C 1153.87 -1.18507 -1.98052 0
M  V30 12489 C 1154.84 -0.0717583 -1.65945 0
M  V30 12490 O 1156.02 -0.243965 -1.89234 0
M  V30 12491 C 1153.16 -0.894571 -3.33304 0
M  V30 12492 C 1152.27 -2.09086 -3.7803 0
M  V30 12493 C 1151.41 -1.73747 -5.01982 0
M  V30 12494 C 1150.45 -2.89805 -5.39147 0
M  V30 12495 N 1149.58 -2.54686 -6.54278 0
M  V30 12496 H 1154.42 -2.13193 -2.08213 0
M  V30 12497 H 1151.96 -1.06056 -1.01934 0
M  V30 12498 H 1153.92 -0.706714 -4.11171 0
M  V30 12499 H 1152.55 0.0154449 -3.22796 0
M  V30 12500 H 1151.6 -2.38961 -2.95976 0
M  V30 12501 H 1152.91 -2.95963 -4.01506 0
M  V30 12502 H 1152.07 -1.51402 -5.87505 0
M  V30 12503 H 1150.81 -0.840553 -4.80402 0
M  V30 12504 H 1149.81 -3.12803 -4.52144 0
M  V30 12505 H 1151.04 -3.802 -5.62694 0
M  V30 12506 H 1148.98 -1.67513 -6.34252 0
M  V30 12507 H 1148.9 -3.35093 -6.77679 0
M  V30 12508 H 1150.17 -2.35725 -7.43003 0
M  V30 12509 N 1154.4 1.08748 -1.14068 0
M  V30 12510 C 1155.33 2.17591 -0.84714 0
M  V30 12511 C 1156.31 1.68962 0.196415 0
M  V30 12512 O 1157.49 1.94125 0.0538415 0
M  V30 12513 C 1154.62 3.45823 -0.320005 0
M  V30 12514 C 1153.58 4.07824 -1.2986 0
M  V30 12515 C 1152.9 5.30965 -0.630925 0
M  V30 12516 C 1154.2 4.49512 -2.65963 0
M  V30 12517 H 1155.9 2.42404 -1.75729 0
M  V30 12518 H 1153.44 1.16502 -0.846356 0
M  V30 12519 H 1155.4 4.21276 -0.102271 0
M  V30 12520 H 1154.12 3.20553 0.625561 0
M  V30 12521 H 1152.78 3.34398 -1.50245 0
M  V30 12522 H 1152.43 5.01979 0.320337 0
M  V30 12523 H 1152.13 5.73402 -1.28388 0
M  V30 12524 H 1153.65 6.09136 -0.422635 0
M  V30 12525 H 1155.06 5.16159 -2.49506 0
M  V30 12526 H 1153.46 5.02857 -3.27498 0
M  V30 12527 H 1154.53 3.6157 -3.23102 0
M  V30 12528 N 1155.87 0.935264 1.26849 0
M  V30 12529 C 1157.29 0.636661 1.46352 0
M  V30 12530 C 1157.49 -0.811823 1.84423 0
M  V30 12531 O 1156.55 -1.58902 1.9623 0
M  V30 12532 C 1157.86 1.59301 2.55036 0
M  V30 12533 C 1159.41 1.60207 2.68892 0
M  V30 12534 C 1159.88 2.54558 3.80742 0
M  V30 12535 N 1161.37 2.52809 3.88126 0
M  V30 12536 C 1162.11 3.225 4.74111 0
M  V30 12537 N 1161.6 4.01598 5.64527 0
M  V30 12538 N 1163.4 3.11481 4.67906 0
M  V30 12539 H 1155.55 1.8716 1.00423 0
M  V30 12540 H 1157.81 0.803968 0.502334 0
M  V30 12541 H 1157.52 2.62671 2.33874 0
M  V30 12542 H 1157.39 1.34052 3.52576 0
M  V30 12543 H 1159.78 0.575649 2.89431 0
M  V30 12544 H 1159.86 1.89508 1.71815 0
M  V30 12545 H 1159.5 3.57314 3.60956 0
M  V30 12546 H 1159.43 2.22549 4.77263 0
M  V30 12547 H 1161.92 1.9537 3.2348 0
M  V30 12548 H 1162.24 4.51742 6.27016 0
M  V30 12549 H 1160.58 4.057 5.64298 0
M  V30 12550 H 1163.77 2.49175 3.9627 0
M  V30 12551 H 1163.95 3.66064 5.34697 0
M  V30 12552 N 1157.35 -1.41121 0.701616 0
M  V30 12553 C 1158.26 -2.34565 0.0407815 0
M  V30 12554 C 1159.28 -1.56555 -0.75937 0
M  V30 12555 O 1160.45 -1.89008 -0.695542 0
M  V30 12556 C 1157.52 -3.35347 -0.879954 0
M  V30 12557 C 1156.58 -4.29241 -0.0713279 0
M  V30 12558 C 1155.81 -5.25209 -0.948211 0
M  V30 12559 O 1156.04 -5.26781 -2.18766 0
M  V30 12560 O 1154.97 -6.00605 -0.394657 0
M  V30 12561 H 1158.8 -2.92666 0.811188 0
M  V30 12562 H 1156.38 -1.42077 0.461991 0
M  V30 12563 H 1158.26 -3.9719 -1.40776 0
M  V30 12564 H 1156.94 -2.7968 -1.62975 0
M  V30 12565 H 1155.85 -3.70727 0.50122 0
M  V30 12566 H 1157.18 -4.88022 0.639935 0
M  V30 12567 N 1158.83 -0.446794 -1.51134 0
M  V30 12568 C 1160.06 0.114727 -2.06281 0
M  V30 12569 C 1160.47 1.36192 -1.31333 0
M  V30 12570 O 1159.81 1.79956 -0.368982 0
M  V30 12571 C 1159.87 0.492968 -3.56104 0
M  V30 12572 C 1159.54 -0.648755 -4.52372 0
M  V30 12573 C 1160.53 -1.52369 -4.97071 0
M  V30 12574 C 1158.22 -0.832177 -4.95359 0
M  V30 12575 C 1160.21 -2.56667 -5.83439 0
M  V30 12576 C 1157.9 -1.87841 -5.81514 0
M  V30 12577 C 1158.9 -2.74404 -6.25453 0
M  V30 12578 O 1158.59 -3.7723 -7.09896 0
M  V30 12579 H 1158.32 0.007138 -0.675962 0
M  V30 12580 H 1160.87 -0.627452 -1.95582 0
M  V30 12581 H 1159.1 1.28799 -3.6462 0
M  V30 12582 H 1160.79 0.986739 -3.93724 0
M  V30 12583 H 1161.56 -1.39356 -4.64548 0
M  V30 12584 H 1157.44 -0.167954 -4.60694 0
M  V30 12585 H 1160.98 -3.24264 -6.17656 0
M  V30 12586 H 1156.88 -2.00871 -6.1345 0
M  V30 12587 H 1157.65 -3.73924 -7.28095 0
M  V30 12588 N 1160.31 1.56586 -0.178487 0
M  V30 12589 C 1161.59 1.88798 0.511356 0
M  V30 12590 C 1161.97 1.08949 1.80813 0
M  V30 12591 O 1161.31 0.185551 2.27745 0
M  V30 12592 C 1161.52 3.40927 0.746298 0
M  V30 12593 C 1162.87 4.10816 1.0731 0
M  V30 12594 O 1163.9 3.46285 0.834592 0
M  V30 12595 O 1162.75 5.24837 1.52343 0
M  V30 12596 H 1159.85 0.783574 0.264463 0
M  V30 12597 H 1162.39 1.68301 -0.21746 0
M  V30 12598 H 1161.17 3.9093 -0.17015 0
M  V30 12599 H 1160.79 3.67059 1.52817 0
M  V30 12600 N 1161.79 -0.095206 1.57312 0
M  V30 12601 C 1162.7 -1.13388 2.05379 0
M  V30 12602 C 1163.71 -1.43868 0.978668 0
M  V30 12603 O 1164.89 -1.54512 1.29182 0
M  V30 12604 C 1161.95 -2.43444 2.46852 0
M  V30 12605 C 1161.01 -2.20146 3.68557 0
M  V30 12606 C 1160.25 -3.44001 4.08043 0
M  V30 12607 O 1160.47 -4.52233 3.47623 0
M  V30 12608 O 1159.4 -3.33596 5.00997 0
M  V30 12609 H 1163.23 -0.755622 2.9415 0
M  V30 12610 H 1160.82 -0.307707 1.46197 0
M  V30 12611 H 1162.7 -3.20027 2.74155 0
M  V30 12612 H 1161.37 -2.80696 1.61219 0
M  V30 12613 H 1160.28 -1.41345 3.46371 0
M  V30 12614 H 1161.61 -1.87787 4.54969 0
M  V30 12615 N 1163.26 -1.53291 -0.366026 0
M  V30 12616 C 1164.21 -1.80367 -1.4687 0
M  V30 12617 C 1165.21 -0.672767 -1.55468 0
M  V30 12618 O 1166.41 -0.8557 -1.5836 0
M  V30 12619 H 1162.79 -0.571076 -0.48926 0
M  V30 12620 H 1164.76 -2.72661 -1.21237 0
M  V30 12621 C 1163.51 -2.01008 -2.8371 0
M  V30 12622 H 1162.83 -2.87468 -2.77853 0
M  V30 12623 H 1164.27 -2.2393 -3.60043 0
M  V30 12624 C 1162.73 -0.789054 -3.27529 0
M  V30 12625 O 1163.26 0.0224712 -4.01694 0
M  V30 12626 N 1161.47 -0.612621 -2.84069 0
M  V30 12627 H 1161.01 -1.27416 -2.23881 0
M  V30 12628 H 1160.97 0.202943 -3.13744 0
M  V30 12629 N 1164.74 0.6258 -1.44643 0
M  V30 12630 C 1165.99 1.3873 -1.47925 0
M  V30 12631 C 1166.32 1.93868 -0.113469 0
M  V30 12632 O 1165.6 1.73976 0.869639 0
M  V30 12633 C 1165.88 2.54867 -2.54391 0
M  V30 12634 C 1165.73 2.05044 -4.00346 0
M  V30 12635 C 1167.05 3.57043 -2.57309 0
M  V30 12636 H 1164.17 0.503087 -0.538584 0
M  V30 12637 H 1166.81 0.707102 -1.76352 0
M  V30 12638 H 1164.96 3.12894 -2.30281 0
M  V30 12639 H 1166.63 1.51807 -4.35606 0
M  V30 12640 H 1164.88 1.36185 -4.11869 0
M  V30 12641 H 1165.55 2.88681 -4.70497 0
M  V30 12642 H 1168.02 3.08826 -2.78865 0
M  V30 12643 H 1166.9 4.35818 -3.33698 0
M  V30 12644 H 1167.16 4.11464 -1.61708 0
M  V30 12645 N 1166.22 1.31629 0.866686 0
M  V30 12646 C 1167.17 1.19556 1.97421 0
M  V30 12647 C 1168.14 0.0805578 1.65905 0
M  V30 12648 O 1169.32 0.253997 1.89102 0
M  V30 12649 C 1166.46 0.912234 3.32825 0
M  V30 12650 C 1165.58 2.11088 3.76916 0
M  V30 12651 C 1164.71 1.76406 5.01053 0
M  V30 12652 C 1163.75 2.9266 5.37602 0
M  V30 12653 N 1162.89 2.58152 6.52918 0
M  V30 12654 H 1167.73 2.14294 2.0708 0
M  V30 12655 H 1165.26 1.06595 1.0137 0
M  V30 12656 H 1167.22 0.72851 4.1079 0
M  V30 12657 H 1165.85 0.00167404 3.228 0
M  V30 12658 H 1164.9 2.40527 2.94705 0
M  V30 12659 H 1166.22 2.98089 3.99931 0
M  V30 12660 H 1165.37 1.54515 5.86694 0
M  V30 12661 H 1164.11 0.866018 4.79949 0
M  V30 12662 H 1163.11 3.15196 4.50479 0
M  V30 12663 H 1164.34 3.83179 5.6067 0
M  V30 12664 H 1162.28 1.70874 6.33355 0
M  V30 12665 H 1162.2 3.38682 6.75892 0
M  V30 12666 H 1163.47 2.39662 7.41743 0
M  V30 12667 N 1167.7 -1.08142 1.14644 0
M  V30 12668 C 1168.93 -1.84318 0.939926 0
M  V30 12669 C 1169.34 -1.81735 -0.511636 0
M  V30 12670 O 1168.7 -1.22297 -1.35461 0
M  V30 12671 C 1168.75 -3.31744 1.43625 0
M  V30 12672 O 1168.47 -3.3435 2.83094 0
M  V30 12673 C 1169.97 -4.24717 1.27007 0
M  V30 12674 H 1167.19 -0.581781 0.334323 0
M  V30 12675 H 1169.74 -1.36561 1.52221 0
M  V30 12676 H 1167.89 -3.7688 0.896664 0
M  V30 12677 H 1168.31 -4.26399 3.05425 0
M  V30 12678 H 1169.78 -5.26262 1.66591 0
M  V30 12679 H 1170.26 -4.38682 0.213257 0
M  V30 12680 H 1170.86 -3.85409 1.79833 0
M  V30 12681 N 1169.18 -0.941978 -1.26351 0
M  V30 12682 C 1170.41 -0.605868 -1.97517 0
M  V30 12683 C 1170.82 0.823583 -1.70334 0
M  V30 12684 O 1170.16 1.56085 -0.968662 0
M  V30 12685 C 1170.22 -0.769201 -3.51175 0
M  V30 12686 C 1169.88 -2.17343 -4.02009 0
M  V30 12687 C 1170.88 -3.14898 -4.13685 0
M  V30 12688 C 1168.57 -2.49422 -4.35998 0
M  V30 12689 C 1170.56 -4.42631 -4.58646 0
M  V30 12690 C 1168.25 -3.77388 -4.80647 0
M  V30 12691 C 1169.25 -4.73806 -4.91932 0
M  V30 12692 O 1168.93 -5.99493 -5.35596 0
M  V30 12693 H 1168.67 -0.227113 -0.636707 0
M  V30 12694 H 1171.22 -1.26523 -1.61806 0
M  V30 12695 H 1169.45 -0.0527104 -3.86664 0
M  V30 12696 H 1171.14 -0.436032 -4.03551 0
M  V30 12697 H 1171.9 -2.91438 -3.87671 0
M  V30 12698 H 1167.78 -1.7511 -4.26448 0
M  V30 12699 H 1171.33 -5.17892 -4.67369 0
M  V30 12700 H 1167.22 -4.0066 -5.06105 0
M  V30 12701 H 1167.99 -6.02687 -5.53815 0
M  V30 12702 N 1170.66 1.40747 -0.709091 0
M  V30 12703 C 1171.59 2.33404 -0.0669763 0
M  V30 12704 C 1172.57 1.52546 0.752582 0
M  V30 12705 O 1173.75 1.81036 0.702823 0
M  V30 12706 C 1170.88 3.36476 0.860285 0
M  V30 12707 C 1169.84 4.27748 0.146828 0
M  V30 12708 C 1169.16 5.21304 1.18937 0
M  V30 12709 C 1170.46 5.12734 -0.995064 0
M  V30 12710 H 1172.16 2.87349 -0.840888 0
M  V30 12711 H 1169.7 1.38163 -0.405817 0
M  V30 12712 H 1171.65 4.00231 1.31883 0
M  V30 12713 H 1170.38 2.80912 1.66602 0
M  V30 12714 H 1169.04 3.65437 -0.291826 0
M  V30 12715 H 1168.69 4.62048 1.98798 0
M  V30 12716 H 1168.39 5.8321 0.716917 0
M  V30 12717 H 1169.91 5.87936 1.64815 0
M  V30 12718 H 1171.32 5.69979 -0.61618 0
M  V30 12719 H 1169.72 5.83649 -1.39547 0
M  V30 12720 H 1170.79 4.49097 -1.82867 0
M  V30 12721 N 1172.13 0.454803 1.50895 0
M  V30 12722 C 1173.06 -0.337982 2.31041 0
M  V30 12723 C 1174.04 -1.00523 1.37219 0
M  V30 12724 O 1175.23 -1.00553 1.66141 0
M  V30 12725 C 1172.36 -1.42964 3.1651 0
M  V30 12726 C 1171.31 -0.884907 4.18752 0
M  V30 12727 C 1170.64 -2.07363 4.92854 0
M  V30 12728 C 1171.94 0.0926716 5.22218 0
M  V30 12729 H 1173.63 0.33089 2.97566 0
M  V30 12730 H 1171.18 0.160577 1.43102 0
M  V30 12731 H 1173.13 -1.9916 3.71367 0
M  V30 12732 H 1171.86 -2.12705 2.47839 0
M  V30 12733 H 1170.52 -0.345031 3.64973 0
M  V30 12734 H 1170.16 -2.75764 4.2067 0
M  V30 12735 H 1169.86 -1.71545 5.62002 0
M  V30 12736 H 1171.39 -2.6408 5.5054 0
M  V30 12737 H 1172.8 -0.379568 5.72042 0
M  V30 12738 H 1171.2 0.3643 5.98993 0
M  V30 12739 H 1172.27 1.02383 4.73968 0
M  V30 12740 N 1173.61 -1.56489 0.186789 0
M  V30 12741 C 1174.56 -2.20034 -0.754164 0
M  V30 12742 C 1175.55 -1.16899 -1.22601 0
M  V30 12743 O 1176.76 -1.35064 -1.18987 0
M  V30 12744 H 1173.13 -0.705058 -0.261529 0
M  V30 12745 H 1175.11 -2.97766 -0.194418 0
M  V30 12746 C 1173.85 -2.86733 -1.9667 0
M  V30 12747 H 1173.18 -3.65831 -1.61268 0
M  V30 12748 H 1174.62 -3.34645 -2.60363 0
M  V30 12749 C 1173.08 -1.87325 -2.8002 0
M  V30 12750 O 1173.61 -1.36835 -3.77676 0
M  V30 12751 N 1171.81 -1.55738 -2.45345 0
M  V30 12752 H 1171.36 -1.9699 -1.6599 0
M  V30 12753 H 1171.32 -0.894805 -3.01398 0
M  V30 12754 N 1175.09 0.086862 -1.5736 0
M  V30 12755 C 1176.32 0.801004 -1.9044 0
M  V30 12756 C 1176.73 1.72396 -0.779513 0
M  V30 12757 O 1176.07 1.81894 0.256972 0
M  V30 12758 C 1176.13 1.66055 -3.18851 0
M  V30 12759 C 1175.8 0.908561 -4.47877 0
M  V30 12760 C 1176.79 0.234621 -5.1937 0
M  V30 12761 C 1174.48 0.8802 -4.94528 0
M  V30 12762 C 1176.47 -0.45762 -6.35755 0
M  V30 12763 C 1174.16 0.184179 -6.10822 0
M  V30 12764 C 1175.16 -0.483545 -6.81286 0
M  V30 12765 O 1174.85 -1.16839 -7.95364 0
M  V30 12766 H 1174.58 0.233794 -0.634284 0
M  V30 12767 H 1177.13 0.0660113 -2.05294 0
M  V30 12768 H 1175.36 2.43798 -3.00165 0
M  V30 12769 H 1177.05 2.252 -3.37698 0
M  V30 12770 H 1177.82 0.247938 -4.84366 0
M  V30 12771 H 1173.7 1.38938 -4.39565 0
M  V30 12772 H 1177.24 -0.979369 -6.90691 0
M  V30 12773 H 1173.14 0.168737 -6.45279 0
M  V30 12774 H 1173.9 -1.07612 -8.11395 0
M  V30 12775 N 1176.57 1.53483 0.357892 0
M  V30 12776 C 1177.82 1.69256 1.09706 0
M  V30 12777 C 1178.13 0.454888 1.90237 0
M  V30 12778 O 1179.34 0.4933 2.66981 0
M  V30 12779 C 1177.79 2.99238 1.99961 0
M  V30 12780 C 1177.4 4.30293 1.24706 0
M  V30 12781 C 1179.14 3.24378 2.73823 0
M  V30 12782 C 1177.05 5.5136 2.13907 0
M  V30 12783 H 1175.98 0.630657 0.413265 0
M  V30 12784 H 1178.63 1.79983 0.357518 0
M  V30 12785 H 1177.01 2.82332 2.77677 0
M  V30 12786 H 1178.19 4.57857 0.519995 0
M  V30 12787 H 1176.5 4.11656 0.626736 0
M  V30 12788 H 1179.1 4.12015 3.40805 0
M  V30 12789 H 1179.44 2.40769 3.39612 0
M  V30 12790 H 1179.98 3.41994 2.03187 0
M  V30 12791 H 1176.71 6.3747 1.52684 0
M  V30 12792 H 1176.23 5.28065 2.84442 0
M  V30 12793 H 1177.91 5.86448 2.7329 0
M  V30 12794 N 1178.05 -0.61812 1.44973 0
M  V30 12795 C 1179.29 -1.37343 1.47715 0
M  V30 12796 C 1179.61 -1.95239 0.118784 0
M  V30 12797 O 1180.81 -2.7149 0.0237981 0
M  V30 12798 C 1179.27 -2.48732 2.60116 0
M  V30 12799 C 1178.88 -1.97294 4.02218 0
M  V30 12800 C 1180.62 -3.25831 2.72093 0
M  V30 12801 C 1178.53 -3.06102 5.06019 0
M  V30 12802 H 1177.46 -0.516175 0.549617 0
M  V30 12803 H 1180.11 -0.663617 1.7108 0
M  V30 12804 H 1178.49 -3.2235 2.30014 0
M  V30 12805 H 1179.67 -1.30455 4.41948 0
M  V30 12806 H 1177.98 -1.32972 3.94598 0
M  V30 12807 H 1180.58 -4.06968 3.46815 0
M  V30 12808 H 1180.92 -3.76156 1.7836 0
M  V30 12809 H 1181.45 -2.59309 3.01668 0
M  V30 12810 H 1178.19 -2.60706 6.01426 0
M  V30 12811 H 1177.71 -3.71541 4.70869 0
M  V30 12812 H 1179.39 -3.70662 5.30301 0
M  V30 12813 N 1179.52 -1.32087 -0.859693 0
M  V30 12814 C 1180.46 -1.16426 -1.97428 0
M  V30 12815 C 1181.47 -0.100582 -1.62489 0
M  V30 12816 O 1182.66 -0.349063 -1.75054 0
M  V30 12817 C 1179.76 -0.758822 -3.30295 0
M  V30 12818 C 1178.93 -1.90971 -3.93508 0
M  V30 12819 C 1177.99 -1.48865 -5.04704 0
M  V30 12820 O 1177.02 -2.1999 -5.2497 0
M  V30 12821 N 1178.22 -0.38182 -5.79243 0
M  V30 12822 H 1180.98 -2.12433 -2.11406 0
M  V30 12823 H 1178.54 -1.24558 -1.03426 0
M  V30 12824 H 1180.54 -0.459643 -4.02081 0
M  V30 12825 H 1179.11 0.109944 -3.12407 0
M  V30 12826 H 1178.33 -2.37566 -3.14573 0
M  V30 12827 H 1179.61 -2.68032 -4.32477 0
M  V30 12828 H 1179.01 0.210268 -5.65309 0
M  V30 12829 H 1177.57 -0.142224 -6.51645 0
M  V30 12830 N 1181 1.07532 -1.15215 0
M  V30 12831 C 1181.95 2.12909 -0.815714 0
M  V30 12832 C 1182.94 1.59662 0.1992 0
M  V30 12833 O 1184.13 1.77 0.000215597 0
M  V30 12834 C 1181.26 3.41945 -0.304717 0
M  V30 12835 C 1180.34 4.0205 -1.34968 0
M  V30 12836 N 1180.73 4.36439 -2.55646 0
M  V30 12837 C 1179.03 4.29498 -1.20199 0
M  V30 12838 C 1179.73 4.84044 -3.22609 0
M  V30 12839 N 1178.71 4.82702 -2.5 0
M  V30 12840 H 1182.51 2.37327 -1.73358 0
M  V30 12841 H 1180.02 1.24952 -1.03734 0
M  V30 12842 H 1182.02 4.16875 -0.0453503 0
M  V30 12843 H 1180.68 3.18971 0.607235 0
M  V30 12844 H 1181.69 4.27184 -2.92804 0
M  V30 12845 H 1178.37 4.16032 -0.349781 0
M  V30 12846 H 1179.76 5.19959 -4.2555 0
M  V30 12847 N 1182.48 0.948665 1.2585 0
M  V30 12848 C 1183.73 0.59905 1.93018 0
M  V30 12849 C 1184.05 -0.865813 1.74725 0
M  V30 12850 O 1183.32 -1.61602 1.10732 0
M  V30 12851 H 1181.9 0.218565 0.71431 0
M  V30 12852 H 1184.56 1.20561 1.53137 0
M  V30 12853 H 1183.66 0.823244 3.01047 0
M  V30 12854 N 1183.96 -1.40369 0.716545 0
M  V30 12855 C 1185.18 -2.05704 0.264729 0
M  V30 12856 C 1185.61 -1.53634 -1.08527 0
M  V30 12857 O 1184.97 -0.67212 -1.68381 0
M  V30 12858 C 1185.01 -3.59692 0.255778 0
M  V30 12859 O 1184.12 -4.05286 -0.762686 0
M  V30 12860 H 1183.46 -0.652301 0.124092 0
M  V30 12861 H 1185.99 -1.7975 0.977295 0
M  V30 12862 H 1186 -4.07892 0.0937944 0
M  V30 12863 H 1184.67 -3.96955 1.24095 0
M  V30 12864 H 1183.25 -3.68543 -0.568347 0
M  V30 12865 N 1185.44 -0.462799 -1.50652 0
M  V30 12866 C 1186.69 0.0966838 -2.01468 0
M  V30 12867 C 1187 1.41529 -1.35014 0
M  V30 12868 O 1188.2 2.05923 -1.76941 0
M  V30 12869 C 1186.66 0.222826 -3.5921 0
M  V30 12870 C 1186.27 -1.08686 -4.34616 0
M  V30 12871 C 1188.01 0.734711 -4.18094 0
M  V30 12872 C 1185.92 -0.924964 -5.84122 0
M  V30 12873 H 1184.85 0.0399078 -0.752943 0
M  V30 12874 H 1187.5 -0.596437 -1.73536 0
M  V30 12875 H 1185.88 0.979539 -3.83694 0
M  V30 12876 H 1187.06 -1.85388 -4.21862 0
M  V30 12877 H 1185.37 -1.52922 -3.87303 0
M  V30 12878 H 1187.97 0.872734 -5.2753 0
M  V30 12879 H 1188.31 1.72389 -3.7893 0
M  V30 12880 H 1188.84 0.0356139 -3.97784 0
M  V30 12881 H 1185.58 -1.88727 -6.27744 0
M  V30 12882 H 1185.1 -0.198181 -5.99473 0
M  V30 12883 H 1186.78 -0.588262 -6.4432 0
M  V30 12884 N 1186.91 1.56388 -0.195085 0
M  V30 12885 C 1187.84 2.22091 0.720971 0
M  V30 12886 C 1188.83 1.184 1.22128 0
M  V30 12887 O 1190.01 1.46907 1.27012 0
M  V30 12888 C 1187.14 2.88025 1.94059 0
M  V30 12889 C 1186.09 3.97959 1.5752 0
M  V30 12890 C 1185.42 4.51058 2.87143 0
M  V30 12891 C 1186.72 5.16365 0.785145 0
M  V30 12892 H 1188.41 2.98898 0.173245 0
M  V30 12893 H 1185.96 1.43767 0.0818868 0
M  V30 12894 H 1187.91 3.32671 2.58666 0
M  V30 12895 H 1186.64 2.08623 2.51285 0
M  V30 12896 H 1185.3 3.54004 0.952715 0
M  V30 12897 H 1184.94 3.68418 3.42458 0
M  V30 12898 H 1184.64 5.25237 2.63439 0
M  V30 12899 H 1186.17 4.98406 3.52738 0
M  V30 12900 H 1187.58 5.57556 1.33431 0
M  V30 12901 H 1185.98 5.9661 0.646231 0
M  V30 12902 H 1187.05 4.84428 -0.213789 0
M  V30 12903 N 1188.39 -0.0785156 1.57404 0
M  V30 12904 C 1189.64 -0.777399 1.8655 0
M  V30 12905 C 1189.96 -1.78451 0.786142 0
M  V30 12906 O 1189.23 -1.95016 -0.185911 0
M  V30 12907 H 1187.81 -0.290097 0.688369 0
M  V30 12908 H 1190.47 -0.0562017 1.94819 0
M  V30 12909 H 1189.57 -1.29776 2.83839 0
M  V30 12910 N 1189.87 -1.5367 -0.349747 0
M  V30 12911 C 1190.78 -1.84207 -1.45275 0
M  V30 12912 C 1191.8 -0.731695 -1.57868 0
M  V30 12913 O 1192.97 -1.02337 -1.73462 0
M  V30 12914 C 1190.04 -2.0398 -2.80345 0
M  V30 12915 C 1189.1 -3.27853 -2.77148 0
M  V30 12916 C 1188.33 -3.46673 -4.05775 0
M  V30 12917 O 1188.55 -2.69457 -5.02741 0
M  V30 12918 O 1187.49 -4.40082 -4.10623 0
M  V30 12919 H 1191.31 -2.77947 -1.22389 0
M  V30 12920 H 1188.9 -1.39247 -0.541345 0
M  V30 12921 H 1190.78 -2.18466 -3.60348 0
M  V30 12922 H 1189.46 -1.13429 -3.03176 0
M  V30 12923 H 1188.36 -3.18776 -1.95787 0
M  V30 12924 H 1189.7 -4.18377 -2.59271 0
M  V30 12925 N 1191.35 0.610423 -1.45298 0
M  V30 12926 C 1192.57 1.40112 -1.52917 0
M  V30 12927 C 1193 1.87404 -0.161696 0
M  V30 12928 O 1192.36 1.59973 0.853135 0
M  V30 12929 C 1192.4 2.58359 -2.51561 0
M  V30 12930 O 1191.51 3.58895 -2.03146 0
M  V30 12931 H 1190.85 0.41841 -0.515586 0
M  V30 12932 H 1193.38 0.743159 -1.90626 0
M  V30 12933 H 1193.39 3.0564 -2.70275 0
M  V30 12934 H 1192.06 2.23286 -3.50879 0
M  V30 12935 H 1190.64 3.18282 -1.94296 0
M  V30 12936 N 1192.83 1.32541 0.852676 0
M  V30 12937 C 1193.76 1.17471 1.96807 0
M  V30 12938 C 1194.77 0.109198 1.62433 0
M  V30 12939 O 1195.96 0.358342 1.74866 0
M  V30 12940 C 1193.06 0.776328 3.29888 0
M  V30 12941 C 1192.23 1.93055 3.9249 0
M  V30 12942 C 1191.29 1.51539 5.03907 0
M  V30 12943 O 1190.32 2.22771 5.23796 0
M  V30 12944 N 1191.52 0.412533 5.79032 0
M  V30 12945 H 1194.29 2.13551 2.10276 0
M  V30 12946 H 1191.85 1.25104 1.02764 0
M  V30 12947 H 1193.84 0.48096 4.01832 0
M  V30 12948 H 1192.41 -0.0933749 3.12461 0
M  V30 12949 H 1191.63 2.39231 3.13309 0
M  V30 12950 H 1192.92 2.70321 4.3105 0
M  V30 12951 H 1192.31 -0.180286 5.65413 0
M  V30 12952 H 1190.87 0.17678 6.5156 0
M  V30 12953 N 1194.3 -1.0692 1.15784 0
M  V30 12954 C 1195.24 -2.14168 0.816375 0
M  V30 12955 C 1196.25 -1.61872 -0.17357 0
M  V30 12956 O 1197.44 -1.78429 0.0502973 0
M  V30 12957 C 1194.54 -3.38346 0.193682 0
M  V30 12958 C 1193.71 -4.19979 1.22215 0
M  V30 12959 C 1192.77 -5.2253 0.620424 0
M  V30 12960 O 1191.8 -5.54446 1.28757 0
M  V30 12961 N 1193 -5.77434 -0.595811 0
M  V30 12962 H 1195.76 -2.44062 1.73937 0
M  V30 12963 H 1193.32 -1.22865 1.05431 0
M  V30 12964 H 1195.32 -4.04092 -0.22174 0
M  V30 12965 H 1193.89 -3.06129 -0.632735 0
M  V30 12966 H 1193.11 -3.49984 1.81397 0
M  V30 12967 H 1194.39 -4.71329 1.91641 0
M  V30 12968 H 1193.79 -5.5376 -1.15611 0
M  V30 12969 H 1192.35 -6.44788 -0.953529 0
M  V30 12970 N 1195.78 -0.955326 -1.25345 0
M  V30 12971 C 1196.69 -0.482707 -2.2958 0
M  V30 12972 C 1197.71 0.450283 -1.68073 0
M  V30 12973 O 1198.88 0.326358 -1.98738 0
M  V30 12974 C 1195.95 0.231293 -3.45928 0
M  V30 12975 C 1195.01 -0.739995 -4.22874 0
M  V30 12976 C 1194.24 -0.0599748 -5.33666 0
M  V30 12977 O 1194.47 1.15423 -5.586 0
M  V30 12978 O 1193.4 -0.745865 -5.97261 0
M  V30 12979 H 1197.23 -1.34892 -2.72099 0
M  V30 12980 H 1194.81 -0.721812 -1.30806 0
M  V30 12981 H 1196.69 0.632908 -4.1662 0
M  V30 12982 H 1195.37 1.07267 -3.0541 0
M  V30 12983 H 1194.28 -1.19183 -3.54607 0
M  V30 12984 H 1195.61 -1.54941 -4.67177 0
M  V30 12985 N 1197.26 1.39987 -0.723979 0
M  V30 12986 C 1198.19 2.3332 -0.0917282 0
M  V30 12987 C 1199.17 1.53335 0.736361 0
M  V30 12988 O 1200.36 1.81771 0.683582 0
M  V30 12989 C 1197.49 3.3737 0.824549 0
M  V30 12990 C 1196.44 4.2788 0.101452 0
M  V30 12991 C 1195.77 5.22536 1.13401 0
M  V30 12992 C 1197.07 5.11649 -1.04939 0
M  V30 12993 H 1198.76 2.86441 -0.871318 0
M  V30 12994 H 1196.31 1.37725 -0.420448 0
M  V30 12995 H 1198.26 4.01607 1.27631 0
M  V30 12996 H 1196.98 2.82663 1.63613 0
M  V30 12997 H 1195.64 3.65107 -0.330569 0
M  V30 12998 H 1195.29 4.64131 1.93886 0
M  V30 12999 H 1194.99 5.83938 0.65502 0
M  V30 13000 H 1196.52 5.89651 1.58569 0
M  V30 13001 H 1197.93 5.69293 -0.6766 0
M  V30 13002 H 1196.33 5.82137 -1.45729 0
M  V30 13003 H 1197.4 4.47132 -1.8762 0
M  V30 13004 N 1198.74 0.470782 1.50404 0
M  V30 13005 C 1199.69 -0.337584 2.30137 0
M  V30 13006 C 1200.68 -0.990673 1.37412 0
M  V30 13007 O 1201.89 -0.921813 1.54605 0
M  V30 13008 H 1198.26 -0.127707 0.741077 0
M  V30 13009 H 1200.23 0.355297 2.96277 0
M  V30 13010 C 1198.98 -1.40714 3.17954 0
M  V30 13011 H 1198.31 -0.913982 3.89213 0
M  V30 13012 H 1199.75 -1.94533 3.7674 0
M  V30 13013 C 1198.2 -2.40889 2.35529 0
M  V30 13014 O 1198.73 -3.46153 2.03816 0
M  V30 13015 N 1196.94 -2.126 1.98115 0
M  V30 13016 H 1196.49 -1.27023 2.24105 0
M  V30 13017 H 1196.45 -2.7986 1.43269 0
M  V30 13018 N 1200.22 -1.56282 0.203376 0
M  V30 13019 C 1201.44 -2.02643 -0.441658 0
M  V30 13020 C 1201.87 -1.0825 -1.5383 0
M  V30 13021 O 1201.23 -0.0674337 -1.81175 0
M  V30 13022 C 1201.27 -3.47382 -0.967369 0
M  V30 13023 O 1200.38 -3.56115 -2.07981 0
M  V30 13024 H 1199.72 -0.656081 -0.102242 0
M  V30 13025 H 1202.25 -2.02134 0.316684 0
M  V30 13026 H 1202.26 -3.8734 -1.28186 0
M  V30 13027 H 1200.93 -4.15574 -0.164625 0
M  V30 13028 H 1199.51 -3.28035 -1.77334 0
M  V30 13029 N 1201.7 0.070167 -1.57444 0
M  V30 13030 C 1202.63 1.11509 -1.991 0
M  V30 13031 C 1203.61 1.37481 -0.868194 0
M  V30 13032 O 1204.79 1.50827 -1.13064 0
M  V30 13033 C 1201.92 2.45908 -2.3291 0
M  V30 13034 C 1200.96 2.36059 -3.55216 0
M  V30 13035 S 1201.8 1.75316 -5.05989 0
M  V30 13036 C 1202.95 3.11289 -5.43001 0
M  V30 13037 H 1203.19 0.760096 -2.87419 0
M  V30 13038 H 1200.72 0.278756 -1.51863 0
M  V30 13039 H 1202.68 3.23217 -2.53063 0
M  V30 13040 H 1201.34 2.78567 -1.45117 0
M  V30 13041 H 1200.53 3.35176 -3.76395 0
M  V30 13042 H 1200.13 1.66886 -3.34701 0
M  V30 13043 H 1202.42 4.07603 -5.41171 0
M  V30 13044 H 1203.37 2.94888 -6.43775 0
M  V30 13045 H 1203.78 3.11969 -4.70463 0
M  V30 13046 N 1203.17 1.53854 0.341593 0
M  V30 13047 C 1204.42 1.71447 1.08322 0
M  V30 13048 C 1204.75 0.477289 1.88243 0
M  V30 13049 O 1204.03 -0.525695 1.87261 0
M  V30 13050 C 1204.31 2.97917 2.02281 0
M  V30 13051 C 1204.16 4.31847 1.25809 0
M  V30 13052 C 1205.48 3.20065 3.0207 0
M  V30 13053 H 1202.6 0.623847 0.392408 0
M  V30 13054 H 1205.24 1.86527 0.361594 0
M  V30 13055 H 1203.39 2.85191 2.63815 0
M  V30 13056 H 1205.07 4.56427 0.668737 0
M  V30 13057 H 1203.31 4.30169 0.560119 0
M  V30 13058 H 1203.98 5.16522 1.94704 0
M  V30 13059 H 1206.46 3.32135 2.50651 0
M  V30 13060 H 1205.33 4.09947 3.65013 0
M  V30 13061 H 1205.59 2.36452 3.73554 0
M  V30 13062 N 1204.65 -0.602709 1.4562 0
M  V30 13063 C 1205.88 -1.3881 1.53426 0
M  V30 13064 C 1206.29 -1.88046 0.16851 0
M  V30 13065 O 1205.65 -1.62493 -0.830791 0
M  V30 13066 C 1205.7 -2.58927 2.52268 0
M  V30 13067 O 1205.42 -2.11735 3.83536 0
M  V30 13068 C 1206.92 -3.51728 2.69819 0
M  V30 13069 H 1204.14 -0.424744 0.519455 0
M  V30 13070 H 1206.69 -0.73459 1.90851 0
M  V30 13071 H 1204.84 -3.20309 2.17902 0
M  V30 13072 H 1205.26 -2.89814 4.37159 0
M  V30 13073 H 1206.73 -4.32542 3.42945 0
M  V30 13074 H 1207.21 -4.02383 1.76024 0
M  V30 13075 H 1207.81 -2.96196 3.05202 0
M  V30 13076 N 1206.13 -1.32992 -0.845635 0
M  V30 13077 C 1207.41 -1.14671 -1.58461 0
M  V30 13078 C 1207.79 0.289498 -2.09106 0
M  V30 13079 O 1207.13 1.28751 -1.88773 0
M  V30 13080 C 1207.34 -2.18206 -2.72373 0
M  V30 13081 C 1208.69 -2.5201 -3.41726 0
M  V30 13082 O 1209.72 -2.16821 -2.82608 0
M  V30 13083 O 1208.58 -3.12368 -4.48429 0
M  V30 13084 H 1205.67 -0.443088 -0.698285 0
M  V30 13085 H 1208.22 -1.44552 -0.888978 0
M  V30 13086 H 1206.99 -3.14707 -2.32541 0
M  V30 13087 H 1206.61 -1.89372 -3.49605 0
M  V30 13088 N 1207.61 1.06304 -1.1635 0
M  V30 13089 C 1208.84 1.82799 -0.96913 0
M  V30 13090 C 1209.25 1.82526 0.482659 0
M  V30 13091 O 1208.61 1.24437 1.33498 0
M  V30 13092 C 1208.66 3.29417 -1.48884 0
M  V30 13093 O 1208.38 3.29803 -2.88377 0
M  V30 13094 C 1209.88 4.22642 -1.33748 0
M  V30 13095 H 1207.1 0.576388 -0.343537 0
M  V30 13096 H 1209.64 1.34122 -1.54375 0
M  V30 13097 H 1207.8 3.75406 -0.956509 0
M  V30 13098 H 1208.21 4.21486 -3.1217 0
M  V30 13099 H 1209.69 5.23545 -1.74942 0
M  V30 13100 H 1210.16 4.38287 -0.283021 0
M  V30 13101 H 1210.77 3.82499 -1.85942 0
M  V30 13102 N 1209.09 0.96196 1.24836 0
M  V30 13103 C 1210.02 0.506241 2.27946 0
M  V30 13104 C 1211 -0.451183 1.64007 0
M  V30 13105 O 1212.18 -0.348552 1.91046 0
M  V30 13106 C 1209.31 -0.209846 3.46665 0
M  V30 13107 C 1208.27 0.663035 4.22833 0
M  V30 13108 C 1207.59 -0.184216 5.34383 0
M  V30 13109 C 1208.89 1.94479 4.84742 0
M  V30 13110 H 1210.59 1.36805 2.66317 0
M  V30 13111 H 1208.13 0.65926 1.28023 0
M  V30 13112 H 1210.08 -0.539838 4.17928 0
M  V30 13113 H 1208.81 -1.10596 3.07305 0
M  V30 13114 H 1207.47 0.976216 3.53363 0
M  V30 13115 H 1207.12 -1.08031 4.91262 0
M  V30 13116 H 1206.82 0.39657 5.8626 0
M  V30 13117 H 1208.34 -0.509009 6.08475 0
M  V30 13118 H 1209.75 1.68074 5.48109 0
M  V30 13119 H 1208.15 2.47183 5.46828 0
M  V30 13120 H 1209.22 2.64332 4.06517 0
M  V30 13121 N 1210.56 -1.39601 0.731392 0
M  V30 13122 C 1211.51 -2.32469 0.0781328 0
M  V30 13123 C 1212.51 -1.52873 -0.729811 0
M  V30 13124 O 1213.71 -1.68563 -0.631402 0
M  V30 13125 H 1210.09 -0.751972 0.00646515 0
M  V30 13126 H 1212.06 -2.85196 0.877833 0
M  V30 13127 C 1210.81 -3.37948 -0.817717 0
M  V30 13128 H 1210.13 -3.99272 -0.205417 0
M  V30 13129 H 1211.57 -4.05387 -1.24248 0
M  V30 13130 C 1210.03 -2.74703 -1.95038 0
M  V30 13131 O 1210.56 -2.62266 -3.04269 0
M  V30 13132 N 1208.76 -2.32845 -1.73872 0
M  V30 13133 H 1208.31 -2.43161 -0.850321 0
M  V30 13134 H 1208.27 -1.90869 -2.49833 0
M  V30 13135 N 1212.04 -0.478751 -1.50152 0
M  V30 13136 C 1212.99 0.325375 -2.30313 0
M  V30 13137 C 1213.98 0.983372 -1.37935 0
M  V30 13138 O 1215.19 0.913601 -1.55091 0
M  V30 13139 H 1211.57 0.123775 -0.741744 0
M  V30 13140 H 1213.54 -0.371004 -2.96085 0
M  V30 13141 C 1212.29 1.39026 -3.18696 0
M  V30 13142 H 1211.61 0.893329 -3.89692 0
M  V30 13143 H 1213.05 1.92533 -3.77766 0
M  V30 13144 C 1211.51 2.39637 -2.36803 0
M  V30 13145 O 1212.04 3.45067 -2.05649 0
M  V30 13146 N 1210.24 2.11546 -1.9924 0
M  V30 13147 H 1209.79 1.25832 -2.24775 0
M  V30 13148 H 1209.75 2.79096 -1.44751 0
M  V30 13149 N 1213.52 1.56172 -0.211661 0
M  V30 13150 C 1214.75 2.02874 0.430905 0
M  V30 13151 C 1215.17 1.09064 1.53254 0
M  V30 13152 O 1214.53 0.0770408 1.81136 0
M  V30 13153 C 1214.58 3.4789 0.948933 0
M  V30 13154 O 1213.68 3.57213 2.0609 0
M  V30 13155 H 1213.02 0.656614 0.0987607 0
M  V30 13156 H 1215.55 2.01964 -0.327399 0
M  V30 13157 H 1215.56 3.88015 1.2613 0
M  V30 13158 H 1214.24 4.15656 0.142584 0
M  V30 13159 H 1212.81 3.28971 1.75592 0
M  V30 13160 N 1215 -0.0618163 1.57479 0
M  V30 13161 C 1216.25 -0.75794 1.86918 0
M  V30 13162 C 1216.56 -1.78234 0.80572 0
M  V30 13163 O 1217.77 -2.52874 0.98827 0
M  V30 13164 C 1216.22 -1.39898 3.31597 0
M  V30 13165 C 1215.83 -0.412621 4.46096 0
M  V30 13166 C 1217.57 -2.07688 3.70224 0
M  V30 13167 C 1215.48 -1.06014 5.8182 0
M  V30 13168 H 1214.41 -0.286825 0.697314 0
M  V30 13169 H 1217.06 -0.0114386 1.83496 0
M  V30 13170 H 1215.44 -2.19408 3.29661 0
M  V30 13171 H 1216.62 0.353392 4.59443 0
M  V30 13172 H 1214.93 0.161383 4.16087 0
M  V30 13173 H 1217.53 -2.56928 4.68927 0
M  V30 13174 H 1217.87 -2.88073 3.00532 0
M  V30 13175 H 1218.41 -1.34996 3.74194 0
M  V30 13176 H 1215.15 -0.296405 6.5483 0
M  V30 13177 H 1214.67 -1.79677 5.72255 0
M  V30 13178 H 1216.34 -1.57708 6.27485 0
M  V30 13179 N 1216.48 -1.54033 -0.333429 0
M  V30 13180 C 1217.89 -1.63107 -0.908455 0
M  V30 13181 C 1218.24 -0.518823 -1.89216 0
M  V30 13182 O 1217.36 0.34985 -2.13553 0
M  V30 13183 C 1217.96 -2.95657 -1.65447 0
M  V30 13184 C 1216.52 -3.0696 -2.17836 0
M  V30 13185 C 1215.66 -2.58617 -1.00063 0
M  V30 13186 H 1218.62 -1.58309 -0.11128 0
M  V30 13187 H 1218.64 -2.85263 -2.51804 0
M  V30 13188 H 1218.15 -3.76588 -0.938263 0
M  V30 13189 H 1216.25 -2.30683 -2.92602 0
M  V30 13190 H 1216.36 -4.12599 -2.43513 0
M  V30 13191 H 1214.73 -2.1427 -1.37697 0
M  V30 13192 H 1215.51 -3.41996 -0.298901 0
M  V30 13193 N 1217.95 0.594978 -1.45938 0
M  V30 13194 C 1219.2 1.35361 -1.50611 0
M  V30 13195 C 1219.53 1.93898 -0.152866 0
M  V30 13196 O 1218.78 1.76275 0.850037 0
M  V30 13197 C 1219.08 2.51129 -2.54301 0
M  V30 13198 C 1218.75 2.1066 -3.98664 0
M  V30 13199 C 1217.41 1.99338 -4.3797 0
M  V30 13200 C 1219.76 1.79267 -4.894 0
M  V30 13201 C 1217.09 1.54863 -5.65893 0
M  V30 13202 C 1219.44 1.36274 -6.17748 0
M  V30 13203 C 1218.11 1.2352 -6.55972 0
M  V30 13204 H 1217.38 0.49532 -0.551125 0
M  V30 13205 H 1220.02 0.671236 -1.79351 0
M  V30 13206 H 1218.33 3.24759 -2.19177 0
M  V30 13207 H 1220.03 3.09353 -2.55151 0
M  V30 13208 H 1216.62 2.20403 -3.67587 0
M  V30 13209 H 1220.8 1.86906 -4.59761 0
M  V30 13210 H 1216.06 1.43621 -5.94292 0
M  V30 13211 H 1220.23 1.11032 -6.87492 0
M  V30 13212 H 1217.86 0.88832 -7.54992 0
M  V30 13213 N 1219.43 1.33438 0.838571 0
M  V30 13214 C 1220.38 1.23717 1.94841 0
M  V30 13215 C 1221.35 0.11573 1.65696 0
M  V30 13216 O 1222.53 0.294051 1.8852 0
M  V30 13217 C 1219.67 0.982626 3.30815 0
M  V30 13218 C 1218.79 2.19036 3.72354 0
M  V30 13219 C 1217.92 1.86995 4.97199 0
M  V30 13220 C 1216.96 3.03998 5.31274 0
M  V30 13221 N 1216.1 2.71943 6.47295 0
M  V30 13222 H 1220.94 2.18639 2.02487 0
M  V30 13223 H 1218.48 1.08721 0.990861 0
M  V30 13224 H 1220.43 0.81548 4.09152 0
M  V30 13225 H 1219.06 0.0701443 3.22724 0
M  V30 13226 H 1218.12 2.46724 2.89537 0
M  V30 13227 H 1219.43 3.06505 3.93518 0
M  V30 13228 H 1218.58 1.66925 5.83285 0
M  V30 13229 H 1217.32 0.967628 4.78004 0
M  V30 13230 H 1216.33 3.24681 4.43692 0
M  V30 13231 H 1217.55 3.94985 5.52416 0
M  V30 13232 H 1215.5 1.8427 6.29588 0
M  V30 13233 H 1215.41 3.52943 6.68556 0
M  V30 13234 H 1216.68 2.55342 7.36492 0
M  V30 13235 N 1220.91 -1.05686 1.16912 0
M  V30 13236 C 1221.84 -2.15268 0.904532 0
M  V30 13237 C 1222.82 -1.69424 -0.151548 0
M  V30 13238 O 1224.01 -1.942 -0.00235371 0
M  V30 13239 C 1221.14 -3.44853 0.411581 0
M  V30 13240 C 1220.09 -4.04237 1.40628 0
M  V30 13241 C 1219.42 -5.29105 0.771479 0
M  V30 13242 C 1220.72 -4.42303 2.77787 0
M  V30 13243 H 1222.41 -2.37659 1.82094 0
M  V30 13244 H 1219.96 -1.14217 0.876947 0
M  V30 13245 H 1221.91 -4.20857 0.213929 0
M  V30 13246 H 1220.63 -3.22099 -0.540352 0
M  V30 13247 H 1219.29 -3.30297 1.59058 0
M  V30 13248 H 1218.94 -5.02652 -0.187133 0
M  V30 13249 H 1218.64 -5.69797 1.43545 0
M  V30 13250 H 1220.16 -6.07801 0.583988 0
M  V30 13251 H 1221.58 -5.09362 2.63103 0
M  V30 13252 H 1219.98 -4.93997 3.40716 0
M  V30 13253 H 1221.05 -3.52877 3.32575 0
M  V30 13254 N 1222.39 -0.968567 -1.24324 0
M  V30 13255 C 1223.61 -0.648166 -1.97012 0
M  V30 13256 C 1224.04 0.775842 -1.71354 0
M  V30 13257 O 1223.4 1.52672 -0.977804 0
M  V30 13258 C 1223.44 -0.929974 -3.48402 0
M  V30 13259 O 1222.55 -0.015854 -4.12397 0
M  V30 13260 H 1221.89 -0.244961 -0.617163 0
M  V30 13261 H 1224.42 -1.29895 -1.58077 0
M  V30 13262 H 1224.43 -0.861863 -3.98793 0
M  V30 13263 H 1223.1 -1.96776 -3.66404 0
M  V30 13264 H 1221.68 -0.137361 -3.72647 0
M  V30 13265 N 1223.87 1.39211 -0.738786 0
M  V30 13266 C 1225.09 2.05256 -0.297421 0
M  V30 13267 C 1225.52 1.55341 1.06069 0
M  V30 13268 O 1224.87 0.698823 1.67291 0
M  V30 13269 C 1224.92 3.59239 -0.312969 0
M  V30 13270 O 1224.03 4.06448 0.698112 0
M  V30 13271 H 1223.37 0.650245 -0.134454 0
M  V30 13272 H 1225.9 1.78173 -1.00577 0
M  V30 13273 H 1225.91 4.07691 -0.158675 0
M  V30 13274 H 1224.58 3.94931 -1.30394 0
M  V30 13275 H 1223.16 3.69401 0.509643 0
M  V30 13276 N 1225.34 0.486708 1.49896 0
M  V30 13277 C 1226.57 -0.0599944 2.06513 0
M  V30 13278 C 1226.98 -1.32662 1.34898 0
M  V30 13279 O 1226.33 -1.78915 0.416565 0
M  V30 13280 C 1226.39 -0.39838 3.57286 0
M  V30 13281 C 1226.05 0.768465 4.50493 0
M  V30 13282 C 1227.05 1.65495 4.92856 0
M  V30 13283 C 1224.73 0.96322 4.92978 0
M  V30 13284 C 1226.73 2.72046 5.76429 0
M  V30 13285 C 1224.41 2.03193 5.7633 0
M  V30 13286 C 1225.41 2.9089 6.17958 0
M  V30 13287 O 1225.1 3.95919 6.99645 0
M  V30 13288 H 1224.83 0.0107865 0.675914 0
M  V30 13289 H 1227.39 0.679087 1.93849 0
M  V30 13290 H 1225.62 -1.19086 3.67907 0
M  V30 13291 H 1227.31 -0.882003 3.96201 0
M  V30 13292 H 1228.07 1.51624 4.6069 0
M  V30 13293 H 1223.95 0.29004 4.60087 0
M  V30 13294 H 1227.49 3.40526 6.08841 0
M  V30 13295 H 1223.39 2.17064 6.07909 0
M  V30 13296 H 1224.16 3.93097 7.17925 0
M  V30 13297 N 1226.82 -1.56058 0.219941 0
M  V30 13298 C 1228.05 -2.02652 -0.417101 0
M  V30 13299 C 1228.47 -1.09977 -1.53461 0
M  V30 13300 O 1227.82 -0.109088 -1.82174 0
M  V30 13301 C 1227.87 -3.48787 -0.950244 0
M  V30 13302 O 1227.6 -4.37928 0.12271 0
M  V30 13303 C 1229.1 -4.11018 -1.66069 0
M  V30 13304 H 1226.32 -0.663163 -0.102254 0
M  V30 13305 H 1228.86 -2.01722 0.335923 0
M  V30 13306 H 1227.02 -3.50338 -1.65355 0
M  V30 13307 H 1227.43 -5.23764 -0.277785 0
M  V30 13308 H 1228.9 -5.15046 -1.98575 0
M  V30 13309 H 1229.38 -3.55921 -2.57326 0
M  V30 13310 H 1229.99 -4.13313 -1.00263 0
M  V30 13311 N 1228.3 0.053464 -1.57509 0
M  V30 13312 C 1229.58 0.783141 -1.79238 0
M  V30 13313 C 1229.96 1.94855 -0.812069 0
M  V30 13314 O 1229.31 2.28 0.151006 0
M  V30 13315 C 1229.52 1.239 -3.26266 0
M  V30 13316 C 1230.86 1.66492 -3.90596 0
M  V30 13317 O 1231.89 1.33421 -3.30269 0
M  V30 13318 O 1230.75 2.27785 -4.96766 0
M  V30 13319 H 1227.84 0.376696 -0.736226 0
M  V30 13320 H 1230.39 0.0321229 -1.6967 0
M  V30 13321 H 1229.16 0.405948 -3.89189 0
M  V30 13322 H 1228.78 2.05078 -3.4063 0
M  V30 13323 N 1229.78 1.54207 0.325255 0
M  V30 13324 C 1231.06 1.6298 1.08153 0
M  V30 13325 C 1231.44 0.462583 2.05969 0
M  V30 13326 O 1230.78 -0.543323 2.21947 0
M  V30 13327 C 1230.99 2.999 1.78497 0
M  V30 13328 C 1232.34 3.55888 2.3158 0
M  V30 13329 O 1233.37 3.02194 1.88566 0
M  V30 13330 O 1232.23 4.49847 3.10322 0
M  V30 13331 H 1229.32 0.659923 0.498429 0
M  V30 13332 H 1231.87 1.66553 0.325282 0
M  V30 13333 H 1230.64 3.7629 1.07338 0
M  V30 13334 H 1230.26 2.99997 2.60936 0
M  V30 13335 N 1231.26 -0.58723 1.46251 0
M  V30 13336 C 1232.2 -1.69662 1.56472 0
M  V30 13337 C 1233.17 -1.60978 0.409294 0
M  V30 13338 O 1234.36 -1.80257 0.625451 0
M  V30 13339 C 1231.5 -3.07996 1.55669 0
M  V30 13340 C 1230.61 -3.27337 2.81913 0
M  V30 13341 C 1229.75 -4.55894 2.72644 0
M  V30 13342 C 1228.79 -4.68562 3.93847 0
M  V30 13343 N 1227.92 -5.8844 3.82991 0
M  V30 13344 H 1232.76 -1.60262 2.51237 0
M  V30 13345 H 1230.3 -0.781148 1.24645 0
M  V30 13346 H 1232.26 -3.88058 1.53189 0
M  V30 13347 H 1230.89 -3.16303 0.6444 0
M  V30 13348 H 1229.94 -2.4091 2.94392 0
M  V30 13349 H 1231.25 -3.32567 3.71754 0
M  V30 13350 H 1230.41 -5.44178 2.68244 0
M  V30 13351 H 1229.15 -4.53094 1.80435 0
M  V30 13352 H 1228.15 -3.78696 3.98584 0
M  V30 13353 H 1229.38 -4.73144 4.87146 0
M  V30 13354 H 1227.32 -5.86647 2.93566 0
M  V30 13355 H 1227.24 -5.94919 4.66484 0
M  V30 13356 H 1228.51 -6.79168 3.82559 0
M  V30 13357 N 1232.74 -1.33881 -0.831482 0
M  V30 13358 C 1233.98 -1.251 -1.58218 0
M  V30 13359 C 1234.3 0.17963 -1.94773 0
M  V30 13360 O 1235.5 0.389516 -2.68691 0
M  V30 13361 C 1233.96 -2.19246 -2.8541 0
M  V30 13362 C 1233.57 -3.6752 -2.5619 0
M  V30 13363 C 1235.31 -2.19355 -3.63433 0
M  V30 13364 C 1233.22 -4.53559 -3.79523 0
M  V30 13365 H 1232.15 -0.46469 -0.593784 0
M  V30 13366 H 1234.8 -1.58992 -0.916169 0
M  V30 13367 H 1233.18 -1.78295 -3.53591 0
M  V30 13368 H 1234.36 -4.16956 -1.96173 0
M  V30 13369 H 1232.67 -3.69774 -1.91458 0
M  V30 13370 H 1235.27 -2.80863 -4.54995 0
M  V30 13371 H 1235.61 -1.19056 -3.98913 0
M  V30 13372 H 1236.14 -2.58706 -3.02185 0
M  V30 13373 H 1232.88 -5.54762 -3.4917 0
M  V30 13374 H 1232.4 -4.08862 -4.38853 0
M  V30 13375 H 1234.08 -4.67736 -4.47025 0
M  V30 13376 N 1234.21 1.05064 -1.1747 0
M  V30 13377 C 1235.14 2.14786 -0.915936 0
M  V30 13378 C 1236.12 1.69502 0.142561 0
M  V30 13379 O 1237.31 1.94198 -0.00794522 0
M  V30 13380 C 1234.44 3.44629 -0.429864 0
M  V30 13381 C 1233.39 4.03486 -1.42769 0
M  V30 13382 C 1232.72 5.28689 -0.799528 0
M  V30 13383 C 1234.02 4.40823 -2.80129 0
M  V30 13384 H 1235.71 2.3669 -1.83352 0
M  V30 13385 H 1233.26 1.13751 -0.882992 0
M  V30 13386 H 1235.21 4.20737 -0.236245 0
M  V30 13387 H 1233.94 3.22381 0.523263 0
M  V30 13388 H 1232.6 3.29449 -1.60808 0
M  V30 13389 H 1232.24 5.02744 0.160474 0
M  V30 13390 H 1231.94 5.69028 -1.46565 0
M  V30 13391 H 1233.47 6.07483 -0.616212 0
M  V30 13392 H 1234.88 5.07959 -2.65801 0
M  V30 13393 H 1233.28 4.92183 -3.43331 0
M  V30 13394 H 1234.35 3.51108 -3.34441 0
M  V30 13395 N 1235.69 0.975146 1.23809 0
M  V30 13396 C 1236.94 0.636678 1.91388 0
M  V30 13397 C 1237.25 -0.832876 1.76982 0
M  V30 13398 O 1238.46 -1.28218 2.39316 0
M  V30 13399 C 1236.92 1.08813 3.43057 0
M  V30 13400 C 1236.52 2.58165 3.66135 0
M  V30 13401 C 1238.27 0.823154 4.16443 0
M  V30 13402 C 1236.17 2.97004 5.11412 0
M  V30 13403 H 1235.1 0.234424 0.716632 0
M  V30 13404 H 1237.76 1.18235 1.40331 0
M  V30 13405 H 1236.14 0.470709 3.93192 0
M  V30 13406 H 1237.31 3.25101 3.26567 0
M  V30 13407 H 1235.63 2.82353 3.06049 0
M  V30 13408 H 1238.22 1.08925 5.23488 0
M  V30 13409 H 1238.57 -0.240705 4.15604 0
M  V30 13410 H 1239.1 1.4019 3.72279 0
M  V30 13411 H 1235.84 4.02492 5.17378 0
M  V30 13412 H 1235.36 2.34759 5.51949 0
M  V30 13413 H 1237.04 2.8732 5.79704 0
M  V30 13414 N 1237.17 -1.38817 0.746158 0
M  V30 13415 C 1238.39 -2.05096 0.308302 0
M  V30 13416 C 1238.82 -1.55902 -1.05244 0
M  V30 13417 O 1238.18 -0.707685 -1.66918 0
M  V30 13418 C 1238.23 -3.59068 0.332016 0
M  V30 13419 O 1237.33 -4.06813 -0.676547 0
M  V30 13420 H 1236.67 -0.649523 0.1379 0
M  V30 13421 H 1239.2 -1.77637 1.0152 0
M  V30 13422 H 1239.21 -4.07601 0.180293 0
M  V30 13423 H 1237.89 -3.94234 1.32487 0
M  V30 13424 H 1236.46 -3.69666 -0.490046 0
M  V30 13425 N 1238.65 -0.49465 -1.49636 0
M  V30 13426 C 1239.88 0.0490417 -2.06542 0
M  V30 13427 C 1240.29 1.31945 -1.35599 0
M  V30 13428 O 1239.63 1.78691 -0.426047 0
M  V30 13429 C 1239.69 0.379426 -3.57492 0
M  V30 13430 C 1239.35 -0.792345 -4.50079 0
M  V30 13431 C 1240.35 -1.68106 -4.91972 0
M  V30 13432 C 1238.04 -0.98935 -4.9246 0
M  V30 13433 C 1240.03 -2.75099 -5.74978 0
M  V30 13434 C 1237.72 -2.06247 -5.75244 0
M  V30 13435 C 1238.72 -2.94163 -6.16407 0
M  V30 13436 O 1238.4 -3.99623 -6.97536 0
M  V30 13437 H 1238.14 -0.0143708 -0.675847 0
M  V30 13438 H 1240.69 -0.689358 -1.93486 0
M  V30 13439 H 1238.92 1.17133 -3.68533 0
M  V30 13440 H 1240.61 0.860979 -3.96664 0
M  V30 13441 H 1241.37 -1.54065 -4.59879 0
M  V30 13442 H 1237.25 -0.314435 -4.59926 0
M  V30 13443 H 1240.8 -3.4375 -6.07027 0
M  V30 13444 H 1236.69 -2.20285 -6.06749 0
M  V30 13445 H 1237.46 -3.96899 -7.15831 0
M  V30 13446 N 1240.13 1.55939 -0.228214 0
M  V30 13447 C 1241.37 1.98476 0.401677 0
M  V30 13448 C 1241.7 1.116 1.59297 0
M  V30 13449 O 1240.96 0.162465 1.95024 0
M  V30 13450 C 1241.25 3.46581 0.872732 0
M  V30 13451 C 1240.92 4.50416 -0.208767 0
M  V30 13452 C 1239.58 4.78534 -0.505847 0
M  V30 13453 C 1241.93 5.12656 -0.939852 0
M  V30 13454 C 1239.26 5.66171 -1.53841 0
M  V30 13455 C 1241.61 6.01412 -1.9618 0
M  V30 13456 C 1240.28 6.2787 -2.26573 0
M  V30 13457 H 1239.55 0.726276 0.146984 0
M  V30 13458 H 1242.2 1.88598 -0.332128 0
M  V30 13459 H 1240.5 3.53696 1.68541 0
M  V30 13460 H 1242.2 3.76869 1.37006 0
M  V30 13461 H 1238.79 4.28587 0.0329308 0
M  V30 13462 H 1242.97 4.90997 -0.723581 0
M  V30 13463 H 1238.23 5.84933 -1.77944 0
M  V30 13464 H 1242.4 6.48688 -2.53332 0
M  V30 13465 H 1240.03 6.95574 -3.06725 0
M  V30 13466 N 1241.6 -0.0451101 1.57535 0
M  V30 13467 C 1242.55 -1.0692 2.06569 0
M  V30 13468 C 1243.55 -1.38443 0.976218 0
M  V30 13469 O 1244.75 -1.37536 1.1612 0
M  V30 13470 H 1241.13 -0.36226 0.658993 0
M  V30 13471 H 1243.1 -0.629709 2.9168 0
M  V30 13472 C 1241.85 -2.36656 2.54733 0
M  V30 13473 H 1241.17 -2.13257 3.38174 0
M  V30 13474 H 1242.61 -3.06696 2.92769 0
M  V30 13475 C 1241.07 -3.04499 1.4416 0
M  V30 13476 O 1241.6 -3.93679 0.798721 0
M  V30 13477 N 1239.81 -2.6556 1.18009 0
M  V30 13478 H 1239.35 -1.93126 1.7047 0
M  V30 13479 H 1239.31 -3.11272 0.442363 0
M  V30 13480 N 1243.08 -1.54377 -0.317073 0
M  V30 13481 C 1244.03 -1.84214 -1.39046 0
M  V30 13482 C 1245 -0.689742 -1.51102 0
M  V30 13483 O 1246.18 -0.936809 -1.66218 0
M  V30 13484 C 1243.32 -2.08087 -2.75307 0
M  V30 13485 C 1242.44 -3.35756 -2.7183 0
M  V30 13486 C 1241.57 -3.49556 -3.9998 0
M  V30 13487 C 1240.61 -4.71076 -3.90837 0
M  V30 13488 N 1239.75 -4.81767 -5.10729 0
M  V30 13489 H 1244.59 -2.75785 -1.12902 0
M  V30 13490 H 1242.13 -1.36575 -0.546404 0
M  V30 13491 H 1244.08 -2.19921 -3.54529 0
M  V30 13492 H 1242.71 -1.19801 -2.99746 0
M  V30 13493 H 1241.77 -3.32627 -1.84563 0
M  V30 13494 H 1243.08 -4.2509 -2.60959 0
M  V30 13495 H 1242.23 -3.60967 -4.87635 0
M  V30 13496 H 1240.97 -2.58326 -4.13665 0
M  V30 13497 H 1239.98 -4.59715 -3.01566 0
M  V30 13498 H 1241.2 -5.63698 -3.78711 0
M  V30 13499 H 1239.15 -3.93455 -5.24908 0
M  V30 13500 H 1239.06 -5.65077 -5.02219 0
M  V30 13501 H 1240.33 -4.97517 -6.00081 0
M  V30 13502 N 1244.56 0.579466 -1.4656 0
M  V30 13503 C 1245.81 1.33756 -1.52038 0
M  V30 13504 C 1246.14 1.93725 -0.173423 0
M  V30 13505 O 1245.39 1.77167 0.831293 0
M  V30 13506 C 1245.69 2.48417 -2.56951 0
M  V30 13507 C 1245.36 2.0642 -4.00876 0
M  V30 13508 C 1244.02 1.94682 -4.4006 0
M  V30 13509 C 1246.37 1.74066 -4.91274 0
M  V30 13510 C 1243.7 1.48852 -5.67503 0
M  V30 13511 C 1246.05 1.29714 -6.19158 0
M  V30 13512 C 1244.71 1.16555 -6.57245 0
M  V30 13513 H 1243.98 0.489447 -0.556347 0
M  V30 13514 H 1246.63 0.652176 -1.80053 0
M  V30 13515 H 1244.94 3.22416 -2.2261 0
M  V30 13516 H 1246.63 3.06629 -2.58418 0
M  V30 13517 H 1243.22 2.16492 -3.69904 0
M  V30 13518 H 1247.41 1.82019 -4.61717 0
M  V30 13519 H 1242.66 1.3731 -5.95782 0
M  V30 13520 H 1246.84 1.03734 -6.88631 0
M  V30 13521 H 1244.46 0.808193 -7.55892 0
M  V30 13522 N 1246.04 1.3432 0.824371 0
M  V30 13523 C 1247.29 1.26595 1.5805 0
M  V30 13524 C 1247.61 -0.164471 1.93803 0
M  V30 13525 O 1246.87 -1.12537 1.60106 0
M  V30 13526 C 1247.17 2.1008 2.89139 0
M  V30 13527 C 1246.83 3.59102 2.72684 0
M  V30 13528 C 1245.5 3.99726 2.67904 0
M  V30 13529 C 1247.85 4.53736 2.56463 0
M  V30 13530 C 1245.18 5.33178 2.44822 0
M  V30 13531 C 1247.53 5.87366 2.34913 0
M  V30 13532 C 1246.19 6.27155 2.28544 0
M  V30 13533 H 1245.46 0.463245 0.578347 0
M  V30 13534 H 1248.11 1.66048 0.953948 0
M  V30 13535 H 1246.41 1.6345 3.56078 0
M  V30 13536 H 1248.11 2.01451 3.46726 0
M  V30 13537 H 1244.7 3.26855 2.77244 0
M  V30 13538 H 1248.88 4.23248 2.5918 0
M  V30 13539 H 1244.14 5.63028 2.38348 0
M  V30 13540 H 1248.31 6.60286 2.21349 0
M  V30 13541 H 1245.94 7.30498 2.1042 0
M  V30 13542 N 1247.52 -1.0444 1.18026 0
M  V30 13543 C 1248.46 -2.12365 0.903865 0
M  V30 13544 C 1249.43 -1.65373 -0.155252 0
M  V30 13545 O 1250.62 -1.90793 -0.016419 0
M  V30 13546 C 1247.76 -3.4239 0.431603 0
M  V30 13547 C 1246.87 -4.03016 1.55571 0
M  V30 13548 C 1246.01 -5.20988 1.03655 0
M  V30 13549 C 1245.05 -5.73636 2.1356 0
M  V30 13550 N 1244.18 -6.82901 1.63066 0
M  V30 13551 H 1249.02 -2.35346 1.82802 0
M  V30 13552 H 1246.56 -1.15447 0.911618 0
M  V30 13553 H 1248.52 -4.16967 0.139296 0
M  V30 13554 H 1247.15 -3.19569 -0.455576 0
M  V30 13555 H 1246.2 -3.25803 1.96358 0
M  V30 13556 H 1247.51 -4.38122 2.38434 0
M  V30 13557 H 1246.67 -6.02665 0.698546 0
M  V30 13558 H 1245.4 -4.87377 0.177457 0
M  V30 13559 H 1244.41 -4.90583 2.4821 0
M  V30 13560 H 1245.63 -6.09293 2.99899 0
M  V30 13561 H 1243.58 -6.51172 0.794394 0
M  V30 13562 H 1243.5 -7.1705 2.3953 0
M  V30 13563 H 1244.77 -7.68211 1.32181 0
M  V30 13564 N 1248.99 -0.981699 -1.2329 0
M  V30 13565 C 1250.41 -0.690539 -1.43888 0
M  V30 13566 C 1250.61 0.742816 -1.87309 0
M  V30 13567 O 1249.67 1.5151 -2.01993 0
M  V30 13568 C 1250.98 -1.68657 -2.48948 0
M  V30 13569 C 1252.53 -1.70076 -2.62761 0
M  V30 13570 C 1253 -2.68513 -3.71032 0
M  V30 13571 N 1254.49 -2.67039 -3.78476 0
M  V30 13572 C 1255.23 -3.39874 -4.61815 0
M  V30 13573 N 1254.72 -4.22273 -5.49233 0
M  V30 13574 N 1256.52 -3.28633 -4.56023 0
M  V30 13575 H 1248.67 -1.90758 -0.934077 0
M  V30 13576 H 1250.93 -0.822058 -0.472149 0
M  V30 13577 H 1250.64 -2.7117 -2.23964 0
M  V30 13578 H 1250.51 -1.47045 -3.47358 0
M  V30 13579 H 1252.9 -0.682673 -2.87095 0
M  V30 13580 H 1252.98 -1.95754 -1.64663 0
M  V30 13581 H 1252.62 -3.70464 -3.47446 0
M  V30 13582 H 1252.55 -2.40109 -4.68674 0
M  V30 13583 H 1255.04 -2.07241 -3.16006 0
M  V30 13584 H 1255.36 -4.74702 -6.09818 0
M  V30 13585 H 1253.7 -4.26364 -5.48852 0
M  V30 13586 H 1256.89 -2.6371 -3.86749 0
M  V30 13587 H 1257.07 -3.85656 -5.20743 0
M  V30 13588 N 1250.47 1.3842 -0.753509 0
M  V30 13589 C 1251.72 1.99359 -0.306416 0
M  V30 13590 C 1252.03 1.60492 1.11811 0
M  V30 13591 O 1253.24 2.14401 1.66567 0
M  V30 13592 C 1251.7 3.56453 -0.496895 0
M  V30 13593 C 1251.3 4.04272 -1.9305 0
M  V30 13594 C 1253.05 4.24351 -0.11251 0
M  V30 13595 C 1250.96 5.54007 -2.06955 0
M  V30 13596 H 1249.89 0.745812 -0.110818 0
M  V30 13597 H 1252.54 1.58185 -0.930039 0
M  V30 13598 H 1250.92 3.95515 0.195912 0
M  V30 13599 H 1252.09 3.765 -2.65677 0
M  V30 13600 H 1250.41 3.49098 -2.26979 0
M  V30 13601 H 1253 5.34344 -0.195161 0
M  V30 13602 H 1253.35 4.05668 0.934849 0
M  V30 13603 H 1253.88 3.90528 -0.757168 0
M  V30 13604 H 1250.62 5.77594 -3.09944 0
M  V30 13605 H 1250.14 5.83522 -1.38788 0
M  V30 13606 H 1251.82 6.19704 -1.85945 0
M  V30 13607 N 1251.95 0.502579 1.49372 0
M  V30 13608 C 1252.9 -0.275004 2.29156 0
M  V30 13609 C 1253.87 -0.95892 1.35624 0
M  V30 13610 O 1255.05 -0.965276 1.64581 0
M  V30 13611 C 1252.19 -1.33255 3.18335 0
M  V30 13612 C 1251.31 -0.660248 4.26925 0
M  V30 13613 C 1250.44 -1.69837 5.03318 0
M  V30 13614 C 1249.48 -1.00802 6.03743 0
M  V30 13615 N 1248.62 -1.99042 6.73295 0
M  V30 13616 H 1253.46 0.411599 2.95144 0
M  V30 13617 H 1250.99 0.214824 1.45523 0
M  V30 13618 H 1252.95 -1.95769 3.68416 0
M  V30 13619 H 1251.58 -1.98789 2.54328 0
M  V30 13620 H 1250.63 0.0782181 3.8032 0
M  V30 13621 H 1251.95 -0.11689 4.98663 0
M  V30 13622 H 1251.1 -2.39852 5.57275 0
M  V30 13623 H 1249.84 -2.27558 4.31357 0
M  V30 13624 H 1248.84 -0.293654 5.49015 0
M  V30 13625 H 1250.07 -0.437285 6.77691 0
M  V30 13626 H 1248.01 -2.55722 6.04104 0
M  V30 13627 H 1247.93 -1.49776 7.41015 0
M  V30 13628 H 1249.2 -2.6834 7.31856 0
M  V30 13629 N 1253.43 -1.55816 0.23648 0
M  V30 13630 C 1254.65 -2.03534 -0.398575 0
M  V30 13631 C 1255.08 -1.11488 -1.51499 0
M  V30 13632 O 1254.44 -0.105848 -1.80991 0
M  V30 13633 C 1254.48 -3.49356 -0.893467 0
M  V30 13634 O 1253.59 -3.60446 -2.00381 0
M  V30 13635 H 1252.93 -0.658102 -0.0883021 0
M  V30 13636 H 1255.46 -2.01417 0.359488 0
M  V30 13637 H 1255.47 -3.89972 -1.19941 0
M  V30 13638 H 1254.14 -4.1583 -0.0764388 0
M  V30 13639 H 1252.72 -3.31723 -1.70336 0
M  V30 13640 N 1254.91 0.036755 -1.57557 0
M  V30 13641 C 1256.13 0.744813 -1.93565 0
M  V30 13642 C 1256.56 1.68508 -0.835863 0
M  V30 13643 O 1255.91 1.80091 0.208986 0
M  V30 13644 C 1255.96 1.48461 -3.28621 0
M  V30 13645 O 1255.07 2.59739 -3.20327 0
M  V30 13646 H 1254.41 0.200866 -0.632889 0
M  V30 13647 H 1256.94 -0.00547543 -2.04599 0
M  V30 13648 H 1256.95 1.85622 -3.63329 0
M  V30 13649 H 1255.62 0.794953 -4.08232 0
M  V30 13650 H 1254.2 2.25176 -2.97237 0
M  V30 13651 N 1256.39 1.54543 0.308881 0
M  V30 13652 C 1257.61 1.77753 1.06857 0
M  V30 13653 C 1258.04 0.531616 1.80431 0
M  V30 13654 O 1257.39 -0.517513 1.73757 0
M  V30 13655 C 1257.44 2.97968 2.03094 0
M  V30 13656 O 1256.55 2.70541 3.11257 0
M  V30 13657 H 1255.89 0.588576 0.307368 0
M  V30 13658 H 1258.42 2.01607 0.348703 0
M  V30 13659 H 1258.43 3.25722 2.45702 0
M  V30 13660 H 1257.1 3.88314 1.48948 0
M  V30 13661 H 1255.68 2.53781 2.7322 0
M  V30 13662 N 1257.86 -0.571685 1.46866 0
M  V30 13663 C 1259.11 -1.33145 1.52972 0
M  V30 13664 C 1259.44 -1.93314 0.185344 0
M  V30 13665 O 1258.72 -1.77083 -0.80447 0
M  V30 13666 C 1259 -2.4525 2.63675 0
M  V30 13667 C 1258.85 -1.90044 4.0768 0
M  V30 13668 C 1260.17 -3.47247 2.70384 0
M  V30 13669 H 1257.29 -0.482751 0.556885 0
M  V30 13670 H 1259.93 -0.641163 1.78855 0
M  V30 13671 H 1258.08 -3.04132 2.41735 0
M  V30 13672 H 1259.76 -1.35535 4.4094 0
M  V30 13673 H 1258 -1.20805 4.1664 0
M  V30 13674 H 1258.67 -2.71019 4.80887 0
M  V30 13675 H 1261.15 -2.98263 2.90135 0
M  V30 13676 H 1260.02 -4.23132 3.49643 0
M  V30 13677 H 1260.28 -4.05179 1.76868 0
M  V30 13678 N 1259.34 -1.34755 -0.817236 0
M  V30 13679 C 1260.27 -1.29452 -1.94331 0
M  V30 13680 C 1261.25 -0.170902 -1.69239 0
M  V30 13681 O 1262.44 -0.364173 -1.90755 0
M  V30 13682 C 1259.57 -1.05497 -3.30889 0
M  V30 13683 C 1258.52 -2.14386 -3.70436 0
M  V30 13684 C 1257.85 -1.75612 -5.05039 0
M  V30 13685 C 1259.15 -3.56265 -3.81933 0
M  V30 13686 H 1260.84 -2.23672 -1.99025 0
M  V30 13687 H 1258.39 -1.07674 -0.956159 0
M  V30 13688 H 1260.34 -1.0043 -4.09257 0
M  V30 13689 H 1259.06 -0.0772059 -3.26509 0
M  V30 13690 H 1257.72 -2.18532 -2.94345 0
M  V30 13691 H 1257.37 -0.764809 -4.97152 0
M  V30 13692 H 1257.07 -2.48495 -5.3247 0
M  V30 13693 H 1258.6 -1.72051 -5.85859 0
M  V30 13694 H 1260.01 -3.545 -4.50558 0
M  V30 13695 H 1258.41 -4.27818 -4.20822 0
M  V30 13696 H 1259.48 -3.93192 -2.83775 0
M  V30 13697 N 1260.82 1.03812 -1.18578 0
M  V30 13698 C 1261.77 2.13994 -0.911563 0
M  V30 13699 C 1262.76 1.68907 0.129131 0
M  V30 13700 O 1263.97 1.7999 -0.0192557 0
M  V30 13701 H 1260.34 0.698996 -0.277324 0
M  V30 13702 H 1262.31 2.34318 -1.84763 0
M  V30 13703 C 1261.06 3.44689 -0.456591 0
M  V30 13704 H 1260.39 3.79793 -1.2489 0
M  V30 13705 H 1261.83 4.22911 -0.303738 0
M  V30 13706 C 1260.28 3.26568 0.827961 0
M  V30 13707 O 1260.81 3.54376 1.89158 0
M  V30 13708 N 1259.02 2.79893 0.781567 0
M  V30 13709 H 1258.57 2.57462 -0.0842145 0
M  V30 13710 H 1258.53 2.68148 1.64146 0
M  V30 13711 N 1262.3 0.988223 1.22768 0
M  V30 13712 C 1263.23 0.47962 2.23103 0
M  V30 13713 C 1264.21 -0.457546 1.5603 0
M  V30 13714 O 1265.39 -0.384178 1.84544 0
M  V30 13715 C 1262.52 -0.305248 3.37322 0
M  V30 13716 C 1261.57 0.577215 4.22576 0
M  V30 13717 S 1262.4 2.02974 4.95542 0
M  V30 13718 C 1263.55 1.25423 6.13205 0
M  V30 13719 H 1263.79 1.32985 2.65899 0
M  V30 13720 H 1261.32 0.794824 1.3237 0
M  V30 13721 H 1263.28 -0.752057 4.03552 0
M  V30 13722 H 1261.94 -1.1307 2.93043 0
M  V30 13723 H 1261.13 -0.0264391 5.03993 0
M  V30 13724 H 1260.73 0.960593 3.61453 0
M  V30 13725 H 1263.03 0.519499 6.75505 0
M  V30 13726 H 1263.97 2.04351 6.77972 0
M  V30 13727 H 1264.38 0.769573 5.5923 0
M  V30 13728 N 1263.78 -1.38018 0.760839 0
M  V30 13729 C 1265.19 -1.53437 0.439239 0
M  V30 13730 C 1265.39 -1.72184 -1.04666 0
M  V30 13731 O 1264.45 -1.73698 -1.83263 0
M  V30 13732 C 1265.76 -2.73724 1.24481 0
M  V30 13733 C 1267.31 -2.87579 1.23561 0
M  V30 13734 C 1267.78 -4.10836 2.02429 0
M  V30 13735 N 1269.27 -4.17928 1.99727 0
M  V30 13736 C 1270.01 -5.12309 2.57541 0
M  V30 13737 N 1269.51 -6.12317 3.24098 0
M  V30 13738 N 1271.3 -5.04712 2.47431 0
M  V30 13739 H 1263.45 -1.241 1.72375 0
M  V30 13740 H 1265.71 -0.603427 0.73115 0
M  V30 13741 H 1265.42 -2.663 2.29732 0
M  V30 13742 H 1265.29 -3.67111 0.866579 0
M  V30 13743 H 1267.68 -2.9448 0.191122 0
M  V30 13744 H 1267.76 -1.95183 1.6534 0
M  V30 13745 H 1267.4 -4.04696 3.06893 0
M  V30 13746 H 1267.33 -5.02326 1.58039 0
M  V30 13747 H 1269.83 -3.46307 1.51262 0
M  V30 13748 H 1270.14 -6.80842 3.65615 0
M  V30 13749 H 1268.48 -6.12628 3.28195 0
M  V30 13750 H 1271.67 -4.25524 1.95057 0
M  V30 13751 H 1271.85 -5.78085 2.92783 0
M  V30 13752 N 1265.25 -0.510493 -1.49103 0
M  V30 13753 C 1266.48 0.0271324 -2.06582 0
M  V30 13754 C 1266.89 1.30499 -1.36991 0
M  V30 13755 O 1266.23 1.78229 -0.444976 0
M  V30 13756 C 1266.3 0.341488 -3.57874 0
M  V30 13757 C 1265.96 -0.840037 -4.49213 0
M  V30 13758 C 1266.96 -1.73315 -4.90161 0
M  V30 13759 C 1264.64 -1.04153 -4.91383 0
M  V30 13760 C 1266.64 -2.81182 -5.72028 0
M  V30 13761 C 1264.32 -2.12336 -5.73024 0
M  V30 13762 C 1265.32 -3.00684 -6.13252 0
M  V30 13763 O 1265.01 -4.06999 -6.93258 0
M  V30 13764 H 1264.74 -0.0215383 -0.675657 0
M  V30 13765 H 1267.3 -0.709841 -1.92744 0
M  V30 13766 H 1265.53 1.13218 -3.69755 0
M  V30 13767 H 1267.21 0.818859 -3.97554 0
M  V30 13768 H 1267.98 -1.58934 -4.58219 0
M  V30 13769 H 1263.86 -0.363199 -4.59567 0
M  V30 13770 H 1267.4 -3.50169 -6.03347 0
M  V30 13771 H 1263.3 -2.26708 -6.04379 0
M  V30 13772 H 1264.07 -4.04469 -7.11581 0
M  V30 13773 N 1266.73 1.55688 -0.24474 0
M  V30 13774 C 1267.68 2.21289 0.655723 0
M  V30 13775 C 1268.65 1.17606 1.17295 0
M  V30 13776 O 1269.83 1.46045 1.22782 0
M  V30 13777 C 1266.97 2.91453 1.84794 0
M  V30 13778 C 1266.09 4.09787 1.36744 0
M  V30 13779 C 1265.22 4.67672 2.51905 0
M  V30 13780 C 1264.26 5.78259 2.00706 0
M  V30 13781 N 1263.4 6.30336 3.09225 0
M  V30 13782 H 1268.24 2.97865 0.0896156 0
M  V30 13783 H 1265.77 1.47064 0.0324725 0
M  V30 13784 H 1267.73 3.30331 2.54828 0
M  V30 13785 H 1266.36 2.17355 2.38656 0
M  V30 13786 H 1265.41 3.76237 0.561228 0
M  V30 13787 H 1266.73 4.89627 0.952199 0
M  V30 13788 H 1265.88 5.09113 3.29984 0
M  V30 13789 H 1264.62 3.87044 2.9673 0
M  V30 13790 H 1263.62 5.36298 1.21097 0
M  V30 13791 H 1264.85 6.60737 1.56853 0
M  V30 13792 H 1262.8 5.52614 3.53489 0
M  V30 13793 H 1262.71 7.05364 2.72025 0
M  V30 13794 H 1263.98 6.76435 3.8737 0
M  V30 13795 N 1268.21 -0.0283989 1.57574 0
M  V30 13796 C 1269.16 -1.04723 2.07692 0
M  V30 13797 C 1270.15 -1.37399 0.990847 0
M  V30 13798 O 1271.36 -1.36297 1.17572 0
M  V30 13799 H 1267.73 -0.355251 0.662798 0
M  V30 13800 H 1269.7 -0.598737 2.92331 0
M  V30 13801 C 1268.45 -2.33941 2.57229 0
M  V30 13802 H 1267.78 -2.09659 3.40416 0
M  V30 13803 H 1269.22 -3.03574 2.96005 0
M  V30 13804 C 1267.67 -3.02953 1.47381 0
M  V30 13805 O 1268.2 -3.9281 0.840431 0
M  V30 13806 N 1266.41 -2.64294 1.20819 0
M  V30 13807 H 1265.96 -1.91307 1.72509 0
M  V30 13808 H 1265.92 -3.10786 0.475353 0
M  V30 13809 N 1269.69 -1.54705 -0.300681 0
M  V30 13810 C 1270.96 -1.6468 -1.05546 0
M  V30 13811 C 1271.34 -0.495292 -2.05207 0
M  V30 13812 O 1270.69 0.507944 -2.22783 0
M  V30 13813 C 1270.9 -3.02702 -1.73703 0
M  V30 13814 C 1272.25 -3.59527 -2.25888 0
M  V30 13815 O 1273.27 -3.05156 -1.83735 0
M  V30 13816 O 1272.13 -4.54727 -3.03126 0
M  V30 13817 H 1269.23 -0.667769 -0.487867 0
M  V30 13818 H 1271.77 -1.6705 -0.298743 0
M  V30 13819 H 1270.55 -3.7795 -1.01338 0
M  V30 13820 H 1270.17 -3.0411 -2.5613 0
M  V30 13821 N 1271.17 0.563888 -1.47167 0
M  V30 13822 C 1272.11 1.67151 -1.59152 0
M  V30 13823 C 1273.08 1.60307 -0.434852 0
M  V30 13824 O 1274.27 1.7924 -0.654049 0
M  V30 13825 C 1271.41 3.0548 -1.60549 0
M  V30 13826 C 1270.52 3.2281 -2.87085 0
M  V30 13827 C 1269.66 4.51498 -2.79862 0
M  V30 13828 C 1268.7 4.62237 -4.01252 0
M  V30 13829 N 1267.83 5.82273 -3.92305 0
M  V30 13830 H 1272.67 1.56245 -2.53755 0
M  V30 13831 H 1270.21 0.761219 -1.25872 0
M  V30 13832 H 1272.17 3.85572 -1.59343 0
M  V30 13833 H 1270.8 3.15237 -0.69464 0
M  V30 13834 H 1269.85 2.36196 -2.98188 0
M  V30 13835 H 1271.16 3.2661 -3.76997 0
M  V30 13836 H 1270.32 5.39842 -2.76867 0
M  V30 13837 H 1269.05 4.50166 -1.87621 0
M  V30 13838 H 1268.06 3.72307 -4.04558 0
M  V30 13839 H 1269.28 4.65334 -4.94612 0
M  V30 13840 H 1267.23 5.81902 -3.02862 0
M  V30 13841 H 1267.15 5.87422 -4.7589 0
M  V30 13842 H 1268.42 6.72996 -3.93315 0
M  V30 13843 N 1272.64 1.35187 0.810078 0
M  V30 13844 C 1273.87 1.31181 1.59609 0
M  V30 13845 C 1274.28 -0.113556 1.88859 0
M  V30 13846 O 1273.63 -1.07491 1.48968 0
M  V30 13847 C 1273.69 2.04749 2.95496 0
M  V30 13848 C 1273.35 3.53952 2.89079 0
M  V30 13849 C 1274.35 4.48612 2.6276 0
M  V30 13850 C 1272.03 3.96551 3.08306 0
M  V30 13851 C 1274.03 5.83846 2.5574 0
M  V30 13852 C 1271.71 5.31881 3.00909 0
M  V30 13853 C 1272.71 6.2534 2.74661 0
M  V30 13854 O 1272.4 7.58188 2.6722 0
M  V30 13855 H 1272.13 0.452285 0.502408 0
M  V30 13856 H 1274.69 1.78571 1.01497 0
M  V30 13857 H 1272.92 1.51992 3.55577 0
M  V30 13858 H 1274.61 1.93866 3.5661 0
M  V30 13859 H 1275.37 4.1702 2.47628 0
M  V30 13860 H 1271.25 3.24194 3.27749 0
M  V30 13861 H 1274.79 6.56765 2.35172 0
M  V30 13862 H 1270.69 5.63088 3.15598 0
M  V30 13863 H 1271.46 7.68073 2.82853 0
M  V30 13864 N 1274.12 -1.03182 1.19127 0
M  V30 13865 C 1275.37 -1.76794 0.993563 0
M  V30 13866 C 1275.7 -1.88306 -0.474809 0
M  V30 13867 O 1274.98 -1.39769 -1.35258 0
M  V30 13868 C 1275.26 -3.19573 1.65968 0
M  V30 13869 C 1275.11 -3.1595 3.2015 0
M  V30 13870 C 1276.43 -4.17897 1.38023 0
M  V30 13871 H 1273.55 -0.641768 0.362357 0
M  V30 13872 H 1276.19 -1.20472 1.46924 0
M  V30 13873 H 1274.34 -3.67663 1.25524 0
M  V30 13874 H 1276.01 -2.7578 3.69788 0
M  V30 13875 H 1274.26 -2.53743 3.51848 0
M  V30 13876 H 1274.93 -4.16811 3.61901 0
M  V30 13877 H 1277.4 -3.78394 1.73082 0
M  V30 13878 H 1276.28 -5.15997 1.87186 0
M  V30 13879 H 1276.54 -4.41048 0.304812 0
M  V30 13880 N 1275.6 -0.99472 -1.22242 0
M  V30 13881 C 1276.88 -0.587481 -1.86569 0
M  V30 13882 C 1277.26 0.935174 -1.89256 0
M  V30 13883 O 1276.61 1.81787 -1.3844 0
M  V30 13884 C 1276.82 -1.21001 -3.27353 0
M  V30 13885 C 1278.16 -1.31167 -4.03832 0
M  V30 13886 O 1279.19 -1.16454 -3.36626 0
M  V30 13887 O 1278.05 -1.54731 -5.24138 0
M  V30 13888 H 1275.14 -0.199838 -0.802492 0
M  V30 13889 H 1277.69 -1.09071 -1.30006 0
M  V30 13890 H 1276.46 -2.25143 -3.20041 0
M  V30 13891 H 1276.08 -0.692479 -3.91523 0
M  V30 13892 N 1277.08 1.37613 -0.768148 0
M  V30 13893 C 1278.31 2.04052 -0.342111 0
M  V30 13894 C 1278.72 1.57936 1.03449 0
M  V30 13895 O 1278.08 0.758981 1.65969 0
M  V30 13896 C 1278.13 3.5958 -0.372096 0
M  V30 13897 O 1277.85 4.04008 -1.69439 0
M  V30 13898 C 1279.35 4.43251 0.0659884 0
M  V30 13899 H 1276.57 0.655391 -0.143886 0
M  V30 13900 H 1279.12 1.76017 -1.04107 0
M  V30 13901 H 1277.27 3.86399 0.278248 0
M  V30 13902 H 1277.68 4.98511 -1.63054 0
M  V30 13903 H 1279.16 5.52 -0.00614775 0
M  V30 13904 H 1279.64 4.24788 1.11588 0
M  V30 13905 H 1280.24 4.2165 -0.55603 0
M  V30 13906 N 1278.56 0.518393 1.4883 0
M  V30 13907 C 1279.78 -0.0183131 2.07392 0
M  V30 13908 C 1280.21 -1.28468 1.37396 0
M  V30 13909 O 1279.56 -1.75975 0.436177 0
M  V30 13910 C 1279.61 -0.237211 3.59819 0
M  V30 13911 O 1278.72 -1.30835 3.91096 0
M  V30 13912 H 1278.06 0.0339621 0.663131 0
M  V30 13913 H 1280.59 0.722993 1.914 0
M  V30 13914 H 1280.6 -0.463424 4.0536 0
M  V30 13915 H 1279.27 0.687925 4.10171 0
M  V30 13916 H 1277.85 -1.06571 3.57347 0
M  V30 13917 N 1280.03 -1.55556 0.252993 0
M  V30 13918 C 1281.28 -1.98697 -0.369319 0
M  V30 13919 C 1281.6 -1.14256 -1.58021 0
M  V30 13920 O 1280.87 -0.226779 -1.94583 0
M  V30 13921 H 1279.45 -0.733869 -0.139444 0
M  V30 13922 H 1282.12 -1.91673 0.353197 0
M  V30 13923 H 1281.21 -3.04728 -0.674312 0
M  V30 13924 N 1281.51 0.0200419 -1.57587 0
M  V30 13925 C 1282.74 0.719511 -1.93666 0
M  V30 13926 C 1283.15 1.68934 -0.85193 0
M  V30 13927 O 1282.49 1.8282 0.179593 0
M  V30 13928 C 1282.56 1.52382 -3.25607 0
M  V30 13929 C 1282.22 0.717784 -4.51328 0
M  V30 13930 C 1283.22 0.0141272 -5.19898 0
M  V30 13931 C 1280.9 0.669662 -4.97816 0
M  V30 13932 C 1282.9 -0.726853 -6.33242 0
M  V30 13933 C 1280.58 -0.0750577 -6.11054 0
M  V30 13934 C 1281.58 -0.772067 -6.78622 0
M  V30 13935 O 1281.27 -1.50468 -7.89693 0
M  V30 13936 H 1281 0.206681 -0.643629 0
M  V30 13937 H 1283.55 -0.0211203 -2.05389 0
M  V30 13938 H 1281.78 2.30848 -3.10236 0
M  V30 13939 H 1283.47 2.10675 -3.46945 0
M  V30 13940 H 1284.24 0.0422784 -4.84982 0
M  V30 13941 H 1280.12 1.20169 -4.45062 0
M  V30 13942 H 1283.66 -1.27143 -6.85916 0
M  V30 13943 H 1279.56 -0.1051 -6.45414 0
M  V30 13944 H 1280.33 -1.41929 -8.06101 0
M  V30 13945 N 1282.99 1.54862 0.292472 0
M  V30 13946 C 1284.27 1.65237 1.04671 0
M  V30 13947 C 1284.65 0.506168 2.04942 0
M  V30 13948 O 1284 -0.496123 2.23049 0
M  V30 13949 C 1284.21 3.03618 1.72095 0
M  V30 13950 C 1285.55 3.6072 2.23979 0
M  V30 13951 O 1286.58 3.06126 1.82114 0
M  V30 13952 O 1285.44 4.56328 3.0071 0
M  V30 13953 H 1282.53 0.670347 0.484319 0
M  V30 13954 H 1285.08 1.67206 0.28988 0
M  V30 13955 H 1283.85 3.78482 0.993324 0
M  V30 13956 H 1283.47 3.05464 2.54514 0
M  V30 13957 N 1284.47 -0.556076 1.47464 0
M  V30 13958 C 1285.69 -1.3434 1.58011 0
M  V30 13959 C 1286.12 -1.86674 0.231138 0
M  V30 13960 O 1285.48 -1.63029 -0.793174 0
M  V30 13961 C 1285.52 -2.48844 2.60977 0
M  V30 13962 O 1284.63 -3.51108 2.16326 0
M  V30 13963 H 1283.97 -0.398986 0.53076 0
M  V30 13964 H 1286.5 -0.671898 1.93253 0
M  V30 13965 H 1286.51 -2.95398 2.81432 0
M  V30 13966 H 1285.18 -2.10109 3.58925 0
M  V30 13967 H 1283.76 -3.10852 2.05975 0
M  V30 13968 N 1285.95 -1.35615 -0.802897 0
M  V30 13969 C 1286.9 -1.28877 -1.93632 0
M  V30 13970 C 1287.89 -0.183014 -1.68408 0
M  V30 13971 O 1289.1 -0.349218 -1.7658 0
M  V30 13972 H 1285.47 -0.400883 -0.636236 0
M  V30 13973 H 1287.44 -2.24624 -1.96435 0
M  V30 13974 C 1286.19 -1.08136 -3.30457 0
M  V30 13975 H 1285.51 -1.92463 -3.50426 0
M  V30 13976 H 1286.95 -1.07464 -4.10155 0
M  V30 13977 C 1285.41 0.214635 -3.36216 0
M  V30 13978 O 1285.94 1.20916 -3.8307 0
M  V30 13979 N 1284.15 0.25468 -2.89482 0
M  V30 13980 H 1283.7 -0.555239 -2.51545 0
M  V30 13981 H 1283.65 1.12152 -2.93716 0
M  V30 13982 N 1287.43 1.02549 -1.19673 0
M  V30 13983 C 1288.67 1.75408 -0.995732 0
M  V30 13984 C 1288.99 1.89773 0.473863 0
M  V30 13985 O 1290.19 2.59638 0.793762 0
M  V30 13986 C 1288.65 3.15444 -1.73273 0
M  V30 13987 C 1288.26 3.09121 -3.24266 0
M  V30 13988 C 1290 3.92575 -1.61509 0
M  V30 13989 C 1287.91 4.44109 -3.9054 0
M  V30 13990 H 1286.84 0.657569 -0.368944 0
M  V30 13991 H 1289.49 1.14739 -1.43203 0
M  V30 13992 H 1287.87 3.76601 -1.22425 0
M  V30 13993 H 1289.05 2.57325 -3.82257 0
M  V30 13994 H 1287.36 2.45485 -3.36342 0
M  V30 13995 H 1289.96 4.92428 -2.08372 0
M  V30 13996 H 1290.3 4.12382 -0.569804 0
M  V30 13997 H 1290.83 3.38027 -2.09721 0
M  V30 13998 H 1287.57 4.29506 -4.95182 0
M  V30 13999 H 1287.09 4.95947 -3.37337 0
M  V30 14000 H 1288.77 5.12982 -3.94282 0
M  V30 14001 N 1288.9 1.00119 1.21713 0
M  V30 14002 C 1289.85 0.551452 2.25969 0
M  V30 14003 C 1290.85 -0.402075 1.64559 0
M  V30 14004 O 1292.05 -0.273685 1.77907 0
M  V30 14005 H 1288.43 0.159968 0.734789 0
M  V30 14006 H 1290.4 1.44201 2.61244 0
M  V30 14007 C 1289.15 -0.109992 3.47526 0
M  V30 14008 H 1288.47 0.614686 3.95046 0
M  V30 14009 H 1289.91 -0.388007 4.22221 0
M  V30 14010 C 1288.37 -1.34798 3.08757 0
M  V30 14011 O 1288.9 -2.44266 3.189 0
M  V30 14012 N 1287.1 -1.2263 2.63458 0
M  V30 14013 H 1286.65 -0.335571 2.55405 0
M  V30 14014 H 1286.61 -2.05565 2.37887 0
M  V30 14015 N 1290.38 -1.37203 0.775435 0
M  V30 14016 C 1291.63 -1.98846 0.338093 0
M  V30 14017 C 1291.94 -1.6225 -1.09244 0
M  V30 14018 O 1293.15 -2.17024 -1.63135 0
M  V30 14019 C 1291.61 -3.55618 0.553541 0
M  V30 14020 C 1291.21 -4.01149 1.99457 0
M  V30 14021 C 1292.96 -4.24118 0.180006 0
M  V30 14022 C 1290.86 -5.50644 2.15742 0
M  V30 14023 H 1289.79 -0.743955 0.122669 0
M  V30 14024 H 1292.45 -1.56685 0.955087 0
M  V30 14025 H 1290.83 -3.95777 -0.132964 0
M  V30 14026 H 1292 -3.72226 2.71633 0
M  V30 14027 H 1290.32 -3.45443 2.32504 0
M  V30 14028 H 1292.91 -5.33966 0.280145 0
M  V30 14029 H 1293.26 -4.07104 -0.870192 0
M  V30 14030 H 1293.79 -3.89274 0.819201 0
M  V30 14031 H 1290.53 -5.7259 3.19094 0
M  V30 14032 H 1290.05 -5.8124 1.48054 0
M  V30 14033 H 1291.73 -6.16668 1.95781 0
M  V30 14034 N 1291.86 -0.526279 -1.48553 0
M  V30 14035 C 1292.81 0.251938 -2.31232 0
M  V30 14036 C 1293.8 0.938991 -1.40994 0
M  V30 14037 O 1295.01 0.863798 -1.57919 0
M  V30 14038 H 1291.38 0.100114 -0.745306 0
M  V30 14039 H 1293.35 -0.465013 -2.94754 0
M  V30 14040 C 1292.1 1.28816 -3.22958 0
M  V30 14041 H 1291.43 0.768899 -3.92337 0
M  V30 14042 H 1292.87 1.80417 -3.837 0
M  V30 14043 C 1291.32 2.31982 -2.44307 0
M  V30 14044 O 1291.85 3.3835 -2.16523 0
M  V30 14045 N 1290.06 2.051 -2.05869 0
M  V30 14046 H 1289.61 1.18618 -2.28665 0
M  V30 14047 H 1289.57 2.74349 -1.53557 0
M  V30 14048 N 1293.34 1.5542 -0.261239 0
M  V30 14049 C 1294.59 1.9889 0.358777 0
M  V30 14050 C 1294.91 1.15092 1.57413 0
M  V30 14051 O 1294.18 0.237095 1.9446 0
M  V30 14052 H 1292.76 0.734599 0.13555 0
M  V30 14053 H 1295.42 1.91483 -0.363357 0
M  V30 14054 H 1294.51 3.05082 0.658142 0
M  V30 14055 N 1294.82 -0.0116844 1.57596 0
M  V30 14056 C 1296.09 -0.735344 1.81251 0
M  V30 14057 C 1296.47 -1.92634 0.863446 0
M  V30 14058 O 1295.82 -2.28321 -0.0905028 0
M  V30 14059 C 1296.03 -1.15206 3.29437 0
M  V30 14060 C 1297.38 -1.56078 3.94873 0
M  V30 14061 O 1298.4 -1.24618 3.3369 0
M  V30 14062 O 1297.26 -2.14534 5.0263 0
M  V30 14063 H 1294.36 -0.357044 0.745955 0
M  V30 14064 H 1296.9 0.0128733 1.69695 0
M  V30 14065 H 1295.67 -0.302619 3.90128 0
M  V30 14066 H 1295.3 -1.95975 3.45947 0
M  V30 14067 N 1296.29 -1.55015 -0.284256 0
M  V30 14068 C 1297.54 -1.7535 -1.01884 0
M  V30 14069 C 1297.87 -0.546825 -1.86342 0
M  V30 14070 O 1297.15 0.455832 -1.89083 0
M  V30 14071 C 1297.43 -3.05219 -1.91084 0
M  V30 14072 C 1297.28 -4.36219 -1.09694 0
M  V30 14073 C 1298.6 -3.31056 -2.89983 0
M  V30 14074 H 1295.72 -0.637981 -0.368984 0
M  V30 14075 H 1298.36 -1.87741 -0.292116 0
M  V30 14076 H 1296.51 -2.94786 -2.53048 0
M  V30 14077 H 1298.19 -4.58594 -0.498876 0
M  V30 14078 H 1296.43 -4.31951 -0.400078 0
M  V30 14079 H 1297.1 -5.23392 -1.75399 0
M  V30 14080 H 1299.58 -3.41209 -2.38151 0
M  V30 14081 H 1298.45 -4.23212 -3.49547 0
M  V30 14082 H 1298.71 -2.50153 -3.64521 0
M  V30 14083 N 1297.77 0.548248 -1.47757 0
M  V30 14084 C 1299 1.32827 -1.58242 0
M  V30 14085 C 1299.41 1.87736 -0.234936 0
M  V30 14086 O 1298.75 1.66163 0.78329 0
M  V30 14087 C 1298.81 2.52906 -2.55497 0
M  V30 14088 C 1298.48 2.19218 -4.00989 0
M  V30 14089 C 1299.48 1.75976 -4.89212 0
M  V30 14090 C 1297.16 2.30302 -4.46392 0
M  V30 14091 C 1299.15 1.44258 -6.20861 0
M  V30 14092 C 1296.84 1.98197 -5.78067 0
M  V30 14093 C 1297.84 1.55244 -6.65123 0
M  V30 14094 O 1297.53 1.23551 -7.94349 0
M  V30 14095 H 1297.26 0.41088 -0.536799 0
M  V30 14096 H 1299.81 0.670055 -1.94163 0
M  V30 14097 H 1298.04 3.21648 -2.14661 0
M  V30 14098 H 1299.73 3.14979 -2.56014 0
M  V30 14099 H 1300.5 1.66898 -4.55379 0
M  V30 14100 H 1296.38 2.62693 -3.78832 0
M  V30 14101 H 1299.92 1.10659 -6.88767 0
M  V30 14102 H 1295.82 2.0691 -6.1144 0
M  V30 14103 H 1296.59 1.37105 -8.06935 0
M  V30 14104 N 1299.25 1.36039 0.795694 0
M  V30 14105 C 1300.2 1.29853 1.90806 0
M  V30 14106 C 1301.17 0.168387 1.65244 0
M  V30 14107 O 1302.35 0.353879 1.8749 0
M  V30 14108 C 1299.49 1.08737 3.27521 0
M  V30 14109 C 1298.6 2.30771 3.65197 0
M  V30 14110 C 1297.74 2.02718 4.90998 0
M  V30 14111 C 1296.78 3.20746 5.21333 0
M  V30 14112 N 1295.92 2.92399 6.38316 0
M  V30 14113 H 1300.76 2.2497 1.95429 0
M  V30 14114 H 1298.29 1.11819 0.955771 0
M  V30 14115 H 1300.25 0.945236 4.06351 0
M  V30 14116 H 1298.88 0.172781 3.22337 0
M  V30 14117 H 1297.93 2.5581 2.81541 0
M  V30 14118 H 1299.24 3.18869 3.83568 0
M  V30 14119 H 1298.4 1.85398 5.77679 0
M  V30 14120 H 1297.14 1.11921 4.74684 0
M  V30 14121 H 1296.14 3.38632 4.33138 0
M  V30 14122 H 1297.37 4.1236 5.3957 0
M  V30 14123 H 1295.31 2.04207 6.23406 0
M  V30 14124 H 1295.23 3.74034 6.56989 0
M  V30 14125 H 1296.5 2.78643 7.27996 0
M  V30 14126 N 1300.73 -1.01913 1.20215 0
M  V30 14127 C 1301.96 -1.78817 1.0348 0
M  V30 14128 C 1302.37 -1.84499 -0.419152 0
M  V30 14129 O 1301.71 -1.29506 -1.30284 0
M  V30 14130 C 1301.77 -3.24858 1.53973 0
M  V30 14131 C 1301.44 -3.42788 3.02234 0
M  V30 14132 C 1302.43 -3.32213 3.99914 0
M  V30 14133 C 1300.12 -3.68687 3.41138 0
M  V30 14134 C 1302.11 -3.47276 5.34489 0
M  V30 14135 C 1299.8 -3.83394 4.7587 0
M  V30 14136 C 1300.8 -3.72693 5.72354 0
M  V30 14137 O 1300.48 -3.86953 7.04643 0
M  V30 14138 H 1300.22 -0.569268 0.364568 0
M  V30 14139 H 1302.77 -1.29184 1.59689 0
M  V30 14140 H 1301 -3.7556 0.921478 0
M  V30 14141 H 1302.69 -3.83388 1.33297 0
M  V30 14142 H 1303.46 -3.12145 3.71202 0
M  V30 14143 H 1299.33 -3.76104 2.66583 0
M  V30 14144 H 1302.88 -3.3884 6.09782 0
M  V30 14145 H 1298.78 -4.02962 5.04273 0
M  V30 14146 H 1299.54 -4.03986 7.11855 0
M  V30 14147 N 1302.21 -1.00763 -1.2118 0
M  V30 14148 C 1303.62 -0.724746 -1.72059 0
M  V30 14149 C 1303.97 0.757413 -1.80991 0
M  V30 14150 O 1303.09 1.59152 -1.46627 0
M  V30 14151 C 1303.69 -1.30893 -3.12494 0
M  V30 14152 C 1302.25 -1.07511 -3.60719 0
M  V30 14153 C 1301.39 -1.42014 -2.38175 0
M  V30 14154 H 1304.35 -1.17821 -1.0632 0
M  V30 14155 H 1304.37 -0.694919 -3.741 0
M  V30 14156 H 1303.88 -2.38767 -3.05961 0
M  V30 14157 H 1301.98 -0.0136518 -3.72597 0
M  V30 14158 H 1302.09 -1.74885 -4.4604 0
M  V30 14159 H 1300.46 -0.838972 -2.40486 0
M  V30 14160 H 1301.24 -2.50924 -2.34291 0
M  V30 14161 N 1303.68 1.3679 -0.7827 0
M  V30 14162 C 1304.91 2.03678 -0.363734 0
M  V30 14163 C 1305.33 1.59024 1.01768 0
M  V30 14164 O 1304.68 0.776541 1.65155 0
M  V30 14165 C 1304.74 3.59165 -0.410213 0
M  V30 14166 O 1304.46 4.02188 -1.73714 0
M  V30 14167 C 1305.96 4.43296 0.018972 0
M  V30 14168 H 1303.18 0.653828 -0.150829 0
M  V30 14169 H 1305.72 1.74903 -1.05968 0
M  V30 14170 H 1303.88 3.86673 0.237249 0
M  V30 14171 H 1304.29 4.96754 -1.68332 0
M  V30 14172 H 1305.76 5.51962 -0.0646943 0
M  V30 14173 H 1306.24 4.25948 1.07076 0
M  V30 14174 H 1306.85 4.21036 -0.600721 0
M  V30 14175 N 1305.16 0.53415 1.48272 0
M  V30 14176 C 1306.11 -0.239672 2.31362 0
M  V30 14177 C 1307.1 -0.931501 1.4149 0
M  V30 14178 O 1308.31 -0.855411 1.58375 0
M  V30 14179 H 1304.69 -0.09616 0.745827 0
M  V30 14180 H 1306.66 0.480638 2.94504 0
M  V30 14181 C 1305.41 -1.27102 3.23636 0
M  V30 14182 H 1304.73 -0.748082 3.92739 0
M  V30 14183 H 1306.17 -1.78379 3.84652 0
M  V30 14184 C 1304.63 -2.30683 2.45534 0
M  V30 14185 O 1305.16 -3.37197 2.18314 0
M  V30 14186 N 1303.36 -2.04006 2.06954 0
M  V30 14187 H 1302.91 -1.17403 2.29291 0
M  V30 14188 H 1302.87 -2.73531 1.5501 0
M  V30 14189 N 1306.64 -1.55279 0.269478 0
M  V30 14190 C 1307.59 -2.22304 -0.620435 0
M  V30 14191 C 1308.56 -1.19457 -1.15409 0
M  V30 14192 O 1309.74 -1.4798 -1.20443 0
M  V30 14193 C 1306.88 -2.94356 -1.80134 0
M  V30 14194 C 1306 -4.1191 -1.30207 0
M  V30 14195 C 1305.13 -4.71621 -2.44433 0
M  V30 14196 C 1304.17 -5.81379 -1.91481 0
M  V30 14197 N 1303.31 -6.35176 -2.99158 0
M  V30 14198 H 1308.15 -2.9797 -0.0422165 0
M  V30 14199 H 1305.68 -1.47097 -0.00907173 0
M  V30 14200 H 1307.64 -3.34343 -2.4954 0
M  V30 14201 H 1306.27 -2.21124 -2.35168 0
M  V30 14202 H 1305.32 -3.77082 -0.501301 0
M  V30 14203 H 1306.64 -4.9108 -0.874183 0
M  V30 14204 H 1305.79 -5.14298 -3.21842 0
M  V30 14205 H 1304.53 -3.91715 -2.90535 0
M  V30 14206 H 1303.53 -5.38157 -1.12549 0
M  V30 14207 H 1304.76 -6.63149 -1.46322 0
M  V30 14208 H 1302.7 -5.58167 -3.44652 0
M  V30 14209 H 1302.62 -7.09602 -2.60769 0
M  V30 14210 H 1303.89 -6.82512 -3.7656 0
M  V30 14211 N 1308.12 0.00332656 -1.576 0
M  V30 14212 C 1309.07 1.01406 -2.09331 0
M  V30 14213 C 1310.06 1.35806 -1.01258 0
M  V30 14214 O 1311.27 1.34409 -1.19726 0
M  V30 14215 H 1307.64 0.344661 -0.668366 0
M  V30 14216 H 1309.61 0.552154 -2.93247 0
M  V30 14217 C 1308.36 2.29819 -2.60918 0
M  V30 14218 H 1307.68 2.04216 -3.43709 0
M  V30 14219 H 1309.12 2.98826 -3.00797 0
M  V30 14220 C 1307.58 3.0057 -1.52182 0
M  V30 14221 O 1308.11 3.91423 -0.902817 0
M  V30 14222 N 1306.32 2.62338 -1.25009 0
M  V30 14223 H 1305.87 1.88538 -1.75531 0
M  V30 14224 H 1305.82 3.0999 -0.524736 0
M  V30 14225 N 1309.6 1.55164 0.276031 0
M  V30 14226 C 1310.53 1.84243 1.36335 0
M  V30 14227 C 1311.54 0.726745 1.45679 0
M  V30 14228 O 1312.73 1.00456 1.4755 0
M  V30 14229 C 1309.83 1.98768 2.7449 0
M  V30 14230 C 1309 3.294 2.87775 0
M  V30 14231 C 1308.06 3.34029 4.06585 0
M  V30 14232 O 1307.09 4.07423 3.97486 0
M  V30 14233 N 1308.29 2.61213 5.18409 0
M  V30 14234 H 1311.06 2.78092 1.11736 0
M  V30 14235 H 1308.62 1.55044 0.466143 0
M  V30 14236 H 1310.61 1.99238 3.52259 0
M  V30 14237 H 1309.18 1.11799 2.91924 0
M  V30 14238 H 1308.4 3.41494 1.96914 0
M  V30 14239 H 1309.69 4.15558 2.93579 0
M  V30 14240 H 1309.08 2.01261 5.28687 0
M  V30 14241 H 1307.64 2.67409 5.9442 0
M  V30 14242 N 1311.07 -0.540404 1.48045 0
M  V30 14243 C 1312.32 -1.29678 1.55531 0
M  V30 14244 C 1312.65 -1.93197 0.224725 0
M  V30 14245 O 1311.9 -1.79308 -0.784028 0
M  V30 14246 C 1312.2 -2.41517 2.63447 0
M  V30 14247 C 1311.87 -1.95719 4.06208 0
M  V30 14248 C 1310.53 -1.82946 4.45067 0
M  V30 14249 C 1312.88 -1.6098 4.95717 0
M  V30 14250 C 1310.21 -1.33753 5.7125 0
M  V30 14251 C 1312.56 -1.13253 6.2238 0
M  V30 14252 C 1311.23 -0.990886 6.60104 0
M  V30 14253 H 1310.5 -0.474525 0.569129 0
M  V30 14254 H 1313.14 -0.604209 1.81718 0
M  V30 14255 H 1311.45 -3.16401 2.3108 0
M  V30 14256 H 1313.15 -2.9967 2.66457 0
M  V30 14257 H 1309.74 -2.06609 3.75514 0
M  V30 14258 H 1313.92 -1.69713 4.66381 0
M  V30 14259 H 1309.18 -1.21465 5.99213 0
M  V30 14260 H 1313.35 -0.854401 6.91139 0
M  V30 14261 H 1310.98 -0.607497 7.57769 0
M  V30 14262 N 1312.55 -1.36459 -0.788468 0
M  V30 14263 C 1313.8 -1.30483 -1.54333 0
M  V30 14264 C 1314.12 0.115266 -1.94659 0
M  V30 14265 O 1313.39 1.05573 -1.65019 0
M  V30 14266 H 1311.97 -0.480004 -0.572368 0
M  V30 14267 H 1314.63 -1.70765 -0.939428 0
M  V30 14268 H 1313.73 -1.93284 -2.45046 0
M  V30 14269 N 1314.03 1.01274 -1.20754 0
M  V30 14270 C 1315.28 1.74342 -1.01428 0
M  V30 14271 C 1315.59 1.90265 0.453708 0
M  V30 14272 O 1316.8 2.60465 0.76618 0
M  V30 14273 C 1315.25 3.13588 -1.76609 0
M  V30 14274 C 1314.86 3.05664 -3.27526 0
M  V30 14275 C 1316.61 3.9084 -1.65664 0
M  V30 14276 C 1314.51 4.39942 -3.95228 0
M  V30 14277 H 1313.44 0.653619 -0.375897 0
M  V30 14278 H 1316.09 1.13214 -1.44412 0
M  V30 14279 H 1314.48 3.75281 -1.26413 0
M  V30 14280 H 1315.65 2.53256 -3.84965 0
M  V30 14281 H 1313.97 2.41904 -3.38927 0
M  V30 14282 H 1316.56 4.9019 -2.13583 0
M  V30 14283 H 1316.91 4.11754 -0.61351 0
M  V30 14284 H 1317.44 3.35783 -2.13294 0
M  V30 14285 H 1314.18 4.24229 -4.9971 0
M  V30 14286 H 1313.7 4.92342 -3.42578 0
M  V30 14287 H 1315.38 5.08771 -3.99701 0
M  V30 14288 N 1315.51 1.01404 1.20644 0
M  V30 14289 C 1316.74 0.719995 1.93648 0
M  V30 14290 C 1317.15 -0.722872 1.74846 0
M  V30 14291 O 1316.49 -1.50172 1.05802 0
M  V30 14292 C 1316.55 0.972637 3.46092 0
M  V30 14293 C 1316.22 2.40412 3.88653 0
M  V30 14294 C 1317.21 3.38481 3.94622 0
M  V30 14295 C 1314.9 2.74418 4.20714 0
M  V30 14296 C 1316.89 4.68619 4.32059 0
M  V30 14297 C 1314.58 4.04769 4.57826 0
M  V30 14298 C 1315.58 5.01681 4.63471 0
M  V30 14299 O 1315.27 6.297 4.99733 0
M  V30 14300 H 1315 0.263849 0.622382 0
M  V30 14301 H 1317.55 1.35741 1.54154 0
M  V30 14302 H 1315.78 0.278057 3.85699 0
M  V30 14303 H 1317.47 0.670572 4.00323 0
M  V30 14304 H 1318.24 3.13545 3.7002 0
M  V30 14305 H 1314.12 1.99675 4.15513 0
M  V30 14306 H 1317.66 5.4426 4.3638 0
M  V30 14307 H 1313.56 4.29486 4.81884 0
M  V30 14308 H 1314.32 6.3395 5.17735 0
M  V30 14309 N 1316.99 -1.36373 0.789944 0
M  V30 14310 C 1317.94 -2.31928 0.17666 0
M  V30 14311 C 1318.93 -1.55831 -0.664316 0
M  V30 14312 O 1320.14 -1.71089 -0.559341 0
M  V30 14313 H 1316.51 -0.751021 0.038353 0
M  V30 14314 H 1318.48 -2.81216 0.998004 0
M  V30 14315 C 1317.23 -3.41112 -0.673646 0
M  V30 14316 H 1316.55 -3.99784 -0.0358875 0
M  V30 14317 H 1317.99 -4.10292 -1.06942 0
M  V30 14318 C 1316.45 -2.82728 -1.83211 0
M  V30 14319 O 1316.98 -2.74935 -2.92871 0
M  V30 14320 N 1315.19 -2.4001 -1.6384 0
M  V30 14321 H 1314.74 -2.46549 -0.746423 0
M  V30 14322 H 1314.69 -2.01294 -2.41512 0
M  V30 14323 N 1318.47 -0.542005 -1.47987 0
M  V30 14324 C 1319.74 0.0526494 -1.95529 0
M  V30 14325 C 1320.12 1.50092 -1.48444 0
M  V30 14326 O 1319.47 2.16981 -0.716347 0
M  V30 14327 C 1319.68 -0.0770524 -3.48915 0
M  V30 14328 C 1321.03 0.0760849 -4.24532 0
M  V30 14329 O 1322.05 -0.00384644 -3.562 0
M  V30 14330 O 1320.91 0.245406 -5.45949 0
M  V30 14331 H 1318.01 0.0726163 -0.823806 0
M  V30 14332 H 1320.55 -0.607454 -1.58455 0
M  V30 14333 H 1319.32 -1.08544 -3.75944 0
M  V30 14334 H 1318.95 0.621357 -3.92715 0
M  V30 14335 N 1319.94 1.55134 -0.277709 0
M  V30 14336 C 1320.89 2.2263 0.608637 0
M  V30 14337 C 1321.86 1.20067 1.14774 0
M  V30 14338 O 1323.05 1.48617 1.19657 0
M  V30 14339 C 1320.19 2.95308 1.78571 0
M  V30 14340 C 1319.3 4.12595 1.28021 0
M  V30 14341 C 1318.43 4.7291 2.41929 0
M  V30 14342 C 1317.47 5.82386 1.88395 0
M  V30 14343 N 1316.61 6.36754 2.95786 0
M  V30 14344 H 1321.45 2.97988 0.0264138 0
M  V30 14345 H 1318.99 1.471 0.00127068 0
M  V30 14346 H 1320.94 3.35662 2.47764 0
M  V30 14347 H 1319.57 2.22368 2.33992 0
M  V30 14348 H 1318.63 3.77343 0.481297 0
M  V30 14349 H 1319.94 4.91537 0.848128 0
M  V30 14350 H 1319.09 5.15997 3.1911 0
M  V30 14351 H 1317.83 3.93251 2.88453 0
M  V30 14352 H 1316.84 5.38746 1.09694 0
M  V30 14353 H 1318.06 6.63916 1.42803 0
M  V30 14354 H 1316.01 5.59987 3.41687 0
M  V30 14355 H 1315.92 7.10975 2.57002 0
M  V30 14356 H 1317.19 6.845 3.72935 0
M  V30 14357 N 1321.42 0.00503138 1.57599 0
M  V30 14358 C 1322.35 -0.983586 2.11773 0
M  V30 14359 C 1323.33 -1.35518 1.02805 0
M  V30 14360 O 1324.52 -1.43804 1.30514 0
M  V30 14361 C 1321.65 -2.27383 2.62515 0
M  V30 14362 C 1320.6 -2.0437 3.76054 0
M  V30 14363 C 1319.93 -3.39451 4.1313 0
M  V30 14364 C 1321.23 -1.40223 5.03125 0
M  V30 14365 H 1322.92 -0.532501 2.94627 0
M  V30 14366 H 1320.47 -0.254696 1.4173 0
M  V30 14367 H 1322.42 -2.96903 2.99043 0
M  V30 14368 H 1321.14 -2.74614 1.7679 0
M  V30 14369 H 1319.8 -1.37275 3.39928 0
M  V30 14370 H 1319.45 -3.84395 3.24422 0
M  V30 14371 H 1319.15 -3.24868 4.89627 0
M  V30 14372 H 1320.68 -4.10279 4.52221 0
M  V30 14373 H 1322.09 -1.99708 5.37392 0
M  V30 14374 H 1320.49 -1.36112 5.8446 0
M  V30 14375 H 1321.56 -0.372073 4.8347 0
M  V30 14376 N 1322.9 -1.55308 -0.267798 0
M  V30 14377 C 1324.12 -1.80524 -1.02107 0
M  V30 14378 C 1324.55 -0.579268 -1.78958 0
M  V30 14379 O 1323.91 0.471262 -1.75068 0
M  V30 14380 C 1323.96 -3.03248 -1.95123 0
M  V30 14381 O 1323.06 -2.78699 -3.03975 0
M  V30 14382 H 1322.4 -0.596518 -0.291655 0
M  V30 14383 H 1324.93 -2.0246 -0.295128 0
M  V30 14384 H 1324.94 -3.32121 -2.3698 0
M  V30 14385 H 1323.62 -3.92126 -1.386 0
M  V30 14386 H 1322.19 -2.60936 -2.66396 0
M  V30 14387 N 1324.38 0.532545 -1.4833 0
M  V30 14388 C 1325.29 1.66433 -1.65339 0
M  V30 14389 C 1326.3 1.65541 -0.535939 0
M  V30 14390 O 1327.48 1.84539 -0.806679 0
M  V30 14391 C 1324.54 3.02901 -1.68676 0
M  V30 14392 C 1323.61 3.14669 -2.92031 0
M  V30 14393 C 1322.84 4.44627 -2.95199 0
M  V30 14394 O 1323.06 5.31572 -2.06851 0
M  V30 14395 O 1322 4.60707 -3.87341 0
M  V30 14396 H 1325.82 1.5502 -2.61156 0
M  V30 14397 H 1323.41 0.705348 -1.31701 0
M  V30 14398 H 1325.29 3.84068 -1.73407 0
M  V30 14399 H 1323.96 3.14644 -0.760327 0
M  V30 14400 H 1322.87 2.32807 -2.92834 0
M  V30 14401 H 1324.2 3.07841 -3.8405 0
M  V30 14402 N 1325.86 1.36875 0.78122 0
M  V30 14403 C 1327.1 1.31754 1.54171 0
M  V30 14404 C 1327.43 -0.100632 1.93939 0
M  V30 14405 O 1326.71 -1.05587 1.63345 0
M  V30 14406 C 1326.99 2.24789 2.81322 0
M  V30 14407 C 1326.85 3.75342 2.47868 0
M  V30 14408 C 1328.16 2.16442 3.83198 0
M  V30 14409 H 1325.28 0.479931 0.559317 0
M  V30 14410 H 1327.93 1.67497 0.896935 0
M  V30 14411 H 1326.08 1.94438 3.36342 0
M  V30 14412 H 1327.75 4.16247 1.98836 0
M  V30 14413 H 1325.99 3.94375 1.80696 0
M  V30 14414 H 1326.66 4.3586 3.38719 0
M  V30 14415 H 1329.14 2.43175 3.37647 0
M  V30 14416 H 1328.01 2.83695 4.69903 0
M  V30 14417 H 1328.27 1.15431 4.26765 0
M  V30 14418 N 1327.33 -1.00632 1.21289 0
M  V30 14419 C 1328.28 -2.11502 0.96798 0
M  V30 14420 C 1329.28 -1.6919 -0.0843024 0
M  V30 14421 O 1330.48 -1.79875 0.06697 0
M  V30 14422 H 1326.86 -0.691398 0.295759 0
M  V30 14423 H 1328.83 -2.29337 1.90911 0
M  V30 14424 C 1327.58 -3.43357 0.547818 0
M  V30 14425 H 1326.9 -3.76348 1.34915 0
M  V30 14426 H 1328.34 -4.21957 0.415759 0
M  V30 14427 C 1326.8 -3.28648 -0.741086 0
M  V30 14428 O 1327.33 -3.59267 -1.79695 0
M  V30 14429 N 1325.53 -2.81866 -0.707084 0
M  V30 14430 H 1325.08 -2.57149 0.152447 0
M  V30 14431 H 1325.04 -2.72406 -1.56979 0
M  V30 14432 N 1328.81 -1.02043 -1.20104 0
M  V30 14433 C 1330.06 -0.707271 -1.88893 0
M  V30 14434 C 1330.37 0.766617 -1.79951 0
M  V30 14435 O 1331.58 1.19248 -2.4391 0
M  V30 14436 C 1330.04 -1.2147 -3.38782 0
M  V30 14437 C 1329.64 -2.71576 -3.56301 0
M  V30 14438 C 1331.39 -0.977146 -4.13101 0
M  V30 14439 C 1329.29 -3.15781 -5.00037 0
M  V30 14440 H 1328.22 -0.26086 -0.707438 0
M  V30 14441 H 1330.88 -1.23361 -1.35846 0
M  V30 14442 H 1329.26 -0.616315 -3.91175 0
M  V30 14443 H 1330.43 -3.36997 -3.14276 0
M  V30 14444 H 1328.75 -2.93517 -2.95359 0
M  V30 14445 H 1331.34 -1.28278 -5.19085 0
M  V30 14446 H 1331.69 0.0862909 -4.16211 0
M  V30 14447 H 1332.22 -1.5391 -3.6682 0
M  V30 14448 H 1328.96 -4.21417 -5.02084 0
M  V30 14449 H 1328.48 -2.55083 -5.42856 0
M  V30 14450 H 1330.16 -3.08637 -5.6864 0
M  V30 14451 N 1330.29 1.35952 -0.797165 0
M  V30 14452 C 1331.52 2.0381 -0.38421 0
M  V30 14453 C 1331.94 1.597 0.993854 0
M  V30 14454 O 1331.3 0.769148 1.64176 0
M  V30 14455 C 1331.35 3.57589 -0.465054 0
M  V30 14456 O 1330.45 4.09043 0.525095 0
M  V30 14457 H 1329.79 0.643957 -0.161912 0
M  V30 14458 H 1332.32 1.73746 -1.08043 0
M  V30 14459 H 1332.33 4.06651 -0.331448 0
M  V30 14460 H 1331.01 3.89045 -1.47027 0
M  V30 14461 H 1329.58 3.7123 0.352509 0
M  V30 14462 N 1331.77 0.549846 1.47697 0
M  V30 14463 C 1332.7 -0.239345 2.27947 0
M  V30 14464 C 1333.71 -0.886206 1.36566 0
M  V30 14465 O 1334.9 -0.761298 1.61451 0
M  V30 14466 C 1332 -1.35591 3.10593 0
M  V30 14467 C 1331.18 -0.807234 4.29887 0
M  V30 14468 C 1330.23 -1.80738 4.94187 0
M  V30 14469 O 1329.26 -1.35641 5.52802 0
M  V30 14470 N 1330.46 -3.14046 4.88216 0
M  V30 14471 H 1333.23 0.449001 2.96318 0
M  V30 14472 H 1330.79 0.385443 1.57245 0
M  V30 14473 H 1332.78 -2.02356 3.50477 0
M  V30 14474 H 1331.35 -1.94761 2.44514 0
M  V30 14475 H 1330.57 0.0369877 3.94183 0
M  V30 14476 H 1331.86 -0.419877 5.07065 0
M  V30 14477 H 1331.26 -3.53335 4.41781 0
M  V30 14478 H 1329.81 -3.7639 5.32141 0
M  V30 14479 N 1333.25 -1.54984 0.285932 0
M  V30 14480 C 1334.19 -2.24385 -0.612703 0
M  V30 14481 C 1335.19 -1.24459 -1.14918 0
M  V30 14482 O 1336.39 -1.42357 -1.10156 0
M  V30 14483 H 1332.77 -0.720263 -0.21616 0
M  V30 14484 H 1334.74 -2.984 -0.00465668 0
M  V30 14485 C 1333.49 -2.98661 -1.78037 0
M  V30 14486 H 1332.81 -3.75347 -1.37676 0
M  V30 14487 H 1334.25 -3.50525 -2.38554 0
M  V30 14488 C 1332.71 -2.04754 -2.67539 0
M  V30 14489 O 1333.24 -1.60577 -3.68209 0
M  V30 14490 N 1331.45 -1.71026 -2.34944 0
M  V30 14491 H 1330.99 -2.07148 -1.53126 0
M  V30 14492 H 1330.95 -1.08467 -2.95097 0
M  V30 14493 N 1334.72 -0.0133892 -1.57594 0
M  V30 14494 C 1336 0.706416 -1.82398 0
M  V30 14495 C 1336.38 1.91236 -0.893983 0
M  V30 14496 O 1335.73 2.28436 0.0541675 0
M  V30 14497 C 1335.94 1.09951 -3.31228 0
M  V30 14498 C 1337.29 1.49776 -3.97306 0
M  V30 14499 O 1338.31 1.19293 -3.3563 0
M  V30 14500 O 1337.17 2.06511 -5.0598 0
M  V30 14501 H 1334.26 0.345131 -0.751541 0
M  V30 14502 H 1336.81 -0.0398687 -1.69653 0
M  V30 14503 H 1335.58 0.240514 -3.9056 0
M  V30 14504 H 1335.21 1.90447 -3.49021 0
M  V30 14505 N 1336.2 1.55448 0.259558 0
M  V30 14506 C 1337.43 1.80465 1.00577 0
M  V30 14507 C 1337.84 0.585001 1.79929 0
M  V30 14508 O 1337.18 -0.455641 1.7796 0
M  V30 14509 C 1337.25 2.98634 2.00146 0
M  V30 14510 C 1336.91 4.35154 1.39607 0
M  V30 14511 C 1337.91 5.13631 0.804923 0
M  V30 14512 C 1335.59 4.81833 1.41923 0
M  V30 14513 C 1337.59 6.36929 0.245007 0
M  V30 14514 C 1335.27 6.05083 0.855458 0
M  V30 14515 C 1336.27 6.82469 0.269359 0
M  V30 14516 O 1335.96 8.03392 -0.285743 0
M  V30 14517 H 1335.69 0.604693 0.302196 0
M  V30 14518 H 1338.24 2.0332 0.291599 0
M  V30 14519 H 1336.47 2.71504 2.75359 0
M  V30 14520 H 1338.16 3.10855 2.61006 0
M  V30 14521 H 1338.93 4.78693 0.779625 0
M  V30 14522 H 1334.81 4.21599 1.86481 0
M  V30 14523 H 1338.35 6.97274 -0.213098 0
M  V30 14524 H 1334.25 6.395 0.878041 0
M  V30 14525 H 1335.02 8.1831 -0.17639 0
M  V30 14526 N 1337.68 -0.524672 1.4861 0
M  V30 14527 C 1338.93 -1.27671 1.5615 0
M  V30 14528 C 1339.24 -1.94088 0.242709 0
M  V30 14529 O 1340.45 -2.70789 0.196407 0
M  V30 14530 C 1338.9 -2.31686 2.75408 0
M  V30 14531 C 1338.51 -1.71315 4.13951 0
M  V30 14532 C 1340.26 -3.07867 2.92264 0
M  V30 14533 C 1338.16 -2.73302 5.24462 0
M  V30 14534 H 1337.09 -0.480177 0.581332 0
M  V30 14535 H 1339.74 -0.553473 1.74954 0
M  V30 14536 H 1338.13 -3.07069 2.50049 0
M  V30 14537 H 1339.3 -1.02085 4.4935 0
M  V30 14538 H 1337.62 -1.07608 4.02255 0
M  V30 14539 H 1340.21 -3.84088 3.71995 0
M  V30 14540 H 1340.56 -3.64052 2.01921 0
M  V30 14541 H 1341.09 -2.39599 3.17549 0
M  V30 14542 H 1337.83 -2.21929 6.16788 0
M  V30 14543 H 1337.35 -3.40843 4.93544 0
M  V30 14544 H 1339.03 -3.36186 5.528 0
M  V30 14545 N 1339.16 -1.37287 -0.77395 0
M  V30 14546 C 1340.41 -1.31698 -1.52769 0
M  V30 14547 C 1340.72 0.0968585 -1.9536 0
M  V30 14548 O 1341.93 0.275205 -2.70102 0
M  V30 14549 C 1340.38 -2.31154 -2.75854 0
M  V30 14550 C 1339.99 -3.78055 -2.40371 0
M  V30 14551 C 1341.73 -2.34572 -3.53803 0
M  V30 14552 C 1339.64 -4.69248 -3.59945 0
M  V30 14553 H 1338.57 -0.489456 -0.573541 0
M  V30 14554 H 1341.22 -1.62735 -0.84791 0
M  V30 14555 H 1339.6 -1.93132 -3.45711 0
M  V30 14556 H 1340.78 -4.24902 -1.78312 0
M  V30 14557 H 1339.09 -3.77562 -1.75602 0
M  V30 14558 H 1341.69 -2.99908 -4.42673 0
M  V30 14559 H 1342.03 -1.35868 -3.93504 0
M  V30 14560 H 1342.57 -2.7129 -2.90941 0
M  V30 14561 H 1339.31 -5.69072 -3.25327 0
M  V30 14562 H 1338.83 -4.27108 -4.21117 0
M  V30 14563 H 1340.5 -4.86275 -4.26785 0
M  V30 14564 N 1340.64 0.999871 -1.21821 0
M  V30 14565 C 1341.87 1.77148 -1.06312 0
M  V30 14566 C 1342.27 1.85142 0.389747 0
M  V30 14567 O 1341.62 1.31562 1.28207 0
M  V30 14568 C 1341.68 3.22367 -1.59122 0
M  V30 14569 C 1341.34 3.37937 -3.07649 0
M  V30 14570 C 1342.34 3.25808 -4.05148 0
M  V30 14571 C 1340.03 3.63213 -3.46961 0
M  V30 14572 C 1342.02 3.38729 -5.39946 0
M  V30 14573 C 1339.71 3.75775 -4.81909 0
M  V30 14574 C 1340.7 3.6354 -5.78211 0
M  V30 14575 O 1340.39 3.75694 -7.1071 0
M  V30 14576 H 1340.12 0.563396 -0.373578 0
M  V30 14577 H 1342.68 1.26627 -1.61724 0
M  V30 14578 H 1340.91 3.74047 -0.98111 0
M  V30 14579 H 1342.6 3.81219 -1.39379 0
M  V30 14580 H 1343.36 3.062 -3.76121 0
M  V30 14581 H 1339.24 3.71816 -2.72533 0
M  V30 14582 H 1342.79 3.29096 -6.15095 0
M  V30 14583 H 1338.68 3.94889 -5.1062 0
M  V30 14584 H 1339.45 3.9261 -7.18192 0
M  V30 14585 N 1342.11 1.02678 1.19562 0
M  V30 14586 C 1343.39 0.63674 1.84946 0
M  V30 14587 C 1343.77 -0.884667 1.91669 0
M  V30 14588 O 1343.12 -1.78053 1.43211 0
M  V30 14589 C 1343.33 1.29637 3.2403 0
M  V30 14590 C 1344.68 1.41828 4.00212 0
M  V30 14591 O 1345.7 1.25338 3.3342 0
M  V30 14592 O 1344.56 1.68573 5.19851 0
M  V30 14593 H 1341.65 0.221044 0.796912 0
M  V30 14594 H 1344.2 1.1248 1.27068 0
M  V30 14595 H 1342.97 2.33549 3.1396 0
M  V30 14596 H 1342.6 0.796041 3.8955 0
M  V30 14597 N 1343.59 -1.35528 0.804364 0
M  V30 14598 C 1344.54 -2.31728 0.20125 0
M  V30 14599 C 1345.53 -1.56527 -0.647751 0
M  V30 14600 O 1346.74 -1.71672 -0.541163 0
M  V30 14601 H 1343.12 -0.750572 0.0463165 0
M  V30 14602 H 1345.09 -2.80142 1.02777 0
M  V30 14603 C 1343.84 -3.41807 -0.637429 0
M  V30 14604 H 1343.16 -3.99799 0.00651699 0
M  V30 14605 H 1344.6 -4.11403 -1.02585 0
M  V30 14606 C 1343.06 -2.84655 -1.80202 0
M  V30 14607 O 1343.59 -2.78026 -2.89939 0
M  V30 14608 N 1341.79 -2.41735 -1.61285 0
M  V30 14609 H 1341.34 -2.47327 -0.720231 0
M  V30 14610 H 1341.3 -2.03844 -2.39364 0
M  V30 14611 N 1345.07 -0.557671 -1.47404 0
M  V30 14612 C 1346.02 0.189765 -2.30019 0
M  V30 14613 C 1346.99 0.907923 -1.3909 0
M  V30 14614 O 1348.17 0.903528 -1.68051 0
M  V30 14615 C 1345.31 1.21348 -3.23061 0
M  V30 14616 C 1344.43 0.501343 -4.29081 0
M  V30 14617 C 1343.56 1.51039 -5.09275 0
M  V30 14618 C 1342.6 0.783254 -6.07068 0
M  V30 14619 N 1341.74 1.73916 -6.80219 0
M  V30 14620 H 1346.58 -0.520856 -2.93413 0
M  V30 14621 H 1344.11 -0.268686 -1.44625 0
M  V30 14622 H 1346.07 1.81961 -3.75428 0
M  V30 14623 H 1344.7 1.89213 -2.61531 0
M  V30 14624 H 1343.75 -0.219317 -3.79767 0
M  V30 14625 H 1345.07 -0.0682656 -4.98753 0
M  V30 14626 H 1344.22 2.19004 -5.65793 0
M  V30 14627 H 1342.96 2.11392 -4.39505 0
M  V30 14628 H 1341.96 0.0896883 -5.49727 0
M  V30 14629 H 1343.19 0.185464 -6.78847 0
M  V30 14630 H 1341.14 2.33125 -6.13179 0
M  V30 14631 H 1341.05 1.22171 -7.46063 0
M  V30 14632 H 1342.32 2.40993 -7.41311 0
M  V30 14633 N 1346.55 1.54831 -0.294147 0
M  V30 14634 C 1347.78 2.04115 0.319474 0
M  V30 14635 C 1348.19 1.17125 1.48588 0
M  V30 14636 O 1347.53 0.188034 1.82735 0
M  V30 14637 C 1347.59 3.49429 0.84496 0
M  V30 14638 C 1347.26 4.56583 -0.195275 0
M  V30 14639 C 1348.25 5.09768 -1.02138 0
M  V30 14640 C 1345.94 5.01182 -0.335 0
M  V30 14641 C 1347.93 6.06088 -1.97321 0
M  V30 14642 C 1345.62 5.97323 -1.29029 0
M  V30 14643 C 1346.62 6.49659 -2.10788 0
M  V30 14644 O 1346.31 7.43918 -3.04698 0
M  V30 14645 H 1346.04 0.671895 0.074383 0
M  V30 14646 H 1348.59 2.00856 -0.429669 0
M  V30 14647 H 1346.82 3.4999 1.64451 0
M  V30 14648 H 1348.51 3.81947 1.37372 0
M  V30 14649 H 1349.28 4.76112 -0.924264 0
M  V30 14650 H 1345.16 4.60078 0.291422 0
M  V30 14651 H 1348.7 6.46863 -2.61177 0
M  V30 14652 H 1344.6 6.30397 -1.38815 0
M  V30 14653 H 1345.36 7.61698 -2.99598 0
M  V30 14654 N 1348.03 0.0217466 1.57585 0
M  V30 14655 C 1348.97 -0.962559 2.0977 0
M  V30 14656 C 1349.94 -1.32771 0.998053 0
M  V30 14657 O 1351.13 -1.42231 1.27181 0
M  V30 14658 C 1348.27 -2.24214 2.62339 0
M  V30 14659 C 1347.38 -1.9341 3.86286 0
M  V30 14660 C 1346.52 -3.15609 4.27275 0
M  V30 14661 C 1345.56 -2.8059 5.43999 0
M  V30 14662 N 1344.69 -3.95392 5.8018 0
M  V30 14663 H 1349.53 -0.510626 2.93593 0
M  V30 14664 H 1347.07 -0.240456 1.45121 0
M  V30 14665 H 1349.03 -2.99049 2.90905 0
M  V30 14666 H 1347.66 -2.67037 1.81358 0
M  V30 14667 H 1346.71 -1.08849 3.64494 0
M  V30 14668 H 1348.02 -1.63614 4.71203 0
M  V30 14669 H 1347.18 -3.9877 4.57239 0
M  V30 14670 H 1345.92 -3.48561 3.41111 0
M  V30 14671 H 1344.92 -1.9584 5.13738 0
M  V30 14672 H 1346.15 -2.48863 6.31858 0
M  V30 14673 H 1344.09 -4.282 4.96971 0
M  V30 14674 H 1344.01 -3.69195 6.59721 0
M  V30 14675 H 1345.28 -4.79279 6.14746 0
M  V30 14676 N 1349.51 -1.55583 -0.251311 0
M  V30 14677 C 1350.45 -1.90764 -1.33086 0
M  V30 14678 C 1351.45 -0.786236 -1.50049 0
M  V30 14679 O 1352.65 -0.97081 -1.51576 0
M  V30 14680 H 1349.03 -0.605795 -0.445551 0
M  V30 14681 H 1351 -2.80903 -1.00678 0
M  V30 14682 C 1349.75 -2.21499 -2.68018 0
M  V30 14683 H 1349.07 -3.07287 -2.55763 0
M  V30 14684 H 1350.51 -2.50021 -3.42441 0
M  V30 14685 C 1348.97 -1.02983 -3.20774 0
M  V30 14686 O 1349.5 -0.275557 -4.00754 0
M  V30 14687 N 1347.71 -0.821649 -2.78742 0
M  V30 14688 H 1347.25 -1.43672 -2.13813 0
M  V30 14689 H 1347.21 -0.0303445 -3.14385 0
M  V30 14690 N 1350.98 0.516783 -1.48886 0
M  V30 14691 C 1352.23 1.27187 -1.57574 0
M  V30 14692 C 1352.56 1.92815 -0.255432 0
M  V30 14693 O 1351.81 1.80533 0.755403 0
M  V30 14694 C 1352.11 2.37296 -2.67256 0
M  V30 14695 C 1351.78 1.89232 -4.0927 0
M  V30 14696 C 1350.44 1.75842 -4.47921 0
M  V30 14697 C 1352.79 1.53073 -4.98215 0
M  V30 14698 C 1350.12 1.24648 -5.73306 0
M  V30 14699 C 1352.47 1.03337 -6.24103 0
M  V30 14700 C 1351.14 0.885744 -6.61597 0
M  V30 14701 H 1350.41 0.46541 -0.576606 0
M  V30 14702 H 1353.05 0.575223 -1.82657 0
M  V30 14703 H 1351.36 3.12685 -2.36084 0
M  V30 14704 H 1353.06 2.95393 -2.7119 0
M  V30 14705 H 1349.65 2.00608 -3.78754 0
M  V30 14706 H 1353.83 1.62272 -4.69022 0
M  V30 14707 H 1349.09 1.11917 -6.0107 0
M  V30 14708 H 1353.26 0.744338 -6.92411 0
M  V30 14709 H 1350.89 0.486866 -7.58639 0
M  V30 14710 N 1352.46 1.37696 0.766659 0
M  V30 14711 C 1353.69 1.36564 1.56093 0
M  V30 14712 C 1354.11 -0.0455828 1.88045 0
M  V30 14713 O 1353.47 -1.02405 1.49609 0
M  V30 14714 C 1353.52 2.21592 2.84481 0
M  V30 14715 O 1352.62 1.62404 3.79076 0
M  V30 14716 H 1351.96 0.466394 0.472623 0
M  V30 14717 H 1354.49 1.81287 0.948486 0
M  V30 14718 H 1354.5 2.34987 3.33534 0
M  V30 14719 H 1353.18 3.24167 2.60554 0
M  V30 14720 H 1351.75 1.58078 3.37736 0
M  V30 14721 N 1353.94 -0.993397 1.22349 0
M  V30 14722 C 1355.19 -1.72707 1.04189 0
M  V30 14723 C 1355.5 -1.90963 -0.423381 0
M  V30 14724 O 1356.71 -2.61651 -0.724645 0
M  V30 14725 C 1355.16 -3.10739 1.81575 0
M  V30 14726 C 1354.77 -3.00415 3.32347 0
M  V30 14727 C 1356.52 -3.88155 1.71861 0
M  V30 14728 C 1354.42 -4.33598 4.02177 0
M  V30 14729 H 1353.35 -0.647556 0.386248 0
M  V30 14730 H 1356 -1.10902 1.46195 0
M  V30 14731 H 1354.39 -3.73222 1.32367 0
M  V30 14732 H 1355.56 -2.47099 3.88946 0
M  V30 14733 H 1353.87 -2.36482 3.42732 0
M  V30 14734 H 1356.47 -4.8673 2.21354 0
M  V30 14735 H 1356.81 -4.10726 0.678939 0
M  V30 14736 H 1357.35 -3.32347 2.18609 0
M  V30 14737 H 1354.09 -4.16226 5.06395 0
M  V30 14738 H 1353.61 -4.86829 3.50367 0
M  V30 14739 H 1355.29 -5.02348 4.07744 0
M  V30 14740 N 1355.42 -1.03311 -1.19015 0
M  V30 14741 C 1356.64 -0.751686 -1.93299 0
M  V30 14742 C 1357.07 0.68392 -1.75226 0
M  V30 14743 O 1356.43 1.47274 -1.05736 0
M  V30 14744 C 1356.47 -1.11335 -3.42982 0
M  V30 14745 O 1355.58 -0.234434 -4.11733 0
M  V30 14746 H 1354.92 -0.277331 -0.60331 0
M  V30 14747 H 1357.45 -1.38092 -1.5097 0
M  V30 14748 H 1357.46 -1.07204 -3.93664 0
M  V30 14749 H 1356.13 -2.15922 -3.55458 0
M  V30 14750 H 1354.71 -0.3347 -3.71395 0
M  V30 14751 N 1356.9 1.35099 -0.81154 0
M  V30 14752 C 1358.14 1.98625 -0.394231 0
M  V30 14753 C 1358.47 1.6437 1.03985 0
M  V30 14754 O 1357.73 0.901496 1.737 0
M  V30 14755 C 1358.02 3.53444 -0.530322 0
M  V30 14756 C 1357.69 4.0758 -1.92844 0
M  V30 14757 C 1356.35 4.22077 -2.31094 0
M  V30 14758 C 1358.7 4.36838 -2.84292 0
M  V30 14759 C 1356.03 4.63153 -3.60148 0
M  V30 14760 C 1358.38 4.79355 -4.12798 0
M  V30 14761 C 1357.05 4.92057 -4.51039 0
M  V30 14762 H 1356.32 0.726822 -0.144259 0
M  V30 14763 H 1358.97 1.61231 -1.03329 0
M  V30 14764 H 1357.27 3.91328 0.192166 0
M  V30 14765 H 1358.97 4.00558 -0.188134 0
M  V30 14766 H 1355.56 3.96752 -1.62129 0
M  V30 14767 H 1359.74 4.25187 -2.55988 0
M  V30 14768 H 1355 4.71176 -3.89619 0
M  V30 14769 H 1359.17 5.00954 -4.83754 0
M  V30 14770 H 1356.8 5.23643 -5.51092 0
M  V30 14771 N 1358.37 0.56548 1.47106 0
M  V30 14772 C 1359.62 0.052857 2.03331 0
M  V30 14773 C 1359.97 -1.28594 1.43113 0
M  V30 14774 O 1359.27 -1.82596 0.580451 0
M  V30 14775 C 1359.46 -0.0893776 3.57288 0
M  V30 14776 C 1359.29 1.23408 4.32436 0
M  V30 14777 C 1358.06 1.80362 4.72015 0
M  V30 14778 C 1360.26 2.15326 4.67054 0
M  V30 14779 N 1358.24 3.06626 5.3184 0
M  V30 14780 C 1359.61 3.26172 5.27268 0
M  V30 14781 C 1361.67 2.15219 4.48983 0
M  V30 14782 C 1360.37 4.37021 5.71319 0
M  V30 14783 C 1362.4 3.25085 4.94038 0
M  V30 14784 C 1361.76 4.34651 5.54309 0
M  V30 14785 H 1357.86 0.0617057 0.779562 0
M  V30 14786 H 1360.44 0.754591 1.79483 0
M  V30 14787 H 1358.61 -0.760248 3.80887 0
M  V30 14788 H 1360.34 -0.604818 4.00155 0
M  V30 14789 H 1357.1 1.3406 4.5423 0
M  V30 14790 H 1357.52 3.71006 5.66289 0
M  V30 14791 H 1362.16 1.3179 4.01735 0
M  V30 14792 H 1359.88 5.21204 6.17553 0
M  V30 14793 H 1363.47 3.26099 4.8182 0
M  V30 14794 H 1362.35 5.18261 5.88536 0
M  V30 14795 N 1359.85 -1.54672 0.302354 0
M  V30 14796 C 1361.1 -2.00463 -0.306978 0
M  V30 14797 C 1361.43 -1.19043 -1.53435 0
M  V30 14798 O 1360.71 -0.267255 -1.92655 0
M  V30 14799 C 1360.99 -3.53958 -0.662229 0
M  V30 14800 C 1360.84 -4.46118 0.574378 0
M  V30 14801 C 1362.16 -4.14174 -1.48821 0
M  V30 14802 H 1359.28 -0.728729 -0.110102 0
M  V30 14803 H 1361.92 -1.85419 0.414722 0
M  V30 14804 H 1360.07 -3.66909 -1.2771 0
M  V30 14805 H 1361.74 -4.45071 1.21284 0
M  V30 14806 H 1359.99 -4.1666 1.20736 0
M  V30 14807 H 1360.66 -5.51281 0.281651 0
M  V30 14808 H 1363.13 -4.04668 -0.968674 0
M  V30 14809 H 1362.01 -5.2173 -1.70556 0
M  V30 14810 H 1362.27 -3.66136 -2.47784 0
M  V30 14811 N 1361.33 -0.0301034 -1.57571 0
M  V30 14812 C 1362.75 0.326296 -1.56229 0
M  V30 14813 C 1362.95 1.72839 -1.03581 0
M  V30 14814 O 1362 2.43088 -0.682979 0
M  V30 14815 C 1363.32 0.174001 -3.00196 0
M  V30 14816 C 1364.86 0.246694 -3.12026 0
M  V30 14817 C 1365.34 0.123177 -4.57834 0
M  V30 14818 N 1366.83 0.180129 -4.6285 0
M  V30 14819 C 1367.56 0.108353 -5.73298 0
M  V30 14820 N 1367.06 -0.0145648 -6.92798 0
M  V30 14821 N 1368.85 0.162411 -5.61865 0
M  V30 14822 H 1361 -0.946945 -1.90123 0
M  V30 14823 H 1363.27 -0.365762 -0.874598 0
M  V30 14824 H 1362.97 -0.791871 -3.42669 0
M  V30 14825 H 1362.85 0.943794 -3.65202 0
M  V30 14826 H 1365.23 1.20303 -2.69465 0
M  V30 14827 H 1365.32 -0.553493 -2.4974 0
M  V30 14828 H 1364.96 -0.82974 -5.01077 0
M  V30 14829 H 1364.89 0.94224 -5.18102 0
M  V30 14830 H 1367.38 0.275236 -3.76896 0
M  V30 14831 H 1367.69 -0.062614 -7.72775 0
M  V30 14832 H 1366.04 -0.0493606 -6.94982 0
M  V30 14833 H 1369.23 0.256847 -4.67395 0
M  V30 14834 H 1369.4 0.103013 -6.47918 0
M  V30 14835 N 1362.81 1.55714 0.243056 0
M  V30 14836 C 1364.06 1.76927 0.96849 0
M  V30 14837 C 1364.37 0.594748 1.86339 0
M  V30 14838 O 1365.58 0.689981 2.62586 0
M  V30 14839 C 1364.03 3.13246 1.77214 0
M  V30 14840 C 1363.64 4.38358 0.92444 0
M  V30 14841 C 1365.38 3.43796 2.49007 0
M  V30 14842 C 1363.29 5.65708 1.7242 0
M  V30 14843 H 1362.22 0.659574 0.365346 0
M  V30 14844 H 1364.87 1.8214 0.223026 0
M  V30 14845 H 1363.25 3.02151 2.5597 0
M  V30 14846 H 1364.43 4.60452 0.178936 0
M  V30 14847 H 1362.74 4.15171 0.319653 0
M  V30 14848 H 1365.34 4.3616 3.09303 0
M  V30 14849 H 1365.68 2.65297 3.20817 0
M  V30 14850 H 1366.22 3.56124 1.77259 0
M  V30 14851 H 1362.96 6.47039 1.04978 0
M  V30 14852 H 1362.48 5.4771 2.44488 0
M  V30 14853 H 1364.15 6.05105 2.29036 0
M  V30 14854 N 1364.29 -0.50888 1.49158 0
M  V30 14855 C 1365.7 -1.09054 1.51539 0
M  V30 14856 C 1366.05 -1.93938 0.297099 0
M  V30 14857 O 1365.17 -2.08092 -0.593849 0
M  V30 14858 C 1365.77 -1.98447 2.74599 0
M  V30 14859 C 1364.33 -2.5179 2.79783 0
M  V30 14860 C 1363.47 -1.29227 2.45348 0
M  V30 14861 H 1366.43 -0.293148 1.55969 0
M  V30 14862 H 1366.45 -2.83028 2.54314 0
M  V30 14863 H 1365.96 -1.3664 3.63251 0
M  V30 14864 H 1364.06 -3.17258 1.95392 0
M  V30 14865 H 1364.17 -2.89481 3.81756 0
M  V30 14866 H 1362.54 -1.61494 1.96957 0
M  V30 14867 H 1363.32 -0.6914 3.36266 0
M  V30 14868 N 1365.76 -1.381 -0.759346 0
M  V30 14869 C 1366.71 -1.34972 -1.89434 0
M  V30 14870 C 1367.71 -0.236499 -1.67741 0
M  V30 14871 O 1368.91 -0.405218 -1.7538 0
M  V30 14872 H 1365.29 -0.420922 -0.62316 0
M  V30 14873 H 1367.26 -2.3076 -1.89189 0
M  V30 14874 C 1366.01 -1.18594 -3.2685 0
M  V30 14875 H 1365.33 -2.03514 -3.44125 0
M  V30 14876 H 1366.77 -1.20458 -4.06529 0
M  V30 14877 C 1365.23 0.107562 -3.36728 0
M  V30 14878 O 1365.76 1.08668 -3.86722 0
M  V30 14879 N 1363.97 0.162455 -2.90146 0
M  V30 14880 H 1363.51 -0.634985 -2.49651 0
M  V30 14881 H 1363.47 1.02751 -2.97136 0
M  V30 14882 N 1367.24 0.986894 -1.22875 0
M  V30 14883 C 1368.47 1.7601 -1.08185 0
M  V30 14884 C 1368.88 1.85545 0.370088 0
M  V30 14885 O 1368.22 1.32915 1.26804 0
M  V30 14886 C 1368.29 3.20661 -1.62532 0
M  V30 14887 C 1367.95 3.34655 -3.11216 0
M  V30 14888 C 1368.95 3.21493 -4.08581 0
M  V30 14889 C 1366.63 3.59512 -3.50794 0
M  V30 14890 C 1368.63 3.32983 -5.43508 0
M  V30 14891 C 1366.31 3.70642 -4.85868 0
M  V30 14892 C 1367.31 3.57387 -5.82034 0
M  V30 14893 O 1367 3.68135 -7.14655 0
M  V30 14894 H 1366.73 0.559402 -0.379533 0
M  V30 14895 H 1369.28 1.24905 -1.63058 0
M  V30 14896 H 1367.51 3.72985 -1.02073 0
M  V30 14897 H 1369.2 3.7972 -1.43415 0
M  V30 14898 H 1369.97 3.02193 -3.79347 0
M  V30 14899 H 1365.85 3.68904 -2.76461 0
M  V30 14900 H 1369.39 3.22553 -6.18551 0
M  V30 14901 H 1365.29 3.89451 -5.1478 0
M  V30 14902 H 1366.06 3.84971 -7.22316 0
M  V30 14903 N 1368.72 1.0394 1.18466 0
M  V30 14904 C 1370 0.65632 1.8426 0
M  V30 14905 C 1370.38 -0.864288 1.92596 0
M  V30 14906 O 1369.73 -1.76524 1.45092 0
M  V30 14907 C 1369.94 1.33067 3.22636 0
M  V30 14908 C 1371.28 1.46065 3.98686 0
M  V30 14909 O 1372.31 1.28867 3.32072 0
M  V30 14910 O 1371.17 1.74078 5.18034 0
M  V30 14911 H 1368.26 0.229484 0.794523 0
M  V30 14912 H 1370.81 1.13821 1.25868 0
M  V30 14913 H 1369.58 2.36866 3.11465 0
M  V30 14914 H 1369.2 0.837313 3.88683 0
M  V30 14915 N 1370.2 -1.34667 0.818693 0
M  V30 14916 C 1371.15 -2.31501 0.225816 0
M  V30 14917 C 1372.14 -1.57205 -0.631112 0
M  V30 14918 O 1373.35 -1.72237 -0.522924 0
M  V30 14919 H 1369.72 -0.750039 0.0542747 0
M  V30 14920 H 1371.69 -2.79036 1.05743 0
M  V30 14921 C 1370.44 -3.42464 -0.60114 0
M  V30 14922 H 1369.76 -3.9977 0.0489207 0
M  V30 14923 H 1371.2 -4.12468 -0.982154 0
M  V30 14924 C 1369.66 -2.86551 -1.77173 0
M  V30 14925 O 1370.19 -2.81085 -2.86974 0
M  V30 14926 N 1368.4 -2.43432 -1.58712 0
M  V30 14927 H 1367.95 -2.48077 -0.693958 0
M  V30 14928 H 1367.9 -2.06371 -2.37188 0
M  V30 14929 N 1371.68 -0.573274 -1.46804 0
M  V30 14930 C 1372.62 0.165358 -2.30207 0
M  V30 14931 C 1373.59 0.89312 -1.40045 0
M  V30 14932 O 1374.78 0.885653 -1.68999 0
M  V30 14933 C 1371.92 1.17915 -3.2433 0
M  V30 14934 C 1371.03 0.455805 -4.29589 0
M  V30 14935 C 1370.17 1.45629 -5.10848 0
M  V30 14936 C 1369.21 0.718822 -6.07865 0
M  V30 14937 N 1368.34 1.66691 -6.82025 0
M  V30 14938 H 1373.18 -0.551947 -2.92844 0
M  V30 14939 H 1370.72 -0.28401 -1.44332 0
M  V30 14940 H 1372.68 1.77969 -3.77337 0
M  V30 14941 H 1371.31 1.86429 -2.63523 0
M  V30 14942 H 1370.36 -0.259584 -3.79513 0
M  V30 14943 H 1371.67 -0.121161 -4.98653 0
M  V30 14944 H 1370.83 2.1299 -5.68084 0
M  V30 14945 H 1369.56 2.06718 -4.41723 0
M  V30 14946 H 1368.57 0.0313773 -5.49791 0
M  V30 14947 H 1369.79 0.113452 -6.79005 0
M  V30 14948 H 1367.74 2.26608 -6.15617 0
M  V30 14949 H 1367.66 1.14251 -7.47317 0
M  V30 14950 H 1368.93 2.33117 -7.43826 0
M  V30 14951 N 1373.15 1.5451 -0.310553 0
M  V30 14952 C 1374.4 1.99505 0.296731 0
M  V30 14953 C 1374.72 1.20257 1.54265 0
M  V30 14954 O 1375.92 1.55566 2.22512 0
M  V30 14955 C 1374.38 3.55208 0.579251 0
M  V30 14956 C 1373.99 4.43276 -0.648874 0
M  V30 14957 C 1375.73 4.08705 1.1472 0
M  V30 14958 C 1373.64 5.90428 -0.338978 0
M  V30 14959 H 1372.57 0.745232 0.114652 0
M  V30 14960 H 1375.22 1.78611 -0.420749 0
M  V30 14961 H 1373.6 3.72039 1.35658 0
M  V30 14962 H 1374.77 4.3822 -1.42478 0
M  V30 14963 H 1373.09 4.00601 -1.13613 0
M  V30 14964 H 1375.69 5.16223 1.39346 0
M  V30 14965 H 1376.03 3.59889 2.09249 0
M  V30 14966 H 1376.56 3.95454 0.431363 0
M  V30 14967 H 1373.3 6.43411 -1.25309 0
M  V30 14968 H 1372.82 5.98468 0.399475 0
M  V30 14969 H 1374.5 6.46976 0.0559696 0
M  V30 14970 N 1374.63 0.0384594 1.57553 0
M  V30 14971 C 1375.88 -0.639085 1.92467 0
M  V30 14972 C 1376.21 -1.71239 0.916014 0
M  V30 14973 O 1375.49 -1.94408 -0.0598928 0
M  V30 14974 C 1375.77 -1.24693 3.37822 0
M  V30 14975 C 1375.62 -0.182544 4.49429 0
M  V30 14976 C 1376.94 -2.16226 3.8332 0
M  V30 14977 H 1374.06 -0.230852 0.699912 0
M  V30 14978 H 1376.7 0.0976276 1.89749 0
M  V30 14979 H 1374.85 -1.87481 3.40269 0
M  V30 14980 H 1376.53 0.448622 4.59113 0
M  V30 14981 H 1374.77 0.4909 4.31013 0
M  V30 14982 H 1375.44 -0.647626 5.48188 0
M  V30 14983 H 1377.92 -1.63413 3.82669 0
M  V30 14984 H 1376.79 -2.55705 4.85702 0
M  V30 14985 H 1377.05 -3.05722 3.19353 0
M  V30 14986 N 1376.11 -1.55841 -0.234795 0
M  V30 14987 C 1377.06 -1.92165 -1.31055 0
M  V30 14988 C 1378.05 -0.802106 -1.49207 0
M  V30 14989 O 1379.26 -0.986832 -1.50538 0
M  V30 14990 H 1375.63 -0.610487 -0.439101 0
M  V30 14991 H 1377.61 -2.81955 -0.976926 0
M  V30 14992 C 1376.35 -2.24329 -2.65654 0
M  V30 14993 H 1375.68 -3.09982 -2.5249 0
M  V30 14994 H 1377.12 -2.53639 -3.3977 0
M  V30 14995 C 1375.58 -1.0638 -3.19664 0
M  V30 14996 O 1376.11 -0.318047 -4.00439 0
M  V30 14997 N 1374.31 -0.851167 -2.77855 0
M  V30 14998 H 1373.86 -1.45932 -2.12277 0
M  V30 14999 H 1373.82 -0.0636875 -3.14335 0
M  V30 15000 N 1377.59 0.500963 -1.49426 0
M  V30 15001 C 1378.84 1.25694 -1.5915 0
M  V30 15002 C 1379.17 1.92209 -0.277365 0
M  V30 15003 O 1378.44 1.8072 0.719065 0
M  V30 15004 C 1378.73 2.32391 -2.75076 0
M  V30 15005 C 1378.58 1.70377 -4.16283 0
M  V30 15006 C 1379.9 3.33952 -2.86643 0
M  V30 15007 H 1377.02 0.455631 -0.579283 0
M  V30 15008 H 1379.66 0.555099 -1.8171 0
M  V30 15009 H 1377.81 2.92252 -2.55971 0
M  V30 15010 H 1379.48 1.14343 -4.46904 0
M  V30 15011 H 1377.72 1.00789 -4.21929 0
M  V30 15012 H 1378.4 2.47767 -4.9327 0
M  V30 15013 H 1380.87 2.84081 -3.04035 0
M  V30 15014 H 1379.75 4.05969 -3.69433 0
M  V30 15015 H 1380.01 3.96279 -1.95998 0
M  V30 15016 N 1379.07 1.38501 0.752011 0
M  V30 15017 C 1380.02 1.35975 1.88716 0
M  V30 15018 C 1381.01 0.245392 1.67613 0
M  V30 15019 O 1382.22 0.414514 1.75162 0
M  V30 15020 H 1378.59 0.424221 0.620919 0
M  V30 15021 H 1380.56 2.3176 1.87962 0
M  V30 15022 C 1379.31 1.20326 3.26216 0
M  V30 15023 H 1378.63 2.05336 3.43041 0
M  V30 15024 H 1380.07 1.22613 4.05884 0
M  V30 15025 C 1378.53 -0.0897029 3.36781 0
M  V30 15026 O 1379.06 -1.06615 3.87293 0
M  V30 15027 N 1377.27 -0.147065 2.90228 0
M  V30 15028 H 1376.82 0.648216 2.49311 0
M  V30 15029 H 1376.77 -1.01174 2.97676 0
M  V30 15030 N 1380.55 -0.980364 1.23396 0
M  V30 15031 C 1381.49 -2.09401 1.01262 0
M  V30 15032 C 1382.49 -1.69331 -0.0483957 0
M  V30 15033 O 1383.69 -1.79693 0.105109 0
M  V30 15034 H 1380.07 -0.684969 0.310358 0
M  V30 15035 H 1382.04 -2.25236 1.95732 0
M  V30 15036 C 1380.79 -3.42118 0.620526 0
M  V30 15037 H 1380.11 -3.73402 1.42868 0
M  V30 15038 H 1381.55 -4.2098 0.505169 0
M  V30 15039 C 1380.01 -3.30146 -0.671208 0
M  V30 15040 O 1380.54 -3.62997 -1.72034 0
M  V30 15041 N 1378.75 -2.83303 -0.647137 0
M  V30 15042 H 1378.29 -2.56767 0.206957 0
M  V30 15043 H 1378.25 -2.75675 -1.51165 0
M  V30 15044 N 1382.02 -1.04567 -1.17913 0
M  V30 15045 C 1382.93 -0.651674 -2.25367 0
M  V30 15046 C 1383.95 0.32437 -1.7095 0
M  V30 15047 O 1385.13 0.178039 -2.00612 0
M  V30 15048 C 1382.19 -0.0259452 -3.4669 0
M  V30 15049 C 1381.25 -1.05163 -4.1622 0
M  V30 15050 C 1380.48 -0.45567 -5.31751 0
M  V30 15051 O 1380.71 0.736698 -5.65623 0
M  V30 15052 O 1379.64 -1.18684 -5.90083 0
M  V30 15053 H 1383.47 -1.54704 -2.61344 0
M  V30 15054 H 1381.05 -0.816852 -1.25092 0
M  V30 15055 H 1382.93 0.322126 -4.20167 0
M  V30 15056 H 1381.61 0.843165 -3.12526 0
M  V30 15057 H 1380.52 -1.45159 -3.44789 0
M  V30 15058 H 1381.85 -1.89168 -4.54397 0
M  V30 15059 N 1383.5 1.34231 -0.825823 0
M  V30 15060 C 1384.73 2.02124 -0.427727 0
M  V30 15061 C 1385.14 1.62331 0.971869 0
M  V30 15062 O 1384.48 0.825946 1.64085 0
M  V30 15063 C 1384.54 3.56626 -0.453698 0
M  V30 15064 C 1384.21 4.19752 -1.80713 0
M  V30 15065 C 1385.21 4.40062 -2.76842 0
M  V30 15066 C 1382.89 4.5646 -2.09641 0
M  V30 15067 C 1384.88 4.9621 -4.00069 0
M  V30 15068 C 1382.57 5.12318 -3.33127 0
M  V30 15069 C 1383.57 5.32137 -4.28158 0
M  V30 15070 O 1383.26 5.86811 -5.49462 0
M  V30 15071 H 1382.99 0.654389 -0.169563 0
M  V30 15072 H 1385.54 1.72421 -1.11624 0
M  V30 15073 H 1383.77 3.856 0.291527 0
M  V30 15074 H 1385.46 4.0583 -0.075249 0
M  V30 15075 H 1386.23 4.12064 -2.5579 0
M  V30 15076 H 1382.11 4.40337 -1.36473 0
M  V30 15077 H 1385.65 5.11594 -4.74254 0
M  V30 15078 H 1381.55 5.39746 -3.54041 0
M  V30 15079 H 1382.32 6.05242 -5.51022 0
M  V30 15080 N 1384.98 0.581051 1.46498 0
M  V30 15081 C 1386.21 0.0715652 2.06776 0
M  V30 15082 C 1386.62 -1.23267 1.43006 0
M  V30 15083 O 1385.98 -1.74489 0.534776 0
M  V30 15084 C 1386.03 -0.102666 3.61354 0
M  V30 15085 O 1385.75 1.14995 4.22739 0
M  V30 15086 C 1387.25 -0.646692 4.38558 0
M  V30 15087 H 1384.47 0.0566964 0.6686 0
M  V30 15088 H 1387.02 0.801248 1.8815 0
M  V30 15089 H 1385.17 -0.782564 3.79414 0
M  V30 15090 H 1385.59 0.962718 5.15589 0
M  V30 15091 H 1387.06 -0.717791 5.47313 0
M  V30 15092 H 1387.54 -1.6633 4.06486 0
M  V30 15093 H 1388.14 -0.00171739 4.253 0
M  V30 15094 N 1386.46 -1.54343 0.318742 0
M  V30 15095 C 1387.71 -1.9966 -0.286146 0
M  V30 15096 C 1388.02 -1.21073 -1.53625 0
M  V30 15097 O 1389.23 -1.56744 -2.21684 0
M  V30 15098 C 1387.68 -3.5551 -0.560405 0
M  V30 15099 C 1387.29 -4.42926 0.672373 0
M  V30 15100 C 1389.03 -4.09307 -1.12551 0
M  V30 15101 C 1386.94 -5.9024 0.370285 0
M  V30 15102 H 1385.87 -0.74583 -0.110698 0
M  V30 15103 H 1388.52 -1.78386 0.430215 0
M  V30 15104 H 1386.9 -3.72753 -1.33683 0
M  V30 15105 H 1388.08 -4.37458 1.448 0
M  V30 15106 H 1386.39 -3.99993 1.15736 0
M  V30 15107 H 1388.99 -5.16955 -1.36607 0
M  V30 15108 H 1389.33 -3.60994 -2.07338 0
M  V30 15109 H 1389.87 -3.95677 -0.410385 0
M  V30 15110 H 1386.6 -6.42738 1.28719 0
M  V30 15111 H 1386.12 -5.98672 -0.367731 0
M  V30 15112 H 1387.8 -6.46996 -0.0216582 0
M  V30 15113 N 1387.94 -0.0468143 -1.5753 0
M  V30 15114 C 1389.18 0.627375 -1.91695 0
M  V30 15115 C 1389.5 1.72261 -0.926588 0
M  V30 15116 O 1390.7 2.45466 -1.16012 0
M  V30 15117 C 1389.16 1.16722 -3.40447 0
M  V30 15118 C 1388.77 0.104335 -4.47878 0
M  V30 15119 C 1390.51 1.81691 -3.83652 0
M  V30 15120 C 1388.42 0.656818 -5.87741 0
M  V30 15121 H 1387.35 0.238107 -0.715417 0
M  V30 15122 H 1390 -0.114995 -1.83139 0
M  V30 15123 H 1388.38 1.96177 -3.43992 0
M  V30 15124 H 1389.56 -0.669053 -4.55917 0
M  V30 15125 H 1387.87 -0.447633 -4.13987 0
M  V30 15126 H 1390.47 2.24014 -4.85512 0
M  V30 15127 H 1390.81 2.66686 -3.19663 0
M  V30 15128 H 1391.34 1.08898 -3.82604 0
M  V30 15129 H 1388.08 -0.155397 -6.55316 0
M  V30 15130 H 1387.6 1.39829 -5.83273 0
M  V30 15131 H 1389.28 1.14107 -6.36858 0
M  V30 15132 N 1389.41 1.55964 0.226527 0
M  V30 15133 C 1390.36 1.92857 1.30034 0
M  V30 15134 C 1391.36 0.810008 1.48779 0
M  V30 15135 O 1392.56 0.994801 1.50012 0
M  V30 15136 H 1388.94 0.612807 0.435857 0
M  V30 15137 H 1390.91 2.82469 0.96196 0
M  V30 15138 C 1389.66 2.25735 2.6446 0
M  V30 15139 H 1388.98 3.11317 2.50842 0
M  V30 15140 H 1390.42 2.55437 3.3842 0
M  V30 15141 C 1388.88 1.08074 3.19095 0
M  V30 15142 O 1389.41 0.339279 4.00265 0
M  V30 15143 N 1387.62 0.86589 2.774 0
M  V30 15144 H 1387.16 1.47055 2.11501 0
M  V30 15145 H 1387.12 0.0803566 3.14297 0
M  V30 15146 N 1390.89 -0.493031 1.4969 0
M  V30 15147 C 1392.13 -1.25673 1.61201 0
M  V30 15148 C 1392.5 -1.8971 0.295685 0
M  V30 15149 O 1393.7 -2.67274 0.286046 0
M  V30 15150 C 1391.97 -2.28923 2.74462 0
M  V30 15151 S 1393.53 -3.14525 3.05973 0
M  V30 15152 H 1390.35 -0.426985 0.568511 0
M  V30 15153 H 1392.95 -0.557497 1.87383 0
M  V30 15154 H 1391.65 -1.80421 3.68614 0
M  V30 15155 H 1391.18 -3.03504 2.50298 0
M  V30 15156 H 1393.2 -4.29717 2.48108 0
M  V30 15157 N 1392.37 -1.38898 -0.744656 0
M  V30 15158 C 1393.3 -1.31228 -1.86693 0
M  V30 15159 C 1394.28 -0.187667 -1.61513 0
M  V30 15160 O 1395.47 -0.366497 -1.84903 0
M  V30 15161 C 1392.59 -1.03541 -3.22486 0
M  V30 15162 C 1391.64 -2.18061 -3.6654 0
M  V30 15163 S 1392.47 -3.80271 -3.77033 0
M  V30 15164 C 1393.63 -3.5479 -5.15631 0
M  V30 15165 H 1393.86 -2.26211 -1.92914 0
M  V30 15166 H 1391.39 -1.24839 -0.908544 0
M  V30 15167 H 1393.35 -0.882504 -4.00902 0
M  V30 15168 H 1392.01 -0.102611 -3.13932 0
M  V30 15169 H 1391.21 -1.94257 -4.65059 0
M  V30 15170 H 1390.81 -2.29505 -2.95302 0
M  V30 15171 H 1393.1 -3.11457 -6.01665 0
M  V30 15172 H 1394.04 -4.52735 -5.4446 0
M  V30 15173 H 1394.45 -2.89103 -4.8485 0
M  V30 15174 N 1393.85 0.973806 -1.23914 0
M  V30 15175 C 1395.26 1.24128 -1.00322 0
M  V30 15176 C 1395.46 1.99378 0.29169 0
M  V30 15177 O 1394.52 2.31445 1.00943 0
M  V30 15178 C 1395.83 2.03438 -2.21435 0
M  V30 15179 C 1397.38 2.16553 -2.25995 0
M  V30 15180 C 1397.86 2.99257 -3.46712 0
M  V30 15181 N 1399.35 3.0684 -3.46992 0
M  V30 15182 C 1400.08 3.71174 -4.37055 0
M  V30 15183 N 1399.58 4.37277 -5.37364 0
M  V30 15184 N 1401.37 3.68126 -4.24782 0
M  V30 15185 H 1393.52 0.469872 -2.07138 0
M  V30 15186 H 1395.79 0.270234 -0.908668 0
M  V30 15187 H 1395.49 1.55527 -3.15443 0
M  V30 15188 H 1395.37 3.0418 -2.23057 0
M  V30 15189 H 1397.75 2.6367 -1.32522 0
M  V30 15190 H 1397.83 1.15179 -2.28402 0
M  V30 15191 H 1397.48 2.52835 -4.40496 0
M  V30 15192 H 1397.41 4.00815 -3.41547 0
M  V30 15193 H 1399.9 2.59813 -2.74419 0
M  V30 15194 H 1400.21 4.84166 -6.02331 0
M  V30 15195 H 1398.56 4.35965 -5.41257 0
M  V30 15196 H 1401.75 3.15657 -3.45656 0
M  V30 15197 H 1401.92 4.17981 -4.95173 0
M  V30 15198 N 1395.33 1.05191 1.17357 0
M  V30 15199 C 1396.6 0.675826 1.83554 0
M  V30 15200 C 1396.98 -0.843812 1.93502 0
M  V30 15201 O 1396.33 -1.74975 1.46956 0
M  V30 15202 C 1396.54 1.36481 3.21207 0
M  V30 15203 C 1397.89 1.50285 3.97114 0
M  V30 15204 O 1398.91 1.32382 3.30686 0
M  V30 15205 O 1397.77 1.79562 5.16159 0
M  V30 15206 H 1394.87 0.237898 0.792044 0
M  V30 15207 H 1397.41 1.1515 1.24654 0
M  V30 15208 H 1396.18 2.40156 3.08935 0
M  V30 15209 H 1395.81 0.878491 3.87774 0
M  V30 15210 N 1396.8 -1.33791 0.83293 0
M  V30 15211 C 1397.75 -2.31249 0.250357 0
M  V30 15212 C 1398.75 -1.57865 -0.614403 0
M  V30 15213 O 1399.95 -1.72782 -0.504627 0
M  V30 15214 H 1396.33 -0.749421 0.0622268 0
M  V30 15215 H 1398.3 -2.77899 1.08697 0
M  V30 15216 C 1397.05 -3.43082 -0.564783 0
M  V30 15217 H 1396.37 -3.99696 0.0913189 0
M  V30 15218 H 1397.81 -4.13486 -0.938351 0
M  V30 15219 C 1396.27 -2.88414 -1.74124 0
M  V30 15220 O 1396.8 -2.84113 -2.83976 0
M  V30 15221 N 1395.01 -2.45101 -1.56121 0
M  V30 15222 H 1394.55 -2.48799 -0.667607 0
M  V30 15223 H 1394.51 -2.08875 -2.34986 0
M  V30 15224 N 1398.28 -0.588812 -1.46187 0
M  V30 15225 C 1399.23 0.153638 -2.32092 0
M  V30 15226 C 1400.22 0.878346 -1.4485 0
M  V30 15227 O 1401.43 0.796042 -1.61441 0
M  V30 15228 H 1397.81 0.0684129 -0.748882 0
M  V30 15229 H 1399.78 -0.58961 -2.92517 0
M  V30 15230 C 1398.53 1.15003 -3.28131 0
M  V30 15231 H 1397.85 0.601804 -3.95245 0
M  V30 15232 H 1399.29 1.6398 -3.91007 0
M  V30 15233 C 1397.75 2.21411 -2.53926 0
M  V30 15234 O 1398.28 3.28862 -2.30679 0
M  V30 15235 N 1396.48 1.96184 -2.14383 0
M  V30 15236 H 1396.03 1.08812 -2.3349 0
M  V30 15237 H 1395.99 2.6759 -1.65055 0
M  V30 15238 N 1399.76 1.54172 -0.326923 0
M  V30 15239 C 1400.99 2.05512 0.279231 0
M  V30 15240 C 1401.41 1.20131 1.44741 0
M  V30 15241 O 1400.77 0.211191 1.80066 0
M  V30 15242 C 1400.82 3.53971 0.688263 0
M  V30 15243 O 1399.92 3.71516 1.79025 0
M  V30 15244 H 1399.26 0.662131 0.0497826 0
M  V30 15245 H 1401.79 1.98979 -0.476309 0
M  V30 15246 H 1401.8 3.96302 0.970002 0
M  V30 15247 H 1400.48 4.15568 -0.166132 0
M  V30 15248 H 1399.05 3.4109 1.50706 0
M  V30 15249 N 1401.24 0.0551678 1.57503 0
M  V30 15250 C 1402.49 -0.6165 1.92467 0
M  V30 15251 C 1402.81 -1.71147 0.934552 0
M  V30 15252 O 1402.08 -1.9589 -0.0199649 0
M  V30 15253 H 1400.66 -0.230714 0.710479 0
M  V30 15254 H 1403.32 0.109111 1.94594 0
M  V30 15255 H 1402.42 -1.05254 2.93816 0
M  V30 15256 N 1402.72 -1.56081 -0.218252 0
M  V30 15257 C 1403.96 -1.80421 -0.939135 0
M  V30 15258 C 1404.32 -0.628671 -1.81839 0
M  V30 15259 O 1403.61 0.377148 -1.87851 0
M  V30 15260 C 1403.8 -3.08199 -1.80965 0
M  V30 15261 C 1403.63 -4.38069 -1.01616 0
M  V30 15262 C 1402.4 -5.0029 -0.709772 0
M  V30 15263 C 1404.6 -5.12895 -0.379884 0
M  V30 15264 N 1402.58 -6.13811 0.104778 0
M  V30 15265 C 1403.95 -6.19284 0.29791 0
M  V30 15266 C 1406.01 -4.97036 -0.29325 0
M  V30 15267 C 1404.71 -7.11535 1.05405 0
M  V30 15268 C 1406.74 -5.8969 0.449435 0
M  V30 15269 C 1406.1 -6.95507 1.11576 0
M  V30 15270 H 1402.2 -0.711808 -0.32381 0
M  V30 15271 H 1404.78 -1.93567 -0.209735 0
M  V30 15272 H 1402.95 -2.9633 -2.51084 0
M  V30 15273 H 1404.69 -3.20717 -2.46826 0
M  V30 15274 H 1401.44 -4.62295 -1.0286 0
M  V30 15275 H 1401.87 -6.75144 0.500985 0
M  V30 15276 H 1406.51 -4.15276 -0.794059 0
M  V30 15277 H 1404.23 -7.92774 1.56637 0
M  V30 15278 H 1407.81 -5.79494 0.517515 0
M  V30 15279 H 1406.69 -7.65966 1.68126 0
M  V30 15280 N 1404.2 0.485086 -1.49949 0
M  V30 15281 C 1405.14 1.5848 -1.67788 0
M  V30 15282 C 1406.11 1.57776 -0.519216 0
M  V30 15283 O 1407.3 1.75521 -0.748141 0
M  V30 15284 C 1404.44 2.9654 -1.76516 0
M  V30 15285 C 1403.55 3.07139 -3.03792 0
M  V30 15286 C 1402.69 4.36029 -3.03401 0
M  V30 15287 C 1401.72 4.40318 -4.2519 0
M  V30 15288 N 1400.86 5.60659 -4.22618 0
M  V30 15289 H 1405.7 1.42575 -2.6168 0
M  V30 15290 H 1403.24 0.693426 -1.29731 0
M  V30 15291 H 1405.2 3.76583 -1.79557 0
M  V30 15292 H 1403.83 3.11112 -0.860764 0
M  V30 15293 H 1402.88 2.20057 -3.10289 0
M  V30 15294 H 1404.19 3.06167 -3.9378 0
M  V30 15295 H 1403.34 5.24407 -3.05094 0
M  V30 15296 H 1402.08 4.39588 -2.11219 0
M  V30 15297 H 1401.09 3.50339 -4.23725 0
M  V30 15298 H 1402.31 4.38461 -5.18583 0
M  V30 15299 H 1400.26 5.6503 -3.33282 0
M  V30 15300 H 1400.18 5.61371 -5.06359 0
M  V30 15301 H 1401.44 6.51201 -4.28436 0
M  V30 15302 N 1405.67 1.39291 0.737279 0
M  V30 15303 C 1406.92 1.36592 1.49901 0
M  V30 15304 C 1407.25 -0.0388812 1.94161 0
M  V30 15305 O 1406.53 -1.00337 1.66622 0
M  V30 15306 C 1406.81 2.33625 2.74028 0
M  V30 15307 C 1406.66 3.83037 2.35802 0
M  V30 15308 C 1407.98 2.28524 3.76118 0
M  V30 15309 H 1405.1 0.497482 0.543765 0
M  V30 15310 H 1407.74 1.70265 0.843193 0
M  V30 15311 H 1405.89 2.0504 3.29986 0
M  V30 15312 H 1407.57 4.22363 1.85493 0
M  V30 15313 H 1405.81 3.99924 1.68058 0
M  V30 15314 H 1406.48 4.46415 3.24681 0
M  V30 15315 H 1408.96 2.53794 3.29739 0
M  V30 15316 H 1407.83 2.98501 4.60639 0
M  V30 15317 H 1408.09 1.28949 4.22876 0
M  V30 15318 N 1407.15 -0.967221 1.24429 0
M  V30 15319 C 1408.38 -1.75053 1.11226 0
M  V30 15320 C 1408.8 -1.85162 -0.331139 0
M  V30 15321 O 1408.16 -1.32288 -1.23974 0
M  V30 15322 C 1408.21 -3.14882 1.75733 0
M  V30 15323 O 1407.31 -3.99371 1.02842 0
M  V30 15324 H 1406.65 -0.538078 0.389061 0
M  V30 15325 H 1409.18 -1.21325 1.64746 0
M  V30 15326 H 1409.19 -3.65402 1.81509 0
M  V30 15327 H 1407.87 -3.06839 2.80754 0
M  V30 15328 H 1406.44 -3.57854 1.04856 0
M  V30 15329 N 1408.63 -1.05812 -1.16797 0
M  V30 15330 C 1409.56 -0.685778 -2.23202 0
M  V30 15331 C 1410.54 0.319428 -1.67074 0
M  V30 15332 O 1411.73 0.195635 -1.93212 0
M  V30 15333 C 1408.86 -0.0662958 -3.47237 0
M  V30 15334 C 1407.81 -0.996943 -4.16227 0
M  V30 15335 C 1407.14 -0.241015 -5.34157 0
M  V30 15336 C 1408.44 -2.32384 -4.67755 0
M  V30 15337 H 1410.13 -1.57535 -2.54604 0
M  V30 15338 H 1407.68 -0.758909 -1.22379 0
M  V30 15339 H 1409.63 0.206024 -4.20896 0
M  V30 15340 H 1408.35 0.858263 -3.15121 0
M  V30 15341 H 1407.01 -1.25393 -3.44488 0
M  V30 15342 H 1406.66 0.686508 -4.98293 0
M  V30 15343 H 1406.36 -0.861188 -5.81255 0
M  V30 15344 H 1407.88 0.0238739 -6.10595 0
M  V30 15345 H 1409.3 -2.11099 -5.3302 0
M  V30 15346 H 1407.69 -2.89855 -5.25456 0
M  V30 15347 H 1408.76 -2.958 -3.84227 0
M  V30 15348 N 1410.11 1.33347 -0.840014 0
M  V30 15349 C 1411.06 2.31113 -0.262617 0
M  V30 15350 C 1412.05 1.58189 0.606023 0
M  V30 15351 O 1413.26 1.73047 0.495457 0
M  V30 15352 H 1409.63 0.74908 -0.0662003 0
M  V30 15353 H 1411.6 2.77318 -1.10169 0
M  V30 15354 C 1410.35 3.43377 0.54658 0
M  V30 15355 H 1409.67 3.99642 -0.112514 0
M  V30 15356 H 1411.11 4.13978 0.91641 0
M  V30 15357 C 1409.57 2.89333 1.72592 0
M  V30 15358 O 1410.1 2.85615 2.82466 0
M  V30 15359 N 1408.31 2.45926 1.54819 0
M  V30 15360 H 1407.86 2.49149 0.654404 0
M  V30 15361 H 1407.81 2.10119 2.33875 0
M  V30 15362 N 1411.59 0.596556 1.45873 0
M  V30 15363 C 1412.54 -0.14991 2.27507 0
M  V30 15364 C 1413.52 -0.848942 1.36681 0
M  V30 15365 O 1414.71 -0.740752 1.60754 0
M  V30 15366 C 1411.84 -1.15391 3.23326 0
M  V30 15367 C 1410.93 -0.456283 4.21638 0
M  V30 15368 N 1411.32 0.495911 5.03363 0
M  V30 15369 C 1409.62 -0.705263 4.40389 0
M  V30 15370 C 1410.32 0.904941 5.74618 0
M  V30 15371 N 1409.29 0.251069 5.4302 0
M  V30 15372 H 1413.09 0.581593 2.88088 0
M  V30 15373 H 1410.61 0.419386 1.56891 0
M  V30 15374 H 1412.61 -1.70299 3.80531 0
M  V30 15375 H 1411.27 -1.88609 2.64305 0
M  V30 15376 H 1412.28 0.872126 5.10504 0
M  V30 15377 H 1408.95 -1.42296 3.92502 0
M  V30 15378 H 1410.34 1.68965 6.50308 0
M  V30 15379 N 1413.06 -1.53996 0.335095 0
M  V30 15380 C 1414.01 -2.26221 -0.541007 0
M  V30 15381 C 1415.01 -1.28053 -1.109 0
M  V30 15382 O 1416.21 -1.4579 -1.05571 0
M  V30 15383 H 1412.59 -0.726775 -0.193136 0
M  V30 15384 H 1414.56 -2.98263 0.0902792 0
M  V30 15385 C 1413.31 -3.04173 -1.68445 0
M  V30 15386 H 1412.63 -3.79537 -1.25665 0
M  V30 15387 H 1414.07 -3.57937 -2.27282 0
M  V30 15388 C 1412.53 -2.13162 -2.6089 0
M  V30 15389 O 1413.06 -1.7221 -3.62914 0
M  V30 15390 N 1411.26 -1.78414 -2.29384 0
M  V30 15391 H 1410.81 -2.11914 -1.46458 0
M  V30 15392 H 1410.77 -1.178 -2.91497 0
M  V30 15393 N 1414.54 -0.0635198 -1.57472 0
M  V30 15394 C 1415.45 0.921531 -2.15743 0
M  V30 15395 C 1416.47 1.33294 -1.11842 0
M  V30 15396 O 1417.64 1.40733 -1.4407 0
M  V30 15397 C 1414.71 2.17378 -2.70088 0
M  V30 15398 C 1413.77 1.81956 -3.88832 0
M  V30 15399 C 1413 3.01211 -4.40577 0
M  V30 15400 O 1413.23 4.14971 -3.9135 0
M  V30 15401 O 1412.16 2.81507 -5.32012 0
M  V30 15402 H 1415.99 0.455899 -3.00259 0
M  V30 15403 H 1413.57 0.159085 -1.48551 0
M  V30 15404 H 1415.45 2.90826 -3.04956 0
M  V30 15405 H 1414.13 2.63055 -1.88637 0
M  V30 15406 H 1413.03 1.05786 -3.58832 0
M  V30 15407 H 1414.37 1.41069 -4.71551 0
M  V30 15408 N 1416.02 1.56195 0.209972 0
M  V30 15409 C 1417.27 1.78941 0.930744 0
M  V30 15410 C 1417.58 0.634139 1.85035 0
M  V30 15411 O 1418.79 0.745524 2.61064 0
M  V30 15412 C 1417.24 3.16935 1.70529 0
M  V30 15413 C 1416.85 4.40221 0.83125 0
M  V30 15414 C 1418.6 3.49 2.41659 0
M  V30 15415 C 1416.5 5.69238 1.60381 0
M  V30 15416 H 1415.43 0.667176 0.351273 0
M  V30 15417 H 1418.08 1.82572 0.184341 0
M  V30 15418 H 1416.47 3.07513 2.49503 0
M  V30 15419 H 1417.64 4.60728 0.081227 0
M  V30 15420 H 1415.95 4.15756 0.231517 0
M  V30 15421 H 1418.55 4.42623 2.99982 0
M  V30 15422 H 1418.89 2.72042 3.15117 0
M  V30 15423 H 1419.43 3.59804 1.69665 0
M  V30 15424 H 1416.17 6.49121 0.912292 0
M  V30 15425 H 1415.69 5.52772 2.32815 0
M  V30 15426 H 1417.37 6.09827 2.16149 0
M  V30 15427 N 1417.5 -0.477127 1.50204 0
M  V30 15428 C 1418.75 -1.22639 1.60133 0
M  V30 15429 C 1419.06 -1.93218 0.304333 0
M  V30 15430 O 1420.27 -2.70027 0.282457 0
M  V30 15431 C 1418.72 -2.22807 2.82639 0
M  V30 15432 C 1418.33 -1.58059 4.19191 0
M  V30 15433 C 1420.07 -2.98413 3.01911 0
M  V30 15434 C 1417.98 -2.56478 5.32891 0
M  V30 15435 H 1416.91 -0.461439 0.596314 0
M  V30 15436 H 1419.56 -0.497533 1.76626 0
M  V30 15437 H 1417.94 -2.98959 2.59692 0
M  V30 15438 H 1419.12 -0.877374 4.5237 0
M  V30 15439 H 1417.43 -0.947563 4.05475 0
M  V30 15440 H 1420.03 -3.72059 3.84026 0
M  V30 15441 H 1420.37 -3.57444 2.134 0
M  V30 15442 H 1420.91 -2.29375 3.25011 0
M  V30 15443 H 1417.64 -2.02194 6.23536 0
M  V30 15444 H 1417.16 -3.24969 5.04138 0
M  V30 15445 H 1418.84 -3.18429 5.63216 0
M  V30 15446 N 1418.98 -1.3968 -0.729882 0
M  V30 15447 C 1420.22 -1.38389 -1.49064 0
M  V30 15448 C 1420.58 0.0186997 -1.92391 0
M  V30 15449 O 1419.87 0.986266 -1.64266 0
M  V30 15450 C 1420.06 -2.29499 -2.7398 0
M  V30 15451 C 1419.89 -3.78478 -2.42868 0
M  V30 15452 C 1418.66 -4.47375 -2.34911 0
M  V30 15453 C 1420.86 -4.70329 -2.08074 0
M  V30 15454 N 1418.84 -5.81662 -1.96324 0
M  V30 15455 C 1420.21 -5.93305 -1.79971 0
M  V30 15456 C 1422.27 -4.58302 -1.94586 0
M  V30 15457 C 1420.97 -7.05596 -1.3974 0
M  V30 15458 C 1423 -5.7052 -1.55758 0
M  V30 15459 C 1422.36 -6.92572 -1.28544 0
M  V30 15460 H 1418.46 -0.56167 -0.544106 0
M  V30 15461 H 1421.04 -1.75273 -0.847782 0
M  V30 15462 H 1419.21 -1.94765 -3.36037 0
M  V30 15463 H 1420.95 -2.19166 -3.40218 0
M  V30 15464 H 1417.7 -4.00878 -2.52178 0
M  V30 15465 H 1418.13 -6.5274 -1.79608 0
M  V30 15466 H 1422.77 -3.6447 -2.14292 0
M  V30 15467 H 1420.49 -7.99323 -1.18776 0
M  V30 15468 H 1424.07 -5.63204 -1.45921 0
M  V30 15469 H 1422.95 -7.77932 -0.989491 0
M  V30 15470 N 1420.45 0.960609 -1.2494 0
M  V30 15471 C 1421.68 1.73928 -1.12057 0
M  V30 15472 C 1422.1 1.8596 0.32623 0
M  V30 15473 O 1421.45 1.35303 1.22472 0
M  V30 15474 C 1421.51 3.15614 -1.76267 0
M  V30 15475 O 1421.23 3.04177 -3.15291 0
M  V30 15476 C 1422.73 4.09786 -1.69086 0
M  V30 15477 H 1419.95 0.5452 -0.39115 0
M  V30 15478 H 1422.49 1.20556 -1.65186 0
M  V30 15479 H 1420.65 3.65949 -1.27123 0
M  V30 15480 H 1421.06 3.93513 -3.46768 0
M  V30 15481 H 1422.53 5.06835 -2.18683 0
M  V30 15482 H 1423.01 4.34312 -0.653453 0
M  V30 15483 H 1423.62 3.65365 -2.1769 0
M  V30 15484 N 1421.93 1.0643 1.16234 0
M  V30 15485 C 1423.18 0.78184 1.86798 0
M  V30 15486 C 1423.51 -0.691734 1.81784 0
M  V30 15487 O 1422.76 -1.52271 1.22931 0
M  V30 15488 C 1423.06 1.22348 3.35806 0
M  V30 15489 C 1422.73 2.7014 3.61019 0
M  V30 15490 C 1421.39 3.1051 3.6761 0
M  V30 15491 C 1423.74 3.65582 3.71482 0
M  V30 15492 C 1421.07 4.45159 3.82165 0
M  V30 15493 C 1423.42 4.99981 3.87559 0
M  V30 15494 C 1422.09 5.39986 3.92392 0
M  V30 15495 H 1421.36 0.286096 0.683542 0
M  V30 15496 H 1424 1.33364 1.37427 0
M  V30 15497 H 1422.31 0.590896 3.87319 0
M  V30 15498 H 1424 0.981959 3.88791 0
M  V30 15499 H 1420.59 2.37884 3.56524 0
M  V30 15500 H 1424.78 3.35525 3.657 0
M  V30 15501 H 1420.03 4.75637 3.8416 0
M  V30 15502 H 1424.21 5.73817 3.94597 0
M  V30 15503 H 1421.84 6.44324 4.03423 0
M  V30 15504 N 1423.41 -1.329 0.847073 0
M  V30 15505 C 1424.32 -2.32815 0.288878 0
M  V30 15506 C 1425.34 -1.63715 -0.589363 0
M  V30 15507 O 1426.51 -1.9531 -0.491537 0
M  V30 15508 C 1423.58 -3.42778 -0.519988 0
M  V30 15509 C 1422.64 -4.27584 0.383496 0
M  V30 15510 C 1421.87 -5.32296 -0.386862 0
M  V30 15511 O 1422.09 -5.4698 -1.61768 0
M  V30 15512 O 1421.03 -6.01408 0.2434 0
M  V30 15513 H 1424.85 -2.82434 1.11647 0
M  V30 15514 H 1422.44 -1.36388 0.609807 0
M  V30 15515 H 1424.32 -4.09862 -0.979357 0
M  V30 15516 H 1423 -2.95362 -1.3245 0
M  V30 15517 H 1421.9 -3.63338 0.890879 0
M  V30 15518 H 1423.24 -4.78505 1.15299 0
M  V30 15519 N 1424.89 -0.604284 -1.45555 0
M  V30 15520 C 1426.17 -0.0303285 -1.95576 0
M  V30 15521 C 1426.55 1.43661 -1.54676 0
M  V30 15522 O 1425.89 2.13747 -0.807731 0
M  V30 15523 C 1426.1 -0.22497 -3.48274 0
M  V30 15524 C 1427.45 -0.104042 -4.24473 0
M  V30 15525 O 1428.48 -0.154919 -3.55863 0
M  V30 15526 O 1427.33 0.0136297 -5.46498 0
M  V30 15527 H 1424.43 0.0376106 -0.826144 0
M  V30 15528 H 1426.97 -0.674114 -1.55736 0
M  V30 15529 H 1425.75 -1.24391 -3.71002 0
M  V30 15530 H 1425.37 0.454234 -3.94997 0
M  V30 15531 N 1426.37 1.53816 -0.343257 0
M  V30 15532 C 1427.31 2.26505 0.529002 0
M  V30 15533 C 1428.31 1.28639 1.1022 0
M  V30 15534 O 1429.51 1.46348 1.04797 0
M  V30 15535 H 1425.89 0.727789 0.189279 0
M  V30 15536 H 1427.86 2.98211 -0.106096 0
M  V30 15537 C 1426.61 3.05062 1.6683 0
M  V30 15538 H 1425.93 3.80198 1.23651 0
M  V30 15539 H 1427.37 3.59138 2.2538 0
M  V30 15540 C 1425.83 2.14543 2.59756 0
M  V30 15541 O 1426.36 1.74132 3.61996 0
M  V30 15542 N 1424.57 1.79628 2.28434 0
M  V30 15543 H 1424.11 2.12688 1.45332 0
M  V30 15544 H 1424.07 1.19345 2.90868 0
M  V30 15545 N 1427.84 0.0718701 1.57436 0
M  V30 15546 C 1429.26 -0.28476 1.57039 0
M  V30 15547 C 1429.46 -1.70032 1.08127 0
M  V30 15548 O 1428.52 -2.41191 0.747189 0
M  V30 15549 C 1429.83 -0.0943482 3.00552 0
M  V30 15550 C 1431.38 -0.163879 3.12571 0
M  V30 15551 C 1431.85 -0.00174658 4.58 0
M  V30 15552 N 1433.34 -0.0573489 4.63164 0
M  V30 15553 C 1434.08 0.0436849 5.73383 0
M  V30 15554 N 1433.57 0.198243 6.92516 0
M  V30 15555 N 1435.37 -0.0133856 5.62098 0
M  V30 15556 H 1427.52 0.99702 1.87545 0
M  V30 15557 H 1429.78 0.388822 0.864593 0
M  V30 15558 H 1429.49 0.882445 3.40449 0
M  V30 15559 H 1429.36 -0.846636 3.67576 0
M  V30 15560 H 1431.75 -1.13116 2.7256 0
M  V30 15561 H 1431.83 0.619513 2.48185 0
M  V30 15562 H 1431.47 0.9623 4.98701 0
M  V30 15563 H 1431.4 -0.804543 5.20418 0
M  V30 15564 H 1433.89 -0.175212 3.77494 0
M  V30 15565 H 1434.21 0.267479 7.72337 0
M  V30 15566 H 1432.55 0.233606 6.94607 0
M  V30 15567 H 1435.74 -0.132835 4.67911 0
M  V30 15568 H 1435.92 0.0688076 6.47963 0
M  V30 15569 N 1429.32 -1.56304 -0.201686 0
M  V30 15570 C 1430.57 -1.79881 -0.921269 0
M  V30 15571 C 1430.89 -0.643809 -1.84065 0
M  V30 15572 O 1430.16 0.338239 -1.92958 0
M  V30 15573 H 1428.74 -0.663506 -0.343175 0
M  V30 15574 H 1431.4 -1.93779 -0.208775 0
M  V30 15575 H 1430.5 -2.7279 -1.51631 0
M  V30 15576 N 1430.8 0.469154 -1.50455 0
M  V30 15577 C 1432.05 1.21788 -1.60781 0
M  V30 15578 C 1432.36 1.93054 -0.314576 0
M  V30 15579 O 1433.57 2.69873 -0.296773 0
M  V30 15580 C 1432.02 2.21305 -2.83817 0
M  V30 15581 C 1431.63 1.55833 -4.20024 0
M  V30 15582 C 1433.38 2.96808 -3.03489 0
M  V30 15583 C 1431.28 2.53648 -5.34244 0
M  V30 15584 H 1430.21 0.45827 -0.598752 0
M  V30 15585 H 1432.86 0.488159 -1.76888 0
M  V30 15586 H 1431.25 2.97577 -2.61273 0
M  V30 15587 H 1432.42 0.853371 -4.52829 0
M  V30 15588 H 1430.74 0.926046 -4.05972 0
M  V30 15589 H 1433.33 3.70017 -3.85994 0
M  V30 15590 H 1433.68 3.56307 -2.15293 0
M  V30 15591 H 1434.21 2.27648 -3.26223 0
M  V30 15592 H 1430.95 1.98885 -6.246 0
M  V30 15593 H 1430.47 3.22291 -5.05854 0
M  V30 15594 H 1432.15 3.15438 -5.64897 0
M  V30 15595 N 1432.28 1.40065 0.722464 0
M  V30 15596 C 1433.23 1.39947 1.85789 0
M  V30 15597 C 1434.22 0.28089 1.67055 0
M  V30 15598 O 1435.43 0.451575 1.74244 0
M  V30 15599 H 1431.8 0.437296 0.611781 0
M  V30 15600 H 1433.77 2.35695 1.83004 0
M  V30 15601 C 1432.52 1.27218 3.2359 0
M  V30 15602 H 1431.84 2.12566 3.38609 0
M  V30 15603 H 1433.28 1.31194 4.03192 0
M  V30 15604 C 1431.74 -0.0182466 3.36895 0
M  V30 15605 O 1432.27 -0.983761 3.89468 0
M  V30 15606 N 1430.48 -0.0854707 2.90474 0
M  V30 15607 H 1430.03 0.700953 2.4788 0
M  V30 15608 H 1429.98 -0.948367 2.99755 0
M  V30 15609 N 1433.76 -0.95397 1.25448 0
M  V30 15610 C 1434.69 -2.05412 1.01679 0
M  V30 15611 C 1435.7 -1.62789 -0.0184932 0
M  V30 15612 O 1436.89 -1.77137 0.220136 0
M  V30 15613 C 1433.99 -3.3496 0.515292 0
M  V30 15614 C 1433.16 -4.06418 1.61688 0
M  V30 15615 C 1432.22 -5.14237 1.11564 0
M  V30 15616 O 1431.25 -5.39649 1.81017 0
M  V30 15617 N 1432.45 -5.80484 -0.0427228 0
M  V30 15618 H 1435.22 -2.26372 1.96407 0
M  V30 15619 H 1432.78 -1.12257 1.16662 0
M  V30 15620 H 1434.77 -4.04366 0.164426 0
M  V30 15621 H 1433.34 -3.10767 -0.33807 0
M  V30 15622 H 1432.56 -3.31101 2.1393 0
M  V30 15623 H 1433.85 -4.50917 2.35693 0
M  V30 15624 H 1433.25 -5.62259 -0.623038 0
M  V30 15625 H 1431.8 -6.50941 -0.334615 0
M  V30 15626 N 1435.24 -1.07045 -1.15668 0
M  V30 15627 C 1436.18 -0.688004 -2.20307 0
M  V30 15628 C 1437.15 0.319081 -1.63006 0
M  V30 15629 O 1438.34 0.206239 -1.89682 0
M  V30 15630 C 1435.48 -0.0886692 -3.44986 0
M  V30 15631 C 1434.59 -1.14685 -4.16499 0
M  V30 15632 C 1433.73 -0.512852 -5.28719 0
M  V30 15633 C 1432.76 -1.55404 -5.92044 0
M  V30 15634 N 1431.9 -0.942848 -6.9574 0
M  V30 15635 H 1436.74 -1.58469 -2.52372 0
M  V30 15636 H 1434.28 -0.792184 -1.23947 0
M  V30 15637 H 1436.24 0.276415 -4.16283 0
M  V30 15638 H 1434.87 0.77139 -3.13448 0
M  V30 15639 H 1433.92 -1.62955 -3.43729 0
M  V30 15640 H 1435.23 -1.93643 -4.59678 0
M  V30 15641 H 1434.38 -0.0952274 -6.06625 0
M  V30 15642 H 1433.12 0.308524 -4.86723 0
M  V30 15643 H 1432.13 -1.98148 -5.12852 0
M  V30 15644 H 1433.35 -2.37765 -6.36117 0
M  V30 15645 H 1431.3 -0.142319 -6.55846 0
M  V30 15646 H 1431.22 -1.6697 -7.37331 0
M  V30 15647 H 1432.48 -0.550621 -7.77553 0
M  V30 15648 N 1436.71 1.32449 -0.85411 0
M  V30 15649 C 1437.64 2.31383 -0.313697 0
M  V30 15650 C 1438.62 1.59656 0.586858 0
M  V30 15651 O 1439.81 1.87459 0.507216 0
M  V30 15652 C 1436.94 3.43693 0.499235 0
M  V30 15653 C 1435.89 4.26899 -0.306839 0
M  V30 15654 C 1435.22 5.30966 0.630795 0
M  V30 15655 C 1436.52 4.99318 -1.53229 0
M  V30 15656 H 1438.21 2.76832 -1.14037 0
M  V30 15657 H 1435.76 1.33091 -0.549805 0
M  V30 15658 H 1437.71 4.11944 0.887709 0
M  V30 15659 H 1436.44 2.96971 1.35926 0
M  V30 15660 H 1435.1 3.60294 -0.677061 0
M  V30 15661 H 1434.74 4.80498 1.48765 0
M  V30 15662 H 1434.44 5.87522 0.0954635 0
M  V30 15663 H 1435.97 6.0208 1.01646 0
M  V30 15664 H 1437.38 5.60253 -1.21614 0
M  V30 15665 H 1435.78 5.65596 -2.00552 0
M  V30 15666 H 1436.85 4.27213 -2.29383 0
M  V30 15667 N 1438.19 0.611994 1.45232 0
M  V30 15668 C 1439.15 -0.0943825 2.29006 0
M  V30 15669 C 1440.15 -0.790863 1.40007 0
M  V30 15670 O 1441.34 -0.638356 1.62082 0
M  V30 15671 C 1438.48 -1.1439 3.21135 0
M  V30 15672 H 1439.67 0.6422 2.92943 0
M  V30 15673 H 1437.22 0.37124 1.51827 0
M  V30 15674 H 1437.96 -1.9111 2.62007 0
M  V30 15675 H 1437.74 -0.648638 3.86698 0
M  V30 15676 H 1439.23 -1.63848 3.84114 0
M  V30 15677 N 1439.67 -1.53632 0.351409 0
M  V30 15678 C 1440.92 -2.0104 -0.242687 0
M  V30 15679 C 1441.24 -1.23906 -1.49925 0
M  V30 15680 O 1440.5 -0.316927 -1.93117 0
M  V30 15681 C 1440.8 -3.5242 -0.594561 0
M  V30 15682 C 1440.46 -4.47333 0.566031 0
M  V30 15683 C 1439.13 -4.73001 0.884515 0
M  V30 15684 C 1441.48 -5.03566 1.34426 0
M  V30 15685 C 1438.81 -5.52156 1.98346 0
M  V30 15686 C 1441.16 -5.8392 2.43351 0
M  V30 15687 C 1439.82 -6.0788 2.7575 0
M  V30 15688 H 1439.09 -0.735659 -0.0888056 0
M  V30 15689 H 1441.74 -1.85362 0.480948 0
M  V30 15690 H 1440.04 -3.65971 -1.39902 0
M  V30 15691 H 1441.74 -3.86565 -1.06625 0
M  V30 15692 H 1438.33 -4.27494 0.307751 0
M  V30 15693 H 1442.52 -4.83694 1.11146 0
M  V30 15694 H 1437.77 -5.68942 2.23863 0
M  V30 15695 H 1441.95 -6.26505 3.04079 0
M  V30 15696 H 1439.57 -6.69001 3.61029 0
M  V30 15697 N 1441.15 -0.0802183 -1.57396 0
M  V30 15698 C 1442.1 0.901668 -2.14412 0
M  V30 15699 C 1443.09 1.30247 -1.08314 0
M  V30 15700 O 1444.3 1.27873 -1.26682 0
M  V30 15701 H 1440.67 0.308748 -0.685696 0
M  V30 15702 H 1442.64 0.395934 -2.95762 0
M  V30 15703 C 1441.39 2.15665 -2.72734 0
M  V30 15704 H 1440.71 1.8571 -3.54051 0
M  V30 15705 H 1442.15 2.82461 -3.16214 0
M  V30 15706 C 1440.61 2.9208 -1.67901 0
M  V30 15707 O 1441.14 3.86087 -1.10903 0
M  V30 15708 N 1439.35 2.55343 -1.38739 0
M  V30 15709 H 1438.9 1.78969 -1.85278 0
M  V30 15710 H 1438.85 3.06773 -0.688317 0
M  V30 15711 N 1442.63 1.56409 0.193394 0
M  V30 15712 C 1443.86 1.84569 0.928328 0
M  V30 15713 C 1444.26 0.660788 1.77286 0
M  V30 15714 O 1443.61 -0.379752 1.79732 0
M  V30 15715 C 1443.67 3.06854 1.87299 0
M  V30 15716 C 1443.33 4.40684 1.21025 0
M  V30 15717 C 1444.33 5.16583 0.58635 0
M  V30 15718 C 1442.01 4.87419 1.21359 0
M  V30 15719 C 1444.01 6.37395 -0.0253573 0
M  V30 15720 C 1441.7 6.08167 0.598052 0
M  V30 15721 C 1442.69 6.82997 -0.0203414 0
M  V30 15722 O 1442.38 8.01457 -0.626232 0
M  V30 15723 H 1442.11 0.616966 0.276277 0
M  V30 15724 H 1444.67 2.04373 0.205102 0
M  V30 15725 H 1442.9 2.82938 2.63596 0
M  V30 15726 H 1444.59 3.21645 2.47587 0
M  V30 15727 H 1445.35 4.81569 0.575894 0
M  V30 15728 H 1441.23 4.29129 1.68432 0
M  V30 15729 H 1444.78 6.95743 -0.508644 0
M  V30 15730 H 1440.67 6.42649 0.606017 0
M  V30 15731 H 1441.44 8.16825 -0.523305 0
M  V30 15732 N 1444.1 -0.461169 1.50702 0
M  V30 15733 C 1445.35 -1.21012 1.61866 0
M  V30 15734 C 1445.67 -1.9226 0.325736 0
M  V30 15735 O 1444.94 -1.84543 -0.657306 0
M  V30 15736 H 1443.52 -0.449671 0.596494 0
M  V30 15737 H 1446.18 -0.531056 1.87525 0
M  V30 15738 H 1445.28 -1.95266 2.4347 0
M  V30 15739 N 1445.58 -1.40446 -0.715026 0
M  V30 15740 C 1446.53 -1.40931 -1.85044 0
M  V30 15741 C 1447.52 -0.289745 -1.66904 0
M  V30 15742 O 1448.73 -0.460809 -1.74002 0
M  V30 15743 H 1445.1 -0.440534 -0.609454 0
M  V30 15744 H 1447.08 -2.36662 -1.81752 0
M  V30 15745 C 1445.82 -1.28933 -3.22911 0
M  V30 15746 H 1445.15 -2.14359 -3.37476 0
M  V30 15747 H 1446.59 -1.33331 -4.02491 0
M  V30 15748 C 1445.05 0.000379936 -3.369 0
M  V30 15749 O 1445.58 0.963093 -3.89984 0
M  V30 15750 N 1443.78 0.0700649 -2.90516 0
M  V30 15751 H 1443.33 -0.714088 -2.47505 0
M  V30 15752 H 1443.29 0.932457 -3.00254 0
M  V30 15753 N 1447.06 0.947303 -1.25952 0
M  V30 15754 C 1448.02 2.02667 -1.07046 0
M  V30 15755 C 1449.02 1.60787 -0.0208127 0
M  V30 15756 O 1450.21 1.72193 -0.263668 0
M  V30 15757 C 1447.34 3.35087 -0.626885 0
M  V30 15758 H 1448.54 2.20871 -2.0287 0
M  V30 15759 H 1446.09 1.12541 -1.08462 0
M  V30 15760 H 1446.83 3.22579 0.333621 0
M  V30 15761 H 1446.61 3.66835 -1.38473 0
M  V30 15762 H 1448.1 4.14397 -0.516264 0
M  V30 15763 N 1448.54 1.07657 1.15099 0
M  V30 15764 C 1449.49 0.694043 2.22004 0
M  V30 15765 C 1450.48 -0.296607 1.66783 0
M  V30 15766 O 1451.69 -0.159989 1.79288 0
M  V30 15767 H 1448.06 0.206374 0.723128 0
M  V30 15768 H 1450.03 1.60523 2.51545 0
M  V30 15769 C 1448.78 0.111245 3.47522 0
M  V30 15770 H 1448.1 0.864677 3.90338 0
M  V30 15771 H 1449.54 -0.118705 4.23834 0
M  V30 15772 C 1448 -1.14889 3.16705 0
M  V30 15773 O 1448.53 -2.2349 3.33789 0
M  V30 15774 N 1446.74 -1.05627 2.70724 0
M  V30 15775 H 1446.29 -0.172463 2.57022 0
M  V30 15776 H 1446.24 -1.9002 2.50479 0
M  V30 15777 N 1450.02 -1.31994 0.861122 0
M  V30 15778 C 1451.26 -1.96636 0.466754 0
M  V30 15779 C 1451.59 -1.6845 -0.982328 0
M  V30 15780 O 1450.86 -0.995157 -1.68741 0
M  V30 15781 H 1449.44 -0.727489 0.169613 0
M  V30 15782 H 1452.1 -1.60962 1.09897 0
M  V30 15783 H 1451.19 -3.05937 0.61716 0
M  V30 15784 N 1451.49 -0.619688 -1.44906 0
M  V30 15785 C 1452.74 -0.117147 -2.0136 0
M  V30 15786 C 1453.06 1.2644 -1.49239 0
M  V30 15787 O 1454.26 1.86034 -1.97747 0
M  V30 15788 C 1452.72 -0.15871 -3.5955 0
M  V30 15789 C 1452.33 -1.54086 -4.20668 0
M  V30 15790 C 1454.07 0.287961 -4.23522 0
M  V30 15791 C 1451.98 -1.53816 -5.71047 0
M  V30 15792 H 1450.91 -0.040028 -0.752937 0
M  V30 15793 H 1453.56 -0.776802 -1.66247 0
M  V30 15794 H 1451.94 0.56783 -3.91908 0
M  V30 15795 H 1453.11 -2.29007 -3.99865 0
M  V30 15796 H 1451.43 -1.93065 -3.68938 0
M  V30 15797 H 1454.03 0.309351 -5.33804 0
M  V30 15798 H 1454.37 1.31305 -3.9505 0
M  V30 15799 H 1454.9 -0.385707 -3.95926 0
M  V30 15800 H 1451.64 -2.54124 -6.04236 0
M  V30 15801 H 1451.16 -0.831708 -5.94006 0
M  V30 15802 H 1452.84 -1.26708 -6.34472 0
M  V30 15803 N 1452.97 1.53444 -0.359552 0
M  V30 15804 C 1454.2 2.06058 0.235576 0
M  V30 15805 C 1454.62 1.23175 1.42161 0
M  V30 15806 O 1453.98 0.249338 1.79577 0
M  V30 15807 C 1454.03 3.55351 0.613025 0
M  V30 15808 O 1453.13 3.75229 1.71104 0
M  V30 15809 H 1452.47 0.663038 0.0357266 0
M  V30 15810 H 1455 1.97923 -0.518408 0
M  V30 15811 H 1455.01 3.9827 0.885722 0
M  V30 15812 H 1453.69 4.15122 -0.254243 0
M  V30 15813 H 1452.27 3.4421 1.43437 0
M  V30 15814 N 1454.45 0.0885642 1.57351 0
M  V30 15815 C 1455.73 -0.618587 1.85561 0
M  V30 15816 C 1456.11 -1.86753 0.984206 0
M  V30 15817 O 1455.46 -2.28434 0.0548839 0
M  V30 15818 C 1455.67 -0.940222 3.36096 0
M  V30 15819 C 1457.01 -1.30649 4.04 0
M  V30 15820 O 1458.04 -1.03144 3.4094 0
M  V30 15821 O 1456.9 -1.82135 5.15256 0
M  V30 15822 H 1453.99 -0.308881 0.767152 0
M  V30 15823 H 1456.54 0.120767 1.6927 0
M  V30 15824 H 1455.31 -0.0538991 3.91263 0
M  V30 15825 H 1454.93 -1.73577 3.5771 0
M  V30 15826 N 1455.93 -1.56509 -0.185096 0
M  V30 15827 C 1457.16 -1.85058 -0.918527 0
M  V30 15828 C 1457.57 -0.670181 -1.76933 0
M  V30 15829 O 1456.91 0.370215 -1.79931 0
M  V30 15830 C 1456.97 -3.07843 -1.85669 0
M  V30 15831 C 1456.64 -4.41319 -1.18686 0
M  V30 15832 C 1457.63 -5.16887 -0.558946 0
M  V30 15833 C 1455.32 -4.88056 -1.18773 0
M  V30 15834 C 1457.31 -6.37373 0.0591595 0
M  V30 15835 C 1455 -6.08475 -0.565791 0
M  V30 15836 C 1456 -6.82977 0.0565621 0
M  V30 15837 O 1455.68 -8.01114 0.668726 0
M  V30 15838 H 1455.42 -0.618423 -0.273001 0
M  V30 15839 H 1457.97 -2.04479 -0.194261 0
M  V30 15840 H 1456.2 -2.84332 -2.62092 0
M  V30 15841 H 1457.89 -3.22954 -2.45877 0
M  V30 15842 H 1458.66 -4.81867 -0.550347 0
M  V30 15843 H 1454.53 -4.30016 -1.66154 0
M  V30 15844 H 1458.08 -6.95464 0.545534 0
M  V30 15845 H 1453.98 -6.42961 -0.571927 0
M  V30 15846 H 1454.74 -8.16536 0.566616 0
M  V30 15847 N 1457.41 0.45317 -1.50944 0
M  V30 15848 C 1458.66 1.20076 -1.62064 0
M  V30 15849 C 1458.97 1.92709 -0.335034 0
M  V30 15850 O 1460.17 2.69543 -0.32538 0
M  V30 15851 C 1458.63 2.18283 -2.86148 0
M  V30 15852 C 1458.24 1.5137 -4.21653 0
M  V30 15853 C 1459.98 2.93572 -3.0662 0
M  V30 15854 C 1457.89 2.47968 -5.36904 0
M  V30 15855 H 1456.82 0.451894 -0.603579 0
M  V30 15856 H 1459.47 0.46937 -1.77396 0
M  V30 15857 H 1457.85 2.94789 -2.64415 0
M  V30 15858 H 1459.03 0.805295 -4.53709 0
M  V30 15859 H 1457.34 0.882935 -4.06931 0
M  V30 15860 H 1459.94 3.65903 -3.89897 0
M  V30 15861 H 1460.28 3.54003 -2.1906 0
M  V30 15862 H 1460.81 2.24175 -3.28619 0
M  V30 15863 H 1457.55 1.92249 -6.26674 0
M  V30 15864 H 1457.07 3.16907 -5.09244 0
M  V30 15865 H 1458.75 3.09428 -5.6821 0
M  V30 15866 N 1458.88 1.40823 0.707568 0
M  V30 15867 C 1459.83 1.4191 1.84294 0
M  V30 15868 C 1460.83 0.298592 1.66748 0
M  V30 15869 O 1462.03 0.47003 1.73755 0
M  V30 15870 H 1458.41 0.44376 0.607109 0
M  V30 15871 H 1460.38 2.37623 1.80494 0
M  V30 15872 C 1459.13 1.30643 3.22223 0
M  V30 15873 H 1458.45 2.16145 3.36335 0
M  V30 15874 H 1459.89 1.35463 4.01778 0
M  V30 15875 C 1458.35 0.0174867 3.36895 0
M  V30 15876 O 1458.88 -0.942398 3.90489 0
M  V30 15877 N 1457.09 -0.0546572 2.90549 0
M  V30 15878 H 1456.63 0.727204 2.47122 0
M  V30 15879 H 1456.59 -0.916521 3.00744 0
M  V30 15880 N 1460.36 -0.94061 1.26453 0
M  V30 15881 C 1461.31 -2.03941 1.08059 0
M  V30 15882 C 1462.28 -1.66094 -0.0145388 0
M  V30 15883 O 1463.46 -1.90246 0.145338 0
M  V30 15884 C 1460.6 -3.37501 0.720228 0
M  V30 15885 C 1459.72 -3.88381 1.89167 0
M  V30 15886 C 1458.85 -5.10329 1.47437 0
M  V30 15887 C 1457.89 -5.53473 2.61408 0
M  V30 15888 N 1457.03 -6.66624 2.20355 0
M  V30 15889 H 1461.87 -2.19006 2.0209 0
M  V30 15890 H 1459.41 -1.07305 1.00618 0
M  V30 15891 H 1461.36 -4.14287 0.492177 0
M  V30 15892 H 1459.99 -3.2228 -0.183101 0
M  V30 15893 H 1459.05 -3.0799 2.23264 0
M  V30 15894 H 1460.36 -4.16338 2.74708 0
M  V30 15895 H 1459.51 -5.94577 1.20679 0
M  V30 15896 H 1458.25 -4.8412 0.589873 0
M  V30 15897 H 1457.26 -4.67782 2.88894 0
M  V30 15898 H 1458.48 -5.81684 3.50458 0
M  V30 15899 H 1456.43 -6.42097 1.34341 0
M  V30 15900 H 1456.34 -6.9417 2.99439 0
M  V30 15901 H 1457.61 -7.54245 1.96811 0
M  V30 15902 N 1461.84 -1.08266 -1.14527 0
M  V30 15903 C 1463.09 -0.822513 -1.86028 0
M  V30 15904 C 1463.44 0.644706 -1.81277 0
M  V30 15905 O 1462.73 1.46778 -1.23153 0
M  V30 15906 C 1462.93 -1.27675 -3.33817 0
M  V30 15907 C 1462.76 -2.78659 -3.52958 0
M  V30 15908 C 1461.53 -3.46388 -3.67891 0
M  V30 15909 C 1463.73 -3.76835 -3.49999 0
M  V30 15910 N 1461.71 -4.85918 -3.75176 0
M  V30 15911 C 1463.08 -5.02255 -3.63511 0
M  V30 15912 C 1465.13 -3.6986 -3.33328 0
M  V30 15913 C 1463.84 -6.21527 -3.62073 0
M  V30 15914 C 1465.86 -4.88606 -3.33194 0
M  V30 15915 C 1465.22 -6.12863 -3.47244 0
M  V30 15916 H 1461.32 -0.353671 -0.697453 0
M  V30 15917 H 1463.91 -1.38073 -1.37273 0
M  V30 15918 H 1462.08 -0.746122 -3.81166 0
M  V30 15919 H 1463.81 -0.963174 -3.93071 0
M  V30 15920 H 1460.57 -2.96802 -3.6906 0
M  V30 15921 H 1460.99 -5.58564 -3.82538 0
M  V30 15922 H 1465.63 -2.7473 -3.21377 0
M  V30 15923 H 1463.35 -7.1697 -3.728 0
M  V30 15924 H 1466.94 -4.84895 -3.21509 0
M  V30 15925 H 1465.82 -7.03208 -3.47085 0
M  V30 15926 N 1463.32 1.31536 -0.86811 0
M  V30 15927 C 1464.57 1.96045 -0.474271 0
M  V30 15928 C 1464.88 1.6939 0.978071 0
M  V30 15929 O 1466.09 2.27746 1.47797 0
M  V30 15930 C 1464.54 3.5096 -0.797203 0
M  V30 15931 C 1464.15 3.86456 -2.26618 0
M  V30 15932 C 1465.9 4.21871 -0.471745 0
M  V30 15933 C 1463.8 5.34474 -2.53162 0
M  V30 15934 H 1462.73 0.733737 -0.173627 0
M  V30 15935 H 1465.38 1.49734 -1.06076 0
M  V30 15936 H 1463.77 3.95752 -0.139994 0
M  V30 15937 H 1464.94 3.52629 -2.9663 0
M  V30 15938 H 1463.25 3.28605 -2.55749 0
M  V30 15939 H 1465.85 5.30767 -0.647317 0
M  V30 15940 H 1466.19 4.12131 0.58768 0
M  V30 15941 H 1466.73 3.82706 -1.08542 0
M  V30 15942 H 1463.47 5.49248 -3.57781 0
M  V30 15943 H 1462.99 5.6966 -1.87743 0
M  V30 15944 H 1464.67 6.01716 -2.37797 0
M  V30 15945 N 1464.8 0.627364 1.44575 0
M  V30 15946 C 1466.04 0.130352 2.0208 0
M  V30 15947 C 1466.37 -1.24642 1.49314 0
M  V30 15948 O 1465.63 -1.84022 0.665923 0
M  V30 15949 C 1465.93 0.0622409 3.57346 0
M  V30 15950 C 1465.59 1.37729 4.2935 0
M  V30 15951 C 1464.25 1.73747 4.48737 0
M  V30 15952 C 1466.61 2.2455 4.70347 0
M  V30 15953 C 1463.93 2.96301 5.06382 0
M  V30 15954 C 1466.29 3.46371 5.29349 0
M  V30 15955 C 1464.95 3.82616 5.46956 0
M  V30 15956 H 1464.22 0.0476991 0.739463 0
M  V30 15957 H 1466.87 0.812928 1.73389 0
M  V30 15958 H 1465.17 -0.70369 3.85429 0
M  V30 15959 H 1466.87 -0.338778 3.99566 0
M  V30 15960 H 1463.46 1.08699 4.14587 0
M  V30 15961 H 1467.64 1.98019 4.55085 0
M  V30 15962 H 1462.9 3.24465 5.18201 0
M  V30 15963 H 1467.07 4.13882 5.60067 0
M  V30 15964 H 1464.7 4.77663 5.9139 0
M  V30 15965 N 1466.28 -1.53251 0.367684 0
M  V30 15966 C 1467.52 -2.01585 -0.221679 0
M  V30 15967 C 1467.85 -1.25444 -1.48248 0
M  V30 15968 O 1467.13 -0.348726 -1.91348 0
M  V30 15969 C 1467.41 -3.56449 -0.511507 0
M  V30 15970 C 1467.27 -4.4328 0.763075 0
M  V30 15971 C 1468.58 -4.20113 -1.31121 0
M  V30 15972 H 1465.7 -0.732743 -0.0790954 0
M  V30 15973 H 1468.35 -1.83493 0.492991 0
M  V30 15974 H 1466.5 -3.71996 -1.12033 0
M  V30 15975 H 1468.17 -4.39526 1.40052 0
M  V30 15976 H 1466.41 -4.11164 1.38299 0
M  V30 15977 H 1467.08 -5.4959 0.515215 0
M  V30 15978 H 1469.56 -4.08412 -0.796169 0
M  V30 15979 H 1468.43 -5.28494 -1.48274 0
M  V30 15980 H 1468.69 -3.76316 -2.32032 0
M  V30 15981 N 1467.75 -0.0969077 -1.57302 0
M  V30 15982 C 1468.98 0.574705 -1.98758 0
M  V30 15983 C 1469.4 1.61612 -0.976067 0
M  V30 15984 O 1468.75 1.82468 0.0340803 0
M  V30 15985 C 1468.8 1.22078 -3.40263 0
M  V30 15986 O 1468.53 0.221022 -4.37542 0
M  V30 15987 C 1470.03 1.97783 -3.96732 0
M  V30 15988 H 1467.25 0.153934 -0.653104 0
M  V30 15989 H 1469.79 -0.17673 -2.03735 0
M  V30 15990 H 1467.95 1.92314 -3.36295 0
M  V30 15991 H 1468.36 0.687583 -5.19974 0
M  V30 15992 H 1469.83 2.38346 -4.97891 0
M  V30 15993 H 1470.31 2.8444 -3.3465 0
M  V30 15994 H 1470.92 1.3236 -4.04179 0
M  V30 15995 N 1469.23 1.56605 0.176793 0
M  V30 15996 C 1470.48 1.80875 0.892578 0
M  V30 15997 C 1470.79 0.673245 1.83648 0
M  V30 15998 O 1472 0.800732 2.59423 0
M  V30 15999 C 1470.46 3.20481 1.63768 0
M  V30 16000 C 1470.06 4.41885 0.737685 0
M  V30 16001 C 1471.81 3.54048 2.34202 0
M  V30 16002 C 1469.71 5.72512 1.48271 0
M  V30 16003 H 1468.64 0.674476 0.337042 0
M  V30 16004 H 1471.3 1.82922 0.145574 0
M  V30 16005 H 1469.68 3.12736 2.42924 0
M  V30 16006 H 1470.85 4.60797 -0.0165186 0
M  V30 16007 H 1469.17 4.16153 0.143277 0
M  V30 16008 H 1471.76 4.48886 2.90526 0
M  V30 16009 H 1472.11 2.78665 3.09276 0
M  V30 16010 H 1472.64 3.63322 1.61995 0
M  V30 16011 H 1469.38 6.5091 0.774399 0
M  V30 16012 H 1468.9 5.57586 2.21038 0
M  V30 16013 H 1470.58 6.14274 2.03165 0
M  V30 16014 N 1470.71 -0.445159 1.51182 0
M  V30 16015 C 1471.94 -1.21787 1.67259 0
M  V30 16016 C 1472.35 -1.85206 0.366641 0
M  V30 16017 O 1471.71 -1.70376 -0.654095 0
M  V30 16018 C 1471.76 -2.30765 2.78262 0
M  V30 16019 O 1471.48 -1.69942 4.03796 0
M  V30 16020 C 1472.98 -3.21186 3.05539 0
M  V30 16021 H 1470.2 -0.367364 0.561502 0
M  V30 16022 H 1472.75 -0.528415 1.97555 0
M  V30 16023 H 1470.9 -2.9544 2.50587 0
M  V30 16024 H 1471.32 -2.41905 4.65384 0
M  V30 16025 H 1472.79 -3.93805 3.8681 0
M  V30 16026 H 1473.27 -3.81487 2.17634 0
M  V30 16027 H 1473.87 -2.62221 3.34844 0
M  V30 16028 N 1472.19 -1.41197 -0.700089 0
M  V30 16029 C 1473.14 -1.42885 -1.83539 0
M  V30 16030 C 1474.13 -0.307431 -1.66587 0
M  V30 16031 O 1475.34 -0.479238 -1.73503 0
M  V30 16032 H 1471.71 -0.446973 -0.604747 0
M  V30 16033 H 1473.68 -2.38576 -1.79231 0
M  V30 16034 C 1472.43 -1.3235 -3.21526 0
M  V30 16035 H 1471.75 -2.17926 -3.35184 0
M  V30 16036 H 1473.19 -1.37592 -4.01054 0
M  V30 16037 C 1471.65 -0.0353528 -3.36881 0
M  V30 16038 O 1472.18 0.921676 -3.90983 0
M  V30 16039 N 1470.39 0.0392479 -2.90573 0
M  V30 16040 H 1469.94 -0.740299 -2.46733 0
M  V30 16041 H 1469.89 0.900559 -3.01226 0
M  V30 16042 N 1473.67 0.933891 -1.2695 0
M  V30 16043 C 1474.94 1.65874 -1.0366 0
M  V30 16044 C 1475.32 2.0666 0.43066 0
M  V30 16045 O 1474.67 1.79606 1.41259 0
M  V30 16046 C 1474.88 2.86546 -1.99229 0
M  V30 16047 C 1476.23 3.58031 -2.28251 0
M  V30 16048 O 1477.25 2.96663 -1.97154 0
M  V30 16049 O 1476.11 4.68583 -2.81233 0
M  V30 16050 H 1473.21 0.72673 -0.394706 0
M  V30 16051 H 1475.75 0.984975 -1.38189 0
M  V30 16052 H 1474.52 2.53351 -2.9821 0
M  V30 16053 H 1474.15 3.61645 -1.65224 0
M  V30 16054 N 1475.14 1.08871 1.13951 0
M  V30 16055 C 1476.56 0.817282 1.37086 0
M  V30 16056 C 1476.76 -0.571159 1.93236 0
M  V30 16057 O 1475.82 -1.32708 2.14813 0
M  V30 16058 C 1477.13 1.90386 2.32752 0
M  V30 16059 C 1478.68 1.93043 2.46381 0
M  V30 16060 C 1479.15 3.00828 3.4535 0
M  V30 16061 N 1480.64 3.0003 3.52897 0
M  V30 16062 C 1481.38 3.80073 4.29339 0
M  V30 16063 N 1480.87 4.70008 5.08984 0
M  V30 16064 N 1482.67 3.68355 4.24583 0
M  V30 16065 H 1474.82 1.98393 0.758537 0
M  V30 16066 H 1477.08 0.861229 0.396219 0
M  V30 16067 H 1476.79 2.90233 1.9864 0
M  V30 16068 H 1476.66 1.77722 3.32708 0
M  V30 16069 H 1479.05 0.938382 2.79783 0
M  V30 16070 H 1479.13 2.09785 1.4637 0
M  V30 16071 H 1478.77 4.00242 3.1268 0
M  V30 16072 H 1478.7 2.8133 4.45153 0
M  V30 16073 H 1481.19 2.3485 2.96064 0
M  V30 16074 H 1481.51 5.27678 5.64602 0
M  V30 16075 H 1479.85 4.74047 5.08236 0
M  V30 16076 H 1483.04 2.9746 3.61435 0
M  V30 16077 H 1483.22 4.30974 4.83906 0
M  V30 16078 N 1476.62 -1.31073 0.875073 0
M  V30 16079 C 1477.55 -2.30855 0.350468 0
M  V30 16080 C 1478.53 -1.60569 -0.561384 0
M  V30 16081 O 1479.72 -1.88242 -0.477329 0
M  V30 16082 C 1476.85 -3.44444 -0.444493 0
M  V30 16083 C 1475.8 -4.26357 0.374716 0
M  V30 16084 C 1475.13 -5.31903 -0.546243 0
M  V30 16085 C 1476.43 -4.96817 1.61153 0
M  V30 16086 H 1478.12 -2.74983 1.18427 0
M  V30 16087 H 1475.67 -1.32199 0.570909 0
M  V30 16088 H 1477.62 -4.13304 -0.82206 0
M  V30 16089 H 1476.34 -2.99096 -1.31185 0
M  V30 16090 H 1475 -3.59171 0.734295 0
M  V30 16091 H 1474.65 -4.82803 -1.41102 0
M  V30 16092 H 1474.35 -5.876 -0.00198173 0
M  V30 16093 H 1475.88 -6.03621 -0.920542 0
M  V30 16094 H 1477.29 -5.58247 1.30511 0
M  V30 16095 H 1475.69 -5.62334 2.09524 0
M  V30 16096 H 1476.76 -4.2351 2.36151 0
M  V30 16097 N 1478.1 -0.635022 -1.4424 0
M  V30 16098 C 1479.35 -0.140788 -2.01609 0
M  V30 16099 C 1479.67 1.24317 -1.50234 0
M  V30 16100 O 1478.94 1.82677 -0.707519 0
M  V30 16101 H 1477.52 -0.0490568 -0.745387 0
M  V30 16102 H 1480.18 -0.8226 -1.7669 0
M  V30 16103 H 1479.28 -0.111456 -3.11901 0
M  V30 16104 N 1479.58 1.53054 -0.375806 0
M  V30 16105 C 1480.86 1.93761 0.26757 0
M  V30 16106 C 1481.24 1.31019 1.65521 0
M  V30 16107 O 1480.58 0.473138 2.23548 0
M  V30 16108 C 1480.79 3.47643 0.307505 0
M  V30 16109 C 1482.14 4.21114 0.542951 0
M  V30 16110 O 1483.17 3.54077 0.388285 0
M  V30 16111 O 1482.02 5.39929 0.8449 0
M  V30 16112 H 1479.12 0.810805 0.16286 0
M  V30 16113 H 1481.66 1.64179 -0.429334 0
M  V30 16114 H 1480.44 3.85608 -0.665001 0
M  V30 16115 H 1480.06 3.83488 1.04988 0
M  V30 16116 N 1481.06 0.105248 1.57248 0
M  V30 16117 C 1482.28 -0.567515 1.99484 0
M  V30 16118 C 1482.71 -1.60298 0.984182 0
M  V30 16119 O 1482.06 -1.81242 -0.0459944 0
M  V30 16120 C 1482.11 -1.18271 3.40653 0
M  V30 16121 O 1481.22 -2.29843 3.42412 0
M  V30 16122 H 1480.56 -0.143069 0.648404 0
M  V30 16123 H 1483.09 0.189661 2.03719 0
M  V30 16124 H 1483.1 -1.52157 3.78566 0
M  V30 16125 H 1481.77 -0.424179 4.13731 0
M  V30 16126 H 1480.35 -1.975 3.16304 0
M  V30 16127 N 1482.53 -1.56697 -0.168486 0
M  V30 16128 C 1483.48 -1.96628 -1.20855 0
M  V30 16129 C 1484.45 -0.830623 -1.4384 0
M  V30 16130 O 1485.64 -1.09097 -1.56533 0
M  V30 16131 C 1482.78 -2.3338 -2.5422 0
M  V30 16132 C 1481.89 -3.60137 -2.3859 0
M  V30 16133 C 1481.02 -3.86088 -3.64842 0
M  V30 16134 C 1480.06 -5.06184 -3.44157 0
M  V30 16135 N 1479.2 -5.28254 -4.62485 0
M  V30 16136 H 1484.04 -2.8529 -0.86102 0
M  V30 16137 H 1481.58 -1.41162 -0.413741 0
M  V30 16138 H 1483.54 -2.52711 -3.31953 0
M  V30 16139 H 1482.17 -1.47825 -2.86963 0
M  V30 16140 H 1481.22 -3.48704 -1.52019 0
M  V30 16141 H 1482.53 -4.48028 -2.19254 0
M  V30 16142 H 1481.68 -4.05802 -4.5101 0
M  V30 16143 H 1480.42 -2.96578 -3.8716 0
M  V30 16144 H 1479.43 -4.86366 -2.56376 0
M  V30 16145 H 1480.65 -5.97228 -3.23258 0
M  V30 16146 H 1478.6 -4.41695 -4.85017 0
M  V30 16147 H 1478.52 -6.10373 -4.46072 0
M  V30 16148 H 1479.78 -5.52448 -5.49928 0
M  V30 16149 N 1484.01 0.437135 -1.51416 0
M  V30 16150 C 1484.94 1.538 -1.75692 0
M  V30 16151 C 1485.92 1.5891 -0.606759 0
M  V30 16152 O 1487.11 1.74635 -0.849492 0
M  V30 16153 C 1484.24 2.91877 -1.88215 0
M  V30 16154 C 1483.19 3.01628 -3.03652 0
M  V30 16155 C 1482.52 4.41687 -3.01358 0
M  V30 16156 C 1483.82 2.75691 -4.43612 0
M  V30 16157 H 1485.51 1.33737 -2.67871 0
M  V30 16158 H 1483.06 0.641936 -1.289 0
M  V30 16159 H 1485.01 3.68851 -2.03781 0
M  V30 16160 H 1483.74 3.13173 -0.926847 0
M  V30 16161 H 1482.39 2.27094 -2.87791 0
M  V30 16162 H 1482.04 4.5995 -2.03605 0
M  V30 16163 H 1481.74 4.49141 -3.78875 0
M  V30 16164 H 1483.27 5.20634 -3.19018 0
M  V30 16165 H 1484.68 3.42398 -4.59822 0
M  V30 16166 H 1483.08 2.94554 -5.22836 0
M  V30 16167 H 1484.15 1.71297 -4.53636 0
M  V30 16168 N 1485.49 1.41566 0.692592 0
M  V30 16169 C 1486.72 1.44236 1.47917 0
M  V30 16170 C 1487.13 0.0469112 1.89142 0
M  V30 16171 O 1486.47 -0.944788 1.57542 0
M  V30 16172 C 1486.53 2.29056 2.7708 0
M  V30 16173 C 1486.2 3.77179 2.58041 0
M  V30 16174 C 1487.19 4.69267 2.23795 0
M  V30 16175 C 1484.88 4.21253 2.73589 0
M  V30 16176 C 1486.87 6.03419 2.05338 0
M  V30 16177 C 1484.56 5.55469 2.54749 0
M  V30 16178 C 1485.56 6.46368 2.20675 0
M  V30 16179 O 1485.25 7.78107 2.02002 0
M  V30 16180 H 1484.98 0.493237 0.462269 0
M  V30 16181 H 1487.53 1.8653 0.859984 0
M  V30 16182 H 1485.76 1.8158 3.41417 0
M  V30 16183 H 1487.45 2.23392 3.38897 0
M  V30 16184 H 1488.22 4.36506 2.11395 0
M  V30 16185 H 1484.1 3.50804 2.99094 0
M  V30 16186 H 1487.64 6.74333 1.78665 0
M  V30 16187 H 1483.54 5.87809 2.66741 0
M  V30 16188 H 1484.31 7.89282 2.16741 0
M  V30 16189 N 1486.97 -0.927146 1.27443 0
M  V30 16190 C 1488.22 -1.66941 1.13197 0
M  V30 16191 C 1488.53 -1.92939 -0.32156 0
M  V30 16192 O 1489.74 -2.65124 -0.584931 0
M  V30 16193 C 1488.19 -3.00677 1.97791 0
M  V30 16194 C 1487.8 -2.82376 3.47805 0
M  V30 16195 C 1489.54 -3.78499 1.92195 0
M  V30 16196 C 1487.45 -4.1167 4.24596 0
M  V30 16197 H 1486.38 -0.626171 0.420031 0
M  V30 16198 H 1489.03 -1.02997 1.51868 0
M  V30 16199 H 1487.41 -3.65681 1.51965 0
M  V30 16200 H 1488.59 -2.26135 4.01497 0
M  V30 16201 H 1486.9 -2.17982 3.54786 0
M  V30 16202 H 1489.5 -4.74312 2.46844 0
M  V30 16203 H 1489.84 -4.0655 0.895702 0
M  V30 16204 H 1490.38 -3.20292 2.35919 0
M  V30 16205 H 1487.12 -3.88798 5.27747 0
M  V30 16206 H 1486.64 -4.67573 3.75681 0
M  V30 16207 H 1488.31 -4.80028 4.338 0
M  V30 16208 N 1488.45 -1.09474 -1.13372 0
M  V30 16209 C 1489.39 -0.729274 -2.20872 0
M  V30 16210 C 1490.39 0.270036 -1.67234 0
M  V30 16211 O 1491.59 0.131445 -1.79519 0
M  V30 16212 H 1487.97 -0.217852 -0.719753 0
M  V30 16213 H 1489.94 -1.64505 -2.48959 0
M  V30 16214 C 1488.69 -0.166518 -3.47301 0
M  V30 16215 H 1488.01 -0.926666 -3.88913 0
M  V30 16216 H 1489.45 0.0512617 -4.23969 0
M  V30 16217 C 1487.91 1.09836 -3.18493 0
M  V30 16218 O 1488.44 2.18152 -3.37302 0
M  V30 16219 N 1486.65 1.01307 -2.7237 0
M  V30 16220 H 1486.19 0.131551 -2.57264 0
M  V30 16221 H 1486.15 1.86011 -2.5347 0
M  V30 16222 N 1489.92 1.30607 -0.882012 0
M  V30 16223 C 1491.17 1.95869 -0.497978 0
M  V30 16224 C 1491.49 1.69991 0.955405 0
M  V30 16225 O 1490.76 1.02188 1.67136 0
M  V30 16226 H 1489.34 0.724699 -0.181165 0
M  V30 16227 H 1492.01 1.59193 -1.12444 0
M  V30 16228 H 1491.1 3.04917 -0.665754 0
M  V30 16229 N 1491.4 0.642663 1.43901 0
M  V30 16230 C 1492.35 -0.0673926 2.32502 0
M  V30 16231 C 1493.34 -0.823981 1.4801 0
M  V30 16232 O 1494.55 -0.735575 1.64284 0
M  V30 16233 H 1490.93 -0.0405715 0.750905 0
M  V30 16234 H 1492.9 0.69777 2.90127 0
M  V30 16235 C 1491.65 -1.02745 3.32173 0
M  V30 16236 H 1490.97 -0.454697 3.97206 0
M  V30 16237 H 1492.41 -1.49355 3.96824 0
M  V30 16238 C 1490.87 -2.11835 2.61969 0
M  V30 16239 O 1491.4 -3.20074 2.42725 0
M  V30 16240 N 1489.6 -1.88092 2.21517 0
M  V30 16241 H 1489.15 -1.00072 2.37368 0
M  V30 16242 H 1489.11 -2.61279 1.74873 0
M  V30 16243 N 1492.88 -1.52852 0.383918 0
M  V30 16244 C 1493.81 -2.29213 -0.44539 0
M  V30 16245 C 1494.79 -1.3238 -1.06815 0
M  V30 16246 O 1495.98 -1.61269 -1.08194 0
M  V30 16247 C 1493.11 -3.09497 -1.57573 0
M  V30 16248 C 1492.06 -4.14168 -1.07928 0
M  V30 16249 C 1491.39 -4.82644 -2.30128 0
M  V30 16250 C 1492.69 -5.22082 -0.151035 0
M  V30 16251 H 1494.38 -2.98786 0.19172 0
M  V30 16252 H 1491.93 -1.43695 0.0936471 0
M  V30 16253 H 1493.88 -3.61672 -2.16267 0
M  V30 16254 H 1492.6 -2.37647 -2.24034 0
M  V30 16255 H 1491.26 -3.62966 -0.514909 0
M  V30 16256 H 1490.91 -4.07348 -2.95087 0
M  V30 16257 H 1490.61 -5.53388 -1.97574 0
M  V30 16258 H 1492.14 -5.37621 -2.89475 0
M  V30 16259 H 1493.55 -5.69649 -0.646003 0
M  V30 16260 H 1491.95 -6.00041 0.0844833 0
M  V30 16261 H 1493.02 -4.78228 0.801618 0
M  V30 16262 N 1494.36 -0.113586 -1.5719 0
M  V30 16263 C 1495.61 0.545507 -1.94183 0
M  V30 16264 C 1495.92 1.68176 -0.998816 0
M  V30 16265 O 1497.13 2.40324 -1.26319 0
M  V30 16266 C 1495.58 1.02178 -3.45091 0
M  V30 16267 C 1495.19 -0.0857195 -4.47918 0
M  V30 16268 C 1496.94 1.65255 -3.91013 0
M  V30 16269 C 1494.84 0.406946 -5.89998 0
M  V30 16270 H 1493.77 0.20755 -0.724872 0
M  V30 16271 H 1496.42 -0.192567 -1.82487 0
M  V30 16272 H 1494.81 1.81411 -3.52003 0
M  V30 16273 H 1495.98 -0.861821 -4.52669 0
M  V30 16274 H 1494.29 -0.622816 -4.11716 0
M  V30 16275 H 1496.89 2.0322 -4.94576 0
M  V30 16276 H 1497.23 2.52888 -3.30687 0
M  V30 16277 H 1497.77 0.925727 -3.86879 0
M  V30 16278 H 1494.51 -0.433199 -6.54067 0
M  V30 16279 H 1494.03 1.14965 -5.88679 0
M  V30 16280 H 1495.71 0.869934 -6.41125 0
M  V30 16281 N 1495.84 1.56784 0.160173 0
M  V30 16282 C 1497.11 1.73513 0.902908 0
M  V30 16283 C 1497.49 0.678036 1.99915 0
M  V30 16284 O 1496.84 -0.305302 2.26451 0
M  V30 16285 C 1497.05 3.17111 1.45744 0
M  V30 16286 C 1498.4 3.78404 1.92602 0
M  V30 16287 O 1499.42 3.20459 1.55515 0
M  V30 16288 O 1498.28 4.80172 2.60954 0
M  V30 16289 H 1495.38 0.708981 0.425764 0
M  V30 16290 H 1497.92 1.69061 0.147129 0
M  V30 16291 H 1496.7 3.85539 0.668985 0
M  V30 16292 H 1496.32 3.25936 2.2771 0
M  V30 16293 N 1497.32 -0.429099 1.51646 0
M  V30 16294 C 1498.25 -1.53996 1.69758 0
M  V30 16295 C 1499.26 -1.52189 0.578138 0
M  V30 16296 O 1500.45 -1.56816 0.852709 0
M  V30 16297 C 1497.55 -2.9291 1.7046 0
M  V30 16298 C 1496.72 -3.19132 2.99122 0
M  V30 16299 C 1495.78 -4.37813 2.91901 0
M  V30 16300 O 1494.81 -4.36065 3.65836 0
M  V30 16301 N 1496.01 -5.41834 2.08317 0
M  V30 16302 H 1498.77 -1.38861 2.65589 0
M  V30 16303 H 1496.34 -0.618148 1.49635 0
M  V30 16304 H 1498.33 -3.7034 1.63187 0
M  V30 16305 H 1496.9 -3.01602 0.821877 0
M  V30 16306 H 1496.12 -2.29926 3.20199 0
M  V30 16307 H 1497.41 -3.33483 3.84274 0
M  V30 16308 H 1496.8 -5.46094 1.4764 0
M  V30 16309 H 1495.36 -6.18085 2.06917 0
M  V30 16310 N 1498.79 -1.41931 -0.685074 0
M  V30 16311 C 1499.74 -1.44604 -1.79884 0
M  V30 16312 C 1500.71 -0.299166 -1.63384 0
M  V30 16313 O 1501.9 -0.501749 -1.84085 0
M  V30 16314 C 1499.04 -1.3442 -3.17845 0
M  V30 16315 C 1498.15 -2.59061 -3.45704 0
M  V30 16316 C 1497.28 -2.41094 -4.73336 0
M  V30 16317 C 1496.32 -3.61159 -4.94197 0
M  V30 16318 N 1495.46 -3.42198 -6.13062 0
M  V30 16319 H 1500.3 -2.39788 -1.76934 0
M  V30 16320 H 1497.84 -1.1906 -0.863891 0
M  V30 16321 H 1499.79 -1.26515 -3.97555 0
M  V30 16322 H 1498.42 -0.42838 -3.19945 0
M  V30 16323 H 1497.48 -2.77374 -2.60322 0
M  V30 16324 H 1498.79 -3.48341 -3.57016 0
M  V30 16325 H 1497.94 -2.30717 -5.61119 0
M  V30 16326 H 1496.68 -1.49288 -4.64289 0
M  V30 16327 H 1495.69 -3.7198 -4.04859 0
M  V30 16328 H 1496.91 -4.53933 -5.05096 0
M  V30 16329 H 1494.86 -2.531 -6.05208 0
M  V30 16330 H 1494.77 -4.25059 -6.25189 0
M  V30 16331 H 1496.04 -3.35612 -7.03551 0
M  V30 16332 N 1500.27 0.920374 -1.27933 0
M  V30 16333 C 1501.5 1.70804 -1.17647 0
M  V30 16334 C 1501.92 1.86264 0.262189 0
M  V30 16335 O 1501.28 1.36798 1.18979 0
M  V30 16336 C 1501.33 3.08142 -1.87298 0
M  V30 16337 O 1500.43 3.95279 -1.17593 0
M  V30 16338 H 1499.77 0.523267 -0.408763 0
M  V30 16339 H 1502.3 1.15127 -1.69136 0
M  V30 16340 H 1502.31 3.58414 -1.94945 0
M  V30 16341 H 1500.99 2.96208 -2.91948 0
M  V30 16342 H 1499.56 3.53716 -1.18065 0
M  V30 16343 N 1501.75 1.10074 1.1279 0
M  V30 16344 C 1503 0.835715 1.83572 0
M  V30 16345 C 1503.31 -0.640831 1.84805 0
M  V30 16346 O 1504.52 -1.02162 2.51545 0
M  V30 16347 C 1502.97 1.44519 3.29609 0
M  V30 16348 C 1502.58 2.95476 3.36746 0
M  V30 16349 C 1504.33 1.2594 4.05388 0
M  V30 16350 C 1502.23 3.49477 4.77095 0
M  V30 16351 H 1501.16 0.308974 0.687787 0
M  V30 16352 H 1503.81 1.32427 1.27025 0
M  V30 16353 H 1502.2 0.884323 3.86 0
M  V30 16354 H 1503.37 3.57846 2.90315 0
M  V30 16355 H 1501.68 3.13166 2.74437 0
M  V30 16356 H 1504.28 1.63732 5.09015 0
M  V30 16357 H 1504.62 0.200633 4.15816 0
M  V30 16358 H 1505.16 1.78814 3.55346 0
M  V30 16359 H 1501.9 4.55003 4.7186 0
M  V30 16360 H 1501.42 2.91873 5.23995 0
M  V30 16361 H 1503.1 3.47077 5.46028 0
M  V30 16362 N 1503.23 -1.30138 0.888926 0
M  V30 16363 C 1504.16 -2.3047 0.374934 0
M  V30 16364 C 1505.14 -1.61156 -0.544322 0
M  V30 16365 O 1506.32 -1.88738 -0.457337 0
M  V30 16366 C 1503.45 -3.44896 -0.407935 0
M  V30 16367 C 1502.41 -4.25935 0.419916 0
M  V30 16368 C 1501.73 -5.32452 -0.489797 0
M  V30 16369 C 1503.03 -4.9508 1.66413 0
M  V30 16370 H 1504.73 -2.73711 1.21337 0
M  V30 16371 H 1502.27 -1.31586 0.584899 0
M  V30 16372 H 1504.23 -4.14153 -0.778177 0
M  V30 16373 H 1502.95 -3.0047 -1.28005 0
M  V30 16374 H 1501.61 -3.58372 0.772348 0
M  V30 16375 H 1501.26 -4.84273 -1.35974 0
M  V30 16376 H 1500.96 -5.87569 0.0603412 0
M  V30 16377 H 1502.48 -6.04563 -0.856468 0
M  V30 16378 H 1503.9 -5.56831 1.36425 0
M  V30 16379 H 1502.29 -5.6008 2.15477 0
M  V30 16380 H 1503.36 -4.20981 2.4063 0
M  V30 16381 N 1504.71 -0.650285 -1.43559 0
M  V30 16382 C 1505.65 0.0550615 -2.32535 0
M  V30 16383 C 1506.65 0.81612 -1.48445 0
M  V30 16384 O 1507.85 0.726853 -1.64672 0
M  V30 16385 H 1504.23 0.0365887 -0.751109 0
M  V30 16386 H 1506.2 -0.713146 -2.89753 0
M  V30 16387 C 1504.95 1.00982 -3.32713 0
M  V30 16388 H 1504.27 0.433626 -3.97441 0
M  V30 16389 H 1505.71 1.47249 -3.9761 0
M  V30 16390 C 1504.17 2.10442 -2.63089 0
M  V30 16391 O 1504.7 3.18782 -2.44419 0
M  V30 16392 N 1502.91 1.86915 -2.22511 0
M  V30 16393 H 1502.45 0.988113 -2.37895 0
M  V30 16394 H 1502.41 2.60348 -1.76256 0
M  V30 16395 N 1506.18 1.52647 -0.392018 0
M  V30 16396 C 1507.11 2.29446 0.433228 0
M  V30 16397 C 1508.09 1.32945 1.06111 0
M  V30 16398 O 1509.28 1.61841 1.07337 0
M  V30 16399 C 1506.41 3.10328 1.55929 0
M  V30 16400 C 1505.36 4.14735 1.05731 0
M  V30 16401 C 1504.69 4.83858 2.27565 0
M  V30 16402 C 1505.99 5.22154 0.123346 0
M  V30 16403 H 1507.68 2.9868 -0.207563 0
M  V30 16404 H 1505.23 1.43643 -0.101266 0
M  V30 16405 H 1507.18 3.62814 2.14346 0
M  V30 16406 H 1505.91 2.38832 2.22771 0
M  V30 16407 H 1504.57 3.63234 0.495653 0
M  V30 16408 H 1504.21 4.08907 2.92923 0
M  V30 16409 H 1503.91 5.54428 1.94637 0
M  V30 16410 H 1505.44 5.39149 2.86619 0
M  V30 16411 H 1506.85 5.69983 0.615784 0
M  V30 16412 H 1505.25 5.99987 -0.116304 0
M  V30 16413 H 1506.32 4.77796 -0.826969 0
M  V30 16414 N 1507.66 0.121921 1.57128 0
M  V30 16415 C 1508.91 -0.534313 1.94909 0
M  V30 16416 C 1509.23 -1.67029 1.0063 0
M  V30 16417 O 1508.5 -1.95798 0.0631366 0
M  V30 16418 H 1507.08 -0.200372 0.719625 0
M  V30 16419 H 1509.74 0.191546 1.93956 0
M  V30 16420 H 1508.84 -0.926974 2.98016 0
M  V30 16421 N 1509.14 -1.56867 -0.151857 0
M  V30 16422 C 1510.09 -1.98842 -1.20685 0
M  V30 16423 C 1511.08 -0.88007 -1.44745 0
M  V30 16424 O 1512.29 -1.06524 -1.45095 0
M  V30 16425 H 1508.66 -0.632904 -0.406123 0
M  V30 16426 H 1510.63 -2.86737 -0.826095 0
M  V30 16427 C 1509.38 -2.38095 -2.53389 0
M  V30 16428 H 1508.71 -3.2293 -2.35703 0
M  V30 16429 H 1510.15 -2.71292 -3.25847 0
M  V30 16430 C 1508.61 -1.23175 -3.13575 0
M  V30 16431 O 1509.14 -0.529864 -3.9819 0
M  V30 16432 N 1507.34 -0.997255 -2.72953 0
M  V30 16433 H 1506.89 -1.56979 -2.04243 0
M  V30 16434 H 1506.85 -0.23022 -3.13556 0
M  V30 16435 N 1510.62 0.421051 -1.51871 0
M  V30 16436 C 1511.87 1.16611 -1.64574 0
M  V30 16437 C 1512.18 1.91955 -0.375835 0
M  V30 16438 O 1513.39 2.68792 -0.382481 0
M  V30 16439 C 1511.84 2.12164 -2.90714 0
M  V30 16440 C 1511.45 1.42392 -4.24769 0
M  V30 16441 C 1513.19 2.87002 -3.12778 0
M  V30 16442 C 1511.1 2.36523 -5.42043 0
M  V30 16443 H 1510.03 0.438989 -0.613029 0
M  V30 16444 H 1512.68 0.431636 -1.78351 0
M  V30 16445 H 1511.06 2.89114 -2.70608 0
M  V30 16446 H 1512.24 0.708875 -4.55315 0
M  V30 16447 H 1510.55 0.796421 -4.08713 0
M  V30 16448 H 1513.15 3.5755 -3.9757 0
M  V30 16449 H 1513.49 3.49277 -2.2652 0
M  V30 16450 H 1514.03 2.17154 -3.333 0
M  V30 16451 H 1510.77 1.78913 -6.30611 0
M  V30 16452 H 1510.29 3.06034 -5.15852 0
M  V30 16453 H 1511.96 2.97306 -5.74646 0
M  V30 16454 N 1512.1 1.42293 0.677538 0
M  V30 16455 C 1513.05 1.42014 1.78371 0
M  V30 16456 C 1514.03 0.291863 1.58231 0
M  V30 16457 O 1515.22 0.533888 1.68756 0
M  V30 16458 C 1512.35 1.32233 3.16811 0
M  V30 16459 C 1511.44 2.49995 3.42584 0
M  V30 16460 N 1511.83 3.75424 3.38955 0
M  V30 16461 C 1510.13 2.44196 3.73208 0
M  V30 16462 C 1510.83 4.53631 3.64135 0
M  V30 16463 N 1509.8 3.84001 3.84765 0
M  V30 16464 H 1513.61 2.3689 1.73954 0
M  V30 16465 H 1511.12 1.36603 0.878266 0
M  V30 16466 H 1513.12 1.30115 3.96075 0
M  V30 16467 H 1511.78 0.383559 3.22427 0
M  V30 16468 H 1512.79 4.08057 3.18919 0
M  V30 16469 H 1509.46 1.58884 3.86085 0
M  V30 16470 H 1510.85 5.6261 3.67314 0
M  V30 16471 N 1513.57 -0.913576 1.28419 0
M  V30 16472 C 1514.82 -1.66519 1.15755 0
M  V30 16473 C 1515.15 -1.91974 -0.293166 0
M  V30 16474 O 1514.43 -1.52025 -1.21321 0
M  V30 16475 C 1514.71 -3.02299 1.95672 0
M  V30 16476 C 1514.56 -2.83996 3.48807 0
M  V30 16477 C 1515.88 -4.02838 1.77226 0
M  V30 16478 H 1513 -0.604309 0.421877 0
M  V30 16479 H 1515.64 -1.05919 1.57737 0
M  V30 16480 H 1513.79 -3.54025 1.59995 0
M  V30 16481 H 1515.47 -2.39279 3.9439 0
M  V30 16482 H 1513.71 -2.19052 3.74431 0
M  V30 16483 H 1514.38 -3.80419 3.99982 0
M  V30 16484 H 1516.86 -3.60174 2.0836 0
M  V30 16485 H 1515.73 -4.95806 2.35515 0
M  V30 16486 H 1515.99 -4.36135 0.723804 0
M  V30 16487 N 1515.05 -1.1067 -1.12204 0
M  V30 16488 C 1516.28 -0.873095 -1.88127 0
M  V30 16489 C 1516.7 0.571099 -1.79221 0
M  V30 16490 O 1516.06 1.40251 -1.14888 0
M  V30 16491 C 1516.11 -1.32922 -3.35208 0
M  V30 16492 O 1515.21 -0.495807 -4.09409 0
M  V30 16493 H 1514.55 -0.315138 -0.584452 0
M  V30 16494 H 1517.08 -1.47413 -1.41882 0
M  V30 16495 H 1517.09 -1.32023 -3.86049 0
M  V30 16496 H 1515.77 -2.38091 -3.41007 0
M  V30 16497 H 1514.35 -0.570216 -3.68515 0
M  V30 16498 N 1516.53 1.29665 -0.895815 0
M  V30 16499 C 1517.81 1.90601 -0.439394 0
M  V30 16500 C 1518.19 1.81341 1.08068 0
M  V30 16501 O 1517.54 1.23761 1.92082 0
M  V30 16502 C 1517.75 3.35832 -0.949622 0
M  V30 16503 C 1519.09 4.12873 -0.991015 0
M  V30 16504 O 1520.12 3.4472 -0.897025 0
M  V30 16505 O 1518.98 5.34656 -1.1316 0
M  V30 16506 H 1516.07 0.81569 -0.136304 0
M  V30 16507 H 1518.62 1.38157 -0.985426 0
M  V30 16508 H 1517.39 3.36708 -1.99357 0
M  V30 16509 H 1517.01 3.95747 -0.383376 0
M  V30 16510 N 1518.01 0.657889 1.43212 0
M  V30 16511 C 1518.96 -0.0427288 2.32561 0
M  V30 16512 C 1519.95 -0.808236 1.48875 0
M  V30 16513 O 1521.16 -0.718109 1.65055 0
M  V30 16514 H 1517.53 -0.0326049 0.751293 0
M  V30 16515 H 1519.5 0.728503 2.89371 0
M  V30 16516 C 1518.25 -0.99216 3.33244 0
M  V30 16517 H 1517.57 -0.412542 3.97666 0
M  V30 16518 H 1519.01 -1.45138 3.98385 0
M  V30 16519 C 1517.47 -2.09044 2.64201 0
M  V30 16520 O 1518 -3.17481 2.46107 0
M  V30 16521 N 1516.21 -1.85732 2.23499 0
M  V30 16522 H 1515.76 -0.975483 2.38416 0
M  V30 16523 H 1515.71 -2.5941 1.77634 0
M  V30 16524 N 1519.49 -1.52437 0.400108 0
M  V30 16525 C 1520.74 -2.00896 -0.179909 0
M  V30 16526 C 1521.05 -1.29046 -1.46991 0
M  V30 16527 O 1522.25 -1.68274 -2.13063 0
M  V30 16528 C 1520.71 -3.57981 -0.371169 0
M  V30 16529 C 1520.32 -4.38739 0.906213 0
M  V30 16530 C 1522.06 -4.14698 -0.906965 0
M  V30 16531 C 1519.97 -5.87447 0.682637 0
M  V30 16532 H 1518.9 -0.750649 -0.071008 0
M  V30 16533 H 1521.55 -1.75854 0.524169 0
M  V30 16534 H 1519.93 -3.79315 -1.13736 0
M  V30 16535 H 1521.11 -4.29167 1.67785 0
M  V30 16536 H 1519.42 -3.93296 1.36776 0
M  V30 16537 H 1522.02 -5.2347 -1.09012 0
M  V30 16538 H 1522.36 -3.71477 -1.87911 0
M  V30 16539 H 1522.89 -3.97297 -0.200068 0
M  V30 16540 H 1519.63 -6.35011 1.62608 0
M  V30 16541 H 1519.15 -5.99779 -0.0498716 0
M  V30 16542 H 1520.83 -6.46202 0.321331 0
M  V30 16543 N 1520.96 -0.130252 -1.57061 0
M  V30 16544 C 1521.89 0.812189 -2.18919 0
M  V30 16545 C 1522.88 1.2692 -1.13249 0
M  V30 16546 O 1524.06 1.32978 -1.41529 0
M  V30 16547 C 1521.19 2.05803 -2.79754 0
M  V30 16548 C 1520.14 1.73841 -3.91105 0
M  V30 16549 C 1519.47 3.05549 -4.38799 0
M  V30 16550 C 1520.77 0.997991 -5.12677 0
M  V30 16551 H 1522.46 0.296692 -2.97926 0
M  V30 16552 H 1520.01 0.141265 -1.43305 0
M  V30 16553 H 1521.96 2.72201 -3.21691 0
M  V30 16554 H 1520.69 2.59697 -1.98053 0
M  V30 16555 H 1519.35 1.09828 -3.49762 0
M  V30 16556 H 1518.99 3.57399 -3.53942 0
M  V30 16557 H 1518.69 2.84932 -5.13894 0
M  V30 16558 H 1520.22 3.73045 -4.83394 0
M  V30 16559 H 1521.63 1.56372 -5.51562 0
M  V30 16560 H 1520.03 0.892378 -5.93428 0
M  V30 16561 H 1521.1 -0.0132936 -4.84898 0
M  V30 16562 N 1522.44 1.56945 0.143535 0
M  V30 16563 C 1523.69 1.83538 0.855563 0
M  V30 16564 C 1524.02 0.711666 1.81013 0
M  V30 16565 O 1523.27 -0.299039 1.93402 0
M  V30 16566 C 1523.57 3.16482 1.66054 0
M  V30 16567 C 1523.24 4.42768 0.85246 0
M  V30 16568 C 1521.9 4.77064 0.629535 0
M  V30 16569 C 1524.25 5.20406 0.287567 0
M  V30 16570 C 1521.58 5.86457 -0.168934 0
M  V30 16571 C 1523.93 6.30637 -0.49796 0
M  V30 16572 C 1522.6 6.6348 -0.731429 0
M  V30 16573 H 1521.87 0.671615 0.313073 0
M  V30 16574 H 1524.51 1.9113 0.11904 0
M  V30 16575 H 1522.82 3.04357 2.46727 0
M  V30 16576 H 1524.52 3.34274 2.215 0
M  V30 16577 H 1521.11 4.15884 1.03628 0
M  V30 16578 H 1525.29 4.94282 0.447066 0
M  V30 16579 H 1520.55 6.10343 -0.359283 0
M  V30 16580 H 1524.72 6.89989 -0.942792 0
M  V30 16581 H 1522.35 7.48081 -1.35199 0
M  V30 16582 N 1523.92 -0.412991 1.52093 0
M  V30 16583 C 1524.87 -1.50294 1.75158 0
M  V30 16584 C 1525.84 -1.55119 0.593902 0
M  V30 16585 O 1527.02 -1.71751 0.831032 0
M  V30 16586 C 1524.16 -2.87781 1.90463 0
M  V30 16587 C 1523.28 -2.92295 3.181 0
M  V30 16588 C 1522.41 -4.21056 3.23859 0
M  V30 16589 C 1521.45 -4.1953 4.45714 0
M  V30 16590 N 1520.59 -5.39857 4.48886 0
M  V30 16591 H 1525.43 -1.29927 2.68185 0
M  V30 16592 H 1522.96 -0.630741 1.32891 0
M  V30 16593 H 1524.92 -3.67588 1.9732 0
M  V30 16594 H 1523.55 -3.06651 1.00822 0
M  V30 16595 H 1522.6 -2.05002 3.20434 0
M  V30 16596 H 1523.92 -2.87031 4.0794 0
M  V30 16597 H 1523.07 -5.09253 3.29767 0
M  V30 16598 H 1521.81 -4.2901 2.31952 0
M  V30 16599 H 1520.81 -3.29724 4.39957 0
M  V30 16600 H 1522.04 -4.1322 5.38912 0
M  V30 16601 H 1519.99 -5.48486 3.59861 0
M  V30 16602 H 1519.9 -5.36572 5.32566 0
M  V30 16603 H 1521.17 -6.30018 4.59018 0
M  V30 16604 N 1525.4 -1.4265 -0.669982 0
M  V30 16605 C 1526.65 -1.42667 -1.42579 0
M  V30 16606 C 1526.96 -0.0483217 -1.9554 0
M  V30 16607 O 1528.17 0.0740917 -2.71399 0
M  V30 16608 C 1526.62 -2.5098 -2.57948 0
M  V30 16609 C 1526.23 -3.94844 -2.11666 0
M  V30 16610 C 1527.98 -2.6017 -3.35428 0
M  V30 16611 C 1525.88 -4.94655 -3.24146 0
M  V30 16612 H 1524.81 -0.530651 -0.535654 0
M  V30 16613 H 1527.46 -1.68576 -0.724861 0
M  V30 16614 H 1525.85 -2.18244 -3.30432 0
M  V30 16615 H 1527.02 -4.36958 -1.46303 0
M  V30 16616 H 1525.33 -3.89547 -1.47111 0
M  V30 16617 H 1527.93 -3.31918 -4.19207 0
M  V30 16618 H 1528.27 -1.64683 -3.82342 0
M  V30 16619 H 1528.81 -2.92124 -2.70016 0
M  V30 16620 H 1525.55 -5.91636 -2.82218 0
M  V30 16621 H 1525.07 -4.57168 -3.88275 0
M  V30 16622 H 1526.75 -5.16593 -3.89538 0
M  V30 16623 N 1526.88 0.906753 -1.28902 0
M  V30 16624 C 1528.12 1.65903 -1.16636 0
M  V30 16625 C 1528.46 1.92127 0.282981 0
M  V30 16626 O 1527.73 1.52666 1.20513 0
M  V30 16627 C 1528.01 3.01257 -1.97272 0
M  V30 16628 C 1527.87 2.82143 -3.50308 0
M  V30 16629 C 1529.19 4.01893 -1.7936 0
M  V30 16630 H 1526.31 0.602063 -0.425076 0
M  V30 16631 H 1528.95 1.05081 -1.58297 0
M  V30 16632 H 1527.1 3.53172 -1.61871 0
M  V30 16633 H 1528.77 2.37184 -3.95653 0
M  V30 16634 H 1527.01 2.17063 -3.75588 0
M  V30 16635 H 1527.68 3.78293 -4.01993 0
M  V30 16636 H 1530.16 3.59064 -2.10267 0
M  V30 16637 H 1529.04 4.9455 -2.38141 0
M  V30 16638 H 1529.3 4.35745 -0.746923 0
M  V30 16639 N 1528.36 1.11264 1.11616 0
M  V30 16640 C 1529.3 0.764321 2.19684 0
M  V30 16641 C 1530.3 -0.243396 1.67642 0
M  V30 16642 O 1531.5 -0.102869 1.79706 0
M  V30 16643 H 1527.88 0.229275 0.716196 0
M  V30 16644 H 1529.85 1.68445 2.46311 0
M  V30 16645 C 1528.6 0.22175 3.46992 0
M  V30 16646 H 1527.92 0.988422 3.87389 0
M  V30 16647 H 1529.36 0.0161946 4.23997 0
M  V30 16648 C 1527.82 -1.04755 3.202 0
M  V30 16649 O 1528.35 -2.12758 3.4073 0
M  V30 16650 N 1526.56 -0.969608 2.73947 0
M  V30 16651 H 1526.1 -0.0906063 2.57441 0
M  V30 16652 H 1526.06 -1.81955 2.56397 0
M  V30 16653 N 1529.83 -1.29188 0.902679 0
M  V30 16654 C 1531.07 -1.97218 0.53707 0
M  V30 16655 C 1531.44 -1.69577 -0.900422 0
M  V30 16656 O 1532.64 -2.31086 -1.37305 0
M  V30 16657 C 1530.91 -3.47753 0.824796 0
M  V30 16658 S 1532.47 -4.35161 0.563943 0
M  V30 16659 H 1529.29 -0.682544 0.199136 0
M  V30 16660 H 1531.89 -1.56941 1.16575 0
M  V30 16661 H 1530.59 -3.65364 1.86916 0
M  V30 16662 H 1530.12 -3.92968 0.184342 0
M  V30 16663 H 1532.14 -4.92683 -0.589697 0
M  V30 16664 N 1531.31 -0.665475 -1.42861 0
M  V30 16665 C 1532.54 -0.190399 -2.06524 0
M  V30 16666 C 1532.96 1.13995 -1.49622 0
M  V30 16667 O 1532.32 1.70695 -0.610981 0
M  V30 16668 C 1532.37 -0.12594 -3.6038 0
M  V30 16669 O 1531.47 0.908299 -4.02273 0
M  V30 16670 H 1530.81 -0.100495 -0.656351 0
M  V30 16671 H 1533.34 -0.911858 -1.83156 0
M  V30 16672 H 1533.35 0.0533153 -4.07965 0
M  V30 16673 H 1532.03 -1.09703 -4.01171 0
M  V30 16674 H 1530.6 0.700841 -3.66255 0
M  V30 16675 N 1532.79 1.52222 -0.408187 0
M  V30 16676 C 1534.02 2.05922 0.167187 0
M  V30 16677 C 1534.43 1.27824 1.3949 0
M  V30 16678 O 1533.77 0.323065 1.80837 0
M  V30 16679 C 1533.83 3.54734 0.583435 0
M  V30 16680 C 1533.5 4.53876 -0.533419 0
M  V30 16681 C 1534.49 5.00788 -1.3967 0
M  V30 16682 C 1532.18 4.97316 -0.705841 0
M  V30 16683 C 1534.17 5.89782 -2.41736 0
M  V30 16684 C 1531.86 5.86106 -1.72981 0
M  V30 16685 C 1532.86 6.32234 -2.58397 0
M  V30 16686 O 1532.55 7.19267 -3.59041 0
M  V30 16687 H 1532.28 0.675562 0.0243385 0
M  V30 16688 H 1534.83 1.97115 -0.577475 0
M  V30 16689 H 1533.06 3.61224 1.38036 0
M  V30 16690 H 1534.75 3.91085 1.08662 0
M  V30 16691 H 1535.52 4.67944 -1.27489 0
M  V30 16692 H 1531.4 4.60972 -0.0506558 0
M  V30 16693 H 1534.94 6.25708 -3.0844 0
M  V30 16694 H 1530.84 6.18364 -1.85193 0
M  V30 16695 H 1531.6 7.37376 -3.55274 0
M  V30 16696 N 1534.27 0.138579 1.5699 0
M  V30 16697 C 1535.5 -0.521806 2.00212 0
M  V30 16698 C 1535.91 -1.58967 1.01857 0
M  V30 16699 O 1535.27 -1.82494 0.0143099 0
M  V30 16700 C 1535.32 -1.13014 3.4338 0
M  V30 16701 O 1535.04 -0.104938 4.37974 0
M  V30 16702 C 1536.54 -1.87195 4.01837 0
M  V30 16703 H 1533.76 -0.136564 0.656956 0
M  V30 16704 H 1536.3 0.230685 2.03195 0
M  V30 16705 H 1534.46 -1.8333 3.41275 0
M  V30 16706 H 1534.87 -0.54948 5.21614 0
M  V30 16707 H 1536.35 -2.25061 5.04035 0
M  V30 16708 H 1536.82 -2.75467 3.42074 0
M  V30 16709 H 1537.43 -1.21597 4.07547 0
M  V30 16710 N 1535.75 -1.57019 -0.13521 0
M  V30 16711 C 1537.16 -1.51949 -0.48824 0
M  V30 16712 C 1537.36 -0.848955 -1.82743 0
M  V30 16713 O 1536.42 -0.424441 -2.48907 0
M  V30 16714 C 1537.73 -2.96719 -0.487673 0
M  V30 16715 C 1539.28 -3.07722 -0.572365 0
M  V30 16716 C 1539.75 -4.54022 -0.602347 0
M  V30 16717 N 1541.24 -4.58413 -0.664242 0
M  V30 16718 C 1541.98 -5.69005 -0.70862 0
M  V30 16719 N 1541.48 -6.89135 -0.711626 0
M  V30 16720 N 1543.27 -5.57069 -0.750399 0
M  V30 16721 H 1535.42 -1.99001 0.742465 0
M  V30 16722 H 1537.68 -0.908116 0.272083 0
M  V30 16723 H 1537.39 -3.49082 0.428363 0
M  V30 16724 H 1537.26 -3.53299 -1.32136 0
M  V30 16725 H 1539.65 -2.55372 -1.47882 0
M  V30 16726 H 1539.73 -2.54166 0.288696 0
M  V30 16727 H 1539.37 -5.07013 0.3 0
M  V30 16728 H 1539.3 -5.05373 -1.48006 0
M  V30 16729 H 1541.8 -3.71936 -0.668739 0
M  V30 16730 H 1542.11 -7.69175 -0.747663 0
M  V30 16731 H 1540.45 -6.91672 -0.679311 0
M  V30 16732 H 1543.64 -4.62129 -0.745301 0
M  V30 16733 H 1543.82 -6.4327 -0.781518 0
M  V30 16734 N 1537.22 0.404919 -1.52309 0
M  V30 16735 C 1538.45 1.17139 -1.70182 0
M  V30 16736 C 1538.86 1.84642 -0.412805 0
M  V30 16737 O 1538.21 1.72873 0.621347 0
M  V30 16738 C 1538.27 2.27402 -2.78439 0
M  V30 16739 C 1537.93 1.8 -4.20058 0
M  V30 16740 C 1538.93 1.28546 -5.03758 0
M  V30 16741 C 1536.61 1.86706 -4.66311 0
M  V30 16742 C 1538.61 0.84425 -6.31784 0
M  V30 16743 C 1536.29 1.42197 -5.94326 0
M  V30 16744 C 1537.29 0.911418 -6.76892 0
M  V30 16745 O 1536.98 0.472762 -8.02509 0
M  V30 16746 H 1536.71 0.357845 -0.573518 0
M  V30 16747 H 1539.27 0.481939 -1.99666 0
M  V30 16748 H 1537.5 2.99724 -2.44341 0
M  V30 16749 H 1539.19 2.89143 -2.8487 0
M  V30 16750 H 1539.95 1.22734 -4.69213 0
M  V30 16751 H 1535.83 2.25389 -4.02145 0
M  V30 16752 H 1539.37 0.445063 -6.96179 0
M  V30 16753 H 1535.27 1.47689 -6.28377 0
M  V30 16754 H 1536.04 0.595689 -8.16329 0
M  V30 16755 N 1538.7 1.43003 0.662408 0
M  V30 16756 C 1539.95 1.43422 1.41821 0
M  V30 16757 C 1540.26 0.0586909 1.95512 0
M  V30 16758 O 1541.47 -0.0596978 2.71434 0
M  V30 16759 C 1539.93 2.52344 2.56613 0
M  V30 16760 C 1539.53 3.95961 2.09569 0
M  V30 16761 C 1541.28 2.61945 3.34044 0
M  V30 16762 C 1539.19 4.96367 3.21518 0
M  V30 16763 H 1538.12 0.533485 0.532832 0
M  V30 16764 H 1540.77 1.68958 0.715911 0
M  V30 16765 H 1539.15 2.19993 3.2927 0
M  V30 16766 H 1540.32 4.37728 1.43984 0
M  V30 16767 H 1538.64 3.90322 1.45044 0
M  V30 16768 H 1541.23 3.34137 4.17441 0
M  V30 16769 H 1541.58 1.66708 3.81463 0
M  V30 16770 H 1542.11 2.93552 2.68463 0
M  V30 16771 H 1538.85 5.93124 2.79077 0
M  V30 16772 H 1538.37 4.59221 3.85845 0
M  V30 16773 H 1540.05 5.18652 3.86793 0
M  V30 16774 N 1540.18 -0.899904 1.29381 0
M  V30 16775 C 1541.43 -1.64712 1.17109 0
M  V30 16776 C 1541.75 -1.93011 -0.277772 0
M  V30 16777 O 1541.02 -1.55604 -1.19013 0
M  V30 16778 H 1539.6 -0.610532 0.430418 0
M  V30 16779 H 1542.26 -1.07905 1.62304 0
M  V30 16780 H 1541.36 -2.60362 1.72098 0
M  V30 16781 N 1541.66 -1.11854 -1.11024 0
M  V30 16782 C 1542.91 -0.864814 -1.82219 0
M  V30 16783 C 1543.22 0.611349 -1.85801 0
M  V30 16784 O 1544.43 0.981475 -2.53139 0
M  V30 16785 C 1542.88 -1.49745 -3.27268 0
M  V30 16786 C 1542.49 -3.00796 -3.32003 0
M  V30 16787 C 1544.23 -1.32374 -4.03333 0
M  V30 16788 C 1542.14 -3.57023 -4.71475 0
M  V30 16789 H 1541.07 -0.319877 -0.682784 0
M  V30 16790 H 1543.72 -1.34431 -1.24903 0
M  V30 16791 H 1542.1 -0.94562 -3.84544 0
M  V30 16792 H 1543.28 -3.6242 -2.84585 0
M  V30 16793 H 1541.59 -3.17493 -2.6942 0
M  V30 16794 H 1544.19 -1.7181 -5.06345 0
M  V30 16795 H 1544.53 -0.26676 -4.15444 0
M  V30 16796 H 1545.07 -1.84444 -3.52456 0
M  V30 16797 H 1541.81 -4.62453 -4.64562 0
M  V30 16798 H 1541.33 -3.00172 -5.19285 0
M  V30 16799 H 1543 -3.5572 -5.40437 0
M  V30 16800 N 1543.14 1.28707 -0.909517 0
M  V30 16801 C 1544.55 1.47605 -0.607045 0
M  V30 16802 C 1544.75 1.8275 0.848815 0
M  V30 16803 O 1543.81 1.92989 1.62823 0
M  V30 16804 C 1545.12 2.58194 -1.54131 0
M  V30 16805 C 1546.67 2.72065 -1.54757 0
M  V30 16806 C 1547.14 3.85793 -2.46835 0
M  V30 16807 N 1548.64 3.93141 -2.44937 0
M  V30 16808 C 1549.37 4.80512 -3.12883 0
M  V30 16809 N 1548.87 5.72504 -3.90142 0
M  V30 16810 N 1550.66 4.74086 -3.01991 0
M  V30 16811 H 1542.81 1.04174 -1.85099 0
M  V30 16812 H 1545.07 0.51843 -0.793684 0
M  V30 16813 H 1544.78 2.39119 -2.57905 0
M  V30 16814 H 1544.65 3.55205 -1.26921 0
M  V30 16815 H 1547.04 2.90532 -0.517219 0
M  V30 16816 H 1547.12 1.75598 -1.86008 0
M  V30 16817 H 1546.77 3.68082 -3.49969 0
M  V30 16818 H 1546.7 4.8165 -2.12888 0
M  V30 16819 H 1549.19 3.2735 -1.88813 0
M  V30 16820 H 1549.5 6.3599 -4.39017 0
M  V30 16821 H 1547.84 5.72358 -3.94248 0
M  V30 16822 H 1551.04 4.01209 -2.4114 0
M  V30 16823 H 1551.21 5.41964 -3.55217 0
M  V30 16824 N 1544.61 0.673042 1.42506 0
M  V30 16825 C 1545.84 0.202628 2.05604 0
M  V30 16826 C 1546.25 -1.14466 1.50646 0
M  V30 16827 O 1545.6 -1.7218 0.6403 0
M  V30 16828 C 1545.66 0.0583637 3.59453 0
M  V30 16829 C 1545.32 1.33408 4.37094 0
M  V30 16830 C 1546.32 2.26717 4.67863 0
M  V30 16831 C 1544 1.58119 4.76764 0
M  V30 16832 C 1546 3.43014 5.37234 0
M  V30 16833 C 1543.68 2.74706 5.45875 0
M  V30 16834 C 1544.68 3.66978 5.76035 0
M  V30 16835 O 1544.37 4.81526 6.4373 0
M  V30 16836 H 1544.1 0.0964964 0.669077 0
M  V30 16837 H 1546.66 0.919656 1.83661 0
M  V30 16838 H 1544.89 -0.714227 3.80047 0
M  V30 16839 H 1546.58 -0.37195 4.04192 0
M  V30 16840 H 1547.34 2.08875 4.37717 0
M  V30 16841 H 1543.22 0.871705 4.52683 0
M  V30 16842 H 1546.76 4.15055 5.60692 0
M  V30 16843 H 1542.66 2.92474 5.75438 0
M  V30 16844 H 1543.43 4.81047 6.6222 0
M  V30 16845 N 1546.09 -1.52004 0.416254 0
M  V30 16846 C 1547.34 -2.01889 -0.157201 0
M  V30 16847 C 1547.67 -1.30153 -1.44535 0
M  V30 16848 O 1546.92 -0.39855 -1.91599 0
M  V30 16849 C 1547.22 -3.54624 -0.444553 0
M  V30 16850 C 1546.89 -4.4453 0.755251 0
M  V30 16851 C 1545.55 -4.68824 1.08433 0
M  V30 16852 C 1547.9 -4.97412 1.55663 0
M  V30 16853 C 1545.23 -5.43246 2.21586 0
M  V30 16854 C 1547.58 -5.73074 2.67898 0
M  V30 16855 C 1546.25 -5.95637 3.01285 0
M  V30 16856 H 1545.52 -0.738764 -0.0575239 0
M  V30 16857 H 1548.16 -1.83156 0.559133 0
M  V30 16858 H 1546.47 -3.71575 -1.24254 0
M  V30 16859 H 1548.16 -3.90739 -0.901333 0
M  V30 16860 H 1544.75 -4.25804 0.488789 0
M  V30 16861 H 1548.94 -4.78545 1.31562 0
M  V30 16862 H 1544.19 -5.58936 2.47792 0
M  V30 16863 H 1548.37 -6.13044 3.30378 0
M  V30 16864 H 1546 -6.53086 3.89079 0
M  V30 16865 N 1547.57 -0.146903 -1.56914 0
M  V30 16866 C 1548.52 0.809917 -2.18044 0
M  V30 16867 C 1549.51 1.25536 -1.13741 0
M  V30 16868 O 1550.72 1.22385 -1.31992 0
M  V30 16869 H 1547.09 0.279387 -0.698174 0
M  V30 16870 H 1549.06 0.270135 -2.97175 0
M  V30 16871 C 1547.81 2.03904 -2.81635 0
M  V30 16872 H 1547.14 1.70526 -3.61609 0
M  V30 16873 H 1548.58 2.68795 -3.2791 0
M  V30 16874 C 1547.04 2.84696 -1.80138 0
M  V30 16875 O 1547.57 3.81036 -1.27179 0
M  V30 16876 N 1545.77 2.49229 -1.49444 0
M  V30 16877 H 1545.32 1.70949 -1.92702 0
M  V30 16878 H 1545.28 3.03577 -0.817811 0
M  V30 16879 N 1549.05 1.57088 0.126881 0
M  V30 16880 C 1550.3 1.83624 0.834582 0
M  V30 16881 C 1550.61 0.731331 1.81414 0
M  V30 16882 O 1551.82 0.88286 2.56745 0
M  V30 16883 C 1550.27 3.25529 1.5349 0
M  V30 16884 C 1549.88 4.44008 0.59673 0
M  V30 16885 C 1551.62 3.6132 2.22819 0
M  V30 16886 C 1549.53 5.76939 1.29982 0
M  V30 16887 H 1548.46 0.684858 0.315414 0
M  V30 16888 H 1551.11 1.83292 0.087305 0
M  V30 16889 H 1549.49 3.20306 2.32852 0
M  V30 16890 H 1550.67 4.60511 -0.163109 0
M  V30 16891 H 1548.98 4.16399 0.0108081 0
M  V30 16892 H 1551.58 4.57902 2.76098 0
M  V30 16893 H 1551.92 2.88363 3.00254 0
M  V30 16894 H 1552.46 3.68291 1.50354 0
M  V30 16895 H 1549.2 6.53044 0.566925 0
M  V30 16896 H 1548.72 5.64336 2.03187 0
M  V30 16897 H 1550.39 6.20427 1.8352 0
M  V30 16898 N 1550.53 -0.396836 1.52522 0
M  V30 16899 C 1551.77 -1.14263 1.67183 0
M  V30 16900 C 1552.1 -1.90176 0.407845 0
M  V30 16901 O 1551.36 -1.85965 -0.609553 0
M  V30 16902 C 1551.66 -2.15308 2.85267 0
M  V30 16903 C 1551.32 -1.56111 4.23013 0
M  V30 16904 C 1549.98 -1.39692 4.60478 0
M  V30 16905 C 1552.34 -1.12998 5.08803 0
M  V30 16906 C 1549.66 -0.786963 5.81398 0
M  V30 16907 C 1552.02 -0.534159 6.30341 0
M  V30 16908 C 1550.68 -0.357204 6.66544 0
M  V30 16909 H 1549.95 -0.418118 0.611766 0
M  V30 16910 H 1552.6 -0.428255 1.8665 0
M  V30 16911 H 1550.9 -2.92935 2.60185 0
M  V30 16912 H 1552.6 -2.72908 2.93806 0
M  V30 16913 H 1549.19 -1.69876 3.93497 0
M  V30 16914 H 1553.37 -1.24488 4.80434 0
M  V30 16915 H 1548.63 -0.63799 6.08062 0
M  V30 16916 H 1552.8 -0.191759 6.96136 0
M  V30 16917 H 1550.43 0.117528 7.60109 0
M  V30 16918 N 1552.01 -1.43353 -0.654814 0
M  V30 16919 C 1553.28 -1.35363 -1.41195 0
M  V30 16920 C 1553.66 -0.000661523 -2.111 0
M  V30 16921 O 1553.01 1.01583 -2.04678 0
M  V30 16922 C 1553.22 -2.53572 -2.39796 0
M  V30 16923 C 1554.57 -2.96587 -3.03844 0
M  V30 16924 O 1555.59 -2.53607 -2.50124 0
M  V30 16925 O 1554.45 -3.71039 -4.01239 0
M  V30 16926 H 1551.55 -0.534861 -0.630756 0
M  V30 16927 H 1554.09 -1.55399 -0.681857 0
M  V30 16928 H 1552.86 -3.43682 -1.87078 0
M  V30 16929 H 1552.49 -2.35628 -3.20258 0
M  V30 16930 N 1553.48 0.89303 -1.29857 0
M  V30 16931 C 1554.43 1.9979 -1.15554 0
M  V30 16932 C 1555.4 1.66033 -0.0471157 0
M  V30 16933 O 1556.59 1.89575 -0.215846 0
M  V30 16934 C 1553.73 3.34595 -0.844993 0
M  V30 16935 C 1552.84 3.81093 -2.03451 0
M  V30 16936 C 1551.97 5.04506 -1.66275 0
M  V30 16937 C 1551.01 5.4339 -2.8177 0
M  V30 16938 N 1550.15 6.57987 -2.44945 0
M  V30 16939 H 1554.99 2.11355 -2.10079 0
M  V30 16940 H 1552.53 1.03497 -1.04531 0
M  V30 16941 H 1554.48 4.12175 -0.645598 0
M  V30 16942 H 1553.11 3.22738 0.0633626 0
M  V30 16943 H 1552.17 2.99491 -2.34541 0
M  V30 16944 H 1553.48 4.05855 -2.8997 0
M  V30 16945 H 1552.63 5.89688 -1.42664 0
M  V30 16946 H 1551.37 4.81597 -0.769144 0
M  V30 16947 H 1550.38 4.56738 -3.06056 0
M  V30 16948 H 1551.6 5.68276 -3.71805 0
M  V30 16949 H 1549.55 6.36669 -1.58079 0
M  V30 16950 H 1549.46 6.82579 -3.24996 0
M  V30 16951 H 1550.73 7.46421 -2.24669 0
M  V30 16952 N 1554.96 1.12442 1.10429 0
M  V30 16953 C 1555.87 0.805377 2.20343 0
M  V30 16954 C 1556.89 -0.205836 1.72778 0
M  V30 16955 O 1558.06 -0.0394195 2.01361 0
M  V30 16956 C 1555.13 0.264711 3.45688 0
M  V30 16957 C 1554.19 1.33586 4.07987 0
M  V30 16958 C 1553.42 0.8209 5.27349 0
M  V30 16959 O 1553.65 -0.345303 5.69354 0
M  V30 16960 O 1552.58 1.59052 5.80505 0
M  V30 16961 H 1556.41 1.7234 2.50065 0
M  V30 16962 H 1553.99 0.901084 1.19167 0
M  V30 16963 H 1555.87 -0.0319164 4.21388 0
M  V30 16964 H 1554.55 -0.625869 3.17592 0
M  V30 16965 H 1553.45 1.68566 3.33971 0
M  V30 16966 H 1554.79 2.20021 4.40286 0
M  V30 16967 N 1556.44 -1.28223 0.91633 0
M  V30 16968 C 1557.37 -2.29623 0.423735 0
M  V30 16969 C 1558.35 -1.62274 -0.510016 0
M  V30 16970 O 1559.54 -1.89666 -0.4172 0
M  V30 16971 C 1556.67 -3.45684 -0.334686 0
M  V30 16972 C 1555.62 -4.24949 0.510169 0
M  V30 16973 C 1554.95 -5.33371 -0.376745 0
M  V30 16974 C 1556.25 -4.91438 1.76877 0
M  V30 16975 H 1557.94 -2.71076 1.27115 0
M  V30 16976 H 1555.49 -1.30316 0.612678 0
M  V30 16977 H 1557.44 -4.1571 -0.690154 0
M  V30 16978 H 1556.16 -3.03118 -1.21603 0
M  V30 16979 H 1554.82 -3.56653 0.848191 0
M  V30 16980 H 1554.47 -4.87048 -1.25671 0
M  V30 16981 H 1554.17 -5.87309 0.18496 0
M  V30 16982 H 1555.69 -6.06244 -0.728039 0
M  V30 16983 H 1557.11 -5.53812 1.48205 0
M  V30 16984 H 1555.5 -5.55384 2.27308 0
M  V30 16985 H 1556.57 -4.15783 2.49505 0
M  V30 16986 N 1557.92 -0.68059 -1.42147 0
M  V30 16987 C 1559.19 -0.133957 -1.95141 0
M  V30 16988 C 1559.57 1.3526 -1.62074 0
M  V30 16989 O 1558.92 2.09165 -0.919898 0
M  V30 16990 C 1559.13 -0.409266 -3.46592 0
M  V30 16991 C 1560.48 -0.328899 -4.23324 0
M  V30 16992 O 1561.5 -0.343337 -3.54541 0
M  V30 16993 O 1560.36 -0.276076 -5.45802 0
M  V30 16994 H 1557.46 -0.00623443 -0.826977 0
M  V30 16995 H 1560 -0.755719 -1.51944 0
M  V30 16996 H 1558.78 -1.43883 -3.63887 0
M  V30 16997 H 1558.4 0.244216 -3.96849 0
M  V30 16998 N 1559.4 1.51781 -0.424309 0
M  V30 16999 C 1560.31 2.31162 0.40015 0
M  V30 17000 C 1561.32 1.39523 1.03969 0
M  V30 17001 O 1562.5 1.72597 1.0379 0
M  V30 17002 C 1559.56 3.12875 1.49366 0
M  V30 17003 C 1558.62 4.20275 0.875616 0
M  V30 17004 C 1557.86 4.98082 1.91702 0
M  V30 17005 O 1558.08 4.76365 3.13739 0
M  V30 17006 O 1557.01 5.82527 1.5148 0
M  V30 17007 H 1560.84 3.0269 -0.247529 0
M  V30 17008 H 1558.42 1.48223 -0.187146 0
M  V30 17009 H 1560.31 3.63714 2.12815 0
M  V30 17010 H 1558.98 2.44125 2.12567 0
M  V30 17011 H 1557.89 3.73546 0.203429 0
M  V30 17012 H 1559.22 4.91361 0.287306 0
M  V30 17013 N 1560.87 0.155222 1.56834 0
M  V30 17014 C 1562.1 -0.500542 2.00754 0
M  V30 17015 C 1562.52 -1.57878 1.03538 0
M  V30 17016 O 1561.87 -1.82469 0.0336651 0
M  V30 17017 C 1561.92 -1.09366 3.4456 0
M  V30 17018 O 1561.65 -0.0584788 4.38061 0
M  V30 17019 C 1563.15 -1.82923 4.038 0
M  V30 17020 H 1560.37 -0.129589 0.658368 0
M  V30 17021 H 1562.91 0.252223 2.02939 0
M  V30 17022 H 1561.07 -1.797 3.43201 0
M  V30 17023 H 1561.48 -0.494125 5.22167 0
M  V30 17024 H 1562.95 -2.19703 5.06394 0
M  V30 17025 H 1563.43 -2.71823 3.44976 0
M  V30 17026 H 1564.04 -1.17268 4.08813 0
M  V30 17027 N 1562.35 -1.57153 -0.118549 0
M  V30 17028 C 1563.26 -2.03673 -1.16424 0
M  V30 17029 C 1564.28 -0.957203 -1.45305 0
M  V30 17030 O 1565.45 -1.26874 -1.56413 0
M  V30 17031 C 1562.52 -2.43211 -2.47082 0
M  V30 17032 C 1561.58 -3.65248 -2.25593 0
M  V30 17033 C 1560.81 -4.02891 -3.50021 0
M  V30 17034 O 1561.04 -3.40871 -4.57344 0
M  V30 17035 O 1559.97 -4.95989 -3.40996 0
M  V30 17036 H 1563.8 -2.92996 -0.799206 0
M  V30 17037 H 1561.38 -1.45724 -0.329376 0
M  V30 17038 H 1563.26 -2.69374 -3.24061 0
M  V30 17039 H 1561.94 -1.57034 -2.83058 0
M  V30 17040 H 1560.84 -3.44234 -1.46471 0
M  V30 17041 H 1562.18 -4.52131 -1.94521 0
M  V30 17042 N 1563.83 0.388742 -1.5273 0
M  V30 17043 C 1565.08 1.13094 -1.67011 0
M  V30 17044 C 1565.39 1.91115 -0.416467 0
M  V30 17045 O 1566.6 2.67921 -0.43941 0
M  V30 17046 C 1565.05 2.0595 -2.95149 0
M  V30 17047 C 1564.66 1.3335 -4.27694 0
M  V30 17048 C 1566.41 2.80303 -3.18795 0
M  V30 17049 C 1564.31 2.24973 -5.46938 0
M  V30 17050 H 1563.24 0.425887 -0.622203 0
M  V30 17051 H 1565.89 0.393708 -1.79227 0
M  V30 17052 H 1564.28 2.83309 -2.7668 0
M  V30 17053 H 1565.45 0.612137 -4.56716 0
M  V30 17054 H 1563.76 0.709547 -4.1031 0
M  V30 17055 H 1566.36 3.49036 -4.05065 0
M  V30 17056 H 1566.7 3.44394 -2.33877 0
M  V30 17057 H 1567.24 2.10036 -3.37831 0
M  V30 17058 H 1563.98 1.65497 -6.34264 0
M  V30 17059 H 1563.5 2.95024 -5.22227 0
M  V30 17060 H 1565.18 2.8505 -5.80823 0
M  V30 17061 N 1565.31 1.43698 0.647203 0
M  V30 17062 C 1566.24 1.45295 1.77262 0
M  V30 17063 C 1567.25 0.34831 1.5903 0
M  V30 17064 O 1568.44 0.613106 1.6764 0
M  V30 17065 C 1565.54 1.25584 3.14773 0
M  V30 17066 C 1564.71 2.48998 3.59609 0
M  V30 17067 C 1563.77 2.24423 4.75942 0
M  V30 17068 O 1562.8 2.97813 4.85073 0
M  V30 17069 N 1564 1.26465 5.66557 0
M  V30 17070 H 1566.77 2.42311 1.76368 0
M  V30 17071 H 1564.33 1.38931 0.831247 0
M  V30 17072 H 1566.32 1.07016 3.90294 0
M  V30 17073 H 1564.89 0.369927 3.10403 0
M  V30 17074 H 1564.11 2.82951 2.74467 0
M  V30 17075 H 1565.4 3.31119 3.86313 0
M  V30 17076 H 1564.8 0.658206 5.61858 0
M  V30 17077 H 1563.35 1.13879 6.41775 0
M  V30 17078 N 1566.79 -0.886131 1.30328 0
M  V30 17079 C 1568.01 -1.67099 1.22007 0
M  V30 17080 C 1568.43 -1.87546 -0.217255 0
M  V30 17081 O 1567.79 -1.42213 -1.14375 0
M  V30 17082 C 1567.84 -3.048 1.94368 0
M  V30 17083 O 1567.56 -2.85277 3.32489 0
M  V30 17084 C 1569.06 -3.99231 1.9269 0
M  V30 17085 H 1566.28 -0.521467 0.422271 0
M  V30 17086 H 1568.82 -1.1072 1.71934 0
M  V30 17087 H 1566.98 -3.57915 1.48242 0
M  V30 17088 H 1567.39 -3.72626 3.69121 0
M  V30 17089 H 1568.87 -4.93223 2.47861 0
M  V30 17090 H 1569.34 -4.29763 0.905558 0
M  V30 17091 H 1569.95 -3.52051 2.38621 0
M  V30 17092 N 1568.26 -1.13026 -1.09832 0
M  V30 17093 C 1569.19 -0.826338 -2.18389 0
M  V30 17094 C 1570.18 0.212529 -1.68767 0
M  V30 17095 O 1571.36 0.072363 -1.94065 0
M  V30 17096 C 1568.49 -0.286991 -3.46112 0
M  V30 17097 C 1567.44 -1.25963 -4.09044 0
M  V30 17098 C 1566.77 -0.580231 -5.31542 0
M  V30 17099 C 1568.07 -2.61661 -4.5203 0
M  V30 17100 H 1569.76 -1.73408 -2.4407 0
M  V30 17101 H 1567.31 -0.835201 -1.17305 0
M  V30 17102 H 1569.26 -0.062067 -4.21354 0
M  V30 17103 H 1567.99 0.656121 -3.19942 0
M  V30 17104 H 1566.65 -1.47047 -3.35816 0
M  V30 17105 H 1566.29 0.368222 -5.0165 0
M  V30 17106 H 1565.99 -1.2291 -5.74601 0
M  V30 17107 H 1567.52 -0.36449 -6.09511 0
M  V30 17108 H 1568.93 -2.44569 -5.18516 0
M  V30 17109 H 1567.33 -3.22685 -5.05959 0
M  V30 17110 H 1568.4 -3.19637 -3.64637 0
M  V30 17111 N 1569.74 1.27735 -0.923117 0
M  V30 17112 C 1570.97 1.98394 -0.57648 0
M  V30 17113 C 1571.38 1.69093 0.848778 0
M  V30 17114 O 1570.72 0.945385 1.57506 0
M  V30 17115 C 1570.79 3.52278 -0.716984 0
M  V30 17116 C 1570.45 4.05191 -2.11351 0
M  V30 17117 C 1571.45 4.18314 -3.08722 0
M  V30 17118 C 1569.13 4.39652 -2.42922 0
M  V30 17119 C 1571.13 4.65166 -4.35774 0
M  V30 17120 C 1568.81 4.86196 -3.70211 0
M  V30 17121 C 1569.81 4.98911 -4.66451 0
M  V30 17122 O 1569.5 5.44437 -5.91476 0
M  V30 17123 H 1569.23 0.640008 -0.217636 0
M  V30 17124 H 1571.78 1.63666 -1.24107 0
M  V30 17125 H 1570.01 3.867 0.00469601 0
M  V30 17126 H 1571.7 4.04154 -0.376077 0
M  V30 17127 H 1572.47 3.91955 -2.85651 0
M  V30 17128 H 1568.35 4.29 -1.6876 0
M  V30 17129 H 1571.89 4.75006 -5.10896 0
M  V30 17130 H 1567.79 5.11997 -3.93103 0
M  V30 17131 H 1568.56 5.62701 -5.94399 0
M  V30 17132 N 1571.22 0.688118 1.41784 0
M  V30 17133 C 1572.45 0.223231 2.06195 0
M  V30 17134 C 1572.87 -1.11601 1.51416 0
M  V30 17135 O 1572.23 -1.69701 0.638059 0
M  V30 17136 C 1572.28 0.183257 3.60134 0
M  V30 17137 O 1571.38 -0.844186 4.03667 0
M  V30 17138 H 1570.72 0.110925 0.654669 0
M  V30 17139 H 1573.25 0.940882 1.81683 0
M  V30 17140 H 1573.26 0.0115951 4.07998 0
M  V30 17141 H 1571.94 1.16072 3.99375 0
M  V30 17142 H 1570.51 -0.642484 3.67323 0
M  V30 17143 N 1572.7 -1.51554 0.432352 0
M  V30 17144 C 1573.65 -2.29204 -0.396044 0
M  V30 17145 C 1574.64 -1.34846 -1.02532 0
M  V30 17146 O 1575.85 -1.52209 -0.960861 0
M  V30 17147 H 1572.22 -0.737587 -0.146525 0
M  V30 17148 H 1574.19 -2.97085 0.279781 0
M  V30 17149 C 1572.94 -3.1427 -1.4876 0
M  V30 17150 H 1572.26 -3.8676 -1.01274 0
M  V30 17151 H 1573.7 -3.71667 -2.04058 0
M  V30 17152 C 1572.16 -2.29322 -2.46806 0
M  V30 17153 O 1572.69 -1.94941 -3.51228 0
M  V30 17154 N 1570.9 -1.92641 -2.17573 0
M  V30 17155 H 1570.45 -2.208 -1.32685 0
M  V30 17156 H 1570.4 -1.361 -2.83415 0
M  V30 17157 N 1574.18 -0.163538 -1.56749 0
M  V30 17158 C 1575.09 0.782461 -2.21167 0
M  V30 17159 C 1576.1 1.25911 -1.20093 0
M  V30 17160 O 1577.28 1.31286 -1.52728 0
M  V30 17161 C 1574.34 1.99761 -2.83366 0
M  V30 17162 C 1573.4 1.56859 -3.99617 0
M  V30 17163 C 1572.64 2.72582 -4.58841 0
M  V30 17164 O 1572.86 3.89243 -4.16949 0
M  V30 17165 O 1571.79 2.47104 -5.48838 0
M  V30 17166 H 1575.62 0.264023 -3.0255 0
M  V30 17167 H 1573.21 0.06429 -1.49262 0
M  V30 17168 H 1575.09 2.70843 -3.22835 0
M  V30 17169 H 1573.76 2.50526 -2.04984 0
M  V30 17170 H 1572.67 0.827511 -3.64833 0
M  V30 17171 H 1574 1.10794 -4.79568 0
M  V30 17172 N 1575.65 1.57214 0.110213 0
M  V30 17173 C 1577.07 1.74402 0.666405 0
M  V30 17174 C 1577.42 0.783524 1.79876 0
M  V30 17175 O 1576.54 -0.0415306 2.1636 0
M  V30 17176 C 1577.14 3.1624 1.21564 0
M  V30 17177 C 1575.7 3.34904 1.71804 0
M  V30 17178 C 1574.84 2.70249 0.621347 0
M  V30 17179 H 1577.79 1.58277 -0.115765 0
M  V30 17180 H 1577.81 3.18276 2.0852 0
M  V30 17181 H 1577.33 3.86123 0.391273 0
M  V30 17182 H 1575.43 2.70077 2.56689 0
M  V30 17183 H 1575.54 4.43126 1.82143 0
M  V30 17184 H 1573.9 2.31727 1.05711 0
M  V30 17185 H 1574.69 3.42762 -0.192185 0
M  V30 17186 N 1577.13 -0.380637 1.52934 0
M  V30 17187 C 1578.08 -1.48584 1.78957 0
M  V30 17188 C 1579.07 -1.56103 0.657901 0
M  V30 17189 O 1580.28 -1.59169 0.84055 0
M  V30 17190 H 1576.66 -0.494687 0.566382 0
M  V30 17191 H 1578.63 -1.23833 2.71492 0
M  V30 17192 C 1577.38 -2.85615 1.98291 0
M  V30 17193 H 1576.7 -2.80583 2.84804 0
M  V30 17194 H 1578.14 -3.62164 2.20485 0
M  V30 17195 C 1576.6 -3.28267 0.757764 0
M  V30 17196 O 1577.13 -4.01654 -0.0608007 0
M  V30 17197 N 1575.33 -2.84641 0.585486 0
M  V30 17198 H 1574.88 -2.25087 1.25274 0
M  V30 17199 H 1574.84 -3.13536 -0.232871 0
M  V30 17200 N 1578.61 -1.44039 -0.639573 0
M  V30 17201 C 1579.84 -1.49844 -1.42669 0
M  V30 17202 C 1580.25 -0.120599 -1.88414 0
M  V30 17203 O 1579.61 0.871875 -1.60327 0
M  V30 17204 C 1579.66 -2.45597 -2.65263 0
M  V30 17205 O 1579.38 -3.78023 -2.21427 0
M  V30 17206 C 1580.88 -2.60781 -3.5848 0
M  V30 17207 H 1578.1 -0.508477 -0.437826 0
M  V30 17208 H 1580.65 -1.88919 -0.782923 0
M  V30 17209 H 1578.8 -2.09679 -3.2575 0
M  V30 17210 H 1579.22 -4.29642 -3.00846 0
M  V30 17211 H 1580.69 -3.31826 -4.4113 0
M  V30 17212 H 1581.17 -1.65727 -4.06732 0
M  V30 17213 H 1581.77 -2.97565 -3.03867 0
M  V30 17214 N 1580.09 0.879207 -1.30796 0
M  V30 17215 C 1581.04 2.00692 -1.17582 0
M  V30 17216 C 1582.03 1.6918 -0.0863163 0
M  V30 17217 O 1583.24 1.78289 -0.24757 0
M  V30 17218 H 1579.61 0.65814 -0.363808 0
M  V30 17219 H 1581.58 2.0897 -2.13012 0
M  V30 17220 C 1580.33 3.36105 -0.890429 0
M  V30 17221 H 1579.65 3.60868 -1.72088 0
M  V30 17222 H 1581.09 4.15634 -0.838103 0
M  V30 17223 C 1579.55 3.34436 0.406734 0
M  V30 17224 O 1580.08 3.7552 1.42645 0
M  V30 17225 N 1578.29 2.87549 0.419963 0
M  V30 17226 H 1577.84 2.54311 -0.410343 0
M  V30 17227 H 1577.79 2.86815 1.28781 0
M  V30 17228 N 1581.57 1.13606 1.09231 0
M  V30 17229 C 1582.82 0.893694 1.8082 0
M  V30 17230 C 1583.13 -0.581713 1.8675 0
M  V30 17231 O 1584.34 -0.941079 2.54668 0
M  V30 17232 C 1582.79 1.54932 3.24845 0
M  V30 17233 C 1582.4 3.0604 3.27175 0
M  V30 17234 C 1584.14 1.38773 4.01176 0
M  V30 17235 C 1582.05 3.64478 4.65735 0
M  V30 17236 H 1580.98 0.330699 0.677609 0
M  V30 17237 H 1583.63 1.36401 1.22748 0
M  V30 17238 H 1582.01 1.00668 3.82991 0
M  V30 17239 H 1583.19 3.66901 2.78783 0
M  V30 17240 H 1581.5 3.21739 2.64335 0
M  V30 17241 H 1584.1 1.79843 5.03548 0
M  V30 17242 H 1584.44 0.33282 4.14967 0
M  V30 17243 H 1584.98 1.90028 3.49477 0
M  V30 17244 H 1581.71 4.69785 4.57146 0
M  V30 17245 H 1581.23 3.08396 5.14444 0
M  V30 17246 H 1582.91 3.64272 5.3471 0
M  V30 17247 N 1583.05 -1.27244 0.929878 0
M  V30 17248 C 1583.98 -2.29161 0.448066 0
M  V30 17249 C 1584.96 -1.62806 -0.492776 0
M  V30 17250 O 1586.14 -1.90098 -0.39706 0
M  V30 17251 C 1583.27 -3.46019 -0.298002 0
M  V30 17252 C 1582.23 -4.24384 0.555211 0
M  V30 17253 C 1581.55 -5.33741 -0.320153 0
M  V30 17254 C 1582.85 -4.89535 1.8208 0
M  V30 17255 H 1584.55 -2.69712 1.29983 0
M  V30 17256 H 1582.09 -1.29659 0.626466 0
M  V30 17257 H 1584.04 -4.16419 -0.646024 0
M  V30 17258 H 1582.77 -3.0439 -1.18381 0
M  V30 17259 H 1581.43 -3.55733 0.885971 0
M  V30 17260 H 1581.08 -4.88354 -1.20498 0
M  V30 17261 H 1580.78 -5.8708 0.247241 0
M  V30 17262 H 1582.3 -6.06982 -0.663697 0
M  V30 17263 H 1583.71 -5.52209 1.54071 0
M  V30 17264 H 1582.11 -5.52941 2.33186 0
M  V30 17265 H 1583.18 -4.13113 2.53901 0
M  V30 17266 N 1584.52 -0.695628 -1.41417 0
M  V30 17267 C 1585.47 -0.0303383 -2.3078 0
M  V30 17268 C 1586.44 0.771218 -1.4711 0
M  V30 17269 O 1587.63 0.739239 -1.75897 0
M  V30 17270 C 1584.77 0.900034 -3.33157 0
M  V30 17271 C 1583.88 0.0900862 -4.31906 0
M  V30 17272 C 1583.01 1.01811 -5.21352 0
M  V30 17273 C 1582.05 0.201068 -6.1177 0
M  V30 17274 N 1581.19 1.0829 -6.93699 0
M  V30 17275 H 1586.03 -0.798148 -2.87113 0
M  V30 17276 H 1583.57 -0.405311 -1.41406 0
M  V30 17277 H 1585.52 1.45349 -3.91062 0
M  V30 17278 H 1584.15 1.63424 -2.78375 0
M  V30 17279 H 1583.21 -0.58029 -3.75948 0
M  V30 17280 H 1584.52 -0.543336 -4.95832 0
M  V30 17281 H 1583.67 1.64079 -5.84092 0
M  V30 17282 H 1582.41 1.68538 -4.57653 0
M  V30 17283 H 1581.42 -0.434686 -5.48079 0
M  V30 17284 H 1582.64 -0.462416 -6.77524 0
M  V30 17285 H 1580.59 1.73619 -6.32608 0
M  V30 17286 H 1580.5 0.505046 -7.54311 0
M  V30 17287 H 1581.77 1.69239 -7.60906 0
M  V30 17288 N 1586 1.51322 -0.440383 0
M  V30 17289 C 1587.28 1.94722 0.185148 0
M  V30 17290 C 1587.66 1.37922 1.59815 0
M  V30 17291 O 1587.01 0.567527 2.2134 0
M  V30 17292 C 1587.22 3.48634 0.159781 0
M  V30 17293 C 1588.56 4.23038 0.363853 0
M  V30 17294 O 1589.59 3.55406 0.237759 0
M  V30 17295 O 1588.45 5.43027 0.615137 0
M  V30 17296 H 1585.54 0.816983 0.128325 0
M  V30 17297 H 1588.09 1.62211 -0.498581 0
M  V30 17298 H 1586.86 3.8244 -0.827952 0
M  V30 17299 H 1586.48 3.87596 0.88629 0
M  V30 17300 N 1587.48 0.171848 1.5666 0
M  V30 17301 C 1588.73 -0.472968 1.96899 0
M  V30 17302 C 1589.05 -1.63217 1.05785 0
M  V30 17303 O 1588.31 -1.95483 0.0920511 0
M  V30 17304 C 1588.61 -0.99711 3.43209 0
M  V30 17305 C 1588.27 0.0462519 4.50876 0
M  V30 17306 C 1586.94 0.333002 4.80046 0
M  V30 17307 C 1589.29 0.754424 5.15711 0
M  V30 17308 C 1586.62 1.3333 5.71349 0
M  V30 17309 C 1588.97 1.74371 6.08093 0
M  V30 17310 C 1587.63 2.03791 6.3563 0
M  V30 17311 H 1586.9 -0.173071 0.720505 0
M  V30 17312 H 1589.55 0.263921 1.89673 0
M  V30 17313 H 1587.85 -1.81183 3.4739 0
M  V30 17314 H 1589.55 -1.50503 3.71685 0
M  V30 17315 H 1586.14 -0.187419 4.2819 0
M  V30 17316 H 1590.33 0.546102 4.93286 0
M  V30 17317 H 1585.58 1.56741 5.90967 0
M  V30 17318 H 1589.76 2.29782 6.57399 0
M  V30 17319 H 1587.38 2.8145 7.0618 0
M  V30 17320 N 1588.96 -1.5727 -0.101874 0
M  V30 17321 C 1590.2 -1.8689 -0.802716 0
M  V30 17322 C 1590.56 -0.761823 -1.76675 0
M  V30 17323 O 1589.85 0.236765 -1.90131 0
M  V30 17324 C 1590.05 -3.20773 -1.57605 0
M  V30 17325 C 1589.87 -4.444 -0.688408 0
M  V30 17326 C 1588.64 -5.04177 -0.336714 0
M  V30 17327 C 1590.84 -5.143 0.00161589 0
M  V30 17328 N 1588.82 -6.11342 0.559799 0
M  V30 17329 C 1590.2 -6.15368 0.756459 0
M  V30 17330 C 1592.25 -4.97842 0.0762464 0
M  V30 17331 C 1590.95 -7.01756 1.57895 0
M  V30 17332 C 1592.98 -5.84731 0.885614 0
M  V30 17333 C 1592.34 -6.85315 1.6286 0
M  V30 17334 H 1588.44 -0.733867 -0.270118 0
M  V30 17335 H 1591.02 -1.9459 -0.0655739 0
M  V30 17336 H 1589.2 -3.14138 -2.28411 0
M  V30 17337 H 1590.93 -3.38142 -2.22356 0
M  V30 17338 H 1587.68 -4.68651 -0.682844 0
M  V30 17339 H 1588.11 -6.69568 1.00041 0
M  V30 17340 H 1592.75 -4.20023 -0.483829 0
M  V30 17341 H 1590.47 -7.78971 2.15012 0
M  V30 17342 H 1594.05 -5.74058 0.945944 0
M  V30 17343 H 1592.93 -7.51384 2.2448 0
M  V30 17344 N 1590.44 0.372521 -1.53134 0
M  V30 17345 C 1591.68 1.11368 -1.68646 0
M  V30 17346 C 1592 1.90034 -0.437275 0
M  V30 17347 O 1591.27 1.88062 0.548593 0
M  V30 17348 H 1589.85 0.414129 -0.621696 0
M  V30 17349 H 1592.52 0.42082 -1.90303 0
M  V30 17350 H 1591.61 1.80738 -2.54441 0
M  V30 17351 N 1591.91 1.44376 0.631925 0
M  V30 17352 C 1592.86 1.51479 1.76513 0
M  V30 17353 C 1593.86 0.386562 1.6493 0
M  V30 17354 O 1595.06 0.561473 1.71019 0
M  V30 17355 H 1591.44 0.475318 0.582733 0
M  V30 17356 H 1593.41 2.46856 1.67644 0
M  V30 17357 C 1592.16 1.4754 3.14845 0
M  V30 17358 H 1591.48 2.3367 3.24405 0
M  V30 17359 H 1592.92 1.5657 3.94033 0
M  V30 17360 C 1591.38 0.196043 3.36329 0
M  V30 17361 O 1591.91 -0.734083 3.94936 0
M  V30 17362 N 1590.11 0.0994331 2.9043 0
M  V30 17363 H 1589.66 0.857176 2.4292 0
M  V30 17364 H 1589.62 -0.755814 3.0518 0
M  V30 17365 N 1593.39 -0.872258 1.31261 0
M  V30 17366 C 1594.62 -1.65555 1.23593 0
M  V30 17367 C 1595.03 -1.88124 -0.201532 0
M  V30 17368 O 1594.37 -1.43792 -1.14323 0
M  V30 17369 C 1594.43 -3.04726 1.90742 0
M  V30 17370 C 1594.1 -3.05276 3.40082 0
M  V30 17371 C 1595.1 -2.83401 4.35867 0
M  V30 17372 C 1592.78 -3.26469 3.81737 0
M  V30 17373 C 1594.77 -2.82697 5.71281 0
M  V30 17374 C 1592.46 -3.25393 5.17265 0
M  V30 17375 C 1593.46 -3.03533 6.11847 0
M  V30 17376 O 1593.15 -3.02297 7.44897 0
M  V30 17377 H 1592.88 -0.52296 0.428356 0
M  V30 17378 H 1595.43 -1.09717 1.73641 0
M  V30 17379 H 1593.66 -3.62281 1.35239 0
M  V30 17380 H 1595.35 -3.65265 1.7702 0
M  V30 17381 H 1596.12 -2.66812 4.05014 0
M  V30 17382 H 1592 -3.42515 3.08552 0
M  V30 17383 H 1595.54 -2.65553 6.45079 0
M  V30 17384 H 1591.44 -3.41522 5.47753 0
M  V30 17385 H 1592.21 -3.18375 7.54042 0
M  V30 17386 N 1594.87 -1.14184 -1.08627 0
M  V30 17387 C 1595.8 -0.849455 -2.17501 0
M  V30 17388 C 1596.78 0.194617 -1.68983 0
M  V30 17389 O 1597.97 0.0517757 -1.94131 0
M  V30 17390 C 1595.1 -0.323685 -3.45788 0
M  V30 17391 C 1594.05 -1.30294 -4.07685 0
M  V30 17392 C 1593.38 -0.636575 -5.30897 0
M  V30 17393 C 1594.68 -2.66441 -4.49229 0
M  V30 17394 H 1596.37 -1.75987 -2.42217 0
M  V30 17395 H 1593.92 -0.847595 -1.16412 0
M  V30 17396 H 1595.87 -0.106754 -4.21265 0
M  V30 17397 H 1594.59 0.62215 -3.20619 0
M  V30 17398 H 1593.25 -1.50601 -3.34238 0
M  V30 17399 H 1592.9 0.314995 -5.02013 0
M  V30 17400 H 1592.6 -1.28998 -5.73266 0
M  V30 17401 H 1594.12 -0.429117 -6.0909 0
M  V30 17402 H 1595.54 -2.50055 -5.15893 0
M  V30 17403 H 1593.93 -3.28033 -5.02508 0
M  V30 17404 H 1595 -3.23486 -3.61226 0
M  V30 17405 N 1596.35 1.26749 -0.936613 0
M  V30 17406 C 1597.28 2.2892 -0.460213 0
M  V30 17407 C 1598.26 1.63065 0.484135 0
M  V30 17408 O 1599.44 1.90305 0.386973 0
M  V30 17409 C 1596.57 3.46172 0.279648 0
M  V30 17410 C 1595.53 4.24083 -0.57771 0
M  V30 17411 C 1594.85 5.33903 0.291843 0
M  V30 17412 C 1596.15 4.88562 -1.84673 0
M  V30 17413 H 1597.85 2.69019 -1.31412 0
M  V30 17414 H 1595.39 1.29325 -0.633333 0
M  V30 17415 H 1597.35 4.16755 0.623931 0
M  V30 17416 H 1596.07 3.05014 1.16765 0
M  V30 17417 H 1594.73 3.55258 -0.904824 0
M  V30 17418 H 1594.38 4.88986 1.17906 0
M  V30 17419 H 1594.08 5.8694 -0.278372 0
M  V30 17420 H 1595.6 6.07326 0.631498 0
M  V30 17421 H 1597.02 5.51384 -1.56997 0
M  V30 17422 H 1595.41 5.51697 -2.36115 0
M  V30 17423 H 1596.48 4.11761 -2.56088 0
M  V30 17424 N 1597.83 0.703118 1.41046 0
M  V30 17425 C 1599.06 0.246194 2.05128 0
M  V30 17426 C 1599.46 -1.11245 1.5304 0
M  V30 17427 O 1598.81 -1.70783 0.676678 0
M  V30 17428 C 1598.87 0.134596 3.59248 0
M  V30 17429 C 1598.53 1.4265 4.34166 0
M  V30 17430 C 1599.53 2.3659 4.62948 0
M  V30 17431 C 1597.22 1.68196 4.73303 0
M  V30 17432 C 1599.21 3.54332 5.29837 0
M  V30 17433 C 1596.9 2.86223 5.39926 0
M  V30 17434 C 1597.89 3.79114 5.68121 0
M  V30 17435 O 1597.58 4.95072 6.33371 0
M  V30 17436 H 1597.31 0.110667 0.66688 0
M  V30 17437 H 1599.87 0.958407 1.81669 0
M  V30 17438 H 1598.1 -0.633453 3.81476 0
M  V30 17439 H 1599.79 -0.286131 4.0489 0
M  V30 17440 H 1600.55 2.18113 4.33188 0
M  V30 17441 H 1596.43 0.96753 4.50733 0
M  V30 17442 H 1599.98 4.26855 5.51762 0
M  V30 17443 H 1595.87 3.04614 5.69105 0
M  V30 17444 H 1596.64 4.94986 6.51868 0
M  V30 17445 N 1599.3 -1.51086 0.448402 0
M  V30 17446 C 1600.58 -1.94817 -0.174819 0
M  V30 17447 C 1600.96 -1.38767 -1.59081 0
M  V30 17448 O 1600.31 -0.579257 -2.21036 0
M  V30 17449 C 1600.52 -3.48714 -0.14129 0
M  V30 17450 C 1601.87 -4.23225 -0.341414 0
M  V30 17451 O 1602.89 -3.55527 -0.218908 0
M  V30 17452 O 1601.75 -5.43346 -0.586331 0
M  V30 17453 H 1598.84 -0.817652 -0.12399 0
M  V30 17454 H 1601.39 -1.61944 0.507177 0
M  V30 17455 H 1600.16 -3.81996 0.848222 0
M  V30 17456 H 1599.79 -3.88061 -0.865722 0
M  V30 17457 N 1600.78 -0.180154 -1.56567 0
M  V30 17458 C 1601.73 0.746666 -2.18389 0
M  V30 17459 C 1602.7 1.22058 -1.12655 0
M  V30 17460 O 1603.88 1.28716 -1.40843 0
M  V30 17461 C 1601.02 1.96688 -2.83563 0
M  V30 17462 C 1600.14 1.53572 -4.03782 0
M  V30 17463 C 1599.27 2.71028 -4.56856 0
M  V30 17464 C 1598.31 2.24445 -5.69465 0
M  V30 17465 N 1597.45 3.35026 -6.17011 0
M  V30 17466 H 1602.29 0.212707 -2.9724 0
M  V30 17467 H 1599.83 0.093256 -1.46804 0
M  V30 17468 H 1601.78 2.68269 -3.19511 0
M  V30 17469 H 1600.41 2.4744 -2.073 0
M  V30 17470 H 1599.47 0.716323 -3.73595 0
M  V30 17471 H 1600.78 1.15385 -4.85271 0
M  V30 17472 H 1599.93 3.50753 -4.95032 0
M  V30 17473 H 1598.67 3.1248 -3.74443 0
M  V30 17474 H 1597.68 1.43169 -5.30832 0
M  V30 17475 H 1598.9 1.84041 -6.53686 0
M  V30 17476 H 1596.85 3.76037 -5.37524 0
M  V30 17477 H 1596.76 3.0096 -6.93512 0
M  V30 17478 H 1598.03 4.15009 -6.59839 0
M  V30 17479 N 1602.26 1.57322 0.0935319 0
M  V30 17480 C 1603.17 2.05499 1.13169 0
M  V30 17481 C 1604.19 0.980199 1.43764 0
M  V30 17482 O 1605.36 1.29347 1.54374 0
M  V30 17483 C 1602.43 2.47111 2.43181 0
M  V30 17484 C 1601.49 3.68791 2.19754 0
M  V30 17485 C 1600.72 4.08408 3.43567 0
M  V30 17486 O 1600.94 3.48104 4.51863 0
M  V30 17487 O 1599.88 5.01351 3.33062 0
M  V30 17488 H 1603.7 2.9423 0.752491 0
M  V30 17489 H 1601.29 1.4623 0.306151 0
M  V30 17490 H 1603.17 2.74495 3.19735 0
M  V30 17491 H 1601.85 1.61518 2.80524 0
M  V30 17492 H 1600.75 3.46521 1.40976 0
M  V30 17493 H 1602.09 4.55169 1.87303 0
M  V30 17494 N 1603.74 -0.364395 1.53329 0
M  V30 17495 C 1604.97 -1.12586 1.73228 0
M  V30 17496 C 1605.38 -1.83482 0.461614 0
M  V30 17497 O 1604.72 -1.74459 -0.575295 0
M  V30 17498 C 1604.78 -2.1994 2.84371 0
M  V30 17499 C 1604.45 -1.688 4.24683 0
M  V30 17500 C 1605.44 -1.15145 5.06989 0
M  V30 17501 C 1603.13 -1.74277 4.71097 0
M  V30 17502 C 1605.12 -0.676447 6.338 0
M  V30 17503 C 1602.81 -1.26389 5.97887 0
M  V30 17504 C 1603.81 -0.731632 6.7907 0
M  V30 17505 O 1603.49 -0.259825 8.0348 0
M  V30 17506 H 1603.23 -0.342514 0.582804 0
M  V30 17507 H 1605.78 -0.428832 2.00874 0
M  V30 17508 H 1604.01 -2.9314 2.52202 0
M  V30 17509 H 1605.7 -2.81489 2.92436 0
M  V30 17510 H 1606.47 -1.10251 4.72303 0
M  V30 17511 H 1602.34 -2.14647 4.0798 0
M  V30 17512 H 1605.89 -0.260327 6.97114 0
M  V30 17513 H 1601.79 -1.30977 6.32072 0
M  V30 17514 H 1602.55 -0.379044 8.17622 0
M  V30 17515 N 1605.22 -1.44709 -0.62426 0
M  V30 17516 C 1606.45 -1.51129 -1.40867 0
M  V30 17517 C 1606.85 -0.1371 -1.88703 0
M  V30 17518 O 1606.2 0.868546 -1.6187 0
M  V30 17519 C 1606.26 -2.42015 -2.65836 0
M  V30 17520 C 1605.92 -3.89061 -2.39752 0
M  V30 17521 C 1606.92 -4.79411 -2.01151 0
M  V30 17522 C 1604.61 -4.33827 -2.53179 0
M  V30 17523 C 1606.6 -6.12529 -1.76314 0
M  V30 17524 C 1604.29 -5.66991 -2.27957 0
M  V30 17525 C 1605.28 -6.56161 -1.89584 0
M  V30 17526 O 1604.97 -7.86859 -1.64647 0
M  V30 17527 H 1604.7 -0.514731 -0.43821 0
M  V30 17528 H 1607.26 -1.90421 -0.770008 0
M  V30 17529 H 1605.49 -1.97663 -3.32365 0
M  V30 17530 H 1607.18 -2.39306 -3.27852 0
M  V30 17531 H 1607.94 -4.46095 -1.90328 0
M  V30 17532 H 1603.82 -3.64675 -2.82016 0
M  V30 17533 H 1607.37 -6.82089 -1.46288 0
M  V30 17534 H 1603.26 -5.99866 -2.38392 0
M  V30 17535 H 1604.03 -7.98724 -1.78837 0
M  V30 17536 N 1606.69 0.865285 -1.31722 0
M  V30 17537 C 1607.62 1.98871 -1.22362 0
M  V30 17538 C 1608.61 1.69745 -0.109779 0
M  V30 17539 O 1609.79 1.91944 -0.295167 0
M  V30 17540 C 1606.92 3.34477 -0.935 0
M  V30 17541 C 1605.87 3.77924 -2.00892 0
M  V30 17542 C 1605.2 5.11042 -1.57291 0
M  V30 17543 C 1606.5 3.94528 -3.42264 0
M  V30 17544 H 1608.19 2.06959 -2.16352 0
M  V30 17545 H 1605.74 0.994355 -1.04157 0
M  V30 17546 H 1607.69 4.12612 -0.856111 0
M  V30 17547 H 1606.42 3.26575 0.0405536 0
M  V30 17548 H 1605.08 3.02032 -2.07779 0
M  V30 17549 H 1604.72 4.99586 -0.585084 0
M  V30 17550 H 1604.42 5.41082 -2.29138 0
M  V30 17551 H 1605.95 5.91681 -1.50818 0
M  V30 17552 H 1607.36 4.63045 -3.38027 0
M  V30 17553 H 1605.76 4.35972 -4.12369 0
M  V30 17554 H 1606.83 2.97765 -3.82706 0
M  V30 17555 N 1608.17 1.14759 1.0802 0
M  V30 17556 C 1609.1 0.860977 2.17047 0
M  V30 17557 C 1610.08 -0.185652 1.69084 0
M  V30 17558 O 1611.27 -0.0414797 1.94156 0
M  V30 17559 C 1608.4 0.342018 3.45612 0
M  V30 17560 C 1607.35 1.32455 4.06989 0
M  V30 17561 C 1606.68 0.664721 5.30552 0
M  V30 17562 C 1607.98 2.68819 4.4781 0
M  V30 17563 H 1609.67 1.77269 2.4128 0
M  V30 17564 H 1607.22 0.853757 1.15961 0
M  V30 17565 H 1609.17 0.129093 4.21202 0
M  V30 17566 H 1607.9 -0.605138 3.20945 0
M  V30 17567 H 1606.55 1.52371 3.33435 0
M  V30 17568 H 1606.2 -0.288367 5.02173 0
M  V30 17569 H 1605.9 1.32036 5.72573 0
M  V30 17570 H 1607.43 0.461412 6.08854 0
M  V30 17571 H 1608.84 2.52787 5.14559 0
M  V30 17572 H 1607.24 3.30694 5.00761 0
M  V30 17573 H 1608.31 3.25398 3.59506 0
M  V30 17574 N 1609.65 -1.26251 0.943322 0
M  V30 17575 C 1610.6 -2.28295 0.445441 0
M  V30 17576 C 1611.59 -1.62504 -0.478401 0
M  V30 17577 O 1612.8 -1.76437 -0.356378 0
M  V30 17578 H 1609.17 -0.741451 0.125517 0
M  V30 17579 H 1611.14 -2.67687 1.31858 0
M  V30 17580 C 1609.89 -3.46635 -0.271987 0
M  V30 17581 H 1609.22 -3.97484 0.429734 0
M  V30 17582 H 1610.66 -4.19951 -0.584544 0
M  V30 17583 C 1609.12 -3.02133 -1.49054 0
M  V30 17584 O 1609.65 -3.07158 -2.58876 0
M  V30 17585 N 1607.85 -2.57451 -1.34787 0
M  V30 17586 H 1607.4 -2.53562 -0.454347 0
M  V30 17587 H 1607.36 -2.28039 -2.16438 0
M  V30 17588 N 1611.13 -0.710588 -1.40671 0
M  V30 17589 C 1612.38 -0.248316 -2.01274 0
M  V30 17590 C 1612.71 1.1539 -1.56201 0
M  V30 17591 O 1611.98 1.78182 -0.779838 0
M  V30 17592 C 1612.27 -0.322762 -3.58651 0
M  V30 17593 C 1612.12 -1.763 -4.1381 0
M  V30 17594 C 1613.44 0.308908 -4.39015 0
M  V30 17595 H 1610.56 -0.0917037 -0.731272 0
M  V30 17596 H 1613.2 -0.902145 -1.67216 0
M  V30 17597 H 1611.35 0.233923 -3.87795 0
M  V30 17598 H 1613.02 -2.37468 -3.95483 0
M  V30 17599 H 1611.26 -2.29233 -3.68286 0
M  V30 17600 H 1611.94 -1.76652 -5.22971 0
M  V30 17601 H 1614.41 -0.165363 -4.15771 0
M  V30 17602 H 1613.29 0.226347 -5.48433 0
M  V30 17603 H 1613.55 1.39174 -4.19622 0
M  V30 17604 N 1612.61 1.50847 -0.456408 0
M  V30 17605 C 1613.54 2.31077 0.335523 0
M  V30 17606 C 1614.52 1.37326 1.00377 0
M  V30 17607 O 1615.7 1.66247 1.00376 0
M  V30 17608 C 1612.83 3.16662 1.42627 0
M  V30 17609 C 1611.79 4.18846 0.88045 0
M  V30 17610 C 1611.11 4.93074 2.06838 0
M  V30 17611 C 1612.41 5.22208 -0.0982288 0
M  V30 17612 H 1614.11 2.97531 -0.334056 0
M  V30 17613 H 1611.65 1.43085 -0.162099 0
M  V30 17614 H 1613.61 3.71578 1.98765 0
M  V30 17615 H 1612.33 2.48066 2.12441 0
M  V30 17616 H 1610.99 3.65009 0.341147 0
M  V30 17617 H 1610.64 4.20963 2.75316 0
M  V30 17618 H 1610.34 5.62184 1.70947 0
M  V30 17619 H 1611.86 5.5082 2.63494 0
M  V30 17620 H 1613.28 5.72082 0.373481 0
M  V30 17621 H 1611.67 5.98954 -0.370674 0
M  V30 17622 H 1612.74 4.73859 -1.02887 0
M  V30 17623 N 1614.09 0.188454 1.56469 0
M  V30 17624 C 1615.03 -0.735074 2.18781 0
M  V30 17625 C 1616 -1.21459 1.133 0
M  V30 17626 O 1617.19 -1.27967 1.41524 0
M  V30 17627 C 1614.33 -1.95181 2.84602 0
M  V30 17628 C 1613.44 -1.51428 4.0459 0
M  V30 17629 C 1612.58 -2.68601 4.58287 0
M  V30 17630 C 1611.61 -2.21422 5.70648 0
M  V30 17631 N 1610.75 -3.31749 6.18779 0
M  V30 17632 H 1615.59 -0.19694 2.97349 0
M  V30 17633 H 1613.13 -0.0854693 1.46851 0
M  V30 17634 H 1615.09 -2.66571 3.2093 0
M  V30 17635 H 1613.72 -2.46337 2.0861 0
M  V30 17636 H 1612.77 -0.6965 3.73969 0
M  V30 17637 H 1614.08 -1.1281 4.85876 0
M  V30 17638 H 1613.23 -3.48123 4.96885 0
M  V30 17639 H 1611.97 -3.1049 3.76095 0
M  V30 17640 H 1610.98 -1.40352 5.31584 0
M  V30 17641 H 1612.2 -1.80572 6.54653 0
M  V30 17642 H 1610.15 -3.73181 5.39511 0
M  V30 17643 H 1610.07 -2.97277 6.95099 0
M  V30 17644 H 1611.33 -4.11504 6.62031 0
M  V30 17645 N 1615.56 -1.5737 -0.0851874 0
M  V30 17646 C 1616.97 -1.7544 -0.638575 0
M  V30 17647 C 1617.33 -0.812041 -1.78607 0
M  V30 17648 O 1616.45 0.00710428 -2.16399 0
M  V30 17649 C 1617.05 -3.18134 -1.16517 0
M  V30 17650 C 1615.6 -3.37594 -1.66454 0
M  V30 17651 C 1614.75 -2.71203 -0.578274 0
M  V30 17652 H 1617.7 -1.58073 0.140931 0
M  V30 17653 H 1617.72 -3.21553 -2.0343 0
M  V30 17654 H 1617.24 -3.86696 -0.329794 0
M  V30 17655 H 1615.34 -2.74126 -2.5236 0
M  V30 17656 H 1615.45 -4.45968 -1.75071 0
M  V30 17657 H 1613.81 -2.33379 -1.02011 0
M  V30 17658 H 1614.6 -3.42413 0.246691 0
M  V30 17659 N 1617.04 0.356258 -1.53521 0
M  V30 17660 C 1617.99 1.45718 -1.81298 0
M  V30 17661 C 1618.98 1.55036 -0.682652 0
M  V30 17662 O 1620.19 1.57812 -0.865766 0
M  V30 17663 H 1616.56 0.485614 -0.57418 0
M  V30 17664 H 1618.54 1.19498 -2.73428 0
M  V30 17665 C 1617.28 2.82424 -2.0281 0
M  V30 17666 H 1616.61 2.76016 -2.89232 0
M  V30 17667 H 1618.05 3.5861 -2.26218 0
M  V30 17668 C 1616.51 3.2702 -0.809893 0
M  V30 17669 O 1617.04 4.017 -0.00310668 0
M  V30 17670 N 1615.24 2.83673 -0.630696 0
M  V30 17671 H 1614.79 2.23066 -1.28839 0
M  V30 17672 H 1614.75 3.13867 0.182961 0
M  V30 17673 N 1618.52 1.45038 0.616577 0
M  V30 17674 C 1619.47 1.53343 1.74896 0
M  V30 17675 C 1620.46 0.404033 1.64511 0
M  V30 17676 O 1621.67 0.57958 1.70414 0
M  V30 17677 H 1618.04 0.481471 0.577658 0
M  V30 17678 H 1620.01 2.4862 1.65017 0
M  V30 17679 C 1618.76 1.50871 3.13262 0
M  V30 17680 H 1618.09 2.37098 3.21908 0
M  V30 17681 H 1619.53 1.60741 3.9235 0
M  V30 17682 C 1617.98 0.231704 3.36102 0
M  V30 17683 O 1618.51 -0.692154 3.95692 0
M  V30 17684 N 1616.72 0.130232 2.90308 0
M  V30 17685 H 1616.27 0.882893 2.41997 0
M  V30 17686 H 1616.23 -0.723403 3.05964 0
M  V30 17687 N 1620 -0.858287 1.32179 0
M  V30 17688 C 1621.24 -1.61221 1.22532 0
M  V30 17689 C 1621.57 -1.93322 -0.213739 0
M  V30 17690 O 1620.83 -1.5719 -1.16575 0
M  V30 17691 C 1621.13 -2.94391 2.02654 0
M  V30 17692 C 1620.79 -2.81735 3.52046 0
M  V30 17693 C 1619.45 -2.7799 3.92778 0
M  V30 17694 C 1621.81 -2.67928 4.47062 0
M  V30 17695 C 1619.13 -2.58312 5.26775 0
M  V30 17696 C 1621.49 -2.49785 5.81197 0
M  V30 17697 C 1620.15 -2.44431 6.21136 0
M  V30 17698 H 1619.42 -0.589949 0.448376 0
M  V30 17699 H 1622.07 -0.995897 1.63567 0
M  V30 17700 H 1620.37 -3.60122 1.54336 0
M  V30 17701 H 1622.07 -3.5174 1.92561 0
M  V30 17702 H 1618.66 -2.85472 3.19693 0
M  V30 17703 H 1622.84 -2.69868 4.16515 0
M  V30 17704 H 1618.1 -2.526 5.56779 0
M  V30 17705 H 1622.27 -2.38081 6.54439 0
M  V30 17706 H 1619.9 -2.28943 7.24906 0
M  V30 17707 N 1621.48 -1.1533 -1.07409 0
M  V30 17708 C 1622.72 -0.922348 -1.79376 0
M  V30 17709 C 1623.04 0.551929 -1.87652 0
M  V30 17710 O 1624.24 0.900444 -2.56133 0
M  V30 17711 C 1622.7 -1.60081 -3.22339 0
M  V30 17712 C 1622.31 -3.11206 -3.22265 0
M  V30 17713 C 1624.05 -1.45138 -3.98917 0
M  V30 17714 C 1621.96 -3.71842 -4.59878 0
M  V30 17715 H 1620.89 -0.341438 -0.672262 0
M  V30 17716 H 1623.54 -1.38336 -1.20562 0
M  V30 17717 H 1621.92 -1.06748 -3.81341 0
M  V30 17718 H 1623.1 -3.7129 -2.72911 0
M  V30 17719 H 1621.41 -3.25903 -2.59183 0
M  V30 17720 H 1624.01 -1.87832 -5.00623 0
M  V30 17721 H 1624.35 -0.398796 -4.14385 0
M  V30 17722 H 1624.88 -1.95564 -3.46409 0
M  V30 17723 H 1621.62 -4.76998 -4.49614 0
M  V30 17724 H 1621.14 -3.16541 -5.09472 0
M  V30 17725 H 1622.82 -3.72733 -5.28847 0
M  V30 17726 N 1622.95 1.25748 -0.950004 0
M  V30 17727 C 1624.23 1.88566 -0.519839 0
M  V30 17728 C 1624.61 1.85761 1.00279 0
M  V30 17729 O 1623.96 1.31797 1.8666 0
M  V30 17730 C 1624.17 3.31502 -1.09121 0
M  V30 17731 C 1625.52 4.08298 -1.16524 0
M  V30 17732 O 1626.54 3.40605 -1.04243 0
M  V30 17733 O 1625.4 5.29375 -1.35735 0
M  V30 17734 H 1622.49 0.809175 -0.170777 0
M  V30 17735 H 1625.04 1.33853 -1.04314 0
M  V30 17736 H 1623.81 3.2795 -2.13458 0
M  V30 17737 H 1623.43 3.93765 -0.550881 0
M  V30 17738 N 1624.43 0.718038 1.40292 0
M  V30 17739 C 1625.85 0.391848 1.54715 0
M  V30 17740 C 1626.05 -1.09911 1.68884 0
M  V30 17741 O 1625.1 -1.88518 1.6798 0
M  V30 17742 C 1626.42 1.16005 2.77423 0
M  V30 17743 C 1627.96 1.14659 2.91243 0
M  V30 17744 C 1628.44 1.897 4.16867 0
M  V30 17745 N 1629.93 1.86781 4.23872 0
M  V30 17746 C 1630.67 2.41665 5.19986 0
M  V30 17747 N 1630.16 3.05116 6.21994 0
M  V30 17748 N 1631.95 2.31794 5.12082 0
M  V30 17749 H 1624.11 1.68477 1.29342 0
M  V30 17750 H 1626.37 0.712248 0.625625 0
M  V30 17751 H 1626.07 2.21435 2.73239 0
M  V30 17752 H 1625.95 0.75328 3.69602 0
M  V30 17753 H 1628.34 0.100477 2.94929 0
M  V30 17754 H 1628.42 1.5926 2.00175 0
M  V30 17755 H 1628.06 2.94303 4.13942 0
M  V30 17756 H 1627.99 1.42518 5.06948 0
M  V30 17757 H 1630.48 1.40541 3.50794 0
M  V30 17758 H 1630.79 3.44505 6.91763 0
M  V30 17759 H 1629.14 3.09201 6.22431 0
M  V30 17760 H 1632.33 1.81879 4.31321 0
M  V30 17761 H 1632.5 2.74868 5.86815 0
M  V30 17762 N 1625.91 -1.50602 0.464402 0
M  V30 17763 C 1627.33 -1.59162 0.118173 0
M  V30 17764 C 1627.53 -1.47313 -1.37481 0
M  V30 17765 O 1626.58 -1.32819 -2.14745 0
M  V30 17766 C 1627.9 -2.93313 0.662411 0
M  V30 17767 C 1629.44 -3.06692 0.625244 0
M  V30 17768 C 1629.92 -4.43407 1.14691 0
M  V30 17769 N 1631.41 -4.49801 1.10604 0
M  V30 17770 C 1632.14 -5.53964 1.48026 0
M  V30 17771 N 1631.64 -6.65413 1.92865 0
M  V30 17772 N 1633.43 -5.44471 1.39671 0
M  V30 17773 H 1625.58 -1.56548 1.4355 0
M  V30 17774 H 1627.85 -0.739451 0.593225 0
M  V30 17775 H 1627.55 -3.07439 1.70805 0
M  V30 17776 H 1627.43 -3.77061 0.102251 0
M  V30 17777 H 1629.81 -2.92217 -0.411466 0
M  V30 17778 H 1629.9 -2.24717 1.22213 0
M  V30 17779 H 1629.54 -4.5863 2.18222 0
M  V30 17780 H 1629.47 -5.23963 0.526306 0
M  V30 17781 H 1631.96 -3.69824 0.77709 0
M  V30 17782 H 1632.27 -7.40947 2.19585 0
M  V30 17783 H 1630.62 -6.66551 1.96812 0
M  V30 17784 H 1633.81 -4.56289 1.04487 0
M  V30 17785 H 1633.98 -6.25531 1.69161 0
M  V30 17786 N 1627.39 -0.19675 -1.56367 0
M  V30 17787 C 1628.34 0.723461 -2.19168 0
M  V30 17788 C 1629.31 1.20856 -1.13943 0
M  V30 17789 O 1630.49 1.27215 -1.42201 0
M  V30 17790 C 1627.63 1.93669 -2.85633 0
M  V30 17791 C 1626.74 1.49281 -4.05388 0
M  V30 17792 C 1625.88 2.66167 -4.59705 0
M  V30 17793 C 1624.92 2.18393 -5.71814 0
M  V30 17794 N 1624.05 3.28462 -6.20529 0
M  V30 17795 H 1628.89 0.181169 -2.97449 0
M  V30 17796 H 1626.43 0.0776802 -1.46895 0
M  V30 17797 H 1628.39 2.64865 -3.22339 0
M  V30 17798 H 1627.02 2.45227 -2.09913 0
M  V30 17799 H 1626.07 0.676658 -3.74333 0
M  V30 17800 H 1627.38 1.10231 -4.86467 0
M  V30 17801 H 1626.54 3.45483 -4.98725 0
M  V30 17802 H 1625.28 3.08491 -3.77736 0
M  V30 17803 H 1624.28 1.37531 -5.32321 0
M  V30 17804 H 1625.51 1.77097 -6.55602 0
M  V30 17805 H 1623.45 3.70315 -5.41482 0
M  V30 17806 H 1623.37 2.93587 -6.96665 0
M  V30 17807 H 1624.64 4.07988 -6.64204 0
M  V30 17808 N 1628.87 1.57413 0.0768405 0
M  V30 17809 C 1630.14 1.78056 0.809663 0
M  V30 17810 C 1630.52 0.783053 1.9604 0
M  V30 17811 O 1629.87 -0.184836 2.27751 0
M  V30 17812 C 1630.08 3.24391 1.2873 0
M  V30 17813 C 1631.43 3.88082 1.72272 0
M  V30 17814 O 1632.45 3.28251 1.38309 0
M  V30 17815 O 1631.31 4.93329 2.35135 0
M  V30 17816 H 1628.41 0.730553 0.387584 0
M  V30 17817 H 1630.95 1.69603 0.057307 0
M  V30 17818 H 1629.72 3.88543 0.463678 0
M  V30 17819 H 1629.35 3.37548 2.10112 0
M  V30 17820 N 1630.34 -0.348112 1.53707 0
M  V30 17821 C 1631.57 -1.11346 1.74976 0
M  V30 17822 C 1631.99 -1.81726 0.485525 0
M  V30 17823 O 1631.35 -1.72384 -0.561565 0
M  V30 17824 C 1631.4 -2.10611 2.92703 0
M  V30 17825 O 1630.5 -3.18042 2.62532 0
M  V30 17826 H 1629.85 -0.322247 0.580563 0
M  V30 17827 H 1632.38 -0.399898 2.00654 0
M  V30 17828 H 1632.39 -2.53912 3.19363 0
M  V30 17829 H 1631.06 -1.58782 3.84397 0
M  V30 17830 H 1629.64 -2.79591 2.46746 0
M  V30 17831 N 1631.82 -1.45363 -0.608876 0
M  V30 17832 C 1633.05 -1.52836 -1.39459 0
M  V30 17833 C 1633.47 -0.160537 -1.88116 0
M  V30 17834 O 1632.82 0.837671 -1.6214 0
M  V30 17835 C 1632.87 -2.51168 -2.59994 0
M  V30 17836 O 1632.59 -3.82635 -2.13359 0
M  V30 17837 C 1634.1 -2.68326 -3.52868 0
M  V30 17838 H 1631.32 -0.51765 -0.426942 0
M  V30 17839 H 1633.86 -1.90538 -0.742674 0
M  V30 17840 H 1632.01 -2.16542 -3.2123 0
M  V30 17841 H 1632.43 -4.35927 -2.91665 0
M  V30 17842 H 1633.9 -3.41109 -4.33992 0
M  V30 17843 H 1634.38 -1.74317 -4.03126 0
M  V30 17844 H 1634.99 -3.03943 -2.97487 0
M  V30 17845 N 1633.3 0.851265 -1.32632 0
M  V30 17846 C 1634.23 1.97562 -1.24465 0
M  V30 17847 C 1635.21 1.69619 -0.127777 0
M  V30 17848 O 1636.4 1.9162 -0.315509 0
M  V30 17849 C 1633.53 3.33467 -0.970423 0
M  V30 17850 C 1632.48 3.75772 -2.0489 0
M  V30 17851 C 1631.81 5.09345 -1.62702 0
M  V30 17852 C 1633.11 3.90876 -3.4643 0
M  V30 17853 H 1634.8 2.04653 -2.18535 0
M  V30 17854 H 1632.35 0.983252 -1.05205 0
M  V30 17855 H 1634.3 4.11681 -0.899825 0
M  V30 17856 H 1633.02 3.26599 0.00591373 0
M  V30 17857 H 1631.68 2.99812 -2.1097 0
M  V30 17858 H 1631.33 4.98937 -0.638039 0
M  V30 17859 H 1631.03 5.38621 -2.34864 0
M  V30 17860 H 1632.55 5.90048 -1.57085 0
M  V30 17861 H 1633.97 4.59434 -3.42919 0
M  V30 17862 H 1632.37 4.31574 -4.1697 0
M  V30 17863 H 1633.44 2.93689 -3.85843 0
M  V30 17864 N 1634.78 1.15898 1.06796 0
M  V30 17865 C 1636 0.961859 1.83747 0
M  V30 17866 C 1636.43 -0.48494 1.81741 0
M  V30 17867 O 1635.79 -1.3461 1.21449 0
M  V30 17868 C 1635.83 1.48764 3.28484 0
M  V30 17869 O 1634.94 0.690576 4.06577 0
M  V30 17870 H 1634.28 0.342664 0.568751 0
M  V30 17871 H 1636.81 1.54015 1.34687 0
M  V30 17872 H 1636.82 1.50291 3.79311 0
M  V30 17873 H 1635.49 2.54089 3.29259 0
M  V30 17874 H 1634.07 0.74539 3.65374 0
M  V30 17875 N 1636.26 -1.25243 0.956659 0
M  V30 17876 C 1637.51 -1.92312 0.608196 0
M  V30 17877 C 1637.82 -1.75726 -0.859058 0
M  V30 17878 O 1639.02 -2.37386 -1.31757 0
M  V30 17879 C 1637.48 -3.44634 1.03708 0
M  V30 17880 C 1637.09 -3.69927 2.52702 0
M  V30 17881 C 1638.83 -4.17619 0.761242 0
M  V30 17882 C 1636.74 -5.15765 2.8938 0
M  V30 17883 H 1635.67 -0.720033 0.22376 0
M  V30 17884 H 1638.32 -1.42071 1.16138 0
M  V30 17885 H 1636.7 -3.93848 0.412287 0
M  V30 17886 H 1637.88 -3.31357 3.20217 0
M  V30 17887 H 1636.19 -3.10207 2.77778 0
M  V30 17888 H 1638.79 -5.25047 1.01141 0
M  V30 17889 H 1639.13 -4.152 -0.302375 0
M  V30 17890 H 1639.66 -3.74319 1.34648 0
M  V30 17891 H 1636.4 -5.23296 3.94767 0
M  V30 17892 H 1635.92 -5.55374 2.26539 0
M  V30 17893 H 1637.6 -5.83905 2.78683 0
M  V30 17894 N 1637.73 -0.725468 -1.3991 0
M  V30 17895 C 1638.68 -0.0682776 -2.325 0
M  V30 17896 C 1639.68 0.736285 -1.52562 0
M  V30 17897 O 1640.88 0.638542 -1.68293 0
M  V30 17898 H 1637.26 -0.00327742 -0.751993 0
M  V30 17899 H 1639.23 -0.865735 -2.85565 0
M  V30 17900 C 1637.98 0.832036 -3.37598 0
M  V30 17901 H 1637.3 0.222341 -3.99181 0
M  V30 17902 H 1638.74 1.25965 -4.04856 0
M  V30 17903 C 1637.2 1.96201 -2.73874 0
M  V30 17904 O 1637.73 3.05378 -2.60974 0
M  V30 17905 N 1635.94 1.74857 -2.32106 0
M  V30 17906 H 1635.48 0.860621 -2.42798 0
M  V30 17907 H 1635.44 2.50639 -1.89808 0
M  V30 17908 N 1639.21 1.50354 -0.472382 0
M  V30 17909 C 1640.16 2.30173 0.335135 0
M  V30 17910 C 1641.15 1.37517 0.98921 0
M  V30 17911 O 1642.36 1.54703 0.920168 0
M  V30 17912 H 1638.74 0.741212 0.126918 0
M  V30 17913 H 1640.71 2.96239 -0.358449 0
M  V30 17914 C 1639.46 3.18104 1.40375 0
M  V30 17915 H 1638.78 3.8931 0.90984 0
M  V30 17916 H 1640.22 3.76947 1.94132 0
M  V30 17917 C 1638.68 2.35785 2.40639 0
M  V30 17918 O 1639.21 2.04185 3.45936 0
M  V30 17919 N 1637.41 1.98342 2.12389 0
M  V30 17920 H 1636.96 2.2424 1.26784 0
M  V30 17921 H 1636.92 1.43567 2.79707 0
M  V30 17922 N 1640.69 0.205039 1.56261 0
M  V30 17923 C 1641.94 -0.431364 1.97033 0
M  V30 17924 C 1642.25 -1.62066 1.09517 0
M  V30 17925 O 1643.46 -2.32551 1.40116 0
M  V30 17926 C 1641.92 -0.818841 3.50461 0
M  V30 17927 C 1641.52 0.346723 4.46656 0
M  V30 17928 C 1643.27 -1.42177 3.99982 0
M  V30 17929 C 1641.17 -0.0622677 5.91367 0
M  V30 17930 H 1640.1 -0.164934 0.73574 0
M  V30 17931 H 1642.76 0.298635 1.81054 0
M  V30 17932 H 1641.14 -1.60579 3.61981 0
M  V30 17933 H 1642.31 1.12427 4.46874 0
M  V30 17934 H 1640.63 0.861799 4.07384 0
M  V30 17935 H 1643.22 -1.74039 5.05583 0
M  V30 17936 H 1643.57 -2.33177 3.44868 0
M  V30 17937 H 1644.1 -0.698591 3.91618 0
M  V30 17938 H 1640.84 0.813802 6.50429 0
M  V30 17939 H 1640.36 -0.804474 5.94381 0
M  V30 17940 H 1642.04 -0.49466 6.45106 0
M  V30 17941 N 1642.17 -1.57451 -0.0684915 0
M  V30 17942 C 1643.59 -1.53883 -0.423354 0
M  V30 17943 C 1643.79 -0.925698 -1.78978 0
M  V30 17944 O 1642.84 -0.529629 -2.46883 0
M  V30 17945 C 1644.15 -2.98521 -0.361386 0
M  V30 17946 C 1645.7 -3.09873 -0.441334 0
M  V30 17947 C 1646.18 -4.56168 -0.409239 0
M  V30 17948 N 1647.67 -4.60817 -0.469216 0
M  V30 17949 C 1648.4 -5.71498 -0.466648 0
M  V30 17950 N 1647.9 -6.91534 -0.4187 0
M  V30 17951 N 1649.69 -5.5975 -0.513452 0
M  V30 17952 H 1641.84 -1.95672 0.8262 0
M  V30 17953 H 1644.11 -0.895759 0.310354 0
M  V30 17954 H 1643.81 -3.46951 0.576035 0
M  V30 17955 H 1643.69 -3.58585 -1.17032 0
M  V30 17956 H 1646.07 -2.61414 -1.36918 0
M  V30 17957 H 1646.15 -2.52712 0.396237 0
M  V30 17958 H 1645.8 -5.05285 0.514772 0
M  V30 17959 H 1645.73 -5.11195 -1.26439 0
M  V30 17960 H 1648.22 -3.74438 -0.510387 0
M  V30 17961 H 1648.53 -7.71654 -0.420757 0
M  V30 17962 H 1646.88 -6.93931 -0.385338 0
M  V30 17963 H 1650.07 -4.64874 -0.548626 0
M  V30 17964 H 1650.24 -6.46006 -0.507982 0
M  V30 17965 N 1643.65 0.339955 -1.5389 0
M  V30 17966 C 1644.87 1.10417 -1.75564 0
M  V30 17967 C 1645.3 1.81466 -0.495156 0
M  V30 17968 O 1644.66 1.72679 0.552415 0
M  V30 17969 C 1644.7 2.09056 -2.93816 0
M  V30 17970 O 1643.81 3.16645 -2.64215 0
M  V30 17971 H 1643.15 0.319164 -0.582263 0
M  V30 17972 H 1645.68 0.389251 -2.00863 0
M  V30 17973 H 1645.69 2.52215 -3.20705 0
M  V30 17974 H 1644.36 1.56741 -3.85234 0
M  V30 17975 H 1642.94 2.78278 -2.48225 0
M  V30 17976 N 1645.13 1.45684 0.601159 0
M  V30 17977 C 1646.35 1.53574 1.38646 0
M  V30 17978 C 1646.77 0.170511 1.88028 0
M  V30 17979 O 1646.13 -0.829061 1.62582 0
M  V30 17980 C 1646.18 2.52543 2.58658 0
M  V30 17981 O 1645.9 3.83761 2.11327 0
M  V30 17982 C 1647.4 2.70194 3.5144 0
M  V30 17983 H 1644.62 0.519907 0.424191 0
M  V30 17984 H 1647.16 1.90929 0.732559 0
M  V30 17985 H 1645.32 2.18242 3.20077 0
M  V30 17986 H 1645.73 4.37467 2.89349 0
M  V30 17987 H 1647.21 3.43405 4.32177 0
M  V30 17988 H 1647.68 1.76452 4.02196 0
M  V30 17989 H 1648.29 3.05517 2.95871 0
M  V30 17990 N 1646.6 -0.84422 1.33082 0
M  V30 17991 C 1647.85 -1.59404 1.23585 0
M  V30 17992 C 1648.17 -1.94593 -0.198208 0
M  V30 17993 O 1649.37 -2.68307 -0.415138 0
M  V30 17994 C 1647.83 -2.87489 2.16513 0
M  V30 17995 C 1647.44 -2.59685 3.65059 0
M  V30 17996 C 1649.18 -3.6551 2.15877 0
M  V30 17997 C 1647.09 -3.83834 4.49917 0
M  V30 17998 H 1646.02 -0.598191 0.459003 0
M  V30 17999 H 1648.67 -0.931299 1.58111 0
M  V30 18000 H 1647.05 -3.55276 1.74913 0
M  V30 18001 H 1648.22 -2.00143 4.15065 0
M  V30 18002 H 1646.54 -1.94977 3.6793 0
M  V30 18003 H 1649.14 -4.57654 2.76509 0
M  V30 18004 H 1649.48 -4.00031 1.15244 0
M  V30 18005 H 1650.01 -3.0464 2.55811 0
M  V30 18006 H 1646.75 -3.54448 5.51404 0
M  V30 18007 H 1646.27 -4.42734 4.04656 0
M  V30 18008 H 1647.95 -4.51468 4.63449 0
M  V30 18009 N 1648.08 -1.16463 -1.0618 0
M  V30 18010 C 1649.01 -0.895399 -2.1565 0
M  V30 18011 C 1649.99 0.158729 -1.69358 0
M  V30 18012 O 1651.18 0.010586 -1.94197 0
M  V30 18013 C 1648.31 -0.396959 -3.45024 0
M  V30 18014 C 1647.26 -1.38913 -4.0483 0
M  V30 18015 C 1646.59 -0.749043 -5.29427 0
M  V30 18016 C 1647.89 -2.7591 -4.43476 0
M  V30 18017 H 1649.58 -1.81085 -2.38429 0
M  V30 18018 H 1647.13 -0.872098 -1.14588 0
M  V30 18019 H 1649.08 -0.196086 -4.20944 0
M  V30 18020 H 1647.8 0.554002 -3.21867 0
M  V30 18021 H 1646.46 -1.57657 -3.30968 0
M  V30 18022 H 1646.11 0.208439 -5.02568 0
M  V30 18023 H 1645.81 -1.41128 -5.704 0
M  V30 18024 H 1647.34 -0.558217 -6.08043 0
M  V30 18025 H 1648.75 -2.60942 -5.10473 0
M  V30 18026 H 1647.15 -3.38618 -4.95437 0
M  V30 18027 H 1648.22 -3.31076 -3.54284 0
M  V30 18028 N 1649.56 1.24734 -0.963288 0
M  V30 18029 C 1650.49 2.27892 -0.508667 0
M  V30 18030 C 1651.47 1.64055 0.449438 0
M  V30 18031 O 1652.66 1.91083 0.346519 0
M  V30 18032 C 1649.79 3.46688 0.206157 0
M  V30 18033 C 1648.74 4.22762 -0.667534 0
M  V30 18034 C 1648.07 5.34402 0.178529 0
M  V30 18035 C 1649.37 4.84535 -1.94995 0
M  V30 18036 H 1651.06 2.66171 -1.37088 0
M  V30 18037 H 1648.61 1.27952 -0.660622 0
M  V30 18038 H 1650.56 4.17985 0.535391 0
M  V30 18039 H 1649.28 3.07422 1.10269 0
M  V30 18040 H 1647.94 3.53259 -0.979976 0
M  V30 18041 H 1647.59 4.91377 1.07508 0
M  V30 18042 H 1647.29 5.86218 -0.402808 0
M  V30 18043 H 1648.81 6.08529 0.502533 0
M  V30 18044 H 1650.23 5.4793 -1.68658 0
M  V30 18045 H 1648.62 5.46564 -2.47765 0
M  V30 18046 H 1649.69 4.06236 -2.64765 0
M  V30 18047 N 1651.04 0.732878 1.39523 0
M  V30 18048 C 1652 0.10004 2.28982 0
M  V30 18049 C 1653 -0.669361 1.46206 0
M  V30 18050 O 1654.19 -0.498694 1.66909 0
M  V30 18051 C 1651.32 -0.867616 3.29674 0
M  V30 18052 H 1652.52 0.88816 2.86447 0
M  V30 18053 H 1650.07 0.498578 1.48135 0
M  V30 18054 H 1650.8 -1.68217 2.77261 0
M  V30 18055 H 1650.59 -0.318577 3.90804 0
M  V30 18056 H 1652.08 -1.30704 3.96618 0
M  V30 18057 N 1652.52 -1.50101 0.480349 0
M  V30 18058 C 1653.46 -2.30347 -0.322924 0
M  V30 18059 C 1654.46 -1.3804 -0.981904 0
M  V30 18060 O 1655.66 -1.55188 -0.91195 0
M  V30 18061 H 1652.04 -0.741875 -0.122985 0
M  V30 18062 H 1654.01 -2.96045 0.374155 0
M  V30 18063 C 1652.76 -3.18844 -1.38686 0
M  V30 18064 H 1652.08 -3.89787 -0.889181 0
M  V30 18065 H 1653.52 -3.77971 -1.9213 0
M  V30 18066 C 1651.98 -2.37058 -2.39385 0
M  V30 18067 O 1652.51 -2.06016 -3.44848 0
M  V30 18068 N 1650.72 -1.99465 -2.11334 0
M  V30 18069 H 1650.26 -2.24909 -1.25593 0
M  V30 18070 H 1650.22 -1.45048 -2.78942 0
M  V30 18071 N 1653.99 -0.213323 -1.5615 0
M  V30 18072 C 1655.41 0.142215 -1.58965 0
M  V30 18073 C 1655.61 1.59606 -1.22996 0
M  V30 18074 O 1654.67 2.33485 -0.961308 0
M  V30 18075 C 1655.98 -0.176632 -3.00181 0
M  V30 18076 C 1657.53 -0.118205 -3.12777 0
M  V30 18077 C 1658 -0.410614 -4.56156 0
M  V30 18078 N 1659.49 -0.359887 -4.618 0
M  V30 18079 C 1660.23 -0.559744 -5.70661 0
M  V30 18080 N 1659.72 -0.820934 -6.87919 0
M  V30 18081 N 1661.52 -0.492746 -5.59936 0
M  V30 18082 H 1653.67 -1.16182 -1.77807 0
M  V30 18083 H 1655.93 -0.465086 -0.826075 0
M  V30 18084 H 1655.64 -1.18538 -3.31122 0
M  V30 18085 H 1655.51 0.512256 -3.73705 0
M  V30 18086 H 1657.9 0.88117 -2.81637 0
M  V30 18087 H 1657.98 -0.840446 -2.41599 0
M  V30 18088 H 1657.62 -1.40739 -4.88011 0
M  V30 18089 H 1657.55 0.332725 -5.25548 0
M  V30 18090 H 1660.04 -0.16537 -3.77538 0
M  V30 18091 H 1660.36 -0.961755 -7.66792 0
M  V30 18092 H 1658.7 -0.858036 -6.89683 0
M  V30 18093 H 1661.89 -0.288981 -4.67207 0
M  V30 18094 H 1662.07 -0.651912 -6.44712 0
M  V30 18095 N 1655.47 1.57485 0.0601405 0
M  V30 18096 C 1656.4 2.07525 1.07031 0
M  V30 18097 C 1657.38 0.971136 1.39653 0
M  V30 18098 O 1658.57 1.24456 1.49078 0
M  V30 18099 C 1655.7 2.52888 2.38044 0
M  V30 18100 C 1654.65 3.67282 2.19745 0
M  V30 18101 C 1653.98 3.98741 3.56244 0
M  V30 18102 C 1655.28 4.96896 1.60908 0
M  V30 18103 H 1656.97 2.92173 0.653875 0
M  V30 18104 H 1654.52 1.40555 0.313083 0
M  V30 18105 H 1656.47 2.8651 3.09014 0
M  V30 18106 H 1655.2 1.65284 2.81689 0
M  V30 18107 H 1653.85 3.33961 1.51213 0
M  V30 18108 H 1653.5 3.08249 3.97481 0
M  V30 18109 H 1653.2 4.75775 3.44836 0
M  V30 18110 H 1654.73 4.34869 4.28627 0
M  V30 18111 H 1656.14 5.28674 2.21758 0
M  V30 18112 H 1654.54 5.78332 1.60164 0
M  V30 18113 H 1655.61 4.81518 0.571671 0
M  V30 18114 N 1656.95 -0.331789 1.54068 0
M  V30 18115 C 1658.18 -1.08886 1.75577 0
M  V30 18116 C 1658.59 -1.82462 0.50043 0
M  V30 18117 O 1657.93 -1.7564 -0.53816 0
M  V30 18118 C 1657.99 -2.13858 2.88972 0
M  V30 18119 C 1657.66 -1.59754 4.28168 0
M  V30 18120 C 1658.65 -1.04365 5.09317 0
M  V30 18121 C 1656.34 -1.64245 4.74688 0
M  V30 18122 C 1658.33 -0.541856 6.35093 0
M  V30 18123 C 1656.02 -1.13679 6.00433 0
M  V30 18124 C 1657.02 -0.587426 6.80469 0
M  V30 18125 O 1656.71 -0.0893367 8.0385 0
M  V30 18126 H 1656.44 -0.330075 0.589938 0
M  V30 18127 H 1658.99 -0.386127 2.01738 0
M  V30 18128 H 1657.22 -2.87724 2.58363 0
M  V30 18129 H 1658.91 -2.75223 2.98341 0
M  V30 18130 H 1659.68 -1.00208 4.74535 0
M  V30 18131 H 1655.56 -2.05945 4.12441 0
M  V30 18132 H 1659.1 -0.1124 6.97509 0
M  V30 18133 H 1655 -1.1754 6.34708 0
M  V30 18134 H 1655.77 -0.205529 8.18242 0
M  V30 18135 N 1658.43 -1.46001 -0.593424 0
M  V30 18136 C 1659.65 -1.54541 -1.38318 0
M  V30 18137 C 1660.08 -0.183555 -1.87202 0
M  V30 18138 O 1659.44 0.834407 -1.60958 0
M  V30 18139 C 1659.48 -2.54559 -2.55405 0
M  V30 18140 O 1658.59 -2.07321 -3.56499 0
M  V30 18141 H 1657.93 -0.520434 -0.412364 0
M  V30 18142 H 1660.46 -1.9148 -0.720862 0
M  V30 18143 H 1660.47 -2.73823 -3.02465 0
M  V30 18144 H 1659.14 -3.53461 -2.19176 0
M  V30 18145 H 1657.72 -1.97997 -3.15993 0
M  V30 18146 N 1659.91 0.83715 -1.33527 0
M  V30 18147 C 1661.15 1.58937 -1.24834 0
M  V30 18148 C 1661.48 1.94117 0.185368 0
M  V30 18149 O 1660.75 1.61105 1.11453 0
M  V30 18150 H 1659.33 0.589301 -0.459057 0
M  V30 18151 H 1661.99 1.00038 -1.67267 0
M  V30 18152 H 1661.08 2.51855 -1.84325 0
M  V30 18153 N 1661.38 1.17024 1.05561 0
M  V30 18154 C 1662.63 0.950769 1.77886 0
M  V30 18155 C 1662.95 -0.522005 1.88506 0
M  V30 18156 O 1664.15 -0.859582 2.57533 0
M  V30 18157 C 1662.61 1.65189 3.19751 0
M  V30 18158 C 1662.22 3.16294 3.17273 0
M  V30 18159 C 1663.96 1.51466 3.96558 0
M  V30 18160 C 1661.87 3.79111 4.53904 0
M  V30 18161 H 1660.8 0.352089 0.666745 0
M  V30 18162 H 1663.45 1.40237 1.18346 0
M  V30 18163 H 1661.83 1.12801 3.79594 0
M  V30 18164 H 1663 3.75585 2.66969 0
M  V30 18165 H 1661.32 3.29986 2.53966 0
M  V30 18166 H 1663.92 1.95772 4.97571 0
M  V30 18167 H 1664.26 0.46467 4.13699 0
M  V30 18168 H 1664.79 2.0105 3.43254 0
M  V30 18169 H 1661.53 4.84091 4.41969 0
M  V30 18170 H 1661.05 3.24606 5.04372 0
M  V30 18171 H 1662.73 3.81099 5.2285 0
M  V30 18172 N 1662.86 -1.24221 0.969889 0
M  V30 18173 C 1663.81 -2.25292 0.501215 0
M  V30 18174 C 1664.78 -1.59764 -0.454382 0
M  V30 18175 O 1665.96 -1.87291 -0.364261 0
M  V30 18176 C 1663.1 -3.44518 -0.200361 0
M  V30 18177 C 1662.22 -4.24636 0.79426 0
M  V30 18178 C 1661.35 -5.31156 0.068568 0
M  V30 18179 C 1660.39 -6.02973 1.05311 0
M  V30 18180 N 1659.53 -7.0119 0.357274 0
M  V30 18181 H 1664.37 -2.64749 1.36792 0
M  V30 18182 H 1661.91 -1.30142 0.685673 0
M  V30 18183 H 1663.86 -4.1251 -0.623833 0
M  V30 18184 H 1662.49 -3.05892 -1.03101 0
M  V30 18185 H 1661.55 -3.56161 1.33616 0
M  V30 18186 H 1662.86 -4.74271 1.54493 0
M  V30 18187 H 1662.01 -6.05294 -0.412792 0
M  V30 18188 H 1660.75 -4.82434 -0.714781 0
M  V30 18189 H 1659.76 -5.27636 1.54532 0
M  V30 18190 H 1660.98 -6.53784 1.83694 0
M  V30 18191 H 1658.93 -6.54736 -0.407059 0
M  V30 18192 H 1658.84 -7.48718 1.04677 0
M  V30 18193 H 1660.11 -7.79433 -0.102045 0
M  V30 18194 N 1664.34 -0.740267 -1.39132 0
M  V30 18195 C 1665.59 -0.290953 -2.00702 0
M  V30 18196 C 1665.92 1.12051 -1.58613 0
M  V30 18197 O 1665.19 1.76488 -0.817457 0
M  V30 18198 C 1665.48 -0.398765 -3.57885 0
M  V30 18199 C 1665.33 -1.85038 -4.09977 0
M  V30 18200 C 1666.65 0.215717 -4.39571 0
M  V30 18201 H 1663.77 -0.107194 -0.729163 0
M  V30 18202 H 1666.41 -0.937411 -1.65265 0
M  V30 18203 H 1664.56 0.151613 -3.88204 0
M  V30 18204 H 1666.23 -2.45804 -3.90357 0
M  V30 18205 H 1664.48 -2.36994 -3.63341 0
M  V30 18206 H 1665.15 -1.87705 -5.19106 0
M  V30 18207 H 1667.62 -0.253518 -4.15327 0
M  V30 18208 H 1666.5 0.109966 -5.4879 0
M  V30 18209 H 1666.76 1.30242 -4.2248 0
M  V30 18210 N 1665.82 1.49844 -0.488302 0
M  V30 18211 C 1666.77 2.28883 0.296859 0
M  V30 18212 C 1667.74 1.34703 0.971818 0
M  V30 18213 O 1668.92 1.63653 0.980937 0
M  V30 18214 C 1666.06 3.17049 1.36286 0
M  V30 18215 C 1665.17 4.26275 0.700956 0
M  V30 18216 C 1664.31 5.01674 1.74632 0
M  V30 18217 C 1663.35 6.02753 1.06559 0
M  V30 18218 N 1662.48 6.71366 2.05457 0
M  V30 18219 H 1667.32 2.95523 -0.383417 0
M  V30 18220 H 1664.86 1.45721 -0.200928 0
M  V30 18221 H 1666.82 3.66531 1.99276 0
M  V30 18222 H 1665.45 2.52419 2.01207 0
M  V30 18223 H 1664.5 3.80377 -0.0419236 0
M  V30 18224 H 1665.81 4.98529 0.164469 0
M  V30 18225 H 1664.97 5.54961 2.45159 0
M  V30 18226 H 1663.71 4.29166 2.31664 0
M  V30 18227 H 1662.71 5.4871 0.346029 0
M  V30 18228 H 1663.94 6.77243 0.501932 0
M  V30 18229 H 1661.88 6.01637 2.61475 0
M  V30 18230 H 1661.8 7.39552 1.56841 0
M  V30 18231 H 1663.07 7.29262 2.75312 0
M  V30 18232 N 1667.3 0.221601 1.56034 0
M  V30 18233 C 1668.55 -0.410442 1.9748 0
M  V30 18234 C 1668.86 -1.60895 1.1123 0
M  V30 18235 O 1670.06 -2.31052 1.42574 0
M  V30 18236 C 1668.52 -0.781624 3.5131 0
M  V30 18237 C 1668.13 0.394077 4.46263 0
M  V30 18238 C 1669.87 -1.37927 4.01468 0
M  V30 18239 C 1667.78 0.000458181 5.914 0
M  V30 18240 H 1666.71 -0.157122 0.737447 0
M  V30 18241 H 1669.36 0.317821 1.80727 0
M  V30 18242 H 1667.74 -1.56731 3.63664 0
M  V30 18243 H 1668.92 1.17161 4.45657 0
M  V30 18244 H 1667.23 0.904959 4.06447 0
M  V30 18245 H 1669.83 -1.68667 5.07401 0
M  V30 18246 H 1670.17 -2.29507 3.47322 0
M  V30 18247 H 1670.7 -0.657015 3.92337 0
M  V30 18248 H 1667.44 0.882743 6.49529 0
M  V30 18249 H 1666.96 -0.741386 5.952 0
M  V30 18250 H 1668.64 -0.42621 6.45595 0
M  V30 18251 N 1668.77 -1.57515 -0.0517878 0
M  V30 18252 C 1669.71 -2.01812 -1.08649 0
M  V30 18253 C 1670.72 -0.92719 -1.33817 0
M  V30 18254 O 1671.91 -1.20483 -1.31705 0
M  V30 18255 C 1669.01 -2.35903 -2.43316 0
M  V30 18256 C 1668.18 -3.67095 -2.37824 0
M  V30 18257 C 1667.24 -3.8863 -3.54758 0
M  V30 18258 O 1666.27 -4.59974 -3.3528 0
M  V30 18259 N 1667.47 -3.32516 -4.75829 0
M  V30 18260 H 1670.23 -2.91191 -0.709094 0
M  V30 18261 H 1667.79 -1.60109 -0.240125 0
M  V30 18262 H 1669.79 -2.47466 -3.20223 0
M  V30 18263 H 1668.36 -1.52312 -2.72983 0
M  V30 18264 H 1667.58 -3.66099 -1.46168 0
M  V30 18265 H 1668.86 -4.53199 -2.31275 0
M  V30 18266 H 1668.26 -2.74645 -4.94557 0
M  V30 18267 H 1666.82 -3.49496 -5.50178 0
M  V30 18268 N 1670.25 0.323614 -1.54242 0
M  V30 18269 C 1671.67 0.66795 -1.4495 0
M  V30 18270 C 1671.87 1.91649 -0.622338 0
M  V30 18271 O 1670.93 2.52209 -0.121119 0
M  V30 18272 C 1672.24 0.842006 -2.88671 0
M  V30 18273 C 1673.79 0.93935 -2.98572 0
M  V30 18274 C 1674.26 1.14557 -4.43442 0
M  V30 18275 N 1675.75 1.21231 -4.47054 0
M  V30 18276 C 1676.49 1.38976 -5.56303 0
M  V30 18277 N 1675.98 1.53764 -6.75521 0
M  V30 18278 N 1677.78 1.41684 -5.4395 0
M  V30 18279 H 1669.93 -0.497017 -2.06503 0
M  V30 18280 H 1672.19 -0.160563 -0.934304 0
M  V30 18281 H 1671.9 -0.00418568 -3.517 0
M  V30 18282 H 1671.77 1.73785 -3.34782 0
M  V30 18283 H 1674.16 1.77605 -2.35671 0
M  V30 18284 H 1674.24 0.0199775 -2.55792 0
M  V30 18285 H 1673.88 0.313732 -5.0693 0
M  V30 18286 H 1673.81 2.07882 -4.83831 0
M  V30 18287 H 1676.3 1.11247 -3.61154 0
M  V30 18288 H 1676.62 1.66996 -7.54541 0
M  V30 18289 H 1674.96 1.50862 -6.78429 0
M  V30 18290 H 1678.15 1.29726 -4.49765 0
M  V30 18291 H 1678.33 1.5517 -6.29147 0
M  V30 18292 N 1671.73 1.46313 0.585673 0
M  V30 18293 C 1672.98 1.51694 1.34598 0
M  V30 18294 C 1673.31 0.166889 1.93482 0
M  V30 18295 O 1672.59 -0.821331 1.76308 0
M  V30 18296 C 1672.87 2.61322 2.47755 0
M  V30 18297 C 1672.72 4.05848 1.93926 0
M  V30 18298 C 1674.04 2.67058 3.49812 0
M  V30 18299 H 1671.16 0.552253 0.488043 0
M  V30 18300 H 1673.8 1.78235 0.658201 0
M  V30 18301 H 1671.95 2.38822 3.06425 0
M  V30 18302 H 1673.62 4.39626 1.39736 0
M  V30 18303 H 1671.87 4.15468 1.24775 0
M  V30 18304 H 1672.54 4.78279 2.75596 0
M  V30 18305 H 1675.01 2.87276 3.01018 0
M  V30 18306 H 1673.89 3.45589 4.2645 0
M  V30 18307 H 1674.15 1.72993 4.06849 0
M  V30 18308 N 1673.21 -0.830057 1.33969 0
M  V30 18309 C 1674.16 -1.96189 1.2495 0
M  V30 18310 C 1675.15 -1.68743 0.149047 0
M  V30 18311 O 1676.36 -1.77248 0.31357 0
M  V30 18312 H 1672.73 -0.644184 0.387983 0
M  V30 18313 H 1674.7 -2.0092 2.20621 0
M  V30 18314 C 1673.45 -3.32569 1.01456 0
M  V30 18315 H 1672.78 -3.54232 1.85363 0
M  V30 18316 H 1674.22 -4.12237 0.991786 0
M  V30 18317 C 1672.67 -3.35715 -0.282331 0
M  V30 18318 O 1673.2 -3.80556 -1.28609 0
M  V30 18319 N 1671.41 -2.8891 -0.312952 0
M  V30 18320 H 1670.96 -2.52613 0.504446 0
M  V30 18321 H 1670.92 -2.91397 -1.18047 0
M  V30 18322 N 1674.69 -1.17582 -1.04939 0
M  V30 18323 C 1675.64 -0.891102 -2.14854 0
M  V30 18324 C 1676.63 0.145242 -1.68776 0
M  V30 18325 O 1677.84 -0.00207978 -1.8 0
M  V30 18326 H 1674.21 -0.270641 -0.701611 0
M  V30 18327 H 1676.18 -1.82519 -2.36071 0
M  V30 18328 C 1674.93 -0.423679 -3.45109 0
M  V30 18329 H 1674.25 -1.2126 -3.80967 0
M  V30 18330 H 1675.69 -0.263369 -4.23181 0
M  V30 18331 C 1674.15 0.859085 -3.25763 0
M  V30 18332 O 1674.68 1.9253 -3.52555 0
M  V30 18333 N 1672.89 0.80824 -2.79134 0
M  V30 18334 H 1672.44 -0.0596431 -2.57531 0
M  V30 18335 H 1672.39 1.66697 -2.6657 0
M  V30 18336 N 1676.17 1.23705 -0.976463 0
M  V30 18337 C 1677.39 1.96595 -0.660697 0
M  V30 18338 C 1677.82 1.71845 0.764916 0
M  V30 18339 O 1677.17 0.987506 1.52046 0
M  V30 18340 C 1677.22 3.47803 -0.95214 0
M  V30 18341 O 1676.33 4.12378 -0.0421126 0
M  V30 18342 H 1675.67 0.615591 -0.248886 0
M  V30 18343 H 1678.2 1.57247 -1.30899 0
M  V30 18344 H 1678.21 3.98236 -0.887238 0
M  V30 18345 H 1676.88 3.65144 -1.99105 0
M  V30 18346 H 1675.46 3.72552 -0.161087 0
M  V30 18347 N 1677.64 0.747635 1.38738 0
M  V30 18348 C 1678.87 0.310484 2.05063 0
M  V30 18349 C 1679.29 -1.05078 1.56013 0
M  V30 18350 O 1678.65 -1.66842 0.709461 0
M  V30 18351 C 1678.7 0.335837 3.59033 0
M  V30 18352 O 1677.8 -0.672218 4.06884 0
M  V30 18353 H 1677.14 0.138591 0.649375 0
M  V30 18354 H 1679.67 1.01709 1.77529 0
M  V30 18355 H 1679.68 0.184631 4.07582 0
M  V30 18356 H 1678.36 1.32906 3.94092 0
M  V30 18357 H 1676.94 -0.486112 3.69718 0
M  V30 18358 N 1679.12 -1.49583 0.496242 0
M  V30 18359 C 1680.35 -2.06847 -0.0469118 0
M  V30 18360 C 1680.76 -1.35715 -1.31251 0
M  V30 18361 O 1680.12 -0.434021 -1.77264 0
M  V30 18362 C 1680.17 -3.60174 -0.309338 0
M  V30 18363 O 1679.89 -4.28628 0.906082 0
M  V30 18364 C 1681.39 -4.34137 -0.896664 0
M  V30 18365 H 1678.61 -0.67075 0.0183324 0
M  V30 18366 H 1681.16 -1.92427 0.692237 0
M  V30 18367 H 1679.31 -3.74312 -0.998459 0
M  V30 18368 H 1679.73 -5.20254 0.666014 0
M  V30 18369 H 1681.2 -5.42307 -1.0299 0
M  V30 18370 H 1681.68 -3.96299 -1.89325 0
M  V30 18371 H 1682.28 -4.24593 -0.245158 0
M  V30 18372 N 1680.6 -0.229873 -1.55915 0
M  V30 18373 C 1681.55 0.693198 -2.2203 0
M  V30 18374 C 1682.54 1.1933 -1.20236 0
M  V30 18375 O 1683.75 1.15217 -1.38294 0
M  V30 18376 H 1680.12 0.241986 -0.712002 0
M  V30 18377 H 1682.09 0.112229 -2.98189 0
M  V30 18378 C 1680.84 1.88688 -2.92048 0
M  V30 18379 H 1680.17 1.51119 -3.70139 0
M  V30 18380 H 1681.61 2.51036 -3.41697 0
M  V30 18381 C 1680.06 2.74747 -1.94976 0
M  V30 18382 O 1680.59 3.73759 -1.47198 0
M  V30 18383 N 1678.8 2.40956 -1.62445 0
M  V30 18384 H 1678.35 1.60494 -2.01493 0
M  V30 18385 H 1678.31 2.98816 -0.977581 0
M  V30 18386 N 1682.08 1.5754 0.0434337 0
M  V30 18387 C 1683.35 1.79733 0.771713 0
M  V30 18388 C 1683.73 0.82446 1.94334 0
M  V30 18389 O 1683.08 -0.136485 2.28092 0
M  V30 18390 C 1683.29 3.27049 1.2182 0
M  V30 18391 C 1684.64 3.91648 1.64002 0
M  V30 18392 O 1685.66 3.31111 1.31315 0
M  V30 18393 O 1684.52 4.98206 2.24618 0
M  V30 18394 H 1681.62 0.73861 0.372001 0
M  V30 18395 H 1684.16 1.69687 0.0213187 0
M  V30 18396 H 1682.94 3.89439 0.381158 0
M  V30 18397 H 1682.56 3.41929 2.02905 0
M  V30 18398 N 1683.56 -0.31543 1.54411 0
M  V30 18399 C 1684.5 -1.4086 1.85098 0
M  V30 18400 C 1685.5 -1.53172 0.723518 0
M  V30 18401 O 1686.7 -1.55461 0.907303 0
M  V30 18402 H 1683.08 -0.47022 0.586853 0
M  V30 18403 H 1685.05 -1.12207 2.765 0
M  V30 18404 C 1683.8 -2.76948 2.10227 0
M  V30 18405 H 1683.12 -2.68251 2.96448 0
M  V30 18406 H 1684.56 -3.52486 2.35647 0
M  V30 18407 C 1683.02 -3.24758 0.896312 0
M  V30 18408 O 1683.55 -4.0155 0.109609 0
M  V30 18409 N 1681.76 -2.81901 0.705685 0
M  V30 18410 H 1681.3 -2.19571 1.34708 0
M  V30 18411 H 1681.26 -3.14242 -0.0996804 0
M  V30 18412 N 1685.03 -1.46622 -0.577906 0
M  V30 18413 C 1685.96 -1.60413 -1.69676 0
M  V30 18414 C 1686.95 -0.454277 -1.63922 0
M  V30 18415 O 1688.13 -0.68111 -1.81864 0
M  V30 18416 C 1685.26 -1.59866 -3.08318 0
M  V30 18417 C 1684.21 -2.7387 -3.28906 0
M  V30 18418 C 1683.54 -2.58386 -4.68125 0
M  V30 18419 C 1684.84 -4.15652 -3.16276 0
M  V30 18420 H 1686.53 -2.54073 -1.5839 0
M  V30 18421 H 1684.08 -1.22275 -0.760572 0
M  V30 18422 H 1686.03 -1.68108 -3.86417 0
M  V30 18423 H 1684.76 -0.627541 -3.20514 0
M  V30 18424 H 1683.42 -2.65105 -2.53209 0
M  V30 18425 H 1683.06 -1.59347 -4.77093 0
M  V30 18426 H 1682.76 -3.34855 -4.82852 0
M  V30 18427 H 1684.29 -2.68525 -5.48385 0
M  V30 18428 H 1685.7 -4.25503 -3.84214 0
M  V30 18429 H 1684.1 -4.92746 -3.42523 0
M  V30 18430 H 1685.17 -4.35471 -2.13291 0
M  V30 18431 N 1686.51 0.822941 -1.34408 0
M  V30 18432 C 1687.76 1.58149 -1.26951 0
M  V30 18433 C 1688.09 1.93538 0.160222 0
M  V30 18434 O 1687.37 1.60021 1.1056 0
M  V30 18435 C 1687.65 2.88101 -2.16032 0
M  V30 18436 C 1687.5 2.59293 -3.67542 0
M  V30 18437 C 1688.82 3.89673 -2.04556 0
M  V30 18438 H 1685.94 0.573811 -0.462504 0
M  V30 18439 H 1688.58 0.948017 -1.64659 0
M  V30 18440 H 1686.73 3.42162 -1.84003 0
M  V30 18441 H 1688.4 2.11542 -4.09936 0
M  V30 18442 H 1686.65 1.92738 -3.88632 0
M  V30 18443 H 1687.32 3.51962 -4.25238 0
M  V30 18444 H 1689.79 3.44965 -2.32677 0
M  V30 18445 H 1688.67 4.78404 -2.69111 0
M  V30 18446 H 1688.93 4.30113 -1.02253 0
M  V30 18447 N 1687.99 1.18137 1.04314 0
M  V30 18448 C 1689.41 0.930523 1.29667 0
M  V30 18449 C 1689.61 -0.405336 1.97381 0
M  V30 18450 O 1688.66 -1.14025 2.25288 0
M  V30 18451 C 1689.98 2.09427 2.1578 0
M  V30 18452 C 1691.52 2.13229 2.29134 0
M  V30 18453 C 1692 3.29014 3.18612 0
M  V30 18454 N 1693.49 3.28859 3.26199 0
M  V30 18455 C 1694.22 4.15092 3.95583 0
M  V30 18456 N 1693.72 5.11453 4.67319 0
M  V30 18457 N 1695.51 4.03014 3.91837 0
M  V30 18458 H 1687.66 2.04108 0.587669 0
M  V30 18459 H 1689.93 0.89171 0.321804 0
M  V30 18460 H 1689.63 3.06023 1.73328 0
M  V30 18461 H 1689.51 2.0528 3.16449 0
M  V30 18462 H 1691.89 1.17212 2.70823 0
M  V30 18463 H 1691.98 2.21435 1.28064 0
M  V30 18464 H 1691.62 4.25302 2.77635 0
M  V30 18465 H 1691.55 3.18045 4.19708 0
M  V30 18466 H 1694.04 2.59097 2.75095 0
M  V30 18467 H 1694.35 5.7363 5.1785 0
M  V30 18468 H 1692.7 5.15415 4.66232 0
M  V30 18469 H 1695.89 3.27021 3.34925 0
M  V30 18470 H 1696.06 4.70435 4.4564 0
M  V30 18471 N 1689.47 -1.23186 0.98301 0
M  V30 18472 C 1690.42 -2.24748 0.525082 0
M  V30 18473 C 1691.39 -1.60237 -0.437411 0
M  V30 18474 O 1692.57 -1.87666 -0.344376 0
M  V30 18475 C 1689.71 -3.44711 -0.163809 0
M  V30 18476 C 1688.82 -4.23769 0.839254 0
M  V30 18477 C 1687.96 -5.31053 0.1249 0
M  V30 18478 C 1687 -6.01822 1.117 0
M  V30 18479 N 1686.13 -7.00772 0.431625 0
M  V30 18480 H 1690.97 -2.63283 1.39593 0
M  V30 18481 H 1688.51 -1.29407 0.699438 0
M  V30 18482 H 1690.47 -4.13148 -0.580046 0
M  V30 18483 H 1689.1 -3.06969 -0.998507 0
M  V30 18484 H 1688.15 -3.54724 1.37386 0
M  V30 18485 H 1689.46 -4.72606 1.59515 0
M  V30 18486 H 1688.62 -6.05698 -0.348569 0
M  V30 18487 H 1687.36 -4.83165 -0.663573 0
M  V30 18488 H 1686.36 -5.25967 1.6012 0
M  V30 18489 H 1687.59 -6.51799 1.90618 0
M  V30 18490 H 1685.53 -6.55131 -0.337592 0
M  V30 18491 H 1685.45 -7.47566 1.12613 0
M  V30 18492 H 1686.72 -7.79498 -0.0193703 0
M  V30 18493 N 1690.95 -0.754982 -1.38339 0
M  V30 18494 C 1691.89 -0.117579 -2.32303 0
M  V30 18495 C 1692.89 0.703759 -1.5409 0
M  V30 18496 O 1694.09 0.602701 -1.6961 0
M  V30 18497 H 1690.47 -0.0192276 -0.751754 0
M  V30 18498 H 1692.44 -0.926113 -2.83665 0
M  V30 18499 C 1691.19 0.760239 -3.39287 0
M  V30 18500 H 1690.51 0.137619 -3.99563 0
M  V30 18501 H 1691.95 1.17349 -4.07437 0
M  V30 18502 C 1690.41 1.90347 -2.77974 0
M  V30 18503 O 1690.94 2.99773 -2.67393 0
M  V30 18504 N 1689.15 1.69895 -2.35763 0
M  V30 18505 H 1688.69 0.808926 -2.44569 0
M  V30 18506 H 1688.65 2.46557 -1.95082 0
M  V30 18507 N 1692.42 1.49318 -0.504168 0
M  V30 18508 C 1693.7 1.95332 0.102393 0
M  V30 18509 C 1694.08 1.44576 1.53821 0
M  V30 18510 O 1693.43 0.660894 2.18734 0
M  V30 18511 C 1693.64 3.48998 0.0117694 0
M  V30 18512 C 1694.99 4.24201 0.184101 0
M  V30 18513 O 1696.01 3.56094 0.0868056 0
M  V30 18514 O 1694.87 5.45147 0.384267 0
M  V30 18515 H 1691.96 0.821691 0.0935582 0
M  V30 18516 H 1694.51 1.5995 -0.566932 0
M  V30 18517 H 1693.28 3.78585 -0.989413 0
M  V30 18518 H 1692.91 3.91006 0.7211 0
M  V30 18519 N 1693.9 0.238138 1.5579 0
M  V30 18520 C 1694.83 -0.697701 2.18323 0
M  V30 18521 C 1695.85 -1.1453 1.15701 0
M  V30 18522 O 1697.04 -1.07359 1.42605 0
M  V30 18523 C 1694.14 -1.95895 2.76547 0
M  V30 18524 C 1693.31 -1.66422 4.04503 0
M  V30 18525 C 1692.37 -2.77419 4.4713 0
M  V30 18526 O 1691.39 -2.45179 5.13689 0
M  V30 18527 N 1692.6 -4.06731 4.14187 0
M  V30 18528 H 1695.36 -0.162705 2.99258 0
M  V30 18529 H 1692.92 0.0577602 1.61797 0
M  V30 18530 H 1694.91 -2.69374 3.02026 0
M  V30 18531 H 1693.48 -2.40398 1.99819 0
M  V30 18532 H 1692.7 -0.76505 3.86705 0
M  V30 18533 H 1693.99 -1.44183 4.87943 0
M  V30 18534 H 1693.39 -4.3576 3.60735 0
M  V30 18535 H 1691.95 -4.76701 4.44521 0
M  V30 18536 N 1695.38 -1.57561 -0.0350783 0
M  V30 18537 C 1696.63 -1.89276 -0.728172 0
M  V30 18538 C 1696.96 -0.835137 -1.75326 0
M  V30 18539 O 1696.23 0.150516 -1.93917 0
M  V30 18540 C 1696.52 -3.31638 -1.40316 0
M  V30 18541 C 1696.37 -4.48089 -0.391996 0
M  V30 18542 C 1697.69 -3.72816 -2.33872 0
M  V30 18543 H 1694.81 -0.688381 -0.26325 0
M  V30 18544 H 1697.45 -1.89998 0.00900661 0
M  V30 18545 H 1695.6 -3.31153 -2.0315 0
M  V30 18546 H 1697.27 -4.60706 0.233965 0
M  V30 18547 H 1695.52 -4.32834 0.289305 0
M  V30 18548 H 1696.19 -5.4457 -0.902641 0
M  V30 18549 H 1698.66 -3.74629 -1.81086 0
M  V30 18550 H 1697.54 -4.73245 -2.78084 0
M  V30 18551 H 1697.8 -3.04744 -3.20287 0
M  V30 18552 N 1696.86 0.307236 -1.54576 0
M  V30 18553 C 1698.09 1.06079 -1.77287 0
M  V30 18554 C 1698.5 1.81643 -0.529395 0
M  V30 18555 O 1697.84 1.76474 0.510149 0
M  V30 18556 C 1697.9 2.09234 -2.92338 0
M  V30 18557 C 1697.57 1.52922 -4.30655 0
M  V30 18558 C 1698.56 0.962487 -5.10913 0
M  V30 18559 C 1696.25 1.56673 -4.77241 0
M  V30 18560 C 1698.24 0.44075 -6.35874 0
M  V30 18561 C 1695.93 1.04112 -6.02166 0
M  V30 18562 C 1696.93 0.479095 -6.81318 0
M  V30 18563 O 1696.61 -0.0385602 -8.03891 0
M  V30 18564 H 1696.35 0.320647 -0.595114 0
M  V30 18565 H 1698.9 0.353984 -2.02327 0
M  V30 18566 H 1697.13 2.83578 -2.62908 0
M  V30 18567 H 1698.82 2.70441 -3.02682 0
M  V30 18568 H 1699.59 0.926457 -4.76069 0
M  V30 18569 H 1695.46 1.99357 -4.15665 0
M  V30 18570 H 1699.01 0.00141848 -6.976 0
M  V30 18571 H 1694.91 1.07428 -6.36498 0
M  V30 18572 H 1695.67 0.0753282 -8.18465 0
M  V30 18573 N 1698.34 1.46926 0.570122 0
M  V30 18574 C 1699.59 1.52151 1.32413 0
M  V30 18575 C 1699.9 0.18291 1.94743 0
M  V30 18576 O 1701.1 0.113045 2.71265 0
M  V30 18577 C 1699.56 2.68153 2.40046 0
M  V30 18578 C 1699.17 4.08487 1.83963 0
M  V30 18579 C 1700.91 2.82659 3.16709 0
M  V30 18580 C 1698.82 5.1581 2.893 0
M  V30 18581 H 1697.75 0.566291 0.497826 0
M  V30 18582 H 1700.4 1.73169 0.607011 0
M  V30 18583 H 1698.78 2.40488 3.14613 0
M  V30 18584 H 1699.96 4.45998 1.15854 0
M  V30 18585 H 1698.27 3.98756 1.19927 0
M  V30 18586 H 1700.87 3.60008 3.95346 0
M  V30 18587 H 1701.21 1.9063 3.70089 0
M  V30 18588 H 1701.74 3.10031 2.4925 0
M  V30 18589 H 1698.48 6.09672 2.40791 0
M  V30 18590 H 1698 4.8283 3.55859 0
M  V30 18591 H 1699.68 5.42201 3.53026 0
M  V30 18592 N 1699.82 -0.815801 1.34842 0
M  V30 18593 C 1700.76 -1.94853 1.27024 0
M  V30 18594 C 1701.76 -1.68575 0.166936 0
M  V30 18595 O 1702.96 -1.76905 0.332352 0
M  V30 18596 H 1699.34 -0.640033 0.394794 0
M  V30 18597 H 1701.31 -1.98569 2.2274 0
M  V30 18598 C 1700.06 -3.31474 1.04977 0
M  V30 18599 H 1699.38 -3.52246 1.8911 0
M  V30 18600 H 1700.82 -4.11162 1.03545 0
M  V30 18601 C 1699.28 -3.35995 -0.246708 0
M  V30 18602 O 1699.81 -3.81898 -1.24566 0
M  V30 18603 N 1698.02 -2.89226 -0.282292 0
M  V30 18604 H 1697.56 -2.52063 0.531211 0
M  V30 18605 H 1697.52 -2.92633 -1.1495 0
M  V30 18606 N 1701.29 -1.18689 -1.03686 0
M  V30 18607 C 1702.54 -0.984601 -1.76952 0
M  V30 18608 C 1702.87 0.485417 -1.88345 0
M  V30 18609 O 1702.12 1.37665 -1.39093 0
M  V30 18610 C 1702.42 -1.58911 -3.20128 0
M  V30 18611 C 1702.09 -3.0859 -3.2876 0
M  V30 18612 C 1700.75 -3.49442 -3.30823 0
M  V30 18613 C 1703.1 -4.04603 -3.28551 0
M  V30 18614 C 1700.43 -4.84875 -3.30323 0
M  V30 18615 C 1702.78 -5.39956 -3.29591 0
M  V30 18616 C 1701.45 -5.8025 -3.29948 0
M  V30 18617 H 1700.72 -0.360291 -0.647512 0
M  V30 18618 H 1703.36 -1.47811 -1.21754 0
M  V30 18619 H 1701.67 -1.0177 -3.78352 0
M  V30 18620 H 1703.37 -1.40797 -3.75469 0
M  V30 18621 H 1699.96 -2.76034 -3.27877 0
M  V30 18622 H 1704.14 -3.7409 -3.26145 0
M  V30 18623 H 1699.4 -5.15386 -3.28919 0
M  V30 18624 H 1703.57 -6.14117 -3.28379 0
M  V30 18625 H 1701.2 -6.85169 -3.29315 0
M  V30 18626 N 1702.77 1.22662 -0.989529 0
M  V30 18627 C 1704.02 1.91605 -0.66448 0
M  V30 18628 C 1704.35 1.76909 0.801048 0
M  V30 18629 O 1703.63 1.13583 1.5789 0
M  V30 18630 C 1703.91 3.43929 -1.06698 0
M  V30 18631 C 1703.76 3.67691 -2.59082 0
M  V30 18632 C 1705.08 4.35744 -0.617695 0
M  V30 18633 H 1702.2 0.695832 -0.242872 0
M  V30 18634 H 1704.84 1.44605 -1.23245 0
M  V30 18635 H 1702.99 3.8409 -0.58371 0
M  V30 18636 H 1704.66 3.36956 -3.15053 0
M  V30 18637 H 1702.91 3.12088 -3.01303 0
M  V30 18638 H 1703.58 4.74356 -2.82295 0
M  V30 18639 H 1706.05 4.0308 -1.03275 0
M  V30 18640 H 1704.93 5.41004 -0.927659 0
M  V30 18641 H 1705.19 4.39468 0.481734 0
M  V30 18642 N 1704.25 0.762308 1.37937 0
M  V30 18643 C 1705.21 0.148588 2.28718 0
M  V30 18644 C 1706.21 -0.638198 1.47593 0
M  V30 18645 O 1707.4 -0.463178 1.67929 0
M  V30 18646 C 1704.53 -0.797492 3.31441 0
M  V30 18647 H 1705.73 0.94872 2.84498 0
M  V30 18648 H 1703.28 0.529888 1.47044 0
M  V30 18649 H 1704.02 -1.62298 2.80767 0
M  V30 18650 H 1703.8 -0.23561 3.91391 0
M  V30 18651 H 1705.29 -1.22262 3.99302 0
M  V30 18652 N 1705.73 -1.49049 0.51208 0
M  V30 18653 C 1706.95 -2.07382 -0.0271044 0
M  V30 18654 C 1707.38 -1.3685 -1.29049 0
M  V30 18655 O 1706.74 -0.428713 -1.76158 0
M  V30 18656 C 1706.78 -3.59715 -0.252462 0
M  V30 18657 O 1705.89 -3.90538 -1.32491 0
M  V30 18658 H 1705.23 -0.663269 0.0311507 0
M  V30 18659 H 1707.76 -1.91705 0.714873 0
M  V30 18660 H 1707.77 -4.05159 -0.480603 0
M  V30 18661 H 1706.44 -4.10459 0.670531 0
M  V30 18662 H 1705.02 -3.56892 -1.08085 0
M  V30 18663 N 1707.21 -0.246397 -1.55662 0
M  V30 18664 C 1708.15 0.653368 -2.21359 0
M  V30 18665 C 1709.12 1.1717 -1.1773 0
M  V30 18666 O 1710.31 1.22626 -1.46176 0
M  V30 18667 C 1707.45 1.84484 -2.9165 0
M  V30 18668 C 1706.56 1.36308 -4.09932 0
M  V30 18669 C 1705.7 2.51407 -4.6794 0
M  V30 18670 C 1704.73 2.0009 -5.78472 0
M  V30 18671 N 1703.87 3.08555 -6.30665 0
M  V30 18672 H 1708.71 0.0864458 -2.97875 0
M  V30 18673 H 1706.25 0.0309074 -1.47068 0
M  V30 18674 H 1708.21 2.54476 -3.30602 0
M  V30 18675 H 1706.84 2.38425 -2.17609 0
M  V30 18676 H 1705.89 0.557224 -3.76297 0
M  V30 18677 H 1707.2 0.946988 -4.89728 0
M  V30 18678 H 1706.35 3.29442 -5.09463 0
M  V30 18679 H 1705.09 2.96318 -3.87359 0
M  V30 18680 H 1704.1 1.20526 -5.36427 0
M  V30 18681 H 1705.32 1.5615 -6.60904 0
M  V30 18682 H 1703.27 3.529 -5.52989 0
M  V30 18683 H 1703.19 2.71274 -7.05653 0
M  V30 18684 H 1704.45 3.8665 -6.76847 0
M  V30 18685 N 1708.68 1.57577 0.026722 0
M  V30 18686 C 1709.91 1.9364 0.728771 0
M  V30 18687 C 1710.33 0.846352 1.68767 0
M  V30 18688 O 1709.68 -0.177038 1.81639 0
M  V30 18689 C 1709.73 3.29644 1.48381 0
M  V30 18690 O 1709.46 4.34462 0.563393 0
M  V30 18691 C 1710.96 3.80004 2.2828 0
M  V30 18692 H 1708.18 0.639025 0.204666 0
M  V30 18693 H 1710.72 2.04493 -0.016449 0
M  V30 18694 H 1708.88 3.20181 2.18089 0
M  V30 18695 H 1709.29 5.12982 1.09315 0
M  V30 18696 H 1710.76 4.77671 2.76649 0
M  V30 18697 H 1711.24 3.11319 3.09802 0
M  V30 18698 H 1711.85 3.92558 1.63642 0
M  V30 18699 N 1710.16 -0.299034 1.54737 0
M  V30 18700 C 1711.11 -1.37055 1.82208 0
M  V30 18701 C 1712.1 -1.45855 0.679357 0
M  V30 18702 O 1713.29 -1.49974 0.940044 0
M  V30 18703 C 1710.42 -2.73525 2.07459 0
M  V30 18704 C 1709.5 -2.6894 3.27921 0
M  V30 18705 N 1709.89 -2.33972 4.48432 0
M  V30 18706 C 1708.19 -3.0004 3.29988 0
M  V30 18707 C 1708.89 -2.38734 5.30454 0
M  V30 18708 N 1707.87 -2.76167 4.68223 0
M  V30 18709 H 1711.67 -1.08986 2.72945 0
M  V30 18710 H 1709.18 -0.507618 1.54263 0
M  V30 18711 H 1711.18 -3.50787 2.25287 0
M  V30 18712 H 1709.84 -3.02503 1.1799 0
M  V30 18713 H 1710.85 -2.06392 4.74998 0
M  V30 18714 H 1707.53 -3.33901 2.50632 0
M  V30 18715 H 1708.92 -2.1448 6.36748 0
M  V30 18716 N 1711.64 -1.47227 -0.562322 0
M  V30 18717 C 1712.57 -1.62204 -1.67965 0
M  V30 18718 C 1713.55 -0.471638 -1.63431 0
M  V30 18719 O 1714.74 -0.70036 -1.81131 0
M  V30 18720 C 1711.87 -1.63127 -3.06605 0
M  V30 18721 C 1710.82 -2.77343 -3.25983 0
M  V30 18722 C 1710.15 -2.63336 -4.65358 0
M  V30 18723 C 1711.45 -4.18983 -3.1185 0
M  V30 18724 H 1713.14 -2.55739 -1.55686 0
M  V30 18725 H 1710.69 -1.23075 -0.747561 0
M  V30 18726 H 1712.64 -1.72197 -3.84612 0
M  V30 18727 H 1711.36 -0.661501 -3.19831 0
M  V30 18728 H 1710.02 -2.67776 -2.50383 0
M  V30 18729 H 1709.67 -1.64398 -4.75376 0
M  V30 18730 H 1709.37 -3.39957 -4.79273 0
M  V30 18731 H 1710.89 -2.74327 -5.45506 0
M  V30 18732 H 1712.31 -4.29554 -3.79679 0
M  V30 18733 H 1710.7 -4.96351 -3.37277 0
M  V30 18734 H 1711.77 -4.37709 -2.08661 0
M  V30 18735 N 1713.12 0.808639 -1.35273 0
M  V30 18736 C 1714.36 1.56562 -1.28431 0
M  V30 18737 C 1714.69 1.93982 0.141842 0
M  V30 18738 O 1713.95 1.61409 1.10661 0
M  V30 18739 C 1714.25 2.86667 -2.1344 0
M  V30 18740 C 1713.91 2.68475 -3.6226 0
M  V30 18741 C 1712.57 2.63221 -4.02825 0
M  V30 18742 C 1714.93 2.51151 -4.56698 0
M  V30 18743 C 1712.25 2.38583 -5.35999 0
M  V30 18744 C 1714.61 2.28043 -5.90067 0
M  V30 18745 C 1713.27 2.2121 -6.2978 0
M  V30 18746 H 1712.54 0.572902 -0.469963 0
M  V30 18747 H 1715.19 0.934504 -1.6715 0
M  V30 18748 H 1713.49 3.54146 -1.67595 0
M  V30 18749 H 1715.19 3.44351 -2.05483 0
M  V30 18750 H 1711.78 2.7341 -3.30068 0
M  V30 18751 H 1715.96 2.54223 -4.26244 0
M  V30 18752 H 1711.22 2.31761 -5.65771 0
M  V30 18753 H 1715.39 2.13628 -6.62824 0
M  V30 18754 H 1713.02 2.01881 -7.32904 0
M  V30 18755 N 1714.6 1.19237 1.03055 0
M  V30 18756 C 1716.01 0.996569 1.57878 0
M  V30 18757 C 1716.36 -0.450987 1.90946 0
M  V30 18758 O 1715.48 -1.33009 1.70697 0
M  V30 18759 C 1716.08 1.80272 2.86858 0
M  V30 18760 C 1714.64 1.65097 3.3826 0
M  V30 18761 C 1713.78 1.79079 2.11721 0
M  V30 18762 H 1716.74 1.33633 0.856037 0
M  V30 18763 H 1716.76 1.29781 3.57683 0
M  V30 18764 H 1716.27 2.85621 2.62759 0
M  V30 18765 H 1714.37 0.623267 3.6735 0
M  V30 18766 H 1714.48 2.45527 4.11404 0
M  V30 18767 H 1712.85 1.22124 2.23512 0
M  V30 18768 H 1713.63 2.85885 1.90065 0
M  V30 18769 N 1716.07 -1.22136 0.99602 0
M  V30 18770 C 1717 -2.26463 0.568909 0
M  V30 18771 C 1717.99 -1.65189 -0.405783 0
M  V30 18772 O 1719.17 -1.91935 -0.295735 0
M  V30 18773 C 1716.3 -3.47112 -0.114166 0
M  V30 18774 C 1715.25 -4.20844 0.779387 0
M  V30 18775 C 1714.58 -5.34687 -0.0367787 0
M  V30 18776 C 1715.88 -4.79195 2.07773 0
M  V30 18777 H 1717.57 -2.62443 1.44097 0
M  V30 18778 H 1715.12 -1.26156 0.694314 0
M  V30 18779 H 1717.07 -4.19258 -0.424381 0
M  V30 18780 H 1715.8 -3.10238 -1.02079 0
M  V30 18781 H 1714.46 -3.50537 1.07329 0
M  V30 18782 H 1714.1 -4.94054 -0.94442 0
M  V30 18783 H 1713.8 -5.84944 0.558092 0
M  V30 18784 H 1715.33 -6.09647 -0.341016 0
M  V30 18785 H 1716.74 -5.43266 1.83126 0
M  V30 18786 H 1715.14 -5.39803 2.62169 0
M  V30 18787 H 1716.21 -3.99073 2.75442 0
M  V30 18788 N 1717.55 -0.769612 -1.37531 0
M  V30 18789 C 1718.78 -0.343783 -2.0372 0
M  V30 18790 C 1719.19 1.03816 -1.58173 0
M  V30 18791 O 1718.53 1.6736 -0.75739 0
M  V30 18792 C 1718.6 -0.305844 -3.58197 0
M  V30 18793 C 1718.26 -1.63202 -4.26866 0
M  V30 18794 C 1719.26 -2.58408 -4.51133 0
M  V30 18795 C 1716.94 -1.90587 -4.64739 0
M  V30 18796 C 1718.94 -3.79208 -5.12328 0
M  V30 18797 C 1716.62 -3.11657 -5.25655 0
M  V30 18798 C 1717.62 -4.05788 -5.49386 0
M  V30 18799 O 1717.31 -5.24727 -6.09029 0
M  V30 18800 H 1717.04 -0.142358 -0.66084 0
M  V30 18801 H 1719.59 -1.04399 -1.7689 0
M  V30 18802 H 1717.82 0.450724 -3.84064 0
M  V30 18803 H 1719.51 0.0926269 -4.05794 0
M  V30 18804 H 1720.28 -2.38532 -4.22288 0
M  V30 18805 H 1716.16 -1.18148 -4.45603 0
M  V30 18806 H 1719.7 -4.52694 -5.30767 0
M  V30 18807 H 1715.6 -3.3142 -5.53924 0
M  V30 18808 H 1716.37 -5.25523 -6.27509 0
M  V30 18809 N 1719.03 1.48775 -0.519977 0
M  V30 18810 C 1719.99 2.27967 0.237405 0
M  V30 18811 C 1720.99 1.34787 0.876868 0
M  V30 18812 O 1722.18 1.57773 0.738463 0
M  V30 18813 C 1719.32 3.13353 1.34248 0
M  V30 18814 H 1720.51 2.96386 -0.457753 0
M  V30 18815 H 1718.06 1.53852 -0.275569 0
M  V30 18816 H 1718.8 2.49543 2.0712 0
M  V30 18817 H 1718.58 3.81885 0.889187 0
M  V30 18818 H 1720.07 3.73116 1.87547 0
M  V30 18819 N 1720.51 0.254649 1.55529 0
M  V30 18820 C 1721.79 -0.418663 1.91067 0
M  V30 18821 C 1722.17 -1.75284 1.17638 0
M  V30 18822 O 1721.51 -2.26569 0.296411 0
M  V30 18823 C 1721.72 -0.579125 3.44162 0
M  V30 18824 C 1723.07 -0.871451 4.15561 0
M  V30 18825 O 1724.1 -0.664702 3.49943 0
M  V30 18826 O 1722.95 -1.26563 5.31643 0
M  V30 18827 H 1720.05 -0.22593 0.795541 0
M  V30 18828 H 1722.59 0.299288 1.6704 0
M  V30 18829 H 1721.37 0.36062 3.89635 0
M  V30 18830 H 1720.99 -1.34732 3.74076 0
M  V30 18831 N 1721.99 -1.57589 -0.0183649 0
M  V30 18832 C 1723.21 -1.94024 -0.718491 0
M  V30 18833 C 1723.63 -0.85529 -1.68316 0
M  V30 18834 O 1722.99 0.167403 -1.81731 0
M  V30 18835 C 1723.04 -3.30427 -1.4663 0
M  V30 18836 O 1722.76 -4.34755 -0.540345 0
M  V30 18837 C 1724.26 -3.81209 -2.26262 0
M  V30 18838 H 1721.48 -0.640101 -0.201275 0
M  V30 18839 H 1724.02 -2.04482 0.0272935 0
M  V30 18840 H 1722.18 -3.21333 -2.16388 0
M  V30 18841 H 1722.59 -5.13554 -1.06593 0
M  V30 18842 H 1724.07 -4.79131 -2.74112 0
M  V30 18843 H 1724.54 -3.12957 -3.08147 0
M  V30 18844 H 1725.15 -3.9342 -1.61558 0
M  V30 18845 N 1723.46 0.290824 -1.54893 0
M  V30 18846 C 1724.43 1.34215 -1.85793 0
M  V30 18847 C 1725.43 1.43204 -0.731393 0
M  V30 18848 O 1726.62 1.42663 -0.999647 0
M  V30 18849 C 1723.75 2.72577 -2.0473 0
M  V30 18850 H 1724.94 1.08056 -2.79757 0
M  V30 18851 H 1722.5 0.528008 -1.47111 0
M  V30 18852 H 1723.23 3.03943 -1.13088 0
M  V30 18853 H 1723.02 2.67442 -2.86736 0
M  V30 18854 H 1724.51 3.48573 -2.29971 0
M  V30 18855 N 1724.94 1.47523 0.554506 0
M  V30 18856 C 1726.17 1.57907 1.3369 0
M  V30 18857 C 1726.59 0.230244 1.87391 0
M  V30 18858 O 1725.94 -0.776917 1.65137 0
M  V30 18859 C 1725.99 2.60644 2.50493 0
M  V30 18860 O 1725.71 3.9029 1.99011 0
M  V30 18861 C 1727.22 2.81238 3.42666 0
M  V30 18862 H 1724.44 0.533139 0.407436 0
M  V30 18863 H 1726.98 1.93163 0.671445 0
M  V30 18864 H 1725.13 2.28315 3.12971 0
M  V30 18865 H 1725.55 4.46451 2.75285 0
M  V30 18866 H 1727.02 3.56981 4.21033 0
M  V30 18867 H 1727.5 1.89159 3.96378 0
M  V30 18868 H 1728.11 3.14775 2.86001 0
M  V30 18869 N 1726.42 -0.801453 1.357 0
M  V30 18870 C 1727.65 -1.59001 1.32386 0
M  V30 18871 C 1728.06 -1.88548 -0.0975432 0
M  V30 18872 O 1727.42 -1.49199 -1.05099 0
M  V30 18873 C 1727.47 -2.91822 2.13359 0
M  V30 18874 O 1727.19 -2.63554 3.49958 0
M  V30 18875 C 1728.69 -3.86169 2.17689 0
M  V30 18876 H 1725.91 -0.493557 0.45458 0
M  V30 18877 H 1728.46 -0.995616 1.78627 0
M  V30 18878 H 1726.61 -3.47763 1.70704 0
M  V30 18879 H 1727.03 -3.48397 3.92071 0
M  V30 18880 H 1728.5 -4.76461 2.78727 0
M  V30 18881 H 1728.98 -4.23134 1.17704 0
M  V30 18882 H 1729.58 -3.36163 2.60527 0
M  V30 18883 N 1727.9 -1.19782 -1.02421 0
M  V30 18884 C 1728.85 -0.936475 -2.12915 0
M  V30 18885 C 1729.84 0.10941 -1.69046 0
M  V30 18886 O 1731.05 -0.04026 -1.79955 0
M  V30 18887 H 1727.42 -0.285462 -0.695712 0
M  V30 18888 H 1729.39 -1.87485 -2.32146 0
M  V30 18889 C 1728.14 -0.496786 -3.44133 0
M  V30 18890 H 1727.46 -1.29314 -3.78309 0
M  V30 18891 H 1728.9 -0.353073 -4.22527 0
M  V30 18892 C 1727.36 0.789792 -3.27512 0
M  V30 18893 O 1727.89 1.85009 -3.56559 0
M  V30 18894 N 1726.1 0.748849 -2.80786 0
M  V30 18895 H 1725.65 -0.114256 -2.57346 0
M  V30 18896 H 1725.6 1.61005 -2.70046 0
M  V30 18897 N 1729.38 1.21606 -1.00248 0
M  V30 18898 C 1730.32 2.23884 -0.560771 0
M  V30 18899 C 1731.29 1.60913 0.411864 0
M  V30 18900 O 1732.48 1.88191 0.314476 0
M  V30 18901 C 1729.62 3.44928 0.108948 0
M  V30 18902 C 1728.73 4.22381 -0.906566 0
M  V30 18903 C 1727.87 5.30787 -0.20937 0
M  V30 18904 C 1726.91 5.99969 -1.2126 0
M  V30 18905 N 1726.04 6.99997 -0.543057 0
M  V30 18906 H 1730.88 2.61029 -1.43764 0
M  V30 18907 H 1728.42 1.28278 -0.719937 0
M  V30 18908 H 1730.38 4.14019 0.514244 0
M  V30 18909 H 1729.01 3.08518 0.949544 0
M  V30 18910 H 1728.06 3.52493 -1.43012 0
M  V30 18911 H 1729.37 4.70009 -1.67013 0
M  V30 18912 H 1728.53 6.06176 0.252164 0
M  V30 18913 H 1727.27 4.84159 0.586621 0
M  V30 18914 H 1726.27 5.23353 -1.68467 0
M  V30 18915 H 1727.5 6.48684 -2.00963 0
M  V30 18916 H 1725.44 6.55585 0.233324 0
M  V30 18917 H 1725.36 7.45679 -1.24492 0
M  V30 18918 H 1726.63 7.7943 -0.104643 0
M  V30 18919 N 1730.86 0.776895 1.37121 0
M  V30 18920 C 1731.77 0.167552 2.34001 0
M  V30 18921 C 1732.78 -0.673609 1.60432 0
M  V30 18922 O 1733.96 -0.592327 1.92493 0
M  V30 18923 C 1731.02 -0.697343 3.39615 0
M  V30 18924 C 1730.08 0.160869 4.28998 0
M  V30 18925 C 1729.32 -0.662841 5.29568 0
M  V30 18926 O 1729.54 -1.89962 5.37839 0
M  V30 18927 O 1728.47 -0.0693304 6.0186 0
M  V30 18928 H 1732.3 0.968247 2.87852 0
M  V30 18929 H 1729.88 0.538137 1.39372 0
M  V30 18930 H 1731.77 -1.19094 4.04221 0
M  V30 18931 H 1730.44 -1.47614 2.88083 0
M  V30 18932 H 1729.35 0.700941 3.67475 0
M  V30 18933 H 1730.68 0.902875 4.83848 0
M  V30 18934 N 1732.33 -1.48497 0.527859 0
M  V30 18935 C 1733.28 -2.2959 -0.23607 0
M  V30 18936 C 1734.25 -1.37232 -0.935762 0
M  V30 18937 O 1735.44 -1.66196 -0.937202 0
M  V30 18938 C 1732.58 -3.20551 -1.27832 0
M  V30 18939 C 1731.69 -4.27984 -0.58769 0
M  V30 18940 C 1730.82 -5.06128 -1.61269 0
M  V30 18941 C 1729.86 -6.05367 -0.905404 0
M  V30 18942 N 1729 -6.76577 -1.87585 0
M  V30 18943 H 1733.84 -2.94403 0.461635 0
M  V30 18944 H 1731.38 -1.45137 0.239493 0
M  V30 18945 H 1733.33 -3.71686 -1.89488 0
M  V30 18946 H 1731.96 -2.57665 -1.94444 0
M  V30 18947 H 1731.02 -3.80132 0.142759 0
M  V30 18948 H 1732.33 -4.9879 -0.0322348 0
M  V30 18949 H 1731.48 -5.61266 -2.30359 0
M  V30 18950 H 1730.22 -4.35157 -2.20204 0
M  V30 18951 H 1729.23 -5.49435 -0.200426 0
M  V30 18952 H 1730.45 -6.78335 -0.322197 0
M  V30 18953 H 1728.4 -6.08358 -2.45432 0
M  V30 18954 H 1728.31 -7.4345 -1.37178 0
M  V30 18955 H 1729.58 -7.36305 -2.5588 0
M  V30 18956 N 1733.81 -0.262893 -1.55392 0
M  V30 18957 C 1735.04 0.361057 -2.03725 0
M  V30 18958 C 1735.45 1.5037 -1.14168 0
M  V30 18959 O 1734.81 1.81804 -0.159284 0
M  V30 18960 C 1734.86 0.853697 -3.51275 0
M  V30 18961 O 1734.58 -0.243431 -4.37423 0
M  V30 18962 C 1736.08 1.54671 -4.15442 0
M  V30 18963 H 1733.3 0.0839272 -0.665731 0
M  V30 18964 H 1735.85 -0.391424 -2.00719 0
M  V30 18965 H 1734 1.55631 -3.54765 0
M  V30 18966 H 1734.42 0.133241 -5.24331 0
M  V30 18967 H 1735.89 1.84296 -5.20326 0
M  V30 18968 H 1736.37 2.47413 -3.62882 0
M  V30 18969 H 1736.97 0.888269 -4.15921 0
M  V30 18970 N 1735.29 1.57597 0.0100073 0
M  V30 18971 C 1736.54 1.89308 0.696075 0
M  V30 18972 C 1736.85 0.863884 1.75489 0
M  V30 18973 O 1738.06 1.07087 2.49489 0
M  V30 18974 C 1736.51 3.36017 1.2892 0
M  V30 18975 C 1736.12 4.47211 0.265731 0
M  V30 18976 C 1737.87 3.76852 1.95404 0
M  V30 18977 C 1735.77 5.84991 0.868277 0
M  V30 18978 H 1734.7 0.706368 0.263744 0
M  V30 18979 H 1737.35 1.83435 -0.0488972 0
M  V30 18980 H 1735.74 3.36696 2.08451 0
M  V30 18981 H 1736.91 4.58033 -0.504256 0
M  V30 18982 H 1735.22 4.15332 -0.298096 0
M  V30 18983 H 1737.82 4.77121 2.41371 0
M  V30 18984 H 1738.16 3.09841 2.78036 0
M  V30 18985 H 1738.7 3.7843 1.22621 0
M  V30 18986 H 1735.44 6.5545 0.0809513 0
M  V30 18987 H 1734.96 5.77853 1.60766 0
M  V30 18988 H 1736.64 6.32331 1.36993 0
M  V30 18989 N 1736.77 -0.282606 1.55045 0
M  V30 18990 C 1737.71 -1.34908 1.87266 0
M  V30 18991 C 1738.68 -1.49528 0.72323 0
M  V30 18992 O 1739.87 -1.6409 0.973602 0
M  V30 18993 C 1737.01 -2.70603 2.14168 0
M  V30 18994 C 1736.12 -2.64284 3.41728 0
M  V30 18995 C 1735.26 -3.92094 3.58379 0
M  V30 18996 C 1734.3 -3.80246 4.79666 0
M  V30 18997 N 1733.43 -4.99871 4.93025 0
M  V30 18998 H 1738.27 -1.06731 2.78231 0
M  V30 18999 H 1735.81 -0.515845 1.37759 0
M  V30 19000 H 1737.77 -3.49542 2.27763 0
M  V30 19001 H 1736.4 -2.97003 1.26448 0
M  V30 19002 H 1735.45 -1.77108 3.36656 0
M  V30 19003 H 1736.76 -2.51425 4.30798 0
M  V30 19004 H 1735.92 -4.79473 3.7174 0
M  V30 19005 H 1734.66 -4.07808 2.67476 0
M  V30 19006 H 1733.66 -2.91251 4.66319 0
M  V30 19007 H 1734.89 -3.6606 5.71994 0
M  V30 19008 H 1732.83 -5.16014 4.0505 0
M  V30 19009 H 1732.75 -4.89507 5.76124 0
M  V30 19010 H 1734.02 -5.88849 5.10761 0
M  V30 19011 N 1738.25 -1.47815 -0.546675 0
M  V30 19012 C 1739.49 -1.54238 -1.29975 0
M  V30 19013 C 1739.81 -0.213869 -1.94427 0
M  V30 19014 O 1741.01 -0.156187 -2.7105 0
M  V30 19015 C 1739.47 -2.71938 -2.35749 0
M  V30 19016 C 1739.08 -4.11362 -1.77441 0
M  V30 19017 C 1740.82 -2.87661 -3.12172 0
M  V30 19018 C 1738.73 -5.20347 -2.81057 0
M  V30 19019 H 1737.66 -0.574139 -0.488754 0
M  V30 19020 H 1740.31 -1.74113 -0.579384 0
M  V30 19021 H 1738.69 -2.45463 -3.10747 0
M  V30 19022 H 1739.87 -4.47785 -1.08744 0
M  V30 19023 H 1738.18 -4.00614 -1.13568 0
M  V30 19024 H 1740.78 -3.66252 -3.89568 0
M  V30 19025 H 1741.12 -1.96494 -3.67009 0
M  V30 19026 H 1741.65 -3.13957 -2.44286 0
M  V30 19027 H 1738.39 -6.13426 -2.31061 0
M  V30 19028 H 1737.91 -4.8843 -3.48132 0
M  V30 19029 H 1739.59 -5.47748 -3.44355 0
M  V30 19030 N 1739.72 0.794246 -1.36123 0
M  V30 19031 C 1740.95 1.58813 -1.33391 0
M  V30 19032 C 1741.37 1.87915 0.0834599 0
M  V30 19033 O 1740.73 1.47516 1.05398 0
M  V30 19034 C 1740.78 2.88887 -2.15816 0
M  V30 19035 O 1739.88 3.82271 -1.54734 0
M  V30 19036 H 1739.22 0.481924 -0.456777 0
M  V30 19037 H 1741.75 0.984818 -1.79339 0
M  V30 19038 H 1741.76 3.38201 -2.2822 0
M  V30 19039 H 1740.44 2.67032 -3.18852 0
M  V30 19040 H 1739.02 3.40852 -1.51242 0
M  V30 19041 N 1741.2 1.20323 1.01785 0
M  V30 19042 C 1742.43 1.03893 1.79502 0
M  V30 19043 C 1742.85 -0.407421 1.83635 0
M  V30 19044 O 1742.21 -1.29338 1.27049 0
M  V30 19045 C 1742.26 1.62562 3.21879 0
M  V30 19046 O 1741.36 0.862398 4.03282 0
M  V30 19047 H 1740.7 0.366479 0.553705 0
M  V30 19048 H 1743.23 1.59589 1.28034 0
M  V30 19049 H 1743.24 1.66244 3.72595 0
M  V30 19050 H 1741.92 2.67826 3.18186 0
M  V30 19051 H 1740.49 0.899687 3.61884 0
M  V30 19052 N 1742.68 -1.21073 1.00892 0
M  V30 19053 C 1743.9 -1.94774 0.712588 0
M  V30 19054 C 1744.33 -1.73812 -0.719085 0
M  V30 19055 O 1743.69 -1.02747 -1.49374 0
M  V30 19056 C 1743.74 -3.45156 1.04402 0
M  V30 19057 O 1742.84 -4.12122 0.151433 0
M  V30 19058 H 1742.18 -0.608775 0.26512 0
M  V30 19059 H 1744.71 -1.53721 1.35022 0
M  V30 19060 H 1744.72 -3.95744 0.992511 0
M  V30 19061 H 1743.4 -3.59736 2.08716 0
M  V30 19062 H 1741.97 -3.71994 0.259805 0
M  V30 19063 N 1744.16 -0.784156 -1.36707 0
M  V30 19064 C 1745.41 -0.353434 -1.98986 0
M  V30 19065 C 1745.73 1.07714 -1.62551 0
M  V30 19066 O 1745 1.7416 -0.896938 0
M  V30 19067 H 1743.58 -0.127693 -0.736005 0
M  V30 19068 H 1746.24 -1.00503 -1.66988 0
M  V30 19069 H 1745.34 -0.441028 -3.08968 0
M  V30 19070 N 1745.64 1.48215 -0.535727 0
M  V30 19071 C 1746.58 2.31387 0.237209 0
M  V30 19072 C 1747.58 1.41589 0.929995 0
M  V30 19073 O 1748.78 1.58466 0.853725 0
M  V30 19074 H 1745.16 0.745928 0.0953663 0
M  V30 19075 H 1747.13 2.94452 -0.483772 0
M  V30 19076 C 1745.88 3.23771 1.26757 0
M  V30 19077 H 1745.2 3.92818 0.743902 0
M  V30 19078 H 1746.64 3.84841 1.7797 0
M  V30 19079 C 1745.1 2.45779 2.30422 0
M  V30 19080 O 1745.63 2.18673 3.36964 0
M  V30 19081 N 1743.84 2.07171 2.03785 0
M  V30 19082 H 1743.38 2.29416 1.17159 0
M  V30 19083 H 1743.34 1.55301 2.73366 0
M  V30 19084 N 1747.11 0.27113 1.5525 0
M  V30 19085 C 1748.53 -0.0831186 1.59383 0
M  V30 19086 C 1748.73 -1.54931 1.28835 0
M  V30 19087 O 1747.79 -2.29756 1.0473 0
M  V30 19088 C 1749.1 0.287921 2.99318 0
M  V30 19089 C 1750.65 0.234209 3.12123 0
M  V30 19090 C 1751.12 0.57963 4.54317 0
M  V30 19091 N 1752.61 0.531033 4.60146 0
M  V30 19092 C 1753.35 0.771156 5.68191 0
M  V30 19093 N 1752.84 1.07569 6.84398 0
M  V30 19094 N 1754.64 0.700223 5.57722 0
M  V30 19095 H 1746.79 1.22702 1.73373 0
M  V30 19096 H 1749.05 0.495424 0.808244 0
M  V30 19097 H 1748.76 1.30746 3.26494 0
M  V30 19098 H 1748.63 -0.373205 3.75349 0
M  V30 19099 H 1751.02 -0.776035 2.84713 0
M  V30 19100 H 1751.1 0.929535 2.38313 0
M  V30 19101 H 1750.74 1.58754 4.82452 0
M  V30 19102 H 1750.67 -0.137442 5.26421 0
M  V30 19103 H 1753.16 0.305377 3.76664 0
M  V30 19104 H 1753.48 1.24568 7.62694 0
M  V30 19105 H 1751.82 1.11342 6.86023 0
M  V30 19106 H 1755.01 0.462183 4.65813 0
M  V30 19107 H 1755.19 0.890744 6.41849 0
M  V30 19108 N 1748.59 -1.576 -0.00164943 0
M  V30 19109 C 1749.84 -1.90496 -0.686842 0
M  V30 19110 C 1750.17 -0.871747 -1.7387 0
M  V30 19111 O 1749.42 0.123698 -1.95309 0
M  V30 19112 C 1749.72 -3.30147 -1.36886 0
M  V30 19113 C 1749.39 -4.48645 -0.450358 0
M  V30 19114 C 1748.05 -4.80795 -0.197461 0
M  V30 19115 C 1750.4 -5.20882 0.18214 0
M  V30 19116 C 1747.73 -5.82554 0.696255 0
M  V30 19117 C 1750.08 -6.23593 1.06372 0
M  V30 19118 C 1748.75 -6.54201 1.32581 0
M  V30 19119 H 1748.02 -0.697074 -0.251333 0
M  V30 19120 H 1750.66 -1.91425 0.0535238 0
M  V30 19121 H 1748.97 -3.25334 -2.18323 0
M  V30 19122 H 1750.66 -3.52859 -1.90504 0
M  V30 19123 H 1747.25 -4.23525 -0.657635 0
M  V30 19124 H 1751.44 -4.963 -0.000231234 0
M  V30 19125 H 1746.69 -6.0463 0.907337 0
M  V30 19126 H 1750.87 -6.78698 1.56018 0
M  V30 19127 H 1748.5 -7.3287 2.02002 0
M  V30 19128 N 1750.07 0.274379 -1.55193 0
M  V30 19129 C 1751.02 1.35903 -1.88767 0
M  V30 19130 C 1752.01 1.512 -0.763874 0
M  V30 19131 O 1753.22 1.53 -0.948201 0
M  V30 19132 H 1749.59 0.454495 -0.599114 0
M  V30 19133 H 1751.56 1.04837 -2.79378 0
M  V30 19134 C 1750.31 2.71277 -2.17496 0
M  V30 19135 H 1749.64 2.60297 -3.03456 0
M  V30 19136 H 1751.08 3.46115 -2.44909 0
M  V30 19137 C 1749.54 3.22268 -0.982101 0
M  V30 19138 O 1750.07 4.01119 -0.216035 0
M  V30 19139 N 1748.27 2.79931 -0.780179 0
M  V30 19140 H 1747.82 2.15923 -1.40482 0
M  V30 19141 H 1747.78 3.14396 0.0163297 0
M  V30 19142 N 1751.55 1.48103 0.538828 0
M  V30 19143 C 1752.48 1.58044 1.65996 0
M  V30 19144 C 1753.49 0.465316 1.56009 0
M  V30 19145 O 1754.68 0.735769 1.62631 0
M  V30 19146 C 1751.78 1.48587 3.0459 0
M  V30 19147 C 1750.96 2.74987 3.40148 0
M  V30 19148 C 1750.01 2.59109 4.57984 0
M  V30 19149 O 1749.04 3.32974 4.61646 0
M  V30 19150 N 1750.24 1.68143 5.55615 0
M  V30 19151 H 1753.01 2.54726 1.57908 0
M  V30 19152 H 1750.57 1.44715 0.725901 0
M  V30 19153 H 1752.56 1.35673 3.81281 0
M  V30 19154 H 1751.13 0.599157 3.06804 0
M  V30 19155 H 1750.35 3.02531 2.52723 0
M  V30 19156 H 1751.64 3.58862 3.60687 0
M  V30 19157 H 1751.04 1.07317 5.55427 0
M  V30 19158 H 1749.59 1.61171 6.31559 0
M  V30 19159 N 1753.03 -0.787016 1.36542 0
M  V30 19160 C 1754.27 -1.54728 1.311 0
M  V30 19161 C 1754.61 -1.93895 -0.108853 0
M  V30 19162 O 1753.88 -1.62896 -1.06278 0
M  V30 19163 C 1754.16 -2.82272 2.23594 0
M  V30 19164 C 1754.02 -2.49457 3.74287 0
M  V30 19165 C 1755.34 -3.84112 2.14816 0
M  V30 19166 H 1752.45 -0.561347 0.477555 0
M  V30 19167 H 1755.1 -0.904027 1.67115 0
M  V30 19168 H 1753.25 -3.37163 1.93011 0
M  V30 19169 H 1754.92 -2.00599 4.15401 0
M  V30 19170 H 1753.16 -1.82366 3.93605 0
M  V30 19171 H 1753.83 -3.40563 4.3442 0
M  V30 19172 H 1756.31 -3.38674 2.41741 0
M  V30 19173 H 1755.18 -4.71101 2.817 0
M  V30 19174 H 1755.45 -4.2725 1.13621 0
M  V30 19175 N 1754.5 -1.20861 -1.01145 0
M  V30 19176 C 1755.75 -1.02343 -1.75082 0
M  V30 19177 C 1756.08 0.44278 -1.89085 0
M  V30 19178 O 1755.36 1.32867 -1.42045 0
M  V30 19179 C 1755.64 -1.71368 -3.1671 0
M  V30 19180 C 1755.49 -3.25466 -3.1047 0
M  V30 19181 C 1756.81 -1.45097 -4.15494 0
M  V30 19182 H 1753.93 -0.373198 -0.635525 0
M  V30 19183 H 1756.57 -1.48947 -1.17961 0
M  V30 19184 H 1754.72 -1.31746 -3.6548 0
M  V30 19185 H 1756.4 -3.74415 -2.69464 0
M  V30 19186 H 1754.64 -3.56104 -2.47735 0
M  V30 19187 H 1755.31 -3.68924 -4.10608 0
M  V30 19188 H 1757.79 -1.7948 -3.75401 0
M  V30 19189 H 1756.66 -1.95917 -5.12745 0
M  V30 19190 H 1756.92 -0.379628 -4.40467 0
M  V30 19191 N 1755.98 1.20536 -1.01532 0
M  V30 19192 C 1757.23 1.90152 -0.704973 0
M  V30 19193 C 1757.56 1.78569 0.763343 0
M  V30 19194 O 1756.84 1.16906 1.55445 0
M  V30 19195 C 1757.12 3.41589 -1.1397 0
M  V30 19196 C 1756.97 3.62113 -2.66823 0
M  V30 19197 C 1758.29 4.34335 -0.709984 0
M  V30 19198 H 1755.41 0.690524 -0.257577 0
M  V30 19199 H 1758.05 1.41959 -1.26284 0
M  V30 19200 H 1756.2 3.82765 -0.66505 0
M  V30 19201 H 1757.87 3.30197 -3.2213 0
M  V30 19202 H 1756.12 3.05626 -3.07855 0
M  V30 19203 H 1756.79 4.68261 -2.92294 0
M  V30 19204 H 1759.26 4.00799 -1.11801 0
M  V30 19205 H 1758.14 5.38915 -1.04221 0
M  V30 19206 H 1758.4 4.40391 0.388408 0
M  V30 19207 N 1757.46 0.791395 1.36289 0
M  V30 19208 C 1758.39 0.137038 2.27788 0
M  V30 19209 C 1759.37 -0.688032 1.47326 0
M  V30 19210 O 1760.56 -0.658587 1.76621 0
M  V30 19211 C 1757.68 -0.811389 3.28838 0
M  V30 19212 C 1756.73 -0.0678631 4.26446 0
M  V30 19213 S 1757.56 1.25774 5.2052 0
M  V30 19214 C 1758.72 0.313368 6.25115 0
M  V30 19215 H 1758.95 0.912848 2.82939 0
M  V30 19216 H 1756.48 0.585708 1.42859 0
M  V30 19217 H 1758.44 -1.35313 3.87557 0
M  V30 19218 H 1757.1 -1.56046 2.72596 0
M  V30 19219 H 1756.3 -0.787597 4.97808 0
M  V30 19220 H 1755.9 0.403461 3.71817 0
M  V30 19221 H 1758.19 -0.507056 6.756 0
M  V30 19222 H 1759.13 0.995731 7.01064 0
M  V30 19223 H 1759.54 -0.0841768 5.64437 0
M  V30 19224 N 1758.94 -1.47929 0.54358 0
M  V30 19225 C 1759.89 -2.3151 -0.224935 0
M  V30 19226 C 1760.88 -1.4208 -0.922473 0
M  V30 19227 O 1762.09 -1.58917 -0.845309 0
M  V30 19228 H 1758.46 -0.746424 -0.0914091 0
M  V30 19229 H 1760.43 -2.94192 0.499381 0
M  V30 19230 C 1759.18 -3.24439 -1.25038 0
M  V30 19231 H 1758.51 -3.93207 -0.723059 0
M  V30 19232 H 1759.95 -3.8578 -1.75927 0
M  V30 19233 C 1758.4 -2.46998 -2.29115 0
M  V30 19234 O 1758.93 -2.20457 -3.358 0
M  V30 19235 N 1757.14 -2.08249 -2.02684 0
M  V30 19236 H 1756.69 -2.30034 -1.15941 0
M  V30 19237 H 1756.65 -1.56748 -2.72539 0
M  V30 19238 N 1760.42 -0.27936 -1.55104 0
M  V30 19239 C 1761.64 0.342295 -2.04556 0
M  V30 19240 C 1762.07 1.48367 -1.15624 0
M  V30 19241 O 1761.43 1.8063 -0.15572 0
M  V30 19242 C 1761.47 0.796785 -3.51687 0
M  V30 19243 O 1760.58 1.90364 -3.65835 0
M  V30 19244 H 1759.92 0.07012 -0.660287 0
M  V30 19245 H 1762.45 -0.414896 -2.00349 0
M  V30 19246 H 1762.46 1.09141 -3.93131 0
M  V30 19247 H 1761.13 -0.0382637 -4.15882 0
M  V30 19248 H 1759.71 1.61123 -3.36294 0
M  V30 19249 N 1761.9 1.57599 -0.0067085 0
M  V30 19250 C 1763.14 1.9114 0.677733 0
M  V30 19251 C 1763.47 0.881328 1.7305 0
M  V30 19252 O 1762.75 -0.099049 1.94248 0
M  V30 19253 C 1763.03 3.35241 1.31474 0
M  V30 19254 C 1762.89 4.4897 0.273055 0
M  V30 19255 C 1764.2 3.78886 2.23905 0
M  V30 19256 H 1761.32 0.695119 0.244907 0
M  V30 19257 H 1763.97 1.89907 -0.059378 0
M  V30 19258 H 1762.12 3.36423 1.94299 0
M  V30 19259 H 1763.79 4.59924 -0.356031 0
M  V30 19260 H 1762.03 4.31915 -0.403961 0
M  V30 19261 H 1762.7 5.46772 0.757941 0
M  V30 19262 H 1765.18 3.79299 1.7109 0
M  V30 19263 H 1764.05 4.80451 2.65439 0
M  V30 19264 H 1764.31 3.13129 3.12094 0
M  V30 19265 N 1763.37 -0.266145 1.55336 0
M  V30 19266 C 1764.62 -0.994862 1.75917 0
M  V30 19267 C 1764.94 -1.8657 0.567147 0
M  V30 19268 O 1764.21 -1.91394 -0.417738 0
M  V30 19269 H 1762.79 -0.370318 0.648748 0
M  V30 19270 H 1765.45 -0.288724 1.9275 0
M  V30 19271 H 1764.55 -1.62781 2.66287 0
M  V30 19272 N 1764.85 -1.48386 -0.530967 0
M  V30 19273 C 1765.8 -1.63279 -1.65658 0
M  V30 19274 C 1766.79 -0.499261 -1.61876 0
M  V30 19275 O 1768 -0.677951 -1.66745 0
M  V30 19276 H 1764.37 -0.514332 -0.548605 0
M  V30 19277 H 1766.35 -2.57818 -1.50241 0
M  V30 19278 C 1765.09 -1.68878 -3.03933 0
M  V30 19279 H 1764.42 -2.55462 -3.07537 0
M  V30 19280 H 1765.86 -1.83343 -3.82311 0
M  V30 19281 C 1764.32 -0.427267 -3.3418 0
M  V30 19282 O 1764.85 0.460276 -3.99054 0
M  V30 19283 N 1763.05 -0.299268 -2.89055 0
M  V30 19284 H 1762.6 -1.02248 -2.36438 0
M  V30 19285 H 1762.56 0.543787 -3.09662 0
M  V30 19286 N 1766.33 0.779763 -1.36958 0
M  V30 19287 C 1767.57 1.55113 -1.33114 0
M  V30 19288 C 1767.93 1.91808 0.0859451 0
M  V30 19289 O 1769.13 2.67644 0.24903 0
M  V30 19290 C 1767.41 2.78752 -2.23679 0
M  V30 19291 S 1768.96 3.68899 -2.37611 0
M  V30 19292 H 1765.78 0.531134 -0.472671 0
M  V30 19293 H 1768.38 0.917613 -1.72627 0
M  V30 19294 H 1767.09 2.4986 -3.25573 0
M  V30 19295 H 1766.62 3.47069 -1.85221 0
M  V30 19296 H 1768.63 4.70347 -1.58075 0
M  V30 19297 N 1767.81 1.21396 1.00503 0
M  V30 19298 C 1769.04 1.05714 1.77855 0
M  V30 19299 C 1769.45 -0.393058 1.84663 0
M  V30 19300 O 1768.81 -1.2727 1.308 0
M  V30 19301 C 1768.86 1.64774 3.21763 0
M  V30 19302 O 1768.58 3.0412 3.15346 0
M  V30 19303 C 1770.08 1.54202 4.15616 0
M  V30 19304 H 1767.3 0.371241 0.558947 0
M  V30 19305 H 1769.84 1.60733 1.26433 0
M  V30 19306 H 1768 1.13847 3.70294 0
M  V30 19307 H 1768.41 3.32356 4.05758 0
M  V30 19308 H 1769.89 2.00269 5.14389 0
M  V30 19309 H 1770.36 0.496455 4.36385 0
M  V30 19310 H 1770.97 2.04377 3.72975 0
M  V30 19311 N 1769.29 -1.19996 1.0217 0
M  V30 19312 C 1770.22 -2.21695 0.540962 0
M  V30 19313 C 1771.2 -1.57232 -0.414343 0
M  V30 19314 O 1772.38 -1.85533 -0.33314 0
M  V30 19315 C 1769.51 -3.38035 -0.212109 0
M  V30 19316 C 1768.55 -4.20824 0.693529 0
M  V30 19317 S 1769.39 -4.89756 2.16562 0
M  V30 19318 C 1770.54 -6.09513 1.42286 0
M  V30 19319 H 1770.78 -2.62131 1.40267 0
M  V30 19320 H 1768.31 -1.30128 0.831026 0
M  V30 19321 H 1770.27 -4.05473 -0.640484 0
M  V30 19322 H 1768.93 -2.96049 -1.04945 0
M  V30 19323 H 1768.12 -5.03874 0.112557 0
M  V30 19324 H 1767.72 -3.58667 1.05991 0
M  V30 19325 H 1770.01 -6.73816 0.705585 0
M  V30 19326 H 1770.96 -6.72079 2.22969 0
M  V30 19327 H 1771.37 -5.56895 0.923499 0
M  V30 19328 N 1770.76 -0.798611 -1.35867 0
M  V30 19329 C 1771.71 -0.191425 -2.31811 0
M  V30 19330 C 1772.71 0.65438 -1.56251 0
M  V30 19331 O 1773.91 0.548435 -1.71441 0
M  V30 19332 H 1770.29 -0.0431343 -0.750762 0
M  V30 19333 H 1772.26 -1.01589 -2.80575 0
M  V30 19334 C 1771.01 0.651912 -3.41534 0
M  V30 19335 H 1770.33 0.0104309 -3.99799 0
M  V30 19336 H 1771.77 1.04328 -4.10964 0
M  V30 19337 C 1770.23 1.81407 -2.83889 0
M  V30 19338 O 1770.76 2.91115 -2.76794 0
M  V30 19339 N 1768.96 1.62308 -2.41049 0
M  V30 19340 H 1768.51 0.730709 -2.47019 0
M  V30 19341 H 1768.47 2.40226 -2.02827 0
M  V30 19342 N 1772.24 1.47639 -0.551417 0
M  V30 19343 C 1773.49 2.02484 -0.0252051 0
M  V30 19344 C 1773.82 1.42638 1.3223 0
M  V30 19345 O 1773.07 0.569434 1.87232 0
M  V30 19346 C 1773.37 3.57187 0.123467 0
M  V30 19347 C 1773.04 4.35925 -1.15241 0
M  V30 19348 C 1771.7 4.57157 -1.50203 0
M  V30 19349 C 1774.05 4.81377 -1.99815 0
M  V30 19350 C 1771.38 5.2109 -2.69597 0
M  V30 19351 C 1773.73 5.46626 -3.18406 0
M  V30 19352 C 1772.39 5.66093 -3.53688 0
M  V30 19353 H 1771.66 0.740943 -0.0092232 0
M  V30 19354 H 1774.31 1.77378 -0.721764 0
M  V30 19355 H 1772.62 3.81253 0.902951 0
M  V30 19356 H 1774.31 3.97267 0.545876 0
M  V30 19357 H 1770.9 4.19674 -0.870169 0
M  V30 19358 H 1775.09 4.64756 -1.74112 0
M  V30 19359 H 1770.34 5.34356 -2.97108 0
M  V30 19360 H 1774.52 5.8081 -3.84231 0
M  V30 19361 H 1772.14 6.15404 -4.46298 0
M  V30 19362 N 1773.72 0.287581 1.54954 0
M  V30 19363 C 1774.67 -0.594449 2.23013 0
M  V30 19364 C 1775.64 -1.14007 1.20795 0
M  V30 19365 O 1776.82 -1.18708 1.49376 0
M  V30 19366 C 1773.96 -1.76687 2.96439 0
M  V30 19367 C 1773.08 -1.25391 4.13402 0
M  V30 19368 C 1772.21 -2.38912 4.74441 0
M  V30 19369 C 1771.25 -1.84683 5.83574 0
M  V30 19370 N 1770.39 -2.91725 6.38624 0
M  V30 19371 H 1775.23 -0.00743921 2.97999 0
M  V30 19372 H 1772.76 0.00809578 1.47098 0
M  V30 19373 H 1774.72 -2.45621 3.37233 0
M  V30 19374 H 1773.35 -2.32571 2.23853 0
M  V30 19375 H 1772.4 -0.45726 3.77642 0
M  V30 19376 H 1773.72 -0.816813 4.92067 0
M  V30 19377 H 1772.87 -3.15818 5.18019 0
M  V30 19378 H 1771.61 -2.85943 3.95079 0
M  V30 19379 H 1770.61 -1.06261 5.39434 0
M  V30 19380 H 1771.84 -1.38572 6.64812 0
M  V30 19381 H 1769.78 -3.38115 5.62152 0
M  V30 19382 H 1769.7 -2.5247 7.12597 0
M  V30 19383 H 1770.97 -3.68569 6.86861 0
M  V30 19384 N 1775.2 -1.57593 0.0150662 0
M  V30 19385 C 1776.15 -2.10501 -0.989557 0
M  V30 19386 C 1777.14 -1.02836 -1.34615 0
M  V30 19387 O 1778.35 -1.21286 -1.33002 0
M  V30 19388 H 1774.72 -0.672343 -0.336838 0
M  V30 19389 H 1776.69 -2.93871 -0.517893 0
M  V30 19390 C 1775.44 -2.63583 -2.26759 0
M  V30 19391 H 1774.76 -3.46069 -2.00191 0
M  V30 19392 H 1776.2 -3.04264 -2.95295 0
M  V30 19393 C 1774.66 -1.5568 -2.98773 0
M  V30 19394 O 1775.19 -0.948437 -3.90343 0
M  V30 19395 N 1773.4 -1.28062 -2.60861 0
M  V30 19396 H 1772.95 -1.77719 -1.86477 0
M  V30 19397 H 1772.9 -0.560878 -3.09357 0
M  V30 19398 N 1776.68 0.257904 -1.55475 0
M  V30 19399 C 1777.62 1.33893 -1.90198 0
M  V30 19400 C 1778.62 1.50381 -0.779868 0
M  V30 19401 O 1779.82 1.51986 -0.964376 0
M  V30 19402 H 1776.2 0.448115 -0.603901 0
M  V30 19403 H 1778.17 1.01868 -2.80474 0
M  V30 19404 C 1776.92 2.68954 -2.20361 0
M  V30 19405 H 1776.24 2.57064 -3.062 0
M  V30 19406 H 1777.68 3.43498 -2.48567 0
M  V30 19407 C 1776.14 3.21208 -1.01623 0
M  V30 19408 O 1776.67 4.00867 -0.258567 0
M  V30 19409 N 1774.88 2.79088 -0.809825 0
M  V30 19410 H 1774.42 2.1442 -1.42764 0
M  V30 19411 H 1774.38 3.14395 -0.0170171 0
M  V30 19412 N 1778.15 1.48666 0.52309 0
M  V30 19413 C 1779.1 1.64155 1.6479 0
M  V30 19414 C 1780.1 0.507838 1.61609 0
M  V30 19415 O 1781.3 0.686784 1.66383 0
M  V30 19416 H 1777.68 0.517234 0.545869 0
M  V30 19417 H 1779.65 2.58611 1.48871 0
M  V30 19418 C 1778.4 1.70488 3.03033 0
M  V30 19419 H 1777.72 2.5709 3.06178 0
M  V30 19420 H 1779.16 1.85367 3.81333 0
M  V30 19421 C 1777.62 0.444984 3.33948 0
M  V30 19422 O 1778.15 -0.439107 3.99293 0
M  V30 19423 N 1776.36 0.314593 2.88892 0
M  V30 19424 H 1775.9 1.03501 2.35893 0
M  V30 19425 H 1775.86 -0.527357 3.09946 0
M  V30 19426 N 1779.63 -0.772489 1.37369 0
M  V30 19427 C 1780.88 -1.528 1.32275 0
M  V30 19428 C 1781.2 -1.9478 -0.092541 0
M  V30 19429 O 1780.47 -1.6624 -1.0364 0
M  V30 19430 H 1779.05 -0.566727 0.486651 0
M  V30 19431 H 1781.71 -0.919435 1.7185 0
M  V30 19432 H 1780.81 -2.42774 1.96131 0
M  V30 19433 N 1781.11 -1.21927 -0.998575 0
M  V30 19434 C 1782.06 -0.981427 -2.10881 0
M  V30 19435 C 1783.05 0.0735277 -1.6924 0
M  V30 19436 O 1784.26 -0.078422 -1.79829 0
M  V30 19437 H 1780.63 -0.300155 -0.6895 0
M  V30 19438 H 1782.6 -1.92367 -2.28117 0
M  V30 19439 C 1781.35 -0.56967 -3.43002 0
M  V30 19440 H 1780.68 -1.37309 -3.75481 0
M  V30 19441 H 1782.12 -0.442618 -4.21683 0
M  V30 19442 C 1780.58 0.720145 -3.29113 0
M  V30 19443 O 1781.11 1.77404 -3.60403 0
M  V30 19444 N 1779.31 0.689122 -2.82311 0
M  V30 19445 H 1778.86 -0.168817 -2.57046 0
M  V30 19446 H 1778.82 1.55241 -2.734 0
M  V30 19447 N 1782.59 1.19452 -1.02805 0
M  V30 19448 C 1783.54 2.24684 -0.60165 0
M  V30 19449 C 1784.53 1.65414 0.365319 0
M  V30 19450 O 1785.74 1.78473 0.233988 0
M  V30 19451 H 1782.11 0.731043 -0.176296 0
M  V30 19452 H 1784.08 2.57967 -1.49985 0
M  V30 19453 C 1782.83 3.47685 0.0325515 0
M  V30 19454 H 1782.15 3.93579 -0.702532 0
M  V30 19455 H 1783.59 4.2298 0.29386 0
M  V30 19456 C 1782.05 3.11684 1.27887 0
M  V30 19457 O 1782.58 3.24262 2.37101 0
M  V30 19458 N 1780.79 2.66124 1.16731 0
M  V30 19459 H 1780.34 2.56089 0.278595 0
M  V30 19460 H 1780.29 2.42407 2.00215 0
M  V30 19461 N 1784.07 0.805805 1.35442 0
M  V30 19462 C 1785.32 0.382303 1.98044 0
M  V30 19463 C 1785.63 -1.05602 1.64644 0
M  V30 19464 O 1786.83 -1.5826 2.20604 0
M  V30 19465 C 1785.29 0.632619 3.54296 0
M  V30 19466 C 1784.9 2.08344 3.96607 0
M  V30 19467 C 1786.64 0.274435 4.23612 0
M  V30 19468 C 1784.55 2.27954 5.45702 0
M  V30 19469 H 1783.48 0.13921 0.741037 0
M  V30 19470 H 1786.13 0.989752 1.54519 0
M  V30 19471 H 1784.51 -0.0447699 3.95975 0
M  V30 19472 H 1785.69 2.79857 3.66083 0
M  V30 19473 H 1784 2.40142 3.40178 0
M  V30 19474 H 1786.6 0.399019 5.33209 0
M  V30 19475 H 1786.94 -0.779292 4.08941 0
M  V30 19476 H 1787.47 0.90571 3.87352 0
M  V30 19477 H 1784.21 3.3177 5.6534 0
M  V30 19478 H 1783.73 1.60965 5.77798 0
M  V30 19479 H 1785.41 2.09469 6.12153 0
M  V30 19480 N 1785.54 -1.47344 0.559239 0
M  V30 19481 C 1786.79 -2.02068 0.035872 0
M  V30 19482 C 1787.11 -1.43573 -1.31953 0
M  V30 19483 O 1786.38 -0.611672 -1.86106 0
M  V30 19484 H 1784.96 -0.746929 0.0102713 0
M  V30 19485 H 1787.63 -1.80724 0.729707 0
M  V30 19486 H 1786.72 -3.12059 -0.0507123 0
M  V30 19487 N 1787.02 -0.295795 -1.54799 0
M  V30 19488 C 1787.95 0.575863 -2.26288 0
M  V30 19489 C 1788.93 1.14217 -1.26049 0
M  V30 19490 O 1790.12 1.17248 -1.54812 0
M  V30 19491 C 1787.25 1.7503 -2.9997 0
M  V30 19492 C 1786.2 1.31459 -4.07311 0
M  V30 19493 C 1785.53 2.57377 -4.6868 0
M  V30 19494 C 1786.83 0.449629 -5.20361 0
M  V30 19495 H 1788.52 -0.0203797 -2.99393 0
M  V30 19496 H 1786.07 -0.0112418 -1.43996 0
M  V30 19497 H 1788.02 2.36615 -3.487 0
M  V30 19498 H 1786.75 2.3727 -2.24434 0
M  V30 19499 H 1785.4 0.721829 -3.59423 0
M  V30 19500 H 1785.05 3.1792 -3.89789 0
M  V30 19501 H 1784.75 2.28927 -5.41171 0
M  V30 19502 H 1786.28 3.19774 -5.2017 0
M  V30 19503 H 1787.69 0.971014 -5.65017 0
M  V30 19504 H 1786.09 0.259121 -5.9954 0
M  V30 19505 H 1787.16 -0.526564 -4.82032 0
M  V30 19506 N 1788.5 1.57583 -0.0234236 0
M  V30 19507 C 1789.43 2.12907 0.958804 0
M  V30 19508 C 1790.41 1.0438 1.34309 0
M  V30 19509 O 1791.6 1.32184 1.42271 0
M  V30 19510 C 1788.73 2.65151 2.24304 0
M  V30 19511 C 1787.68 3.78414 1.99967 0
M  V30 19512 C 1787.01 4.17064 3.34607 0
M  V30 19513 C 1788.31 5.04727 1.34342 0
M  V30 19514 H 1790 2.95228 0.498081 0
M  V30 19515 H 1787.55 1.42017 0.238138 0
M  V30 19516 H 1789.5 3.02487 2.93393 0
M  V30 19517 H 1788.22 1.79983 2.72532 0
M  V30 19518 H 1786.88 3.41507 1.33298 0
M  V30 19519 H 1786.53 3.28886 3.80583 0
M  V30 19520 H 1786.23 4.93385 3.19132 0
M  V30 19521 H 1787.76 4.56978 4.04973 0
M  V30 19522 H 1789.17 5.39686 1.93422 0
M  V30 19523 H 1787.57 5.86009 1.29282 0
M  V30 19524 H 1788.64 4.83872 0.315625 0
M  V30 19525 N 1789.98 -0.249655 1.5561 0
M  V30 19526 C 1791.23 -0.976148 1.76963 0
M  V30 19527 C 1791.55 -1.85958 0.586903 0
M  V30 19528 O 1790.82 -1.91827 -0.397415 0
M  V30 19529 H 1789.4 -0.363416 0.652639 0
M  V30 19530 H 1792.06 -0.268264 1.93045 0
M  V30 19531 H 1791.16 -1.59948 2.67998 0
M  V30 19532 N 1791.46 -1.48941 -0.515198 0
M  V30 19533 C 1792.7 -1.5771 -1.27019 0
M  V30 19534 C 1793.03 -0.257484 -1.92788 0
M  V30 19535 O 1792.29 0.753481 -1.80613 0
M  V30 19536 C 1792.59 -2.67508 -2.37011 0
M  V30 19537 C 1792.25 -4.09471 -1.88796 0
M  V30 19538 C 1790.91 -4.48108 -1.75365 0
M  V30 19539 C 1793.27 -4.98378 -1.52543 0
M  V30 19540 C 1790.59 -5.73438 -1.24038 0
M  V30 19541 C 1792.95 -6.24212 -1.02673 0
M  V30 19542 C 1791.61 -6.61691 -0.878703 0
M  V30 19543 H 1790.88 -0.577101 -0.464796 0
M  V30 19544 H 1793.53 -1.82718 -0.573279 0
M  V30 19545 H 1791.83 -2.36417 -3.12433 0
M  V30 19546 H 1793.53 -2.71505 -2.95104 0
M  V30 19547 H 1790.12 -3.78967 -2.00205 0
M  V30 19548 H 1794.3 -4.69194 -1.61773 0
M  V30 19549 H 1789.56 -6.01188 -1.11277 0
M  V30 19550 H 1793.73 -6.9249 -0.73697 0
M  V30 19551 H 1791.36 -7.58691 -0.478792 0
M  V30 19552 N 1792.94 0.765193 -1.37777 0
M  V30 19553 C 1793.88 1.87866 -1.34071 0
M  V30 19554 C 1794.85 1.64828 -0.205154 0
M  V30 19555 O 1796.04 1.86655 -0.395555 0
M  V30 19556 C 1793.18 3.25018 -1.16006 0
M  V30 19557 C 1792.29 3.59966 -2.38848 0
M  V30 19558 C 1791.43 4.8636 -2.13605 0
M  V30 19559 C 1790.46 5.14059 -3.32279 0
M  V30 19560 N 1789.6 6.31644 -3.06545 0
M  V30 19561 H 1794.44 1.90369 -2.29267 0
M  V30 19562 H 1791.98 0.930625 -1.1392 0
M  V30 19563 H 1793.94 4.04145 -1.03552 0
M  V30 19564 H 1792.57 3.21872 -0.24454 0
M  V30 19565 H 1791.62 2.75773 -2.62018 0
M  V30 19566 H 1792.93 3.76369 -3.27334 0
M  V30 19567 H 1792.08 5.73406 -1.9822 0
M  V30 19568 H 1790.82 4.72073 -1.22467 0
M  V30 19569 H 1789.83 4.25487 -3.48196 0
M  V30 19570 H 1791.05 5.30251 -4.24277 0
M  V30 19571 H 1789 6.18703 -2.18043 0
M  V30 19572 H 1788.92 6.48494 -3.88576 0
M  V30 19573 H 1790.18 7.21608 -2.94791 0
M  V30 19574 N 1794.41 1.22455 0.992094 0
M  V30 19575 C 1795.38 0.996703 2.06394 0
M  V30 19576 C 1796.38 -0.0371659 1.60757 0
M  V30 19577 O 1797.57 0.20142 1.73032 0
M  V30 19578 C 1794.7 0.505675 3.37129 0
M  V30 19579 H 1795.89 1.94776 2.28041 0
M  V30 19580 H 1793.44 1.04335 1.16378 0
M  V30 19581 H 1794.18 -0.449697 3.21167 0
M  V30 19582 H 1793.96 1.25158 3.71588 0
M  V30 19583 H 1795.45 0.366535 4.15988 0
M  V30 19584 N 1795.89 -1.18905 1.03437 0
M  V30 19585 C 1797.17 -1.84537 0.648503 0
M  V30 19586 C 1797.55 -1.92228 -0.872445 0
M  V30 19587 O 1796.9 -1.44342 -1.77137 0
M  V30 19588 C 1797.11 -3.23198 1.31698 0
M  V30 19589 C 1798.45 -3.99301 1.44374 0
M  V30 19590 O 1799.48 -3.32615 1.27458 0
M  V30 19591 O 1798.34 -5.18767 1.7188 0
M  V30 19592 H 1795.43 -0.795488 0.226114 0
M  V30 19593 H 1797.98 -1.2635 1.13287 0
M  V30 19594 H 1796.75 -3.12466 2.35543 0
M  V30 19595 H 1796.37 -3.89035 0.820829 0
M  V30 19596 N 1797.37 -0.812977 -1.35013 0
M  V30 19597 C 1798.6 -0.409014 -2.02817 0
M  V30 19598 C 1799.01 0.982004 -1.61252 0
M  V30 19599 O 1798.37 1.63384 -0.813137 0
M  V30 19600 C 1798.42 -0.490117 -3.58162 0
M  V30 19601 O 1798.14 -1.8263 -3.98218 0
M  V30 19602 C 1799.64 -0.0797786 -4.43228 0
M  V30 19603 H 1796.86 -0.165356 -0.650306 0
M  V30 19604 H 1799.41 -1.09837 -1.72499 0
M  V30 19605 H 1797.56 0.151057 -3.87105 0
M  V30 19606 H 1797.98 -1.79356 -4.92881 0
M  V30 19607 H 1799.45 -0.18763 -5.51681 0
M  V30 19608 H 1799.93 0.975612 -4.28227 0
M  V30 19609 H 1800.53 -0.694359 -4.19594 0
M  V30 19610 N 1798.85 1.47045 -0.567045 0
M  V30 19611 C 1800.09 2.02746 -0.046749 0
M  V30 19612 C 1800.43 1.4394 1.30364 0
M  V30 19613 O 1799.7 0.598616 1.85059 0
M  V30 19614 C 1799.98 3.60082 0.0358156 0
M  V30 19615 C 1799.84 4.29302 -1.34237 0
M  V30 19616 C 1801.16 4.3376 0.744338 0
M  V30 19617 H 1798.28 0.736769 -0.0184627 0
M  V30 19618 H 1800.92 1.75365 -0.73123 0
M  V30 19619 H 1799.07 3.83541 0.618745 0
M  V30 19620 H 1800.74 4.17155 -1.96926 0
M  V30 19621 H 1798.98 3.89273 -1.91439 0
M  V30 19622 H 1799.65 5.37956 -1.23722 0
M  V30 19623 H 1802.13 4.15353 0.249287 0
M  V30 19624 H 1801.01 5.43457 0.771095 0
M  V30 19625 H 1801.27 4.03686 1.80249 0
M  V30 19626 N 1800.33 0.304 1.5464 0
M  V30 19627 C 1801.57 -0.304845 2.00496 0
M  V30 19628 C 1801.9 -1.53308 1.19206 0
M  V30 19629 O 1801.18 -1.92627 0.269305 0
M  V30 19630 C 1801.46 -0.658462 3.54029 0
M  V30 19631 C 1801.32 0.579125 4.46056 0
M  V30 19632 C 1802.63 -1.4838 4.14332 0
M  V30 19633 H 1799.75 -0.109327 0.728846 0
M  V30 19634 H 1802.4 0.416694 1.85374 0
M  V30 19635 H 1800.55 -1.27319 3.67045 0
M  V30 19636 H 1802.22 1.21758 4.44941 0
M  V30 19637 H 1800.46 1.21179 4.16531 0
M  V30 19638 H 1801.13 0.287518 5.51251 0
M  V30 19639 H 1803.61 -0.964367 4.04771 0
M  V30 19640 H 1802.48 -1.70001 5.21911 0
M  V30 19641 H 1802.74 -2.47394 3.66399 0
M  V30 19642 N 1801.8 -1.57568 0.0317802 0
M  V30 19643 C 1802.77 -2.09296 -0.934239 0
M  V30 19644 C 1803.77 -1.00855 -1.25239 0
M  V30 19645 O 1804.96 -1.27004 -1.19229 0
M  V30 19646 C 1802.09 -2.56103 -2.24998 0
M  V30 19647 H 1803.28 -2.95933 -0.486183 0
M  V30 19648 H 1800.83 -1.54796 -0.2163 0
M  V30 19649 H 1801.57 -1.72803 -2.74426 0
M  V30 19650 H 1801.35 -3.35329 -2.03216 0
M  V30 19651 H 1802.84 -2.96339 -2.94233 0
M  V30 19652 N 1803.28 0.241399 -1.5574 0
M  V30 19653 C 1804.51 0.99028 -1.82231 0
M  V30 19654 C 1804.93 1.77949 -0.609559 0
M  V30 19655 O 1804.29 1.75843 0.44148 0
M  V30 19656 C 1804.34 1.89947 -3.06516 0
M  V30 19657 O 1803.44 2.99201 -2.83818 0
M  V30 19658 H 1802.78 0.281488 -0.601382 0
M  V30 19659 H 1805.31 0.260721 -2.02932 0
M  V30 19660 H 1805.32 2.31308 -3.36096 0
M  V30 19661 H 1804 1.31924 -3.94422 0
M  V30 19662 H 1802.58 2.61929 -2.6542 0
M  V30 19663 N 1804.76 1.49212 0.507292 0
M  V30 19664 C 1805.99 1.6208 1.28599 0
M  V30 19665 C 1806.4 0.289745 1.86563 0
M  V30 19666 O 1805.76 -0.723987 1.67525 0
M  V30 19667 C 1805.81 2.68482 2.42074 0
M  V30 19668 O 1805.53 3.96424 1.86493 0
M  V30 19669 C 1807.03 2.91997 3.33546 0
M  V30 19670 H 1804.25 0.545831 0.390268 0
M  V30 19671 H 1806.8 1.95201 0.609652 0
M  V30 19672 H 1804.95 2.38156 3.05549 0
M  V30 19673 H 1805.37 4.54983 2.60942 0
M  V30 19674 H 1806.84 3.70195 4.09463 0
M  V30 19675 H 1807.32 2.01673 3.9016 0
M  V30 19676 H 1807.92 3.23715 2.75842 0
M  V30 19677 N 1806.24 -0.757876 1.38181 0
M  V30 19678 C 1807.48 -1.51822 1.35358 0
M  V30 19679 C 1807.84 -1.92314 -0.0574579 0
M  V30 19680 O 1807.13 -1.62246 -1.01916 0
M  V30 19681 C 1807.33 -2.78548 2.23933 0
M  V30 19682 C 1807.16 -2.50444 3.73508 0
M  V30 19683 C 1805.93 -2.43877 4.42552 0
M  V30 19684 C 1808.12 -2.17507 4.66042 0
M  V30 19685 N 1806.11 -2.08003 5.77588 0
M  V30 19686 C 1807.48 -1.91888 5.89558 0
M  V30 19687 C 1809.53 -2.0378 4.54288 0
M  V30 19688 C 1808.23 -1.53928 7.02637 0
M  V30 19689 C 1810.26 -1.67221 5.67266 0
M  V30 19690 C 1809.62 -1.42472 6.89841 0
M  V30 19691 H 1805.72 -0.555312 0.550593 0
M  V30 19692 H 1808.31 -0.882923 1.7353 0
M  V30 19693 H 1806.48 -3.39893 1.87956 0
M  V30 19694 H 1808.21 -3.44565 2.12267 0
M  V30 19695 H 1804.96 -2.60203 3.95716 0
M  V30 19696 H 1805.39 -1.92723 6.48989 0
M  V30 19697 H 1810.03 -2.21592 3.60079 0
M  V30 19698 H 1807.75 -1.34856 7.96768 0
M  V30 19699 H 1811.33 -1.57238 5.60149 0
M  V30 19700 H 1810.21 -1.14602 7.75781 0
M  V30 19701 N 1807.72 -1.22979 -0.985586 0
M  V30 19702 C 1808.95 -1.08372 -1.75895 0
M  V30 19703 C 1809.35 0.368113 -1.85584 0
M  V30 19704 O 1808.7 1.26663 -1.3305 0
M  V30 19705 C 1808.76 -1.62873 -3.20488 0
M  V30 19706 C 1808.42 -3.11572 -3.34323 0
M  V30 19707 C 1809.42 -4.08923 -3.21058 0
M  V30 19708 C 1807.11 -3.51176 -3.59139 0
M  V30 19709 C 1809.1 -5.43862 -3.32404 0
M  V30 19710 C 1806.79 -4.86262 -3.70125 0
M  V30 19711 C 1807.78 -5.82414 -3.56767 0
M  V30 19712 O 1807.47 -7.15046 -3.67374 0
M  V30 19713 H 1807.2 -0.380128 -0.558998 0
M  V30 19714 H 1809.76 -1.63191 -1.24731 0
M  V30 19715 H 1807.99 -1.0247 -3.72876 0
M  V30 19716 H 1809.68 -1.43819 -3.79567 0
M  V30 19717 H 1810.44 -3.79669 -3.01789 0
M  V30 19718 H 1806.32 -2.76853 -3.6861 0
M  V30 19719 H 1809.87 -6.18894 -3.21895 0
M  V30 19720 H 1805.76 -5.15194 -3.88903 0
M  V30 19721 H 1806.53 -7.22725 -3.84202 0
M  V30 19722 N 1809.19 1.18355 -1.04066 0
M  V30 19723 C 1810.42 1.91996 -0.762952 0
M  V30 19724 C 1810.83 1.76413 0.683745 0
M  V30 19725 O 1810.18 1.09121 1.47778 0
M  V30 19726 C 1810.24 3.4384 -1.04949 0
M  V30 19727 C 1809.9 3.83201 -2.4901 0
M  V30 19728 C 1810.9 3.86984 -3.47187 0
M  V30 19729 C 1808.58 4.14497 -2.83721 0
M  V30 19730 C 1810.58 4.21513 -4.78127 0
M  V30 19731 C 1808.26 4.48696 -4.14867 0
M  V30 19732 C 1809.26 4.52181 -5.1188 0
M  V30 19733 O 1808.95 4.85582 -6.40676 0
M  V30 19734 H 1808.68 0.616351 -0.277647 0
M  V30 19735 H 1811.24 1.51092 -1.39141 0
M  V30 19736 H 1809.47 3.84984 -0.363904 0
M  V30 19737 H 1811.16 3.98729 -0.759579 0
M  V30 19738 H 1811.92 3.62944 -3.21709 0
M  V30 19739 H 1807.8 4.10962 -2.08881 0
M  V30 19740 H 1811.34 4.24148 -5.53845 0
M  V30 19741 H 1807.24 4.72198 -4.40113 0
M  V30 19742 H 1808.01 5.03485 -6.45326 0
M  V30 19743 N 1810.67 0.820125 1.3458 0
M  V30 19744 C 1811.9 0.419764 2.02597 0
M  V30 19745 C 1812.32 -0.973439 1.6177 0
M  V30 19746 O 1811.67 -1.6295 0.821791 0
M  V30 19747 C 1811.72 0.509104 3.57897 0
M  V30 19748 O 1811.44 1.84739 3.97244 0
M  V30 19749 C 1812.95 0.103283 4.4318 0
M  V30 19750 H 1810.17 0.168803 0.64942 0
M  V30 19751 H 1812.71 1.10751 1.71914 0
M  V30 19752 H 1810.86 -0.130526 3.8718 0
M  V30 19753 H 1811.28 1.81967 4.91923 0
M  V30 19754 H 1812.75 0.216884 5.51574 0
M  V30 19755 H 1813.23 -0.952888 4.28738 0
M  V30 19756 H 1813.84 0.716601 4.19219 0
M  V30 19757 N 1812.15 -1.46743 0.574835 0
M  V30 19758 C 1813.1 -2.27259 -0.183667 0
M  V30 19759 C 1814.08 -1.35406 -0.869139 0
M  V30 19760 O 1815.28 -1.59637 -0.764534 0
M  V30 19761 C 1812.41 -3.21578 -1.20178 0
M  V30 19762 C 1811.49 -4.20914 -0.518826 0
M  V30 19763 N 1811.88 -5.04044 0.421132 0
M  V30 19764 C 1810.18 -4.39293 -0.770561 0
M  V30 19765 C 1810.88 -5.75898 0.819539 0
M  V30 19766 N 1809.86 -5.43333 0.170429 0
M  V30 19767 H 1813.66 -2.8892 0.538761 0
M  V30 19768 H 1811.17 -1.57497 0.396049 0
M  V30 19769 H 1813.17 -3.77961 -1.75929 0
M  V30 19770 H 1811.83 -2.61476 -1.92511 0
M  V30 19771 H 1812.84 -5.11742 0.796245 0
M  V30 19772 H 1809.52 -3.90347 -1.48107 0
M  V30 19773 H 1810.91 -6.52745 1.59293 0
M  V30 19774 N 1813.63 -0.312197 -1.54477 0
M  V30 19775 C 1814.56 0.60117 -2.20139 0
M  V30 19776 C 1815.54 1.12441 -1.17456 0
M  V30 19777 O 1816.72 1.19052 -1.46146 0
M  V30 19778 C 1813.85 1.8237 -2.8541 0
M  V30 19779 C 1812.9 1.43272 -4.01716 0
M  V30 19780 S 1813.73 0.479095 -5.33353 0
M  V30 19781 C 1814.89 1.70917 -6.02112 0
M  V30 19782 H 1815.12 0.0433644 -2.97268 0
M  V30 19783 H 1812.65 -0.0963038 -1.54099 0
M  V30 19784 H 1814.61 2.52522 -3.2364 0
M  V30 19785 H 1813.27 2.35268 -2.08105 0
M  V30 19786 H 1812.46 2.34339 -4.46208 0
M  V30 19787 H 1812.07 0.811019 -3.65101 0
M  V30 19788 H 1814.36 2.64821 -6.23599 0
M  V30 19789 H 1815.3 1.30661 -6.95941 0
M  V30 19790 H 1815.71 1.89098 -5.31886 0
M  V30 19791 N 1815.11 1.57549 -0.040136 0
M  V30 19792 C 1816.52 1.56434 0.316341 0
M  V30 19793 C 1816.72 1.04679 1.72176 0
M  V30 19794 O 1815.78 0.698444 2.42648 0
M  V30 19795 C 1817.09 3.00301 0.154883 0
M  V30 19796 C 1818.64 3.12177 0.226821 0
M  V30 19797 C 1819.11 4.57903 0.0940219 0
M  V30 19798 N 1820.61 4.62955 0.150654 0
M  V30 19799 C 1821.34 5.73355 0.0718466 0
M  V30 19800 N 1820.84 6.92775 -0.0586777 0
M  V30 19801 N 1822.63 5.61957 0.126632 0
M  V30 19802 H 1814.78 1.89516 -0.959032 0
M  V30 19803 H 1817.04 0.872251 -0.371324 0
M  V30 19804 H 1816.75 3.42158 -0.813674 0
M  V30 19805 H 1816.62 3.65795 0.920521 0
M  V30 19806 H 1819.01 2.70225 1.18584 0
M  V30 19807 H 1819.09 2.49383 -0.569384 0
M  V30 19808 H 1818.74 5.00538 -0.861629 0
M  V30 19809 H 1818.67 5.18691 0.909231 0
M  V30 19810 H 1821.16 3.77064 0.251232 0
M  V30 19811 H 1821.47 7.72719 -0.111818 0
M  V30 19812 H 1819.81 6.94937 -0.0936119 0
M  V30 19813 H 1823.01 4.67549 0.227081 0
M  V30 19814 H 1823.18 6.47971 0.0617551 0
M  V30 19815 N 1816.58 -0.233136 1.55866 0
M  V30 19816 C 1817.86 -0.982866 1.69113 0
M  V30 19817 C 1818.24 -2.0286 0.584041 0
M  V30 19818 O 1817.59 -2.24781 -0.410606 0
M  V30 19819 C 1817.8 -1.60378 3.09967 0
M  V30 19820 C 1819.15 -2.10044 3.69008 0
M  V30 19821 O 1820.17 -1.70294 3.12855 0
M  V30 19822 O 1819.03 -2.8307 4.67476 0
M  V30 19823 H 1816.12 -0.458373 0.688348 0
M  V30 19824 H 1818.67 -0.225833 1.68191 0
M  V30 19825 H 1817.44 -0.848104 3.81999 0
M  V30 19826 H 1817.07 -2.42666 3.14959 0
M  V30 19827 N 1818.06 -1.49479 -0.499372 0
M  V30 19828 C 1819.01 -1.62662 -1.59766 0
M  V30 19829 C 1820 -0.482218 -1.53504 0
M  V30 19830 O 1821.19 -0.735252 -1.61006 0
M  V30 19831 C 1818.32 -1.69797 -2.98368 0
M  V30 19832 C 1817.4 -2.8982 -3.09621 0
M  V30 19833 N 1817.8 -4.13876 -2.90758 0
M  V30 19834 C 1816.09 -2.87791 -3.40723 0
M  V30 19835 C 1816.79 -4.94566 -3.06235 0
M  V30 19836 N 1815.77 -4.27963 -3.35184 0
M  V30 19837 H 1819.57 -2.56296 -1.43839 0
M  V30 19838 H 1817.09 -1.46274 -0.705532 0
M  V30 19839 H 1819.08 -1.7734 -3.77301 0
M  V30 19840 H 1817.74 -0.773015 -3.15364 0
M  V30 19841 H 1818.75 -4.43829 -2.669 0
M  V30 19842 H 1815.43 -2.0468 -3.63885 0
M  V30 19843 H 1816.82 -6.03122 -2.9613 0
M  V30 19844 N 1819.54 0.750537 -1.38581 0
M  V30 19845 C 1820.77 1.53978 -1.38196 0
M  V30 19846 C 1821.18 1.8878 0.0274976 0
M  V30 19847 O 1820.54 1.52997 0.994894 0
M  V30 19848 C 1820.59 2.83702 -2.24043 0
M  V30 19849 O 1820.31 2.50384 -3.59499 0
M  V30 19850 C 1821.81 3.77823 -2.31872 0
M  V30 19851 H 1819.03 0.476345 -0.472585 0
M  V30 19852 H 1821.58 0.928634 -1.82199 0
M  V30 19853 H 1819.73 3.41187 -1.83494 0
M  V30 19854 H 1820.15 3.33605 -4.04732 0
M  V30 19855 H 1821.62 4.65788 -2.96218 0
M  V30 19856 H 1822.1 4.18474 -1.33327 0
M  V30 19857 H 1822.7 3.26262 -2.72824 0
M  V30 19858 N 1821.02 1.235 0.979051 0
M  V30 19859 C 1821.97 1.01485 2.09293 0
M  V30 19860 C 1822.96 -0.0465937 1.69336 0
M  V30 19861 O 1824.17 0.107021 1.79682 0
M  V30 19862 H 1820.54 0.311087 0.684638 0
M  V30 19863 H 1822.51 1.95972 2.25028 0
M  V30 19864 C 1821.26 0.624167 3.42052 0
M  V30 19865 H 1820.59 1.43265 3.73249 0
M  V30 19866 H 1822.03 0.509648 4.20926 0
M  V30 19867 C 1820.48 -0.667694 3.30217 0
M  V30 19868 O 1821.01 -1.71648 3.6318 0
M  V30 19869 N 1819.22 -0.644122 2.83372 0
M  V30 19870 H 1818.77 0.20969 2.56745 0
M  V30 19871 H 1818.73 -1.50872 2.75835 0
M  V30 19872 N 1822.5 -1.17802 1.04693 0
M  V30 19873 C 1823.72 -1.92408 0.774194 0
M  V30 19874 C 1824.15 -1.76012 -0.663424 0
M  V30 19875 O 1823.51 -1.07447 -1.4603 0
M  V30 19876 C 1823.55 -3.4166 1.1533 0
M  V30 19877 O 1822.66 -4.11431 0.282469 0
M  V30 19878 H 1822 -0.600033 0.284353 0
M  V30 19879 H 1824.53 -1.49348 1.39844 0
M  V30 19880 H 1824.54 -3.92386 1.11791 0
M  V30 19881 H 1823.21 -3.52914 2.20056 0
M  V30 19882 H 1821.79 -3.70979 0.378021 0
M  V30 19883 N 1823.98 -0.827251 -1.34143 0
M  V30 19884 C 1824.92 -0.240552 -2.31353 0
M  V30 19885 C 1825.92 0.62109 -1.57603 0
M  V30 19886 O 1827.12 0.511947 -1.72566 0
M  V30 19887 H 1823.5 -0.0590494 -0.749678 0
M  V30 19888 H 1825.47 -1.07518 -2.78357 0
M  V30 19889 C 1824.22 0.579321 -3.4284 0
M  V30 19890 H 1823.54 -0.0743746 -3.99731 0
M  V30 19891 H 1824.98 0.955871 -4.13085 0
M  V30 19892 C 1823.44 1.75345 -2.87673 0
M  V30 19893 O 1823.97 2.85178 -2.82907 0
M  V30 19894 N 1822.18 1.57158 -2.44437 0
M  V30 19895 H 1821.72 0.678148 -2.48513 0
M  V30 19896 H 1821.68 2.35869 -2.07877 0
M  V30 19897 N 1825.45 1.46436 -0.582609 0
M  V30 19898 C 1826.7 2.01986 -0.0680147 0
M  V30 19899 C 1827.02 1.45654 1.29653 0
M  V30 19900 O 1826.29 0.641203 1.85109 0
M  V30 19901 H 1824.87 0.746671 -0.022153 0
M  V30 19902 H 1827.53 1.79541 -0.758367 0
M  V30 19903 H 1826.63 3.121 0.00106001 0
M  V30 19904 N 1826.93 0.320385 1.54309 0
M  V30 19905 C 1828.17 -0.283775 2.02421 0
M  V30 19906 C 1828.54 -1.49594 1.20357 0
M  V30 19907 O 1829.74 -2.17275 1.58256 0
M  V30 19908 C 1828.01 -0.612699 3.52109 0
M  V30 19909 S 1829.57 -1.19697 4.22159 0
M  V30 19910 H 1826.38 -0.0860212 0.705777 0
M  V30 19911 H 1828.99 0.452768 1.90185 0
M  V30 19912 H 1827.69 0.277697 4.09459 0
M  V30 19913 H 1827.22 -1.37952 3.68419 0
M  V30 19914 H 1829.24 -2.48394 4.29552 0
M  V30 19915 N 1828.41 -1.57525 0.0484906 0
M  V30 19916 C 1829.66 -1.92585 -0.62589 0
M  V30 19917 C 1829.98 -0.926621 -1.71009 0
M  V30 19918 O 1829.24 0.0614997 -1.95603 0
M  V30 19919 C 1829.54 -3.34335 -1.26313 0
M  V30 19920 C 1829.2 -4.49851 -0.307397 0
M  V30 19921 C 1827.87 -4.8118 -0.0443996 0
M  V30 19922 C 1830.22 -5.20039 0.347762 0
M  V30 19923 C 1827.55 -5.80044 0.881238 0
M  V30 19924 C 1829.9 -6.19893 1.26157 0
M  V30 19925 C 1828.56 -6.49651 1.53327 0
M  V30 19926 H 1827.83 -0.704717 -0.229029 0
M  V30 19927 H 1830.48 -1.91158 0.114397 0
M  V30 19928 H 1828.78 -3.32115 -2.07862 0
M  V30 19929 H 1830.48 -3.58741 -1.79182 0
M  V30 19930 H 1827.07 -4.25402 -0.522561 0
M  V30 19931 H 1831.26 -4.9605 0.157663 0
M  V30 19932 H 1826.51 -6.01437 1.09924 0
M  V30 19933 H 1830.69 -6.73391 1.77532 0
M  V30 19934 H 1828.31 -7.26073 2.25216 0
M  V30 19935 N 1829.89 0.224867 -1.55988 0
M  V30 19936 C 1831.13 0.946775 -1.80021 0
M  V30 19937 C 1831.49 1.82104 -0.620957 0
M  V30 19938 O 1830.78 1.8769 0.385108 0
M  V30 19939 C 1830.98 1.8227 -3.07429 0
M  V30 19940 C 1830.8 1.03472 -4.37634 0
M  V30 19941 C 1829.57 0.730974 -4.99985 0
M  V30 19942 C 1831.77 0.401622 -5.12729 0
M  V30 19943 N 1829.75 -0.0787572 -6.13849 0
M  V30 19944 C 1831.13 -0.271655 -6.19405 0
M  V30 19945 C 1833.18 0.314318 -4.96907 0
M  V30 19946 C 1831.88 -1.02388 -7.11976 0
M  V30 19947 C 1833.91 -0.424434 -5.89875 0
M  V30 19948 C 1833.27 -1.08627 -6.95974 0
M  V30 19949 H 1829.37 0.326825 -0.710429 0
M  V30 19950 H 1831.95 0.217939 -1.93476 0
M  V30 19951 H 1830.13 2.52338 -2.95263 0
M  V30 19952 H 1831.86 2.48183 -3.19668 0
M  V30 19953 H 1828.61 1.04818 -4.61855 0
M  V30 19954 H 1829.04 -0.472361 -6.7535 0
M  V30 19955 H 1833.68 0.811656 -4.14936 0
M  V30 19956 H 1831.4 -1.53275 -7.93431 0
M  V30 19957 H 1834.98 -0.492945 -5.79708 0
M  V30 19958 H 1833.86 -1.64877 -7.66672 0
M  V30 19959 N 1831.37 1.49742 0.491438 0
M  V30 19960 C 1832.31 1.67614 1.61271 0
M  V30 19961 C 1833.31 0.542004 1.60495 0
M  V30 19962 O 1834.51 0.721922 1.64889 0
M  V30 19963 H 1830.89 0.528696 0.534775 0
M  V30 19964 H 1832.86 2.61711 1.43352 0
M  V30 19965 C 1831.61 1.76877 2.99349 0
M  V30 19966 H 1830.93 2.63526 3.00656 0
M  V30 19967 H 1832.37 1.93414 3.77315 0
M  V30 19968 C 1830.83 0.515719 3.32929 0
M  V30 19969 O 1831.36 -0.354312 4.00134 0
M  V30 19970 N 1829.57 0.3758 2.8816 0
M  V30 19971 H 1829.11 1.08481 2.33644 0
M  V30 19972 H 1829.07 -0.461494 3.10995 0
M  V30 19973 N 1832.84 -0.743177 1.38977 0
M  V30 19974 C 1834.09 -1.50256 1.35755 0
M  V30 19975 C 1834.42 -1.94438 -0.0491287 0
M  V30 19976 O 1833.67 -1.66505 -1.02834 0
M  V30 19977 C 1833.97 -2.76157 2.26874 0
M  V30 19978 C 1833.64 -2.50885 3.74657 0
M  V30 19979 C 1832.3 -2.43702 4.14925 0
M  V30 19980 C 1834.65 -2.29075 4.6816 0
M  V30 19981 C 1831.98 -2.12738 5.46772 0
M  V30 19982 C 1834.33 -1.9963 6.00275 0
M  V30 19983 C 1833 -1.9091 6.39617 0
M  V30 19984 H 1832.27 -0.549827 0.496761 0
M  V30 19985 H 1834.91 -0.85369 1.71419 0
M  V30 19986 H 1833.22 -3.45746 1.84301 0
M  V30 19987 H 1834.92 -3.34155 2.21679 0
M  V30 19988 H 1831.51 -2.57351 3.42737 0
M  V30 19989 H 1835.69 -2.33597 4.37888 0
M  V30 19990 H 1830.95 -2.04504 5.76184 0
M  V30 19991 H 1835.12 -1.8176 6.72262 0
M  V30 19992 H 1832.75 -1.66683 7.41701 0
M  V30 19993 N 1834.32 -1.24018 -0.972487 0
M  V30 19994 C 1835.57 -1.07105 -1.70913 0
M  V30 19995 C 1835.88 0.390908 -1.91654 0
M  V30 19996 O 1837.09 0.68013 -2.62843 0
M  V30 19997 C 1835.55 -1.86823 -3.07612 0
M  V30 19998 C 1835.15 -3.37399 -2.94731 0
M  V30 19999 C 1836.9 -1.78425 -3.85182 0
M  V30 20000 C 1834.81 -4.09479 -4.2671 0
M  V30 20001 H 1833.74 -0.397184 -0.640907 0
M  V30 20002 H 1836.39 -1.48056 -1.08405 0
M  V30 20003 H 1834.77 -1.38683 -3.70922 0
M  V30 20004 H 1835.94 -3.93084 -2.40462 0
M  V30 20005 H 1834.26 -3.46697 -2.3063 0
M  V30 20006 H 1836.85 -2.29584 -4.82903 0
M  V30 20007 H 1837.2 -0.748555 -4.09515 0
M  V30 20008 H 1837.73 -2.24219 -3.28589 0
M  V30 20009 H 1834.47 -5.13387 -4.07571 0
M  V30 20010 H 1833.99 -3.5858 -4.80812 0
M  V30 20011 H 1835.67 -4.16212 -4.95355 0
M  V30 20012 N 1835.8 1.17245 -1.05316 0
M  V30 20013 C 1837.03 1.91995 -0.784387 0
M  V30 20014 C 1837.45 1.76362 0.65408 0
M  V30 20015 O 1836.81 1.0822 1.45458 0
M  V30 20016 C 1836.86 3.41043 -1.1714 0
M  V30 20017 O 1835.96 4.11276 -0.304285 0
M  V30 20018 H 1835.3 0.598516 -0.287532 0
M  V30 20019 H 1837.83 1.48604 -1.40634 0
M  V30 20020 H 1837.84 3.91788 -1.13871 0
M  V30 20021 H 1836.52 3.51742 -2.21924 0
M  V30 20022 H 1835.09 3.70773 -0.39769 0
M  V30 20023 N 1837.28 0.834353 1.33702 0
M  V30 20024 C 1838.19 0.266649 2.3308 0
M  V30 20025 C 1839.2 -0.604958 1.63145 0
M  V30 20026 O 1840.38 -0.510151 1.94832 0
M  V30 20027 C 1837.45 -0.552673 3.42267 0
M  V30 20028 C 1836.51 0.342677 4.2793 0
M  V30 20029 C 1835.74 -0.437637 5.31903 0
M  V30 20030 O 1835.96 -1.6698 5.45412 0
M  V30 20031 O 1834.9 0.186001 6.01613 0
M  V30 20032 H 1838.72 1.08946 2.83486 0
M  V30 20033 H 1836.31 0.596765 1.36964 0
M  V30 20034 H 1838.19 -1.01842 4.08908 0
M  V30 20035 H 1836.86 -1.35263 2.94085 0
M  V30 20036 H 1835.77 0.856168 3.64171 0
M  V30 20037 H 1837.1 1.10728 4.79583 0
M  V30 20038 N 1838.76 -1.46125 0.590367 0
M  V30 20039 C 1839.67 -2.34177 -0.140761 0
M  V30 20040 C 1840.68 -1.50213 -0.878181 0
M  V30 20041 O 1841.86 -1.83063 -0.839644 0
M  V30 20042 C 1838.92 -3.27537 -1.13669 0
M  V30 20043 C 1837.98 -4.27403 -0.403103 0
M  V30 20044 C 1837.22 -5.16302 -1.35159 0
M  V30 20045 O 1837.44 -5.08283 -2.58853 0
M  V30 20046 O 1836.37 -5.95753 -0.858003 0
M  V30 20047 H 1840.2 -2.98063 0.582401 0
M  V30 20048 H 1837.79 -1.45225 0.35072 0
M  V30 20049 H 1839.67 -3.85112 -1.71074 0
M  V30 20050 H 1838.34 -2.66237 -1.84118 0
M  V30 20051 H 1837.25 -3.73493 0.212986 0
M  V30 20052 H 1838.58 -4.9151 0.260565 0
M  V30 20053 N 1840.23 -0.328564 -1.54137 0
M  V30 20054 C 1841.18 0.550772 -2.21248 0
M  V30 20055 C 1842.17 1.07776 -1.19471 0
M  V30 20056 O 1843.36 1.01395 -1.4508 0
M  V30 20057 C 1840.49 1.70871 -2.97755 0
M  V30 20058 C 1839.58 1.19638 -4.06875 0
M  V30 20059 N 1839.97 0.404108 -5.04183 0
M  V30 20060 C 1838.26 1.47465 -4.20916 0
M  V30 20061 C 1838.97 0.127848 -5.81559 0
M  V30 20062 N 1837.94 0.715362 -5.38872 0
M  V30 20063 H 1841.74 -0.0617731 -2.93835 0
M  V30 20064 H 1839.26 -0.13467 -1.61841 0
M  V30 20065 H 1841.25 2.35048 -3.44322 0
M  V30 20066 H 1839.91 2.32468 -2.26691 0
M  V30 20067 H 1840.93 0.046507 -5.17879 0
M  V30 20068 H 1837.6 2.0961 -3.61067 0
M  V30 20069 H 1838.99 -0.510286 -6.69959 0
M  V30 20070 N 1841.71 1.57497 -0.0568439 0
M  V30 20071 C 1842.96 1.92533 0.614452 0
M  V30 20072 C 1843.28 0.936373 1.71047 0
M  V30 20073 O 1842.55 -0.0178803 1.95892 0
M  V30 20074 H 1841.13 0.710724 0.229958 0
M  V30 20075 H 1843.79 1.94583 -0.111181 0
M  V30 20076 H 1842.89 2.93928 1.04941 0
M  V30 20077 N 1843.19 -0.216591 1.56105 0
M  V30 20078 C 1844.44 -0.937215 1.80521 0
M  V30 20079 C 1844.79 -1.81772 0.630605 0
M  V30 20080 O 1844.08 -1.87891 -0.375149 0
M  V30 20081 C 1844.28 -1.80637 3.08391 0
M  V30 20082 C 1844.11 -1.01149 4.38177 0
M  V30 20083 C 1842.88 -0.704448 5.00365 0
M  V30 20084 C 1845.08 -0.374425 5.12935 0
M  V30 20085 N 1843.06 0.11131 6.13799 0
M  V30 20086 C 1844.43 0.3045 6.19252 0
M  V30 20087 C 1846.48 -0.287961 4.97067 0
M  V30 20088 C 1845.19 1.06163 7.11423 0
M  V30 20089 C 1847.21 0.45571 5.89642 0
M  V30 20090 C 1846.57 1.12316 6.95388 0
M  V30 20091 H 1842.67 -0.323053 0.712152 0
M  V30 20092 H 1845.26 -0.207675 1.93589 0
M  V30 20093 H 1843.43 -2.50768 2.96597 0
M  V30 20094 H 1845.16 -2.46484 3.20979 0
M  V30 20095 H 1841.92 -1.02368 4.62404 0
M  V30 20096 H 1842.34 0.508169 6.7509 0
M  V30 20097 H 1846.98 -0.789639 4.15361 0
M  V30 20098 H 1844.7 1.57481 7.92607 0
M  V30 20099 H 1848.29 0.523682 5.79438 0
M  V30 20100 H 1847.17 1.68941 7.65786 0
M  V30 20101 N 1844.67 -1.5 -0.48349 0
M  V30 20102 C 1845.6 -1.64096 -1.60016 0
M  V30 20103 C 1846.61 -0.522896 -1.54174 0
M  V30 20104 O 1847.8 -0.795621 -1.59788 0
M  V30 20105 C 1844.9 -1.5979 -2.98865 0
M  V30 20106 C 1844.08 -2.87422 -3.29708 0
M  V30 20107 C 1843.13 -2.75928 -4.48051 0
M  V30 20108 O 1842.16 -3.49878 -4.4897 0
M  V30 20109 N 1843.36 -1.88648 -5.48992 0
M  V30 20110 H 1846.13 -2.60411 -1.48345 0
M  V30 20111 H 1843.69 -1.47309 -0.671691 0
M  V30 20112 H 1845.68 -1.4973 -3.75983 0
M  V30 20113 H 1844.25 -0.712613 -3.04369 0
M  V30 20114 H 1843.47 -3.11702 -2.4132 0
M  V30 20115 H 1844.76 -3.72002 -3.4712 0
M  V30 20116 H 1844.16 -1.27857 -5.51062 0
M  V30 20117 H 1842.71 -1.845 -6.25142 0
M  V30 20118 N 1846.15 0.735796 -1.39369 0
M  V30 20119 C 1847.06 1.88026 -1.40298 0
M  V30 20120 C 1848.07 1.71431 -0.297878 0
M  V30 20121 O 1849.25 1.94047 -0.539219 0
M  V30 20122 C 1846.31 3.23607 -1.24415 0
M  V30 20123 C 1845.37 3.52601 -2.4489 0
M  V30 20124 C 1844.61 4.81714 -2.29755 0
M  V30 20125 O 1844.83 5.55374 -1.30061 0
M  V30 20126 O 1843.76 5.10588 -3.18722 0
M  V30 20127 H 1847.59 1.90197 -2.36767 0
M  V30 20128 H 1845.18 0.883504 -1.20476 0
M  V30 20129 H 1847.06 4.04633 -1.17688 0
M  V30 20130 H 1845.73 3.22208 -0.310409 0
M  V30 20131 H 1844.64 2.71665 -2.57194 0
M  V30 20132 H 1845.97 3.58778 -3.36955 0
M  V30 20133 N 1847.63 1.24532 0.965897 0
M  V30 20134 C 1848.57 1.03929 2.06076 0
M  V30 20135 C 1849.54 -0.0479997 1.66031 0
M  V30 20136 O 1850.73 0.106979 1.905 0
M  V30 20137 C 1847.87 0.652084 3.38883 0
M  V30 20138 C 1846.98 1.81304 3.92113 0
M  V30 20139 C 1846.12 1.37125 5.13196 0
M  V30 20140 C 1845.15 2.50204 5.58627 0
M  V30 20141 N 1844.29 2.0688 6.70929 0
M  V30 20142 H 1849.13 1.97636 2.23033 0
M  V30 20143 H 1846.67 0.984356 1.09311 0
M  V30 20144 H 1848.63 0.408608 4.15194 0
M  V30 20145 H 1847.26 -0.247995 3.21846 0
M  V30 20146 H 1846.31 2.17013 3.12425 0
M  V30 20147 H 1847.62 2.66264 4.21788 0
M  V30 20148 H 1846.77 1.08676 5.96887 0
M  V30 20149 H 1845.51 0.492215 4.8521 0
M  V30 20150 H 1844.52 2.7941 4.73508 0
M  V30 20151 H 1845.74 3.38667 5.88627 0
M  V30 20152 H 1843.69 1.21377 6.44673 0
M  V30 20153 H 1843.61 2.85392 7.00062 0
M  V30 20154 H 1844.87 1.81575 7.58057 0
M  V30 20155 O 1849.14 -1.09837 1.18398 0
M  V30 20156 H 1849.83 -1.7009 0.926767 0
M  V30 END ATOM
M  V30 BEGIN BOND
M  V30 END BOND
M  V30 END CTAB
M  END
$$$$
