drugbank_target|Q00535 Cyclin-dependent-like kinase 5 (DB02052; DB02116; DB02950; DB03428; DB03496; DB04014; DB07364)
 OpenBabel12092119423D

  0  0  0     0  0            999 V3000
M  V30 BEGIN CTAB
M  V30 COUNTS 4709 4765 0 0 0
M  V30 BEGIN ATOM
M  V30 1 H -0.908 1.98254 -0.117106 0
M  V30 2 N 0 1.576 0 0
M  V30 3 C 0.933 2.03868 1.02534 0
M  V30 4 C 1.911 0.928543 1.3348 0
M  V30 5 O 3.095 1.19667 1.45644 0
M  V30 6 C 0.222 2.43627 2.35294 0
M  V30 7 C -0.732 3.65373 2.2001 0
M  V30 8 S 0.101 5.13292 1.52614 0
M  V30 9 C 1.257 5.56322 2.86805 0
M  V30 10 H 1.49 2.90518 0.631377 0
M  V30 11 H -0.977 1.52953 0.210867 0
M  V30 12 H 0.981 2.67203 3.11629 0
M  V30 13 H -0.358 1.57376 2.7183 0
M  V30 14 H -1.165 3.90944 3.18086 0
M  V30 15 H -1.563 3.418 1.51819 0
M  V30 16 H 0.729 5.58782 3.83104 0
M  V30 17 H 1.672 6.56266 2.65933 0
M  V30 18 H 2.08 4.83886 2.90714 0
M  V30 19 N 1.4781 -0.272755 1.55222 0
M  V30 20 C 2.4101 -1.35946 1.8453 0
M  V30 21 C 3.4231 -1.45525 0.729818 0
M  V30 22 O 4.6121 -1.47337 1.00767 0
M  V30 23 C 1.7121 -2.74069 1.99347 0
M  V30 24 C 0.8851 -2.87079 3.30007 0
M  V30 25 C -0.0559 -4.05879 3.34886 0
M  V30 26 O -1.0299 -3.96626 4.08261 0
M  V30 27 N 0.1721 -5.17857 2.62307 0
M  V30 28 H 2.9371 -1.11149 2.78327 0
M  V30 29 H 0.4981 -0.462869 1.55142 0
M  V30 30 H 2.4901 -3.51838 1.99981 0
M  V30 31 H 1.0601 -2.91688 1.12415 0
M  V30 32 H 0.2801 -1.96193 3.41909 0
M  V30 33 H 1.5681 -2.92701 4.16177 0
M  V30 34 H 0.9661 -5.28261 2.02377 0
M  V30 35 H -0.4769 -5.93855 2.68663 0
M  V30 36 N 2.9562 -1.48159 -0.537278 0
M  V30 37 C 3.9032 -1.62138 -1.64256 0
M  V30 38 C 4.8732 -0.463668 -1.59497 0
M  V30 39 O 6.0582 -0.686241 -1.78032 0
M  V30 40 C 3.1982 -1.66028 -3.02537 0
M  V30 41 C 2.3112 -2.92855 -3.17585 0
M  V30 42 C 1.4462 -2.87952 -4.46382 0
M  V30 43 C 0.4852 -4.09516 -4.54932 0
M  V30 44 N -0.3778 -4.02733 -5.75109 0
M  V30 45 H 4.4622 -2.56529 -1.51647 0
M  V30 46 H 1.9992 -1.27224 -0.738414 0
M  V30 47 H 3.9572 -1.66265 -3.82638 0
M  V30 48 H 2.5872 -0.751331 -3.13934 0
M  V30 49 H 1.6392 -3.02395 -2.30784 0
M  V30 50 H 2.9512 -3.82822 -3.19764 0
M  V30 51 H 2.1052 -2.8655 -5.34765 0
M  V30 52 H 0.8442 -1.95702 -4.46712 0
M  V30 53 H -0.1508 -4.11201 -3.64957 0
M  V30 54 H 1.0742 -5.02917 -4.56346 0
M  V30 55 H -0.9798 -3.13299 -5.76351 0
M  V30 56 H -1.0628 -4.86397 -5.78752 0
M  V30 57 H 0.2052 -4.05379 -6.65799 0
M  V30 58 N 4.4343 0.785586 -1.36625 0
M  V30 59 C 5.6643 1.5722 -1.34036 0
M  V30 60 C 6.0723 1.89033 0.0795062 0
M  V30 61 O 5.4153 1.50881 1.04789 0
M  V30 62 C 5.4773 2.91759 -2.10041 0
M  V30 63 C 5.1413 2.82654 -3.59104 0
M  V30 64 C 6.1383 2.54634 -4.53274 0
M  V30 65 C 3.8233 3.01111 -4.02042 0
M  V30 66 C 5.8173 2.45177 -5.88359 0
M  V30 67 C 3.5043 2.91276 -5.37216 0
M  V30 68 C 4.5023 2.63348 -6.30188 0
M  V30 69 O 4.1903 2.53514 -7.6288 0
M  V30 70 H 3.9223 0.494177 -0.461265 0
M  V30 71 H 6.4763 0.982632 -1.8037 0
M  V30 72 H 4.7063 3.52781 -1.58375 0
M  V30 73 H 6.3953 3.53059 -2.00261 0
M  V30 74 H 7.1613 2.40073 -4.21414 0
M  V30 75 H 3.0403 3.21854 -3.30047 0
M  V30 76 H 6.5843 2.23299 -6.60896 0
M  V30 77 H 2.4813 3.054 -5.68684 0
M  V30 78 H 3.2493 2.68967 -7.73045 0
M  V30 79 N 5.9124 1.20967 1.01018 0
M  V30 80 C 6.8224 0.980157 2.13143 0
M  V30 81 C 7.8384 -0.0660665 1.73875 0
M  V30 82 O 9.0144 0.122821 2.01025 0
M  V30 83 C 6.0794 0.54216 3.42435 0
M  V30 84 C 5.1404 1.65999 3.95908 0
M  V30 85 C 4.3734 1.2428 5.19028 0
M  V30 86 O 4.5964 0.114196 5.70286 0
M  V30 87 O 3.5304 2.05271 5.65816 0
M  V30 88 H 7.3564 1.91913 2.35379 0
M  V30 89 H 4.9414 0.994099 1.11526 0
M  V30 90 H 6.8234 0.30744 4.20277 0
M  V30 91 H 5.4984 -0.36815 3.216 0
M  V30 92 H 4.4054 1.94906 3.19316 0
M  V30 93 H 5.7384 2.54753 4.21143 0
M  V30 94 N 7.3905 -1.2043 1.01659 0
M  V30 95 C 8.3375 -2.23215 0.586822 0
M  V30 96 C 9.3075 -1.61382 -0.393085 0
M  V30 97 O 10.4925 -1.88544 -0.292525 0
M  V30 98 C 7.6325 -3.45032 -0.0687464 0
M  V30 99 C 6.7455 -4.21296 0.955724 0
M  V30 100 C 5.8805 -5.30507 0.271208 0
M  V30 101 C 4.9195 -5.98515 1.28244 0
M  V30 102 N 4.0565 -6.99316 0.62459 0
M  V30 103 H 8.8965 -2.59336 1.46796 0
M  V30 104 H 6.4335 -1.27431 0.734836 0
M  V30 105 H 8.3915 -4.1459 -0.465965 0
M  V30 106 H 7.0215 -3.09604 -0.913529 0
M  V30 107 H 6.0735 -3.50803 1.4711 0
M  V30 108 H 7.3855 -4.6803 1.72479 0
M  V30 109 H 6.5395 -6.06428 -0.18151 0
M  V30 110 H 5.2785 -4.8481 -0.530163 0
M  V30 111 H 4.2835 -5.21355 1.74554 0
M  V30 112 H 5.5085 -6.46298 2.08509 0
M  V30 113 H 3.4545 -6.55812 -0.156914 0
M  V30 114 H 3.3715 -7.44178 1.33172 0
M  V30 115 H 4.6395 -7.79255 0.195462 0
M  V30 116 N 8.8686 -0.792821 -1.36206 0
M  V30 117 C 9.7986 -0.207853 -2.32573 0
M  V30 118 C 10.7796 0.659055 -1.56813 0
M  V30 119 O 11.9646 0.592176 -1.84951 0
M  V30 120 C 9.0946 0.655449 -3.41059 0
M  V30 121 C 8.0486 -0.111842 -4.27854 0
M  V30 122 C 7.3746 0.872274 -5.27537 0
M  V30 123 C 8.6746 -1.30299 -5.05786 0
M  V30 124 H 10.3686 -1.01294 -2.81744 0
M  V30 125 H 7.9146 -0.48854 -1.3546 0
M  V30 126 H 9.8676 1.07464 -4.07467 0
M  V30 127 H 8.5916 1.49328 -2.90463 0
M  V30 128 H 7.2506 -0.512053 -3.63006 0
M  V30 129 H 6.8986 1.70523 -4.73214 0
M  V30 130 H 6.5986 0.363291 -5.86476 0
M  V30 131 H 8.1226 1.28996 -5.96818 0
M  V30 132 H 9.5366 -0.959379 -5.65216 0
M  V30 133 H 7.9336 -1.7455 -5.74154 0
M  V30 134 H 9.0036 -2.09663 -4.37229 0
M  V30 135 N 10.3467 1.47872 -0.545128 0
M  V30 136 C 11.2567 2.33633 0.212746 0
M  V30 137 C 12.2727 1.4744 0.923983 0
M  V30 138 O 13.4487 1.80393 0.895572 0
M  V30 139 C 10.5137 3.23884 1.23693 0
M  V30 140 C 9.5747 4.25961 0.534417 0
M  V30 141 C 8.8077 5.11899 1.5098 0
M  V30 142 O 9.0307 5.00077 2.7437 0
M  V30 143 O 7.9647 5.92831 1.0409 0
M  V30 144 H 11.7907 2.99714 -0.490416 0
M  V30 145 H 9.3757 1.46235 -0.305871 0
M  V30 146 H 11.2577 3.79666 1.82843 0
M  V30 147 H 9.9327 2.60446 1.92222 0
M  V30 148 H 8.8397 3.73972 -0.0979679 0
M  V30 149 H 10.1727 4.92079 -0.109213 0
M  V30 150 N 11.8248 0.280983 1.55075 0
M  V30 151 C 12.7718 -0.603937 2.22758 0
M  V30 152 C 13.7418 -1.1452 1.20309 0
M  V30 153 O 14.9268 -1.19343 1.48869 0
M  V30 154 C 12.0668 -1.77947 2.95684 0
M  V30 155 C 11.1798 -1.2715 4.12864 0
M  V30 156 C 10.3148 -2.4093 4.7342 0
M  V30 157 C 9.3538 -1.87165 5.82783 0
M  V30 158 N 8.4908 -2.94441 6.37377 0
M  V30 159 H 13.3308 -0.020124 2.97993 0
M  V30 160 H 10.8678 0.00183425 1.471 0
M  V30 161 H 12.8258 -2.47055 3.36184 0
M  V30 162 H 11.4558 -2.33522 2.22861 0
M  V30 163 H 10.5078 -0.473331 3.77444 0
M  V30 164 H 11.8198 -0.837751 4.91715 0
M  V30 165 H 10.9738 -3.18021 5.1667 0
M  V30 166 H 9.7128 -2.87623 3.93859 0
M  V30 167 H 8.7178 -1.08556 5.38976 0
M  V30 168 H 9.9428 -1.41401 6.64216 0
M  V30 169 H 7.8888 -3.40505 5.60707 0
M  V30 170 H 7.8058 -2.55501 7.11516 0
M  V30 171 H 9.0738 -3.71489 6.85285 0
M  V30 172 N 13.3029 -1.57598 0.00835791 0
M  V30 173 C 14.5519 -1.90107 -0.673968 0
M  V30 174 C 14.8649 -0.884275 -1.7447 0
M  V30 175 O 16.0709 -1.09987 -2.48224 0
M  V30 176 C 14.5269 -3.37497 -1.24995 0
M  V30 177 C 14.1349 -4.47491 -0.2136 0
M  V30 178 C 15.8789 -3.79104 -1.90999 0
M  V30 179 C 13.7859 -5.85963 -0.80005 0
M  V30 180 H 12.7159 -0.709393 -0.255495 0
M  V30 181 H 15.3669 -1.83365 0.0702693 0
M  V30 182 H 13.7489 -3.39102 -2.04513 0
M  V30 183 H 14.9229 -4.57414 0.557596 0
M  V30 184 H 13.2379 -4.14956 0.346474 0
M  V30 185 H 15.8349 -4.79901 -2.35795 0
M  V30 186 H 16.1779 -3.1306 -2.74407 0
M  V30 187 H 16.7109 -3.79833 -1.18203 0
M  V30 188 H 13.4499 -6.555 -0.00456708 0
M  V30 189 H 12.9699 -5.79687 -1.54021 0
M  V30 190 H 14.6489 -6.33884 -1.29615 0
M  V30 191 N 14.781 0.264519 -1.55364 0
M  V30 192 C 16.029 0.993021 -1.76021 0
M  V30 193 C 16.35 1.86511 -0.569099 0
M  V30 194 O 15.62 1.91438 0.415735 0
M  V30 195 H 14.2 0.369639 -0.649135 0
M  V30 196 H 16.862 0.286707 -1.9278 0
M  V30 197 H 15.958 1.62502 -2.66457 0
M  V30 198 N 16.2591 1.48442 0.529413 0
M  V30 199 C 17.1691 1.6569 1.66084 0
M  V30 200 C 18.1851 0.539432 1.65427 0
M  V30 201 O 19.3611 0.810572 1.84368 0
M  V30 202 C 16.4261 1.69315 3.02545 0
M  V30 203 C 15.4871 2.92694 3.14052 0
M  V30 204 C 14.7201 2.96137 4.44003 0
M  V30 205 O 14.9431 2.07973 5.31134 0
M  V30 206 O 13.8771 3.88312 4.59888 0
M  V30 207 H 17.7031 2.61483 1.54469 0
M  V30 208 H 15.2881 1.3185 0.702567 0
M  V30 209 H 17.1701 1.74217 3.83701 0
M  V30 210 H 15.8451 0.766966 3.14483 0
M  V30 211 H 14.7521 2.93324 2.32189 0
M  V30 212 H 16.0851 3.84699 3.0703 0
M  V30 213 N 17.7372 -0.778329 1.37039 0
M  V30 214 C 18.9852 -1.53361 1.31623 0
M  V30 215 C 19.3062 -1.94739 -0.100831 0
M  V30 216 O 18.5762 -1.65797 -1.04347 0
M  V30 217 H 17.1562 -0.568794 0.484234 0
M  V30 218 H 19.8182 -0.926742 1.71457 0
M  V30 219 H 18.9142 -2.43606 1.95096 0
M  V30 220 N 19.2153 -1.21501 -1.00376 0
M  V30 221 C 20.4433 -1.059 -1.77744 0
M  V30 222 C 20.8583 0.391125 -1.84704 0
M  V30 223 O 20.2153 1.27133 -1.30933 0
M  V30 224 C 20.2663 -1.65111 -3.21591 0
M  V30 225 O 19.9873 -3.0445 -3.15027 0
M  V30 226 C 21.4883 -1.54637 -4.15454 0
M  V30 227 H 18.7083 -0.371825 -0.558558 0
M  V30 228 H 21.2523 -1.60865 -1.26264 0
M  V30 229 H 19.4073 -1.14235 -3.70175 0
M  V30 230 H 19.8213 -3.3278 -4.0541 0
M  V30 231 H 21.2953 -2.00808 -5.14179 0
M  V30 232 H 21.7723 -0.501022 -4.36333 0
M  V30 233 H 22.3783 -2.04767 -3.72761 0
M  V30 234 N 20.6934 1.19889 -1.02296 0
M  V30 235 C 21.9234 1.93109 -0.734332 0
M  V30 236 C 22.3314 1.75377 0.709889 0
M  V30 237 O 21.6744 1.06912 1.49384 0
M  V30 238 C 21.7364 3.45362 -0.99827 0
M  V30 239 C 21.4004 3.8686 -2.43287 0
M  V30 240 C 22.3974 3.92102 -3.41397 0
M  V30 241 C 20.0824 4.18668 -2.77529 0
M  V30 242 C 22.0764 4.28573 -4.71809 0
M  V30 243 C 19.7634 4.54813 -4.08153 0
M  V30 244 C 20.7614 4.59739 -5.05103 0
M  V30 245 O 20.4494 4.95051 -6.33388 0
M  V30 246 H 20.1814 0.620409 -0.268456 0
M  V30 247 H 22.7354 1.53144 -1.3688 0
M  V30 248 H 20.9654 3.85482 -0.306645 0
M  V30 249 H 22.6544 3.99814 -0.700234 0
M  V30 250 H 23.4204 3.67685 -3.1628 0
M  V30 251 H 19.2994 4.14021 -2.0275 0
M  V30 252 H 22.8434 4.32333 -5.4748 0
M  V30 253 H 18.7404 4.78687 -4.33047 0
M  V30 254 H 19.5084 5.1302 -6.37772 0
M  V30 255 N 22.1715 0.800033 1.35784 0
M  V30 256 C 23.4195 0.376597 1.9856 0
M  V30 257 C 23.7405 -1.05812 1.63795 0
M  V30 258 O 23.0105 -1.73103 0.917171 0
M  V30 259 H 21.5905 0.136261 0.734467 0
M  V30 260 H 24.2525 1.02442 1.65806 0
M  V30 261 H 23.3485 0.477002 3.08433 0
M  V30 262 N 23.6496 -1.47581 0.552962 0
M  V30 263 C 24.8776 -2.06875 0.0320556 0
M  V30 264 C 25.2926 -1.40625 -1.25976 0
M  V30 265 O 24.6496 -0.501349 -1.75479 0
M  V30 266 C 24.7006 -3.61092 -0.17167 0
M  V30 267 O 24.4216 -4.24858 1.06899 0
M  V30 268 C 25.9226 -4.37242 -0.730344 0
M  V30 269 H 23.1426 -0.669561 0.043915 0
M  V30 270 H 25.6866 -1.89646 0.765163 0
M  V30 271 H 23.8416 -3.7785 -0.854894 0
M  V30 272 H 24.2556 -5.17334 0.864059 0
M  V30 273 H 25.7296 -5.45842 -0.822203 0
M  V30 274 H 26.2066 -4.03235 -1.74064 0
M  V30 275 H 26.8126 -4.25219 -0.0829543 0
M  V30 276 N 25.1277 -0.289203 -1.54924 0
M  V30 277 C 26.3737 0.323998 -2.00195 0
M  V30 278 C 26.7067 1.54441 -1.17735 0
M  V30 279 O 25.9817 1.92875 -0.250878 0
M  V30 280 C 26.2647 0.692276 -3.53383 0
M  V30 281 C 26.1177 -0.536457 -4.46589 0
M  V30 282 C 27.4367 1.52335 -4.12895 0
M  V30 283 H 24.5557 0.116289 -0.727768 0
M  V30 284 H 27.1977 -0.398954 -1.85764 0
M  V30 285 H 25.3477 1.30822 -3.65811 0
M  V30 286 H 27.0197 -1.17499 -4.46085 0
M  V30 287 H 25.2627 -1.17192 -4.1767 0
M  V30 288 H 25.9337 -0.234806 -5.515 0
M  V30 289 H 28.4097 1.00302 -4.0383 0
M  V30 290 H 27.2857 1.74982 -5.20262 0
M  V30 291 H 27.5467 2.50886 -3.64018 0
M  V30 292 N 26.6058 1.57591 -0.0167156 0
M  V30 293 C 27.8528 1.91283 0.664597 0
M  V30 294 C 28.1808 0.891949 1.72842 0
M  V30 295 O 27.4358 -0.100931 1.9544 0
M  V30 296 C 27.7348 3.3172 1.33029 0
M  V30 297 C 27.4008 4.4914 0.398047 0
M  V30 298 C 26.0628 4.80992 0.141421 0
M  V30 299 C 28.4148 5.20634 -0.242825 0
M  V30 300 C 25.7428 5.81703 -0.764092 0
M  V30 301 C 28.0948 6.22311 -1.13632 0
M  V30 302 C 26.7588 6.52611 -1.40196 0
M  V30 303 H 26.0288 0.699956 0.243193 0
M  V30 304 H 28.6758 1.9135 -0.0758267 0
M  V30 305 H 26.9808 3.27856 2.14517 0
M  V30 306 H 28.6778 3.55055 1.86379 0
M  V30 307 H 25.2678 4.24262 0.608238 0
M  V30 308 H 29.4518 4.96267 -0.0576019 0
M  V30 309 H 24.7078 6.03532 -0.977732 0
M  V30 310 H 28.8818 6.76834 -1.63917 0
M  V30 311 H 26.5088 7.30467 -2.10529 0
M  V30 312 N 28.0839 -0.256276 1.55502 0
M  V30 313 C 29.0309 -1.31714 1.89526 0
M  V30 314 C 30.0009 -1.4828 0.748479 0
M  V30 315 O 31.1859 -1.62416 1.00128 0
M  V30 316 C 28.3259 -2.66933 2.18725 0
M  V30 317 C 27.4389 -2.58452 3.4616 0
M  V30 318 C 26.5739 -3.85961 3.64976 0
M  V30 319 C 25.6129 -3.72059 4.86044 0
M  V30 320 N 24.7499 -4.9144 5.01429 0
M  V30 321 H 29.5899 -1.01998 2.80001 0
M  V30 322 H 27.1269 -0.492413 1.38613 0
M  V30 323 H 29.0849 -3.4563 2.33657 0
M  V30 324 H 27.7149 -2.94816 1.31466 0
M  V30 325 H 26.7669 -1.71374 3.3961 0
M  V30 326 H 28.0789 -2.44085 4.34999 0
M  V30 327 H 27.2329 -4.73101 3.79816 0
M  V30 328 H 25.9719 -4.03215 2.74353 0
M  V30 329 H 24.9769 -2.83302 4.7119 0
M  V30 330 H 26.2019 -3.56309 5.78118 0
M  V30 331 H 24.1479 -5.09072 4.13741 0
M  V30 332 H 24.0649 -4.79668 5.84341 0
M  V30 333 H 25.3329 -5.80104 5.20672 0
M  V30 334 N 29.562 -1.4872 -0.521534 0
M  V30 335 C 30.525 -1.63379 -1.60748 0
M  V30 336 C 31.525 -0.50661 -1.52611 0
M  V30 337 O 32.715 -0.772601 -1.5613 0
M  V30 338 C 29.847 -1.61192 -3.00383 0
M  V30 339 H 31.04 -2.60217 -1.49087 0
M  V30 340 H 28.593 -1.37444 -0.744235 0
M  V30 341 H 29.328 -0.65863 -3.17541 0
M  V30 342 H 29.113 -2.43032 -3.07698 0
M  V30 343 H 30.603 -1.7466 -3.7932 0
M  V30 344 N 31.0401 0.771051 -1.3745 0
M  V30 345 C 31.9871 1.88435 -1.3327 0
M  V30 346 C 32.9571 1.64914 -0.198136 0
M  V30 347 O 34.1421 1.86821 -0.387606 0
M  V30 348 C 31.2821 3.25509 -1.14622 0
M  V30 349 C 30.3951 3.60979 -2.37314 0
M  V30 350 C 29.5301 4.87265 -2.11533 0
M  V30 351 C 28.5691 5.15469 -3.30088 0
M  V30 352 N 27.7061 6.32944 -3.03853 0
M  V30 353 H 32.5461 1.91344 -2.28455 0
M  V30 354 H 30.0831 0.935466 -1.13523 0
M  V30 355 H 32.0411 4.04582 -1.01831 0
M  V30 356 H 30.6711 3.21974 -0.230837 0
M  V30 357 H 29.7231 2.76885 -2.60842 0
M  V30 358 H 31.0351 3.77759 -3.25729 0
M  V30 359 H 30.1891 5.74244 -1.95777 0
M  V30 360 H 28.9281 4.7259 -1.20457 0
M  V30 361 H 27.9331 4.26966 -3.46382 0
M  V30 362 H 29.1581 5.32052 -4.22016 0
M  V30 363 H 27.1041 6.19625 -2.15407 0
M  V30 364 H 27.0211 6.50143 -3.85812 0
M  V30 365 H 28.2891 7.22857 -2.91716 0
M  V30 366 N 32.5182 1.22032 0.997298 0
M  V30 367 C 33.4662 0.983634 2.10778 0
M  V30 368 C 34.4602 -0.0717564 1.69248 0
M  V30 369 O 35.6662 0.080304 1.79821 0
M  V30 370 H 32.0412 0.300877 0.689186 0
M  V30 371 H 34.0122 1.92606 2.27916 0
M  V30 372 C 32.7612 0.57326 3.42942 0
M  V30 373 H 32.0842 1.37702 3.75338 0
M  V30 374 H 33.5242 0.447031 4.21637 0
M  V30 375 C 31.9832 -0.7167 3.29188 0
M  V30 376 O 32.5132 -1.77027 3.60589 0
M  V30 377 N 30.7192 -0.686167 2.82383 0
M  V30 378 H 30.2662 0.171507 2.57028 0
M  V30 379 H 30.2242 -1.54955 2.73562 0
M  V30 380 N 33.9963 -1.19345 1.0293 0
M  V30 381 C 35.4123 -1.41069 0.746446 0
M  V30 382 C 35.6123 -1.90078 -0.668776 0
M  V30 383 O 34.6683 -2.0778 -1.4347 0
M  V30 384 C 35.9813 -2.42141 1.78292 0
M  V30 385 C 37.5293 -2.55887 1.80252 0
M  V30 386 C 38.0043 -3.60214 2.8286 0
M  V30 387 N 39.4953 -3.67711 2.81679 0
M  V30 388 C 40.2303 -4.48128 3.57727 0
M  V30 389 N 39.7263 -5.32248 4.43491 0
M  V30 390 N 41.5193 -4.42782 3.46267 0
M  V30 391 H 33.6703 -0.858536 1.94275 0
M  V30 392 H 35.9333 -0.439541 0.839945 0
M  V30 393 H 35.6393 -2.13155 2.79746 0
M  V30 394 H 35.5133 -3.41323 1.60557 0
M  V30 395 H 37.9003 -2.84196 0.794757 0
M  V30 396 H 37.9813 -1.56858 2.02062 0
M  V30 397 H 37.6253 -3.32647 3.83807 0
M  V30 398 H 37.5553 -4.58895 2.58307 0
M  V30 399 H 40.0463 -3.07634 2.19476 0
M  V30 400 H 40.3593 -5.90729 4.98256 0
M  V30 401 H 38.7043 -5.31707 4.47564 0
M  V30 402 H 41.8953 -3.76107 2.78677 0
M  V30 403 H 42.0683 -5.05215 4.05785 0
M  V30 404 N 35.4744 -0.807222 -1.35358 0
M  V30 405 C 36.3844 -0.219594 -2.3357 0
M  V30 406 C 37.4004 0.637734 -1.61892 0
M  V30 407 O 38.5764 0.549336 -1.93763 0
M  V30 408 C 35.6414 0.62158 -3.41083 0
M  V30 409 C 34.7024 -0.256315 -4.28534 0
M  V30 410 C 33.9354 0.544807 -5.30912 0
M  V30 411 O 34.1584 1.77944 -5.41934 0
M  V30 412 O 33.0924 -0.0646478 -6.01865 0
M  V30 413 H 36.9184 -1.03208 -2.85625 0
M  V30 414 H 34.5034 -0.569025 -1.38139 0
M  V30 415 H 36.3854 1.10067 -4.06772 0
M  V30 416 H 35.0604 1.41165 -2.91297 0
M  V30 417 H 33.9674 -0.782559 -3.65823 0
M  V30 418 H 35.3004 -1.01034 -4.81719 0
M  V30 419 N 36.9525 1.47285 -0.560781 0
M  V30 420 C 38.1805 2.06855 -0.0430262 0
M  V30 421 C 38.5955 1.41291 1.25229 0
M  V30 422 O 37.9525 0.510648 1.7521 0
M  V30 423 C 38.0035 3.61178 0.152518 0
M  V30 424 O 37.7245 4.24285 -1.0915 0
M  V30 425 C 39.2255 4.37624 0.707145 0
M  V30 426 H 36.4455 0.669319 -0.0474652 0
M  V30 427 H 38.9895 1.89237 -0.77521 0
M  V30 428 H 37.1445 3.78298 0.834843 0
M  V30 429 H 37.5585 5.16868 -0.891482 0
M  V30 430 H 39.0325 5.46271 0.793244 0
M  V30 431 H 39.5095 4.04152 1.71923 0
M  V30 432 H 40.1155 4.25257 0.0604027 0
M  V30 433 N 38.4306 0.297415 1.54768 0
M  V30 434 C 39.3806 -0.595275 2.20092 0
M  V30 435 C 40.3646 -1.10163 1.17273 0
M  V30 436 O 41.5566 -1.043 1.43006 0
M  V30 437 C 38.6856 -1.7684 2.94249 0
M  V30 438 C 37.7716 -1.27818 4.0438 0
M  V30 439 N 38.1626 -0.505695 5.03266 0
M  V30 440 C 36.4606 -1.55923 4.17857 0
M  V30 441 C 37.1616 -0.245094 5.81183 0
M  V30 442 N 36.1376 -0.823881 5.3732 0
M  V30 443 H 39.9396 0.00250837 2.939 0
M  V30 444 H 37.4536 0.102007 1.62079 0
M  V30 445 H 39.4506 -2.41944 3.39513 0
M  V30 446 H 38.1106 -2.36992 2.21957 0
M  V30 447 H 39.1216 -0.150928 5.1768 0
M  V30 448 H 35.7986 -2.16849 3.56767 0
M  V30 449 H 37.1886 0.375084 6.70852 0
M  V30 450 N 39.9087 -1.5758 0.0250728 0
M  V30 451 C 40.8187 -2.1343 -0.973905 0
M  V30 452 C 41.8347 -1.08556 -1.35984 0
M  V30 453 O 43.0107 -1.40592 -1.44207 0
M  V30 454 C 40.0757 -2.64703 -2.23904 0
M  V30 455 C 39.1367 -3.84276 -1.91391 0
M  V30 456 C 38.3697 -4.33095 -3.11873 0
M  V30 457 O 38.5927 -3.81107 -4.24398 0
M  V30 458 O 37.5267 -5.24984 -2.94406 0
M  V30 459 H 41.3527 -2.99057 -0.529036 0
M  V30 460 H 38.9377 -1.48118 -0.195288 0
M  V30 461 H 40.8197 -2.97769 -2.98181 0
M  V30 462 H 39.4947 -1.82161 -2.6758 0
M  V30 463 H 38.4017 -3.56143 -1.14511 0
M  V30 464 H 39.7347 -4.67968 -1.52534 0
M  V30 465 N 41.3868 0.248026 -1.55636 0
M  V30 466 C 42.6358 0.974134 -1.76617 0
M  V30 467 C 42.9488 1.86528 -0.588796 0
M  V30 468 O 44.1548 2.62805 -0.681594 0
M  V30 469 C 42.6108 1.78213 -3.12679 0
M  V30 470 C 42.2188 0.93843 -4.38061 0
M  V30 471 C 43.9628 2.50104 -3.42999 0
M  V30 472 C 41.8698 1.74225 -5.65155 0
M  V30 473 H 40.7998 0.36745 -0.658405 0
M  V30 474 H 43.4508 0.22884 -1.82067 0
M  V30 475 H 41.8328 2.56933 -3.01333 0
M  V30 476 H 43.0068 0.193635 -4.60393 0
M  V30 477 H 41.3218 0.332905 -4.15067 0
M  V30 478 H 43.9188 3.10694 -4.3517 0
M  V30 479 H 44.2618 3.21662 -2.64271 0
M  V30 480 H 44.7948 1.78395 -3.55556 0
M  V30 481 H 41.5338 1.07043 -6.46701 0
M  V30 482 H 41.0538 2.46235 -5.46926 0
M  V30 483 H 42.7328 2.30967 -6.0437 0
M  V30 484 N 42.8649 1.48995 0.513639 0
M  V30 485 C 44.1109 1.58076 1.27042 0
M  V30 486 C 44.4439 0.261026 1.92438 0
M  V30 487 O 43.7189 -0.734393 1.80103 0
M  V30 488 C 44.0019 2.73091 2.34719 0
M  V30 489 C 43.8549 4.14821 1.73907 0
M  V30 490 C 45.1739 2.83796 3.36375 0
M  V30 491 H 42.2929 0.575391 0.460536 0
M  V30 492 H 44.9349 1.81232 0.570516 0
M  V30 493 H 43.0849 2.53479 2.94416 0
M  V30 494 H 44.7569 4.45917 1.18135 0
M  V30 495 H 42.9999 4.21058 1.0437 0
M  V30 496 H 43.6709 4.91147 2.51949 0
M  V30 497 H 46.1469 3.01611 2.86653 0
M  V30 498 H 45.0229 3.65971 4.09093 0
M  V30 499 H 45.2839 1.92624 3.9793 0
M  V30 500 N 44.343 -0.763751 1.37857 0
M  V30 501 C 45.306 -1.85889 1.34081 0
M  V30 502 C 46.306 -1.58949 0.243277 0
M  V30 503 O 47.496 -1.66882 0.499589 0
M  V30 504 C 44.628 -3.23176 1.08489 0
M  V30 505 H 45.821 -1.90648 2.31502 0
M  V30 506 H 43.374 -0.964367 1.23003 0
M  V30 507 H 44.109 -3.24091 0.116318 0
M  V30 508 H 43.894 -3.44124 1.8794 0
M  V30 509 H 45.384 -4.03254 1.08517 0
M  V30 510 N 45.8211 -1.22559 -0.990812 0
M  V30 511 C 46.7511 -1.0218 -2.09956 0
M  V30 512 C 47.7321 0.0579394 -1.70001 0
M  V30 513 O 48.9171 -0.104684 -1.93918 0
M  V30 514 C 46.0471 -0.601023 -3.4206 0
M  V30 515 C 45.0011 -1.62694 -3.95872 0
M  V30 516 C 44.3271 -1.06193 -5.24049 0
M  V30 517 C 45.6271 -3.01743 -4.2632 0
M  V30 518 H 47.3211 -1.94916 -2.27262 0
M  V30 519 H 44.8671 -0.938566 -1.09211 0
M  V30 520 H 46.8201 -0.445561 -4.19038 0
M  V30 521 H 45.5441 0.362005 -3.24588 0
M  V30 522 H 44.2031 -1.77021 -3.21028 0
M  V30 523 H 43.8511 -0.0901903 -5.02919 0
M  V30 524 H 43.5511 -1.74732 -5.61019 0
M  V30 525 H 45.0751 -0.918092 -6.03658 0
M  V30 526 H 46.4891 -2.90777 -4.94087 0
M  V30 527 H 44.8861 -3.67425 -4.74467 0
M  V30 528 H 45.9561 -3.51518 -3.34011 0
M  V30 529 N 47.2992 1.18797 -1.03562 0
M  V30 530 C 48.2462 2.22253 -0.622259 0
M  V30 531 C 49.2162 1.61987 0.36736 0
M  V30 532 O 50.4012 1.88986 0.262492 0
M  V30 533 C 47.5412 3.45097 0.0138462 0
M  V30 534 C 46.6542 4.19722 -1.02263 0
M  V30 535 C 45.7892 5.30009 -0.355573 0
M  V30 536 C 44.8282 5.96399 -1.37749 0
M  V30 537 N 43.9652 6.98234 -0.735766 0
M  V30 538 H 48.8052 2.56968 -1.50903 0
M  V30 539 H 46.3422 1.26245 -0.755017 0
M  V30 540 H 48.3002 4.15279 0.399948 0
M  V30 541 H 46.9302 3.11018 0.864158 0
M  V30 542 H 45.9822 3.48418 -1.52673 0
M  V30 543 H 47.2942 4.65227 -1.79903 0
M  V30 544 H 46.4482 6.0664 0.0850095 0
M  V30 545 H 45.1872 4.85592 0.452967 0
M  V30 546 H 44.1922 5.18512 -1.82826 0
M  V30 547 H 45.4172 6.42899 -2.18764 0
M  V30 548 H 43.3632 6.55979 0.0525597 0
M  V30 549 H 43.2802 7.41965 -1.44995 0
M  V30 550 H 44.5482 7.78845 -0.31941 0
M  V30 551 N 48.7773 0.814389 1.34928 0
M  V30 552 C 50.1933 0.499084 1.51596 0
M  V30 553 C 50.3933 -0.978319 1.76157 0
M  V30 554 O 49.4493 -1.76309 1.80752 0
M  V30 555 C 50.7623 1.35121 2.68631 0
M  V30 556 C 52.3103 1.34746 2.82511 0
M  V30 557 C 52.7853 2.18388 4.0258 0
M  V30 558 N 54.2763 2.15966 4.09772 0
M  V30 559 C 55.0113 2.77437 5.01813 0
M  V30 560 N 54.5073 3.47866 5.99134 0
M  V30 561 N 56.3003 2.67037 4.94619 0
M  V30 562 H 48.4513 1.7711 1.17243 0
M  V30 563 H 50.7143 0.754256 0.574284 0
M  V30 564 H 50.4203 2.40001 2.57085 0
M  V30 565 H 50.2943 1.00991 3.63429 0
M  V30 566 H 52.6813 0.30648 2.93504 0
M  V30 567 H 52.7623 1.72869 1.88547 0
M  V30 568 H 52.4063 3.2253 3.92347 0
M  V30 569 H 52.3363 1.77621 4.9574 0
M  V30 570 H 54.8273 1.64729 3.40107 0
M  V30 571 H 55.1403 3.92038 6.65977 0
M  V30 572 H 53.4853 3.51972 5.99284 0
M  V30 573 H 56.6763 2.11597 4.17546 0
M  V30 574 H 56.8493 3.15232 5.66156 0
M  V30 575 N 50.2554 -1.46986 0.568584 0
M  V30 576 C 51.5014 -2.02741 0.0488709 0
M  V30 577 C 51.8344 -1.44077 -1.30214 0
M  V30 578 O 51.1094 -0.600552 -1.84996 0
M  V30 579 C 51.3924 -3.60086 -0.032047 0
M  V30 580 C 51.2454 -4.29162 1.34686 0
M  V30 581 C 52.5644 -4.33838 -0.739798 0
M  V30 582 H 49.6834 -0.736749 0.0192338 0
M  V30 583 H 52.3254 -1.75289 0.733065 0
M  V30 584 H 50.4754 -3.83606 -0.61473 0
M  V30 585 H 52.1474 -4.16948 1.97362 0
M  V30 586 H 50.3904 -3.89073 1.91846 0
M  V30 587 H 51.0614 -5.37826 1.24285 0
M  V30 588 H 53.5374 -4.15378 -0.244939 0
M  V30 589 H 52.4134 -5.43537 -0.765406 0
M  V30 590 H 52.6744 -4.03875 -1.79827 0
M  V30 591 N 51.7335 -0.305618 -1.54608 0
M  V30 592 C 53.1495 0.0476228 -1.59529 0
M  V30 593 C 53.3495 1.52025 -1.32252 0
M  V30 594 O 52.4055 2.27368 -1.09818 0
M  V30 595 C 53.7185 -0.354471 -2.98603 0
M  V30 596 C 55.2665 -0.303622 -3.11524 0
M  V30 597 C 55.7415 -0.680608 -4.52915 0
M  V30 598 N 57.2325 -0.63332 -4.5885 0
M  V30 599 C 57.9675 -0.897432 -5.66334 0
M  V30 600 N 57.4635 -1.22775 -6.81834 0
M  V30 601 N 59.2565 -0.824186 -5.56025 0
M  V30 602 H 51.4075 -1.2653 -1.70599 0
M  V30 603 H 53.6705 -0.513291 -0.797017 0
M  V30 604 H 53.3765 -1.3798 -3.23503 0
M  V30 605 H 53.2505 0.289568 -3.76087 0
M  V30 606 H 55.6375 0.712472 -2.8637 0
M  V30 607 H 55.7185 -0.982348 -2.36185 0
M  V30 608 H 55.3625 -1.69453 -4.78799 0
M  V30 609 H 55.2925 0.0202385 -5.26596 0
M  V30 610 H 57.7835 -0.389138 -3.75891 0
M  V30 611 H 58.0965 -1.41513 -7.59733 0
M  V30 612 H 56.4415 -1.26583 -6.83375 0
M  V30 613 H 59.6325 -0.565748 -4.64669 0
M  V30 614 H 59.8055 -1.03338 -6.39707 0
M  V30 615 N 53.2116 1.57565 -0.0334293 0
M  V30 616 C 54.1416 2.13511 0.945265 0
M  V30 617 C 55.1226 1.05231 1.33643 0
M  V30 618 O 56.3076 1.33084 1.41429 0
M  V30 619 C 53.4376 2.6657 2.22616 0
M  V30 620 C 52.3916 3.79676 1.97561 0
M  V30 621 C 51.7176 4.1918 3.31952 0
M  V30 622 C 53.0176 5.0557 1.31135 0
M  V30 623 H 54.7116 2.95538 0.479325 0
M  V30 624 H 52.2576 1.42166 0.229115 0
M  V30 625 H 54.2106 3.04344 2.91466 0
M  V30 626 H 52.9346 1.8171 2.71384 0
M  V30 627 H 51.5936 3.42347 1.31127 0
M  V30 628 H 51.2416 3.31296 3.78487 0
M  V30 629 H 50.9416 4.95402 3.15992 0
M  V30 630 H 52.4656 4.59541 4.02063 0
M  V30 631 H 53.8796 5.40903 1.89992 0
M  V30 632 H 52.2766 5.86818 1.25559 0
M  V30 633 H 53.3466 4.84062 0.284894 0
M  V30 634 N 54.6897 -0.239769 1.55765 0
M  V30 635 C 55.9667 -0.990056 1.68693 0
M  V30 636 C 56.3467 -2.03107 0.5754 0
M  V30 637 O 55.6947 -2.24604 -0.42017 0
M  V30 638 C 55.9047 -1.61696 3.09282 0
M  V30 639 C 57.2527 -2.11613 3.6811 0
M  V30 640 O 58.2767 -1.71624 3.12127 0
M  V30 641 O 57.1357 -2.85057 4.66267 0
M  V30 642 H 54.2297 -0.461299 0.686391 0
M  V30 643 H 56.7757 -0.232991 1.68093 0
M  V30 644 H 55.5477 -0.864357 3.81634 0
M  V30 645 H 55.1707 -2.44005 3.13923 0
M  V30 646 N 56.1678 -1.49265 -0.50573 0
M  V30 647 C 57.4448 -1.49012 -1.26707 0
M  V30 648 C 57.8248 -0.215205 -2.1 0
M  V30 649 O 57.1728 0.802547 -2.13943 0
M  V30 650 C 57.3828 -2.7663 -2.12783 0
M  V30 651 C 58.7308 -3.25932 -2.72127 0
M  V30 652 O 59.7548 -2.77715 -2.23054 0
M  V30 653 O 58.6138 -4.09897 -3.61451 0
M  V30 654 H 55.7078 -0.596197 -0.57313 0
M  V30 655 H 58.2538 -1.61524 -0.52039 0
M  V30 656 H 57.0258 -3.60916 -1.5118 0
M  V30 657 H 56.6488 -2.66956 -2.94653 0
M  V30 658 N 57.6459 0.756429 -1.3826 0
M  V30 659 C 58.9229 1.50584 -1.24835 0
M  V30 660 C 59.3029 2.10556 0.151485 0
M  V30 661 O 58.6509 1.96825 1.1607 0
M  V30 662 C 58.8609 2.57448 -2.3563 0
M  V30 663 C 60.2089 3.24429 -2.73917 0
M  V30 664 O 61.2329 2.67751 -2.34921 0
M  V30 665 O 60.0919 4.26937 -3.41156 0
M  V30 666 H 57.1859 0.667664 -0.48801 0
M  V30 667 H 59.7319 0.792083 -1.5008 0
M  V30 668 H 58.5039 2.11362 -3.29305 0
M  V30 669 H 58.1269 3.36408 -2.11933 0
M  V30 670 N 59.124 1.23083 0.984299 0
M  V30 671 C 60.401 0.9689 1.69917 0
M  V30 672 C 60.781 -0.513604 2.04757 0
M  V30 673 O 60.129 -1.48383 1.73767 0
M  V30 674 C 60.339 1.87518 2.94343 0
M  V30 675 C 61.687 2.13636 3.6694 0
M  V30 676 O 62.711 1.85036 3.04368 0
M  V30 677 O 61.57 2.62119 4.79537 0
M  V30 678 H 58.664 0.365095 0.742048 0
M  V30 679 H 61.21 1.34107 1.03987 0
M  V30 680 H 59.982 2.87756 2.65164 0
M  V30 681 H 59.605 1.50514 3.6801 0
M  V30 682 N 60.6021 -1.18246 1.0419 0
M  V30 683 C 61.5121 -2.25574 0.644476 0
M  V30 684 C 62.5281 -1.70845 -0.329826 0
M  V30 685 O 63.7041 -2.00554 -0.184443 0
M  V30 686 C 60.7691 -3.46697 0.014877 0
M  V30 687 C 59.8301 -4.16554 1.03834 0
M  V30 688 C 59.0631 -5.31894 0.438692 0
M  V30 689 O 59.2861 -5.65385 -0.754752 0
M  V30 690 O 58.2201 -5.90459 1.168 0
M  V30 691 H 62.0461 -2.61836 1.53869 0
M  V30 692 H 59.6311 -1.25352 0.812854 0
M  V30 693 H 61.5131 -4.20062 -0.335538 0
M  V30 694 H 60.1881 -3.12255 -0.853138 0
M  V30 695 H 59.0951 -3.45251 1.44057 0
M  V30 696 H 60.4281 -4.54998 1.87716 0
M  V30 697 N 62.0802 -0.821533 -1.34494 0
M  V30 698 C 63.3282 -0.408139 -1.97936 0
M  V30 699 C 63.6492 1.03193 -1.65457 0
M  V30 700 O 62.9192 1.71622 -0.944595 0
M  V30 701 H 61.4992 -0.147928 -0.732206 0
M  V30 702 H 64.1612 -1.05067 -1.64155 0
M  V30 703 H 63.2572 -0.52601 -3.07635 0
M  V30 704 N 63.5583 1.46682 -0.576371 0
M  V30 705 C 64.8043 2.02712 -0.0596221 0
M  V30 706 C 65.1373 1.44765 1.29448 0
M  V30 707 O 64.4123 0.610355 1.84675 0
M  V30 708 C 64.6953 3.60098 0.0129503 0
M  V30 709 C 64.5483 4.28441 -1.3696 0
M  V30 710 C 65.8673 4.34224 0.71678 0
M  V30 711 H 62.9863 0.736637 -0.0231407 0
M  V30 712 H 65.6283 1.74898 -0.742351 0
M  V30 713 H 63.7783 3.83926 0.594378 0
M  V30 714 H 65.4503 4.15896 -1.9957 0
M  V30 715 H 63.6933 3.8805 -1.93907 0
M  V30 716 H 64.3643 5.3716 -1.27135 0
M  V30 717 H 66.8403 4.15503 0.222908 0
M  V30 718 H 65.7163 5.43936 0.73657 0
M  V30 719 H 65.9773 4.04823 1.77682 0
M  V30 720 N 65.0364 0.313813 1.54444 0
M  V30 721 C 66.4474 -0.176243 1.85866 0
M  V30 722 C 66.7984 -1.52405 1.23561 0
M  V30 723 O 65.9234 -2.09605 0.538016 0
M  V30 724 C 66.5184 -0.32657 3.37222 0
M  V30 725 C 65.0774 -0.760846 3.6863 0
M  V30 726 C 64.2244 0.123247 2.77026 0
M  V30 727 H 67.1754 0.534418 1.49431 0
M  V30 728 H 67.1964 -1.15908 3.62416 0
M  V30 729 H 66.7084 0.654531 3.82541 0
M  V30 730 H 64.8094 -1.75204 3.28838 0
M  V30 731 H 64.9224 -0.571353 4.75681 0
M  V30 732 H 63.2864 -0.399597 2.51546 0
M  V30 733 H 64.0694 1.10094 3.25168 0
M  V30 734 N 66.5145 -1.57545 0.0417849 0
M  V30 735 C 67.7395 -1.97035 -0.647455 0
M  V30 736 C 68.1645 -0.918775 -1.64135 0
M  V30 737 O 67.5225 0.119006 -1.80909 0
M  V30 738 C 67.5705 -3.35609 -1.31905 0
M  V30 739 O 66.6745 -3.3287 -2.43457 0
M  V30 740 H 66.0155 -0.64211 -0.169086 0
M  V30 741 H 68.5455 -2.04318 0.107399 0
M  V30 742 H 68.5555 -3.72126 -1.67291 0
M  V30 743 H 67.2305 -4.11685 -0.590586 0
M  V30 744 H 65.8075 -3.08087 -2.10088 0
M  V30 745 N 67.9926 0.231505 -1.5589 0
M  V30 746 C 69.2176 0.978689 -1.82856 0
M  V30 747 C 69.6426 1.77559 -0.620846 0
M  V30 748 O 69.0006 1.76119 0.430305 0
M  V30 749 C 69.0486 1.87997 -3.07716 0
M  V30 750 O 68.1526 2.97393 -2.85712 0
M  V30 751 H 67.4936 0.277663 -0.603158 0
M  V30 752 H 70.0236 0.24783 -2.03093 0
M  V30 753 H 70.0336 2.2917 -3.37558 0
M  V30 754 H 68.7086 1.29417 -3.95252 0
M  V30 755 H 67.2856 2.60238 -2.67078 0
M  V30 756 N 69.4707 1.49531 0.497807 0
M  V30 757 C 70.4337 1.65916 1.58128 0
M  V30 758 C 71.4337 0.530825 1.51786 0
M  V30 759 O 72.6237 0.797342 1.54881 0
M  V30 760 C 69.7557 1.65951 2.9778 0
M  V30 761 H 70.9487 2.62556 1.44929 0
M  V30 762 H 68.5017 1.38611 0.722275 0
M  V30 763 H 69.2367 0.709065 3.16453 0
M  V30 764 H 69.0217 2.47897 3.03792 0
M  V30 765 H 70.5117 1.80673 3.76493 0
M  V30 766 N 70.9488 -0.749086 1.3866 0
M  V30 767 C 71.8788 -1.8764 1.38973 0
M  V30 768 C 72.8598 -1.68178 0.255004 0
M  V30 769 O 74.0448 -1.88704 0.458754 0
M  V30 770 C 71.1748 -3.25222 1.21851 0
M  V30 771 C 70.1288 -3.59295 2.32575 0
M  V30 772 C 69.4548 -4.95663 2.00555 0
M  V30 773 C 70.7548 -3.63709 3.7485 0
M  V30 774 H 72.4488 -1.87635 2.3331 0
M  V30 775 H 69.9948 -0.901329 1.12303 0
M  V30 776 H 71.9478 -4.03746 1.20695 0
M  V30 777 H 70.6718 -3.25719 0.239775 0
M  V30 778 H 69.3308 -2.83093 2.32925 0
M  V30 779 H 68.9788 -4.92724 1.01154 0
M  V30 780 H 68.6788 -5.19429 2.74714 0
M  V30 781 H 70.2028 -5.7656 2.01024 0
M  V30 782 H 71.6168 -4.32338 3.76506 0
M  V30 783 H 70.0138 -3.98986 4.48252 0
M  V30 784 H 71.0838 -2.63834 4.06841 0
M  V30 785 N 72.4269 -1.23603 -0.977757 0
M  V30 786 C 73.8429 -0.999251 -1.24447 0
M  V30 787 C 74.0429 0.298053 -1.99283 0
M  V30 788 O 73.0989 1.01681 -2.31122 0
M  V30 789 C 74.4119 -2.20784 -2.04144 0
M  V30 790 C 75.9599 -2.25303 -2.17273 0
M  V30 791 C 76.4349 -3.45755 -3.00362 0
M  V30 792 N 77.9259 -3.4601 -3.07947 0
M  V30 793 C 78.6609 -4.35868 -3.72568 0
M  V30 794 N 78.1569 -5.35966 -4.38991 0
M  V30 795 N 79.9499 -4.23605 -3.6948 0
M  V30 796 H 72.1009 -2.06986 -0.476483 0
M  V30 797 H 74.3639 -0.907801 -0.273134 0
M  V30 798 H 74.0699 -3.14945 -1.56533 0
M  V30 799 H 73.9439 -2.22085 -3.04891 0
M  V30 800 H 76.3309 -1.3168 -2.64092 0
M  V30 801 H 76.4119 -2.28033 -1.15907 0
M  V30 802 H 76.0559 -4.39687 -2.5424 0
M  V30 803 H 75.9859 -3.40266 -4.01904 0
M  V30 804 H 78.4769 -2.73588 -2.60688 0
M  V30 805 H 78.7899 -6.00783 -4.86086 0
M  V30 806 H 77.1349 -5.39863 -4.37691 0
M  V30 807 H 80.3259 -3.44647 -3.16759 0
M  V30 808 H 80.4989 -4.93836 -4.1956 0
M  V30 809 N 73.905 1.17692 -1.04816 0
M  V30 810 C 74.815 2.25229 -0.65643 0
M  V30 811 C 75.831 1.71018 0.320761 0
M  V30 812 O 77.007 2.00649 0.173805 0
M  V30 813 C 74.072 3.46684 -0.0332629 0
M  V30 814 C 73.133 4.15997 -1.06042 0
M  V30 815 C 72.366 5.31654 -0.466893 0
M  V30 816 O 72.589 5.65777 0.724758 0
M  V30 817 O 71.523 5.89831 -1.1993 0
M  V30 818 H 75.349 2.61016 -1.55255 0
M  V30 819 H 72.934 1.24919 -0.81949 0
M  V30 820 H 74.816 4.20234 0.313256 0
M  V30 821 H 73.491 3.12703 0.836566 0
M  V30 822 H 72.398 3.44482 -1.45886 0
M  V30 823 H 73.731 4.53996 -1.90127 0
M  V30 824 N 75.3831 0.828654 1.34056 0
M  V30 825 C 76.6321 0.415828 1.97367 0
M  V30 826 C 76.9451 -1.02796 1.6641 0
M  V30 827 O 78.1511 -1.54497 2.23255 0
M  V30 828 C 76.6071 0.692601 3.53173 0
M  V30 829 C 76.2151 2.15038 3.93017 0
M  V30 830 C 77.9591 0.346222 4.23086 0
M  V30 831 C 75.8661 2.37174 5.41758 0
M  V30 832 H 74.7961 0.151755 0.738571 0
M  V30 833 H 77.4471 1.01581 1.52819 0
M  V30 834 H 75.8291 0.0223764 3.95994 0
M  V30 835 H 77.0031 2.86024 3.61285 0
M  V30 836 H 75.3181 2.45875 3.36057 0
M  V30 837 H 77.9151 0.48937 5.32456 0
M  V30 838 H 78.2581 -0.709842 4.10204 0
M  V30 839 H 78.7911 0.971258 3.85761 0
M  V30 840 H 75.5301 3.41308 5.59633 0
M  V30 841 H 75.0501 1.70738 5.74986 0
M  V30 842 H 76.7291 2.19818 6.08514 0
M  V30 843 N 76.8612 -1.46375 0.584142 0
M  V30 844 C 78.1012 -2.0427 0.0729695 0
M  V30 845 C 78.4652 -1.44563 -1.26355 0
M  V30 846 O 79.6662 -1.93667 -1.86405 0
M  V30 847 C 77.9372 -3.57399 0.00967464 0
M  V30 848 S 79.4962 -4.36551 -0.443714 0
M  V30 849 H 76.3142 -0.709975 0.0381673 0
M  V30 850 H 78.9162 -1.79398 0.776962 0
M  V30 851 H 77.6202 -3.98372 0.986319 0
M  V30 852 H 77.1512 -3.8681 -0.717044 0
M  V30 853 H 79.1662 -4.66237 -1.69816 0
M  V30 854 N 78.3393 -0.321999 -1.54275 0
M  V30 855 C 79.2693 0.537411 -2.27231 0
M  V30 856 C 80.2503 1.12064 -1.27968 0
M  V30 857 O 81.4353 1.14606 -1.56777 0
M  V30 858 C 78.5653 1.69919 -3.02894 0
M  V30 859 C 77.5193 1.24534 -4.09482 0
M  V30 860 C 76.8453 2.49394 -4.72977 0
M  V30 861 C 78.1453 0.361335 -5.21049 0
M  V30 862 H 79.8393 -0.0711406 -2.99315 0
M  V30 863 H 77.3853 -0.0356555 -1.43956 0
M  V30 864 H 79.3383 2.30668 -3.52662 0
M  V30 865 H 78.0623 2.33431 -2.28424 0
M  V30 866 H 76.7213 0.660782 -3.60596 0
M  V30 867 H 76.3693 3.11265 -3.95124 0
M  V30 868 H 76.0693 2.19718 -5.44975 0
M  V30 869 H 77.5933 3.10908 -5.25517 0
M  V30 870 H 79.0073 0.875072 -5.66582 0
M  V30 871 H 77.4043 0.157428 -5.99893 0
M  V30 872 H 78.4743 -0.60822 -4.8107 0
M  V30 873 N 79.8174 1.5752 -0.0501392 0
M  V30 874 C 80.7474 2.14502 0.922566 0
M  V30 875 C 81.7284 1.06642 1.3252 0
M  V30 876 O 82.9134 1.34577 1.4001 0
M  V30 877 C 80.0434 2.68916 2.19776 0
M  V30 878 C 78.9974 3.8175 1.93523 0
M  V30 879 C 78.3234 4.22677 3.27487 0
M  V30 880 C 79.6234 5.06932 1.25765 0
M  V30 881 H 81.3174 2.9603 0.447952 0
M  V30 882 H 78.8634 1.42401 0.214024 0
M  V30 883 H 80.8164 3.07419 2.88222 0
M  V30 884 H 79.5404 1.84578 2.69441 0
M  V30 885 H 78.1994 3.43718 1.27489 0
M  V30 886 H 77.8474 3.35291 3.74952 0
M  V30 887 H 77.5474 4.98725 3.1072 0
M  V30 888 H 79.0714 4.63779 3.97166 0
M  V30 889 H 80.4854 5.42888 1.84244 0
M  V30 890 H 78.8824 5.88116 1.19328 0
M  V30 891 H 79.9524 4.84337 0.233536 0
M  V30 892 N 81.2955 -0.223234 1.56011 0
M  V30 893 C 82.2425 -1.27664 1.92277 0
M  V30 894 C 83.2125 -1.46659 0.779763 0
M  V30 895 O 84.3975 -1.60256 1.03551 0
M  V30 896 C 81.5375 -2.62234 2.24338 0
M  V30 897 C 80.6505 -2.51051 3.51564 0
M  V30 898 C 79.7855 -3.78133 3.7308 0
M  V30 899 C 78.8245 -3.61665 4.93827 0
M  V30 900 N 77.9615 -4.80693 5.11741 0
M  V30 901 H 82.8015 -0.960358 2.82101 0
M  V30 902 H 80.3385 -0.462901 1.39627 0
M  V30 903 H 82.2965 -3.40596 2.40936 0
M  V30 904 H 80.9265 -2.91961 1.3769 0
M  V30 905 H 79.9785 -1.64132 3.43169 0
M  V30 906 H 81.2905 -2.34803 4.40079 0
M  V30 907 H 80.4445 -4.64938 3.89766 0
M  V30 908 H 79.1835 -3.97304 2.82844 0
M  V30 909 H 78.1885 -2.73244 4.77093 0
M  V30 910 H 79.4135 -3.43966 5.85546 0
M  V30 911 H 77.3595 -5.00181 4.24446 0
M  V30 912 H 77.2765 -4.67165 5.94384 0
M  V30 913 H 78.5445 -5.6893 5.3286 0
M  V30 914 N 82.7736 -1.49793 -0.48987 0
M  V30 915 C 83.6836 -1.70036 -1.61632 0
M  V30 916 C 84.6996 -0.583102 -1.63939 0
M  V30 917 O 85.8756 -0.859169 -1.82154 0
M  V30 918 C 82.9406 -1.77277 -2.97949 0
M  V30 919 C 82.0016 -3.00918 -3.06181 0
M  V30 920 C 81.2346 -3.07804 -4.35996 0
M  V30 921 O 81.4576 -2.21982 -5.25433 0
M  V30 922 O 80.3916 -4.00369 -4.49431 0
M  V30 923 H 84.2176 -2.65486 -1.47482 0
M  V30 924 H 81.8026 -1.33666 -0.667362 0
M  V30 925 H 83.6846 -1.84329 -3.78947 0
M  V30 926 H 82.3596 -0.850076 -3.12339 0
M  V30 927 H 81.2666 -2.99377 -2.2433 0
M  V30 928 H 82.5996 -3.92704 -2.96723 0
M  V30 929 N 84.2517 0.741722 -1.39055 0
M  V30 930 C 85.1817 1.869 -1.39966 0
M  V30 931 C 86.1627 1.6804 -0.26392 0
M  V30 932 O 87.3477 1.88458 -0.468755 0
M  V30 933 C 84.4777 3.24572 -1.23574 0
M  V30 934 C 83.4317 3.58056 -2.34477 0
M  V30 935 C 82.7577 4.94593 -2.0318 0
M  V30 936 C 84.0577 3.61716 -3.76774 0
M  V30 937 H 85.7517 1.86395 -2.34302 0
M  V30 938 H 83.2977 0.895361 -1.1278 0
M  V30 939 H 85.2507 4.031 -1.22834 0
M  V30 940 H 83.9747 3.25587 -0.257045 0
M  V30 941 H 82.6337 2.81854 -2.34423 0
M  V30 942 H 82.2817 4.92181 -1.03765 0
M  V30 943 H 81.9817 5.17964 -2.77465 0
M  V30 944 H 83.5057 5.75486 -2.04079 0
M  V30 945 H 84.9197 4.30335 -3.78794 0
M  V30 946 H 83.3167 3.96603 -4.50362 0
M  V30 947 H 84.3867 2.61672 -4.08235 0
M  V30 948 N 85.7298 1.2412 0.971189 0
M  V30 949 C 86.6768 1.0305 2.06517 0
M  V30 950 C 87.6468 -0.0550666 1.66009 0
M  V30 951 O 88.8318 0.0988688 1.90544 0
M  V30 952 C 85.9718 0.637653 3.39158 0
M  V30 953 C 85.0848 1.79633 3.92882 0
M  V30 954 C 84.2198 1.34939 5.13775 0
M  V30 955 C 83.2588 2.47823 5.59687 0
M  V30 956 N 82.3958 2.04022 6.71803 0
M  V30 957 H 87.2358 1.96685 2.23873 0
M  V30 958 H 84.7728 0.979694 1.09729 0
M  V30 959 H 86.7308 0.390931 4.15364 0
M  V30 960 H 85.3608 -0.261693 3.21737 0
M  V30 961 H 84.4128 2.15681 3.13346 0
M  V30 962 H 85.7248 2.64466 4.22918 0
M  V30 963 H 84.8788 1.06134 5.97345 0
M  V30 964 H 83.6178 0.471557 4.85415 0
M  V30 965 H 82.6228 2.77392 4.74693 0
M  V30 966 H 83.8478 3.36158 5.90063 0
M  V30 967 H 81.7938 1.18632 6.45184 0
M  V30 968 H 81.7108 2.82409 7.01271 0
M  V30 969 H 82.9788 1.78347 7.58823 0
M  V30 970 N 87.2079 -1.17134 1.05439 0
M  V30 971 C 88.1579 -2.1919 0.627675 0
M  V30 972 C 89.1419 -1.57328 -0.337147 0
M  V30 973 O 90.3339 -1.76329 -0.153976 0
M  V30 974 C 87.4629 -3.43299 0.00651435 0
M  V30 975 C 86.5489 -4.12255 0.995312 0
M  V30 976 N 86.9399 -4.56997 2.16765 0
M  V30 977 C 85.2379 -4.38316 0.824336 0
M  V30 978 C 85.9389 -5.10239 2.7934 0
M  V30 979 N 84.9149 -5.02595 2.07122 0
M  V30 980 H 88.7169 -2.5149 1.52086 0
M  V30 981 H 86.2309 -1.33491 0.924868 0
M  V30 982 H 88.2279 -4.15693 -0.316965 0
M  V30 983 H 86.8879 -3.1249 -0.882033 0
M  V30 984 H 87.8989 -4.51006 2.54587 0
M  V30 985 H 84.5759 -4.17498 -0.0129526 0
M  V30 986 H 85.9659 -5.54961 3.78772 0
M  V30 987 N 88.686 -0.835752 -1.33615 0
M  V30 988 C 89.633 -0.26473 -2.29277 0
M  V30 989 C 90.603 0.617712 -1.54187 0
M  V30 990 O 91.788 0.556641 -1.825 0
M  V30 991 C 88.928 0.556777 -3.40579 0
M  V30 992 C 88.041 -0.349339 -4.30585 0
M  V30 993 C 87.176 0.482969 -5.29 0
M  V30 994 C 86.215 -0.421732 -6.10645 0
M  V30 995 N 85.352 0.372262 -7.01112 0
M  V30 996 H 90.192 -1.08582 -2.77514 0
M  V30 997 H 87.729 -0.546927 -1.36554 0
M  V30 998 H 89.687 1.04852 -4.03809 0
M  V30 999 H 88.317 1.34286 -2.93542 0
M  V30 1000 H 87.369 -0.959372 -3.68104 0
M  V30 1001 H 88.681 -1.04445 -4.87742 0
M  V30 1002 H 87.835 1.03866 -5.97743 0
M  V30 1003 H 86.574 1.21153 -4.72412 0
M  V30 1004 H 85.579 -0.989464 -5.40823 0
M  V30 1005 H 86.804 -1.14861 -6.69316 0
M  V30 1006 H 84.75 1.08426 -6.46977 0
M  V30 1007 H 84.667 -0.264198 -7.55538 0
M  V30 1008 H 85.935 0.910293 -7.74167 0
M  V30 1009 N 90.1641 1.46063 -0.591896 0
M  V30 1010 C 91.1121 2.32124 0.148739 0
M  V30 1011 C 92.1061 1.45035 0.875286 0
M  V30 1012 O 93.3121 1.61609 0.792632 0
M  V30 1013 H 89.6871 0.749024 0.066832 0
M  V30 1014 H 91.6581 2.92392 -0.595783 0
M  V30 1015 C 90.4071 3.28373 1.1431 0
M  V30 1016 H 89.7301 3.95371 0.59346 0
M  V30 1017 H 91.1701 3.91352 1.63155 0
M  V30 1018 C 89.6291 2.54393 2.20875 0
M  V30 1019 O 90.1591 2.31373 3.28374 0
M  V30 1020 N 88.3651 2.14797 1.95731 0
M  V30 1021 H 87.9121 2.33719 1.08319 0
M  V30 1022 H 87.8701 1.65619 2.67241 0
M  V30 1023 N 91.6422 0.330177 1.54103 0
M  V30 1024 C 92.8912 -0.271336 1.99867 0
M  V30 1025 C 93.2042 -1.52723 1.22209 0
M  V30 1026 O 94.4102 -2.20515 1.58383 0
M  V30 1027 C 92.8662 -0.534032 3.55916 0
M  V30 1028 C 92.4742 0.705193 4.42415 0
M  V30 1029 C 94.2182 -1.09514 4.1013 0
M  V30 1030 C 92.1252 0.414035 5.89949 0
M  V30 1031 H 91.0552 -0.105166 0.74663 0
M  V30 1032 H 93.7062 0.443429 1.78062 0
M  V30 1033 H 92.0882 -1.30915 3.73734 0
M  V30 1034 H 93.2622 1.4804 4.36372 0
M  V30 1035 H 91.5772 1.18698 3.99124 0
M  V30 1036 H 94.1742 -1.3277 5.17954 0
M  V30 1037 H 94.5172 -2.04656 3.62521 0
M  V30 1038 H 95.0502 -0.381038 3.95971 0
M  V30 1039 H 91.7892 1.33481 6.41766 0
M  V30 1040 H 91.3092 -0.323336 5.98928 0
M  V30 1041 H 92.9882 0.0263105 6.46995 0
M  V30 1042 N 93.1203 -1.57491 0.0584922 0
M  V30 1043 C 94.3663 -1.93264 -0.614558 0
M  V30 1044 C 94.6993 -0.937717 -1.7006 0
M  V30 1045 O 93.9743 0.0351652 -1.94468 0
M  V30 1046 C 94.2573 -3.3938 -1.20386 0
M  V30 1047 C 94.1103 -4.49625 -0.125375 0
M  V30 1048 C 95.4293 -3.86039 -2.11334 0
M  V30 1049 H 92.5483 -0.702791 -0.221933 0
M  V30 1050 H 95.1903 -1.8961 0.12175 0
M  V30 1051 H 93.3403 -3.42626 -1.83139 0
M  V30 1052 H 95.0123 -4.58506 0.506971 0
M  V30 1053 H 93.2553 -4.30354 0.545672 0
M  V30 1054 H 93.9263 -5.48967 -0.577861 0
M  V30 1055 H 96.4023 -3.84716 -1.58534 0
M  V30 1056 H 95.2783 -4.88914 -2.49507 0
M  V30 1057 H 95.5393 -3.23215 -3.01636 0
M  V30 1058 N 94.5984 0.214957 -1.56127 0
M  V30 1059 C 96.0144 0.564948 -1.49267 0
M  V30 1060 C 96.2144 1.86827 -0.754838 0
M  V30 1061 O 95.2704 2.50745 -0.297198 0
M  V30 1062 C 96.5834 0.638071 -2.93852 0
M  V30 1063 C 98.1314 0.728253 -3.0441 0
M  V30 1064 C 98.6064 0.832663 -4.50367 0
M  V30 1065 N 100.097 0.896712 -4.54437 0
M  V30 1066 C 100.832 0.997324 -5.6466 0
M  V30 1067 N 100.328 1.06147 -6.8462 0
M  V30 1068 N 102.121 1.03297 -5.52527 0
M  V30 1069 H 94.2724 -0.640211 -2.02522 0
M  V30 1070 H 96.5354 -0.225507 -0.920788 0
M  V30 1071 H 96.2414 -0.250126 -3.50809 0
M  V30 1072 H 96.1154 1.49947 -3.46115 0
M  V30 1073 H 98.5024 1.60689 -2.47514 0
M  V30 1074 H 98.5834 -0.158952 -2.55306 0
M  V30 1075 H 98.2274 -0.0415417 -5.07883 0
M  V30 1076 H 98.1574 1.73538 -4.97184 0
M  V30 1077 H 100.648 0.857188 -3.6805 0
M  V30 1078 H 100.961 1.1382 -7.64372 0
M  V30 1079 H 99.3064 1.03049 -6.87318 0
M  V30 1080 H 102.497 0.979558 -4.57736 0
M  V30 1081 H 102.67 1.10793 -6.38458 0
M  V30 1082 N 96.0765 1.50051 0.48192 0
M  V30 1083 C 97.0065 1.71046 1.58951 0
M  V30 1084 C 97.9875 0.559288 1.60642 0
M  V30 1085 O 99.1725 0.797243 1.77081 0
M  V30 1086 C 96.3025 1.79462 2.97339 0
M  V30 1087 C 95.2565 2.94558 3.10515 0
M  V30 1088 C 94.5825 2.88105 4.50444 0
M  V30 1089 C 95.8825 4.35227 2.88747 0
M  V30 1090 H 97.5765 2.6378 1.41635 0
M  V30 1091 H 95.1225 1.26936 0.679942 0
M  V30 1092 H 97.0755 1.92734 3.74742 0
M  V30 1093 H 95.7995 0.833412 3.15788 0
M  V30 1094 H 94.4585 2.80918 2.35543 0
M  V30 1095 H 94.1065 1.89853 4.65795 0
M  V30 1096 H 93.8065 3.65366 4.60197 0
M  V30 1097 H 95.3305 3.03412 5.29881 0
M  V30 1098 H 96.7445 4.49449 3.55905 0
M  V30 1099 H 95.1415 5.13856 3.09955 0
M  V30 1100 H 96.2115 4.48347 1.84696 0
M  V30 1101 N 97.5546 -0.734337 1.39446 0
M  V30 1102 C 98.5046 -1.83949 1.34709 0
M  V30 1103 C 99.4886 -1.59279 0.227851 0
M  V30 1104 O 100.681 -1.70771 0.465438 0
M  V30 1105 C 97.8096 -3.21884 1.19356 0
M  V30 1106 C 96.8956 -3.52381 2.35984 0
M  V30 1107 N 97.2866 -3.53811 3.61457 0
M  V30 1108 C 95.5846 -3.82747 2.28956 0
M  V30 1109 C 96.2856 -3.82122 4.38586 0
M  V30 1110 N 95.2616 -3.9993 3.68181 0
M  V30 1111 H 99.0636 -1.83361 2.29687 0
M  V30 1112 H 96.5776 -0.932609 1.32952 0
M  V30 1113 H 98.5746 -4.00998 1.14046 0
M  V30 1114 H 97.2346 -3.23711 0.253295 0
M  V30 1115 H 98.2456 -3.35107 3.94872 0
M  V30 1116 H 94.9226 -3.92175 1.43194 0
M  V30 1117 H 96.3126 -3.89691 5.47349 0
M  V30 1118 N 99.0327 -1.24633 -0.964593 0
M  V30 1119 C 100.31 -0.995809 -1.68354 0
M  V30 1120 C 100.69 0.480964 -2.05548 0
M  V30 1121 O 100.038 1.45599 -1.76105 0
M  V30 1122 C 100.248 -1.92177 -2.91323 0
M  V30 1123 C 101.596 -2.19446 -3.63495 0
M  V30 1124 O 102.62 -1.89855 -3.01386 0
M  V30 1125 O 101.479 -2.69714 -4.75307 0
M  V30 1126 H 98.5727 -0.376854 -0.736146 0
M  V30 1127 H 101.119 -1.35745 -1.0184 0
M  V30 1128 H 99.8907 -2.91938 -2.60553 0
M  V30 1129 H 99.5137 -1.56349 -3.65569 0
M  V30 1130 N 100.511 1.16574 -1.06058 0
M  V30 1131 C 101.757 1.87324 -0.777022 0
M  V30 1132 C 102.09 1.81351 0.694645 0
M  V30 1133 O 101.365 1.22753 1.50871 0
M  V30 1134 C 101.648 3.36991 -1.26922 0
M  V30 1135 C 101.501 3.51667 -2.80447 0
M  V30 1136 C 102.82 4.3131 -0.87521 0
M  V30 1137 H 99.9388 0.680191 -0.28374 0
M  V30 1138 H 102.581 1.37036 -1.3161 0
M  V30 1139 H 100.731 3.79949 -0.81063 0
M  V30 1140 H 102.403 3.17664 -3.34495 0
M  V30 1141 H 100.646 2.93656 -3.19294 0
M  V30 1142 H 101.317 4.56766 -3.0995 0
M  V30 1143 H 103.793 3.9624 -1.27014 0
M  V30 1144 H 102.669 5.34545 -1.2471 0
M  V30 1145 H 102.93 4.41552 0.220071 0
M  V30 1146 N 101.989 0.842826 1.3317 0
M  V30 1147 C 102.919 0.294028 2.31641 0
M  V30 1148 C 103.9 -0.600401 1.59151 0
M  V30 1149 O 105.085 -0.523124 1.87022 0
M  V30 1150 C 102.215 -0.528416 3.43257 0
M  V30 1151 C 101.169 0.27056 4.27144 0
M  V30 1152 C 100.495 -0.675881 5.30411 0
M  V30 1153 C 101.795 1.48981 5.00602 0
M  V30 1154 H 103.489 1.11681 2.77791 0
M  V30 1155 H 101.035 0.538478 1.33553 0
M  V30 1156 H 102.988 -0.922674 4.11175 0
M  V30 1157 H 101.712 -1.38445 2.95805 0
M  V30 1158 H 100.371 0.646427 3.60856 0
M  V30 1159 H 100.019 -1.52842 4.79216 0
M  V30 1160 H 99.7189 -0.145374 5.8742 0
M  V30 1161 H 101.243 -1.06757 6.01195 0
M  V30 1162 H 102.657 1.16849 5.61266 0
M  V30 1163 H 101.054 1.95739 5.6728 0
M  V30 1164 H 102.124 2.25746 4.29147 0
M  V30 1165 N 103.467 -1.45747 0.599634 0
M  V30 1166 C 104.417 -2.27538 -0.145107 0
M  V30 1167 C 105.401 -1.3686 -0.846055 0
M  V30 1168 O 106.593 -1.6091 -0.737357 0
M  V30 1169 C 103.722 -3.23569 -1.14708 0
M  V30 1170 C 102.808 -4.21734 -0.447383 0
M  V30 1171 N 103.199 -5.03257 0.506535 0
M  V30 1172 C 101.497 -4.40536 -0.695966 0
M  V30 1173 C 102.198 -5.74426 0.917068 0
M  V30 1174 N 101.174 -5.42966 0.26253 0
M  V30 1175 H 104.976 -2.87965 0.587672 0
M  V30 1176 H 102.49 -1.56803 0.422697 0
M  V30 1177 H 104.487 -3.8089 -1.69495 0
M  V30 1178 H 103.147 -2.64702 -1.8805 0
M  V30 1179 H 104.158 -5.10319 0.882899 0
M  V30 1180 H 100.835 -3.92802 -1.41467 0
M  V30 1181 H 102.225 -6.4995 1.70338 0
M  V30 1182 N 104.945 -0.338344 -1.53925 0
M  V30 1183 C 106.17 0.263987 -2.05713 0
M  V30 1184 C 106.595 1.43847 -1.21201 0
M  V30 1185 O 105.953 1.79904 -0.224535 0
M  V30 1186 C 106.001 0.662 -3.54471 0
M  V30 1187 O 105.105 1.76265 -3.72833 0
M  V30 1188 H 104.446 0.0448722 -0.662482 0
M  V30 1189 H 106.976 -0.491048 -1.9862 0
M  V30 1190 H 106.986 0.940594 -3.9701 0
M  V30 1191 H 105.661 -0.196937 -4.15433 0
M  V30 1192 H 104.238 1.48173 -3.42198 0
M  V30 1193 N 106.423 1.57458 -0.0668435 0
M  V30 1194 C 107.7 1.8469 0.644132 0
M  V30 1195 C 108.08 0.958343 1.88093 0
M  V30 1196 O 107.428 0.0233579 2.28488 0
M  V30 1197 C 107.638 3.34767 0.986509 0
M  V30 1198 C 108.986 4.02159 1.36212 0
M  V30 1199 O 110.01 3.39484 1.07839 0
M  V30 1200 O 108.869 5.12694 1.89227 0
M  V30 1201 H 105.963 0.762816 0.319437 0
M  V30 1202 H 108.509 1.6942 -0.0973986 0
M  V30 1203 H 107.281 3.91151 0.107883 0
M  V30 1204 H 106.904 3.55281 1.78497 0
M  V30 1205 N 107.901 -0.206675 1.56239 0
M  V30 1206 C 108.848 -1.25617 1.93621 0
M  V30 1207 C 109.818 -1.45824 0.795274 0
M  V30 1208 O 111.003 -1.59148 1.05245 0
M  V30 1209 C 108.143 -2.59839 2.27107 0
M  V30 1210 C 107.256 -2.47308 3.54207 0
M  V30 1211 C 106.391 -3.74155 3.7707 0
M  V30 1212 C 105.43 -3.56407 4.97635 0
M  V30 1213 N 104.567 -4.75238 5.1681 0
M  V30 1214 H 109.407 -0.930383 2.83104 0
M  V30 1215 H 106.944 -0.448065 1.4011 0
M  V30 1216 H 108.902 -3.38021 2.44535 0
M  V30 1217 H 107.532 -2.90485 1.40778 0
M  V30 1218 H 106.584 -1.60483 3.4489 0
M  V30 1219 H 107.896 -2.30122 4.42544 0
M  V30 1220 H 107.05 -4.60778 3.94675 0
M  V30 1221 H 105.789 -3.94282 2.87042 0
M  V30 1222 H 104.794 -2.68168 4.79964 0
M  V30 1223 H 106.019 -3.37736 5.89161 0
M  V30 1224 H 103.965 -4.95651 4.29728 0
M  V30 1225 H 103.882 -4.60835 5.99306 0
M  V30 1226 H 105.15 -5.63246 5.38864 0
M  V30 1227 N 109.379 -1.50304 -0.473955 0
M  V30 1228 C 110.326 -1.68959 -1.57231 0
M  V30 1229 C 111.296 -0.530899 -1.57387 0
M  V30 1230 O 112.481 -0.761133 -1.74961 0
M  V30 1231 C 109.621 -1.7871 -2.95223 0
M  V30 1232 C 108.734 -3.06061 -3.04878 0
M  V30 1233 C 107.869 -3.06626 -4.33767 0
M  V30 1234 C 106.908 -4.28443 -4.37154 0
M  V30 1235 N 106.045 -4.26763 -5.5751 0
M  V30 1236 H 110.885 -2.6273 -1.40631 0
M  V30 1237 H 108.422 -1.30241 -0.683789 0
M  V30 1238 H 110.38 -1.82344 -3.75242 0
M  V30 1239 H 109.01 -0.883806 -3.10465 0
M  V30 1240 H 108.062 -3.11911 -2.17751 0
M  V30 1241 H 109.374 -3.96039 -3.0324 0
M  V30 1242 H 108.528 -3.08973 -5.22131 0
M  V30 1243 H 107.267 -2.14473 -4.3801 0
M  V30 1244 H 106.272 -4.2631 -3.47188 0
M  V30 1245 H 107.497 -5.2182 -4.34605 0
M  V30 1246 H 105.443 -3.37462 -5.62544 0
M  V30 1247 H 105.36 -5.10507 -5.57601 0
M  V30 1248 H 106.628 -4.33253 -6.48006 0
M  V30 1249 N 110.857 0.726932 -1.39834 0
M  V30 1250 C 111.787 1.85405 -1.41941 0
M  V30 1251 C 112.768 1.67751 -0.281728 0
M  V30 1252 O 113.953 1.8795 -0.488717 0
M  V30 1253 C 111.083 3.23243 -1.2701 0
M  V30 1254 C 110.037 3.55549 -2.38262 0
M  V30 1255 C 109.363 4.9241 -2.08415 0
M  V30 1256 C 110.663 3.577 -3.80589 0
M  V30 1257 H 112.357 1.83899 -2.36266 0
M  V30 1258 H 109.903 0.883349 -1.13723 0
M  V30 1259 H 111.856 4.01775 -1.27103 0
M  V30 1260 H 110.58 3.25296 -0.291564 0
M  V30 1261 H 109.239 2.79351 -2.37399 0
M  V30 1262 H 108.887 4.91052 -1.0898 0
M  V30 1263 H 108.587 5.14992 -2.82943 0
M  V30 1264 H 110.111 5.73289 -2.10171 0
M  V30 1265 H 111.525 4.26293 -3.83337 0
M  V30 1266 H 109.922 3.91804 -4.54543 0
M  V30 1267 H 110.992 2.57328 -4.10987 0
M  V30 1268 N 112.336 1.25143 0.95797 0
M  V30 1269 C 113.564 1.12424 1.73691 0
M  V30 1270 C 113.979 -0.322304 1.86029 0
M  V30 1271 O 113.336 -1.22186 1.35561 0
M  V30 1272 C 113.387 1.76933 3.15241 0
M  V30 1273 O 113.108 3.15932 3.03511 0
M  V30 1274 C 114.609 1.6995 4.09429 0
M  V30 1275 H 111.829 0.3923 0.544373 0
M  V30 1276 H 114.373 1.6544 1.20207 0
M  V30 1277 H 112.528 1.27895 3.6568 0
M  V30 1278 H 112.942 3.47598 3.9278 0
M  V30 1279 H 114.416 2.19753 5.06372 0
M  V30 1280 H 114.893 0.662619 4.34173 0
M  V30 1281 H 115.499 2.18461 3.64904 0
M  V30 1282 N 113.814 -1.1601 1.06675 0
M  V30 1283 C 114.744 -2.22688 0.702307 0
M  V30 1284 C 115.725 -1.67306 -0.307032 0
M  V30 1285 O 116.91 -1.93352 -0.181305 0
M  V30 1286 C 114.04 -3.47178 0.092038 0
M  V30 1287 C 112.994 -4.15477 1.02777 0
M  V30 1288 C 112.32 -5.33963 0.28061 0
M  V30 1289 C 113.62 -4.66019 2.35846 0
M  V30 1290 H 115.314 -2.53429 1.59419 0
M  V30 1291 H 112.86 -1.21813 0.767961 0
M  V30 1292 H 114.813 -4.21037 -0.174814 0
M  V30 1293 H 113.537 -3.15749 -0.834877 0
M  V30 1294 H 112.196 -3.43549 1.27944 0
M  V30 1295 H 111.844 -4.98788 -0.649545 0
M  V30 1296 H 111.544 -5.806 0.904258 0
M  V30 1297 H 113.068 -6.10596 0.021396 0
M  V30 1298 H 114.482 -5.3144 2.15045 0
M  V30 1299 H 112.879 -5.23293 2.93743 0
M  V30 1300 H 113.949 -3.82023 2.98641 0
M  V30 1301 N 115.292 -0.849877 -1.32721 0
M  V30 1302 C 116.538 -0.451591 -1.97708 0
M  V30 1303 C 116.871 0.989175 -1.6712 0
M  V30 1304 O 116.146 1.69334 -0.956891 0
M  V30 1305 C 116.429 -0.685598 -3.53513 0
M  V30 1306 C 116.282 -2.17444 -3.93749 0
M  V30 1307 C 117.601 -0.138874 -4.39881 0
M  V30 1308 H 114.72 -0.16555 -0.718166 0
M  V30 1309 H 117.362 -1.06742 -1.57182 0
M  V30 1310 H 115.512 -0.161416 -3.88165 0
M  V30 1311 H 117.184 -2.76433 -3.693 0
M  V30 1312 H 115.427 -2.65476 -3.43081 0
M  V30 1313 H 116.098 -2.28888 -5.02309 0
M  V30 1314 H 118.574 -0.587068 -4.11938 0
M  V30 1315 H 117.45 -0.332213 -5.47894 0
M  V30 1316 H 117.711 0.95806 -4.31594 0
M  V30 1317 N 116.77 1.45427 -0.607355 0
M  V30 1318 C 118.017 2.02241 -0.102455 0
M  V30 1319 C 118.345 1.4758 1.26691 0
M  V30 1320 O 117.6 0.640468 1.84923 0
M  V30 1321 C 117.899 3.57398 -0.0129263 0
M  V30 1322 C 117.565 4.3121 -1.31792 0
M  V30 1323 C 116.227 4.51092 -1.67539 0
M  V30 1324 C 118.579 4.73401 -2.18039 0
M  V30 1325 C 115.907 5.10422 -2.89285 0
M  V30 1326 C 118.259 5.34078 -3.39034 0
M  V30 1327 C 116.923 5.52184 -3.75033 0
M  V30 1328 H 116.193 0.740051 -0.037491 0
M  V30 1329 H 118.84 1.74494 -0.788926 0
M  V30 1330 H 117.145 3.84421 0.756806 0
M  V30 1331 H 118.842 3.99061 0.393881 0
M  V30 1332 H 115.432 4.16047 -1.02968 0
M  V30 1333 H 119.616 4.57774 -1.91721 0
M  V30 1334 H 114.872 5.22629 -3.17283 0
M  V30 1335 H 119.046 5.65724 -4.06115 0
M  V30 1336 H 116.673 5.97925 -4.69457 0
M  V30 1337 N 118.248 0.346503 1.53744 0
M  V30 1338 C 119.158 -0.517293 2.28826 0
M  V30 1339 C 120.174 -1.10935 1.3405 0
M  V30 1340 O 121.35 -1.1244 1.6709 0
M  V30 1341 C 118.415 -1.65098 3.04866 0
M  V30 1342 C 117.476 -1.0884 4.15274 0
M  V30 1343 C 116.709 -2.16806 4.87679 0
M  V30 1344 O 116.932 -3.3758 4.59778 0
M  V30 1345 O 115.866 -1.80934 5.74061 0
M  V30 1346 H 119.692 0.0931396 3.03557 0
M  V30 1347 H 117.277 0.111458 1.48984 0
M  V30 1348 H 119.159 -2.31053 3.5241 0
M  V30 1349 H 117.834 -2.24717 2.32989 0
M  V30 1350 H 116.741 -0.3933 3.72027 0
M  V30 1351 H 118.074 -0.537036 4.89261 0
M  V30 1352 N 119.726 -1.57421 0.075193 0
M  V30 1353 C 120.973 -1.93618 -0.593146 0
M  V30 1354 C 121.301 -0.955484 -1.69413 0
M  V30 1355 O 120.556 0.0283251 -1.9568 0
M  V30 1356 C 120.855 -3.36428 -1.20626 0
M  V30 1357 C 120.521 -4.50307 -0.231078 0
M  V30 1358 C 119.183 -4.81186 0.0371936 0
M  V30 1359 C 121.535 -5.19374 0.435888 0
M  V30 1360 C 118.863 -5.78466 0.979461 0
M  V30 1361 C 121.215 -6.17665 1.3665 0
M  V30 1362 C 119.879 -6.46958 1.6432 0
M  V30 1363 H 119.149 -0.708499 -0.217047 0
M  V30 1364 H 121.796 -1.90937 0.146793 0
M  V30 1365 H 120.101 -3.35592 -2.02201 0
M  V30 1366 H 121.798 -3.61727 -1.73073 0
M  V30 1367 H 118.388 -4.26227 -0.450357 0
M  V30 1368 H 122.572 -4.95711 0.241748 0
M  V30 1369 H 117.828 -5.99487 1.20106 0
M  V30 1370 H 122.002 -6.70284 1.88924 0
M  V30 1371 H 119.629 -7.2215 2.37494 0
M  V30 1372 N 121.204 0.198386 -1.56346 0
M  V30 1373 C 122.444 0.92609 -1.82217 0
M  V30 1374 C 122.808 1.80584 -0.652195 0
M  V30 1375 O 124.009 2.56907 -0.790716 0
M  V30 1376 C 122.28 1.72354 -3.13096 0
M  V30 1377 S 123.839 2.50371 -3.6036 0
M  V30 1378 H 120.657 0.310677 -0.639532 0
M  V30 1379 H 123.259 0.189755 -1.94577 0
M  V30 1380 H 121.963 1.0678 -3.96265 0
M  V30 1381 H 121.494 2.50175 -3.03605 0
M  V30 1382 H 123.509 3.74488 -3.25535 0
M  V30 1383 N 122.682 1.50554 0.465978 0
M  V30 1384 C 123.959 1.5232 1.22712 0
M  V30 1385 C 124.339 0.270807 2.09356 0
M  V30 1386 O 123.687 -0.745541 2.15995 0
M  V30 1387 C 123.897 2.82175 2.05374 0
M  V30 1388 C 125.245 3.33033 2.6339 0
M  V30 1389 O 126.269 2.83531 2.15612 0
M  V30 1390 O 125.128 4.19336 3.50456 0
M  V30 1391 H 122.222 0.611183 0.557122 0
M  V30 1392 H 124.768 1.62847 0.477381 0
M  V30 1393 H 123.54 3.64797 1.41558 0
M  V30 1394 H 123.163 2.74675 2.87471 0
M  V30 1395 N 124.16 -0.719506 1.40217 0
M  V30 1396 C 125.092 -1.84428 1.36084 0
M  V30 1397 C 126.105 -1.60597 0.266913 0
M  V30 1398 O 127.294 -1.70544 0.526983 0
M  V30 1399 C 124.394 -3.20757 1.094 0
M  V30 1400 C 123.567 -3.71817 2.30372 0
M  V30 1401 C 122.626 -4.86748 1.99907 0
M  V30 1402 O 121.652 -4.99603 2.72737 0
M  V30 1403 N 122.854 -5.7226 0.974635 0
M  V30 1404 H 125.619 -1.88473 2.33019 0
M  V30 1405 H 123.18 -0.900885 1.3452 0
M  V30 1406 H 125.172 -3.95235 0.870116 0
M  V30 1407 H 123.742 -3.11884 0.211452 0
M  V30 1408 H 122.962 -2.88514 2.68614 0
M  V30 1409 H 124.25 -4.02666 3.11026 0
M  V30 1410 H 123.648 -5.6448 0.371368 0
M  V30 1411 H 122.205 -6.46739 0.810656 0
M  V30 1412 N 125.638 -1.25649 -0.95132 0
M  V30 1413 C 126.915 -1.01361 -1.67288 0
M  V30 1414 C 127.295 0.459135 -2.06046 0
M  V30 1415 O 126.643 1.43723 -1.7764 0
M  V30 1416 C 126.853 -1.95256 -2.89268 0
M  V30 1417 C 128.201 -2.23289 -3.61147 0
M  V30 1418 O 129.225 -1.93041 -2.99355 0
M  V30 1419 O 128.084 -2.74741 -4.72419 0
M  V30 1420 H 125.178 -0.38464 -0.732107 0
M  V30 1421 H 127.724 -1.36817 -1.00395 0
M  V30 1422 H 126.496 -2.94685 -2.57442 0
M  V30 1423 H 126.119 -1.60218 -3.6389 0
M  V30 1424 N 127.117 1.15442 -1.07289 0
M  V30 1425 C 128.047 2.22312 -0.714107 0
M  V30 1426 C 129.028 1.67467 0.298155 0
M  V30 1427 O 130.213 1.93445 0.171048 0
M  V30 1428 C 127.343 3.47124 -0.110448 0
M  V30 1429 C 126.297 4.14926 -1.04979 0
M  V30 1430 C 125.623 5.33807 -0.308924 0
M  V30 1431 C 126.923 4.64762 -2.38314 0
M  V30 1432 H 128.617 2.5258 -1.6076 0
M  V30 1433 H 126.163 1.21404 -0.77441 0
M  V30 1434 H 128.116 4.21124 0.152482 0
M  V30 1435 H 126.84 3.16187 0.81812 0
M  V30 1436 H 125.499 3.42866 -1.29764 0
M  V30 1437 H 125.147 4.99126 0.623084 0
M  V30 1438 H 124.847 5.80113 -0.935036 0
M  V30 1439 H 126.371 6.10576 -0.0537771 0
M  V30 1440 H 127.785 5.30292 -2.1786 0
M  V30 1441 H 126.182 5.21728 -2.96514 0
M  V30 1442 H 127.252 3.80434 -3.00663 0
M  V30 1443 N 128.595 0.856903 1.32268 0
M  V30 1444 C 129.542 0.301172 2.28827 0
M  V30 1445 C 130.512 -0.593104 1.5515 0
M  V30 1446 O 131.697 -0.527537 1.83362 0
M  V30 1447 C 128.837 -0.502523 3.41422 0
M  V30 1448 C 127.95 0.417797 4.29975 0
M  V30 1449 C 127.085 -0.398749 5.29701 0
M  V30 1450 C 126.124 0.518827 6.09897 0
M  V30 1451 N 125.261 -0.260674 7.01616 0
M  V30 1452 H 130.101 1.12983 2.75751 0
M  V30 1453 H 127.638 0.568582 1.35667 0
M  V30 1454 H 129.596 -0.984141 4.05426 0
M  V30 1455 H 128.226 -1.29599 2.95642 0
M  V30 1456 H 127.278 1.01781 3.66531 0
M  V30 1457 H 128.59 1.12191 4.86019 0
M  V30 1458 H 127.744 -0.943435 5.9932 0
M  V30 1459 H 126.483 -1.13622 4.7428 0
M  V30 1460 H 125.488 1.07538 5.39181 0
M  V30 1461 H 126.713 1.25495 6.67404 0
M  V30 1462 H 124.659 -0.981198 6.4862 0
M  V30 1463 H 124.576 0.384364 7.55022 0
M  V30 1464 H 125.844 -0.787014 7.75517 0
M  V30 1465 N 130.073 -1.45103 0.615059 0
M  V30 1466 C 131.02 -2.30586 -0.0993978 0
M  V30 1467 C 131.99 -1.42544 -0.852669 0
M  V30 1468 O 133.175 -1.71465 -0.836917 0
M  V30 1469 C 130.315 -3.27572 -1.08583 0
M  V30 1470 C 129.428 -4.30717 -0.332656 0
M  V30 1471 C 128.563 -5.14807 -1.30947 0
M  V30 1472 C 127.602 -6.09673 -0.544538 0
M  V30 1473 N 126.739 -6.86517 -1.47101 0
M  V30 1474 H 131.579 -2.91144 0.635542 0
M  V30 1475 H 129.116 -1.4346 0.325206 0
M  V30 1476 H 131.074 -3.82276 -1.67095 0
M  V30 1477 H 129.704 -2.68751 -1.78809 0
M  V30 1478 H 128.756 -3.78615 0.368107 0
M  V30 1479 H 130.068 -4.98102 0.263842 0
M  V30 1480 H 129.222 -5.73948 -1.96643 0
M  V30 1481 H 127.961 -4.47458 -1.9399 0
M  V30 1482 H 126.966 -5.49656 0.126003 0
M  V30 1483 H 128.191 -6.79052 0.080947 0
M  V30 1484 H 126.137 -6.21851 -2.08895 0
M  V30 1485 H 126.054 -7.50281 -0.928137 0
M  V30 1486 H 127.322 -7.50194 -2.11731 0
M  V30 1487 N 131.551 -0.354651 -1.53558 0
M  V30 1488 C 132.781 0.239167 -2.05211 0
M  V30 1489 C 133.189 1.43879 -1.22863 0
M  V30 1490 O 132.532 1.81857 -0.259565 0
M  V30 1491 C 132.594 0.707251 -3.52474 0
M  V30 1492 C 132.258 -0.374212 -4.55465 0
M  V30 1493 C 133.255 -1.22054 -5.0537 0
M  V30 1494 C 130.94 -0.531323 -4.99482 0
M  V30 1495 C 132.934 -2.20942 -5.97882 0
M  V30 1496 C 130.621 -1.52358 -5.91802 0
M  V30 1497 C 131.619 -2.36108 -6.40892 0
M  V30 1498 O 131.307 -3.33643 -7.31394 0
M  V30 1499 H 131.039 0.0479716 -0.674296 0
M  V30 1500 H 133.593 -0.508121 -1.99016 0
M  V30 1501 H 131.823 1.50596 -3.56171 0
M  V30 1502 H 133.512 1.22285 -3.87042 0
M  V30 1503 H 134.278 -1.1103 -4.7212 0
M  V30 1504 H 130.157 0.110738 -4.60867 0
M  V30 1505 H 133.701 -2.86348 -6.36121 0
M  V30 1506 H 129.598 -1.63434 -6.24467 0
M  V30 1507 H 130.366 -3.29244 -7.4936 0
M  V30 1508 N 133.029 1.57378 -0.0835403 0
M  V30 1509 C 134.276 1.9393 0.58287 0
M  V30 1510 C 134.604 0.964455 1.68904 0
M  V30 1511 O 133.859 -0.0179474 1.95692 0
M  V30 1512 C 134.158 3.37063 1.1884 0
M  V30 1513 C 133.824 4.50424 0.207194 0
M  V30 1514 C 132.486 4.81159 -0.0627115 0
M  V30 1515 C 134.838 5.19136 -0.463426 0
M  V30 1516 C 132.166 5.77939 -1.01012 0
M  V30 1517 C 134.518 6.16931 -1.39924 0
M  V30 1518 C 133.182 6.46078 -1.67749 0
M  V30 1519 H 132.452 0.70964 0.213287 0
M  V30 1520 H 135.099 1.90856 -0.156916 0
M  V30 1521 H 133.404 3.3666 2.00418 0
M  V30 1522 H 135.101 3.6264 1.71153 0
M  V30 1523 H 131.691 4.2646 0.427747 0
M  V30 1524 H 135.875 4.95576 -0.268034 0
M  V30 1525 H 131.131 5.98842 -1.23283 0
M  V30 1526 H 135.305 6.69273 -1.92476 0
M  V30 1527 H 132.932 7.2088 -2.41321 0
M  V30 1528 N 134.507 -0.190092 1.56449 0
M  V30 1529 C 135.784 -0.935886 1.71757 0
M  V30 1530 C 136.164 -2.01173 0.639726 0
M  V30 1531 O 135.512 -2.25827 -0.348502 0
M  V30 1532 C 135.722 -1.51775 3.1427 0
M  V30 1533 C 137.07 -1.99794 3.74656 0
M  V30 1534 O 138.094 -1.61607 3.1743 0
M  V30 1535 O 136.953 -2.70079 4.751 0
M  V30 1536 H 134.047 -0.439229 0.700719 0
M  V30 1537 H 136.593 -0.179395 1.68749 0
M  V30 1538 H 135.365 -0.742505 3.84191 0
M  V30 1539 H 134.988 -2.33894 3.21527 0
M  V30 1540 N 135.985 -1.50799 -0.457987 0
M  V30 1541 C 137.21 -1.66496 -1.23668 0
M  V30 1542 C 137.635 -0.353288 -1.84752 0
M  V30 1543 O 136.993 0.684346 -1.67888 0
M  V30 1544 C 137.041 -2.76763 -2.3116 0
M  V30 1545 O 136.145 -2.38928 -3.36136 0
M  V30 1546 H 135.486 -0.555828 -0.363252 0
M  V30 1547 H 138.016 -1.9725 -0.543474 0
M  V30 1548 H 138.026 -3.00232 -2.76269 0
M  V30 1549 H 136.701 -3.71954 -1.86073 0
M  V30 1550 H 135.278 -2.25953 -2.96647 0
M  V30 1551 N 137.463 0.71206 -1.40597 0
M  V30 1552 C 138.703 1.48438 -1.40519 0
M  V30 1553 C 139.067 1.91998 -0.00767611 0
M  V30 1554 O 140.268 2.6854 0.118239 0
M  V30 1555 C 138.539 2.67514 -2.37004 0
M  V30 1556 S 140.098 3.56875 -2.55315 0
M  V30 1557 H 136.916 0.507457 -0.498005 0
M  V30 1558 H 139.518 0.832355 -1.76896 0
M  V30 1559 H 138.222 2.33689 -3.37368 0
M  V30 1560 H 137.753 3.37625 -2.01923 0
M  V30 1561 H 139.768 4.62081 -1.8082 0
M  V30 1562 N 138.941 1.26152 0.944643 0
M  V30 1563 C 139.889 1.07215 2.06417 0
M  V30 1564 C 140.883 9.2007e-05 1.694 0
M  V30 1565 O 142.089 0.1565 1.79318 0
M  V30 1566 H 138.464 0.329837 0.675805 0
M  V30 1567 H 140.435 2.02099 2.19541 0
M  V30 1568 C 139.184 0.718197 3.40202 0
M  V30 1569 H 138.507 1.53497 3.69159 0
M  V30 1570 H 139.947 0.625459 4.19361 0
M  V30 1571 C 138.406 -0.576435 3.31932 0
M  V30 1572 O 138.936 -1.61574 3.67773 0
M  V30 1573 N 137.142 -0.565781 2.85039 0
M  V30 1574 H 136.689 0.280367 2.5607 0
M  V30 1575 H 136.647 -1.43213 2.79888 0
M  V30 1576 N 140.419 -1.14872 1.07899 0
M  V30 1577 C 141.667 -1.85422 0.803941 0
M  V30 1578 C 141.988 -1.83051 -0.67211 0
M  V30 1579 O 141.258 -1.27532 -1.48703 0
M  V30 1580 H 139.838 -0.686537 0.294408 0
M  V30 1581 H 142.5 -1.39226 1.3639 0
M  V30 1582 H 141.596 -2.90399 1.14346 0
M  V30 1583 N 141.898 -0.863906 -1.31812 0
M  V30 1584 C 143.175 -0.39275 -1.91616 0
M  V30 1585 C 143.555 1.12461 -1.7865 0
M  V30 1586 O 142.903 1.95045 -1.19037 0
M  V30 1587 C 143.113 -0.867385 -3.38049 0
M  V30 1588 C 144.461 -0.889966 -4.15168 0
M  V30 1589 O 145.485 -0.812635 -3.46806 0
M  V30 1590 O 144.344 -1.00079 -5.37258 0
M  V30 1591 H 141.438 -0.116358 -0.818773 0
M  V30 1592 H 143.984 -0.951418 -1.40521 0
M  V30 1593 H 142.756 -1.91081 -3.41473 0
M  V30 1594 H 142.379 -0.286687 -3.96565 0
M  V30 1595 N 143.376 1.44774 -0.622745 0
M  V30 1596 C 144.306 2.33382 0.0741861 0
M  V30 1597 C 145.287 1.47719 0.843387 0
M  V30 1598 O 146.472 1.76458 0.810934 0
M  V30 1599 C 143.602 3.30663 1.06204 0
M  V30 1600 C 142.556 4.26079 0.405037 0
M  V30 1601 C 141.882 5.13165 1.5022 0
M  V30 1602 C 143.182 5.1781 -0.683414 0
M  V30 1603 H 144.876 2.91905 -0.665713 0
M  V30 1604 H 142.422 1.40363 -0.321587 0
M  V30 1605 H 144.375 3.9153 1.55827 0
M  V30 1606 H 143.099 2.70331 1.83272 0
M  V30 1607 H 141.758 3.66532 -0.0704683 0
M  V30 1608 H 141.406 4.49191 2.26355 0
M  V30 1609 H 141.106 5.77812 1.06803 0
M  V30 1610 H 142.63 5.76902 2.00041 0
M  V30 1611 H 144.044 5.72661 -0.270631 0
M  V30 1612 H 142.441 5.91015 -1.04023 0
M  V30 1613 H 143.511 4.59326 -1.55395 0
M  V30 1614 N 144.854 0.36279 1.53368 0
M  V30 1615 C 146.131 -0.284021 1.93527 0
M  V30 1616 C 146.511 -1.66628 1.29608 0
M  V30 1617 O 145.859 -2.23942 0.45413 0
M  V30 1618 C 146.069 -0.337028 3.47369 0
M  V30 1619 C 147.417 -0.578708 4.20638 0
M  V30 1620 O 148.441 -0.418352 3.53735 0
M  V30 1621 O 147.3 -0.89074 5.39192 0
M  V30 1622 H 144.394 -0.169743 0.809393 0
M  V30 1623 H 146.94 0.41537 1.64538 0
M  V30 1624 H 145.712 0.632217 3.86159 0
M  V30 1625 H 145.335 -1.08243 3.82582 0
M  V30 1626 N 146.332 -1.57332 0.0918853 0
M  V30 1627 C 147.743 -1.81496 -0.437739 0
M  V30 1628 C 148.094 -1.00727 -1.6837 0
M  V30 1629 O 147.219 -0.235694 -2.15113 0
M  V30 1630 C 147.814 -3.29197 -0.800939 0
M  V30 1631 C 146.373 -3.54136 -1.27532 0
M  V30 1632 C 145.52 -2.75979 -0.270392 0
M  V30 1633 H 148.471 -1.55494 0.317366 0
M  V30 1634 H 148.492 -3.42344 -1.66074 0
M  V30 1635 H 148.004 -3.87955 0.106078 0
M  V30 1636 H 146.105 -3.00705 -2.20016 0
M  V30 1637 H 146.218 -4.62792 -1.23938 0
M  V30 1638 H 144.582 -2.43349 -0.751872 0
M  V30 1639 H 145.365 -3.37484 0.629248 0
M  V30 1640 N 147.81 0.181792 -1.56548 0
M  V30 1641 C 148.72 1.24538 -1.98815 0
M  V30 1642 C 149.736 1.49045 -0.897861 0
M  V30 1643 O 150.912 1.61399 -1.20467 0
M  V30 1644 C 147.977 2.56683 -2.33055 0
M  V30 1645 C 147.038 2.40131 -3.55859 0
M  V30 1646 C 146.271 3.65975 -3.88456 0
M  V30 1647 O 146.494 4.70711 -3.22161 0
M  V30 1648 O 145.428 3.6071 -4.81842 0
M  V30 1649 H 149.254 0.916647 -2.89536 0
M  V30 1650 H 146.839 0.387842 -1.44278 0
M  V30 1651 H 148.721 3.34655 -2.56094 0
M  V30 1652 H 147.396 2.89157 -1.45498 0
M  V30 1653 H 146.303 1.60226 -3.38051 0
M  V30 1654 H 147.636 2.12585 -4.43924 0
M  V30 1655 N 149.288 1.51039 0.449983 0
M  V30 1656 C 150.537 1.62317 1.19733 0
M  V30 1657 C 150.85 0.339101 1.92638 0
M  V30 1658 O 152.056 0.331069 2.69474 0
M  V30 1659 C 150.512 2.86608 2.17678 0
M  V30 1660 C 150.12 4.21972 1.50479 0
M  V30 1661 C 151.864 3.07239 2.92924 0
M  V30 1662 C 149.771 5.37426 2.46834 0
M  V30 1663 H 148.701 0.604532 0.450619 0
M  V30 1664 H 151.352 1.77494 0.465625 0
M  V30 1665 H 149.734 2.65037 2.94231 0
M  V30 1666 H 150.908 4.53878 0.795716 0
M  V30 1667 H 149.223 4.07117 0.874344 0
M  V30 1668 H 151.82 3.90668 3.65079 0
M  V30 1669 H 152.163 2.19807 3.5354 0
M  V30 1670 H 152.696 3.29091 2.23481 0
M  V30 1671 H 149.435 6.27079 1.90926 0
M  V30 1672 H 148.955 5.09912 3.15832 0
M  V30 1673 H 150.634 5.68862 3.08228 0
M  V30 1674 N 150.766 -0.704594 1.40972 0
M  V30 1675 C 152.012 -1.46675 1.40051 0
M  V30 1676 C 152.345 -1.94199 0.00641102 0
M  V30 1677 O 151.62 -1.68916 -0.964235 0
M  V30 1678 C 151.903 -2.68505 2.39952 0
M  V30 1679 C 151.756 -2.26805 3.88432 0
M  V30 1680 C 153.075 -3.70686 2.37233 0
M  V30 1681 H 150.194 -0.532015 0.510028 0
M  V30 1682 H 152.836 -0.803255 1.72185 0
M  V30 1683 H 150.986 -3.25114 2.1268 0
M  V30 1684 H 152.658 -1.75592 4.26574 0
M  V30 1685 H 150.901 -1.58685 4.03734 0
M  V30 1686 H 151.572 -3.14181 4.53866 0
M  V30 1687 H 154.048 -3.23731 2.61415 0
M  V30 1688 H 152.924 -4.53553 3.09162 0
M  V30 1689 H 153.185 -4.19754 1.38777 0
M  V30 1690 N 152.244 -1.26651 -0.937939 0
M  V30 1691 C 153.191 -1.0849 -2.03712 0
M  V30 1692 C 154.161 0.011033 -1.66096 0
M  V30 1693 O 155.346 -0.149353 -1.90215 0
M  V30 1694 C 152.486 -0.72735 -3.37348 0
M  V30 1695 C 151.599 -1.89986 -3.87981 0
M  V30 1696 C 150.734 -1.48513 -5.10017 0
M  V30 1697 C 149.773 -2.62575 -5.5292 0
M  V30 1698 N 148.91 -2.21762 -6.66158 0
M  V30 1699 H 153.75 -2.02551 -2.18579 0
M  V30 1700 H 151.287 -1.00844 -1.07093 0
M  V30 1701 H 153.245 -0.50092 -4.14182 0
M  V30 1702 H 151.875 0.176298 -3.22318 0
M  V30 1703 H 150.927 -2.23913 -3.07518 0
M  V30 1704 H 152.239 -2.75586 -4.15757 0
M  V30 1705 H 151.393 -1.21934 -5.94321 0
M  V30 1706 H 150.132 -0.60009 -4.83994 0
M  V30 1707 H 149.137 -2.8988 -4.67172 0
M  V30 1708 H 150.362 -3.51685 -5.80943 0
M  V30 1709 H 148.308 -1.35696 -6.41812 0
M  V30 1710 H 148.225 -3.00903 -6.93537 0
M  V30 1711 H 149.493 -1.98403 -7.53828 0
M  V30 1712 N 153.722 1.14298 -1.08507 0
M  V30 1713 C 154.947 1.8976 -0.837001 0
M  V30 1714 C 155.372 1.78097 0.605228 0
M  V30 1715 O 154.73 1.12188 1.4242 0
M  V30 1716 C 154.778 3.37685 -1.26495 0
M  V30 1717 O 153.882 4.10281 -0.417514 0
M  V30 1718 H 153.223 0.590365 -0.303917 0
M  V30 1719 H 155.753 1.44672 -1.44676 0
M  V30 1720 H 155.763 3.88501 -1.24625 0
M  V30 1721 H 154.438 3.45492 -2.31534 0
M  V30 1722 H 153.015 3.69536 -0.499722 0
M  V30 1723 N 155.201 0.870884 1.31352 0
M  V30 1724 C 156.448 0.482273 1.96673 0
M  V30 1725 C 156.776 -0.965638 1.68836 0
M  V30 1726 O 156.031 -1.69514 0.977937 0
M  V30 1727 C 156.33 0.687157 3.50732 0
M  V30 1728 C 155.996 2.108 3.9859 0
M  V30 1729 C 154.658 2.49656 4.1137 0
M  V30 1730 C 157.01 3.03459 4.23748 0
M  V30 1731 C 154.338 3.80412 4.46659 0
M  V30 1732 C 156.69 4.3373 4.60501 0
M  V30 1733 C 155.354 4.725 4.71487 0
M  V30 1734 H 154.624 0.176476 0.719679 0
M  V30 1735 H 157.271 1.10405 1.56471 0
M  V30 1736 H 155.576 -0.0177476 3.91796 0
M  V30 1737 H 157.273 0.366284 3.99324 0
M  V30 1738 H 153.863 1.79633 3.8914 0
M  V30 1739 H 158.047 2.74665 4.13368 0
M  V30 1740 H 153.303 4.1021 4.53362 0
M  V30 1741 H 157.477 5.05578 4.78919 0
M  V30 1742 H 155.104 5.73859 4.98588 0
M  V30 1743 N 156.679 -1.44442 0.630414 0
M  V30 1744 C 157.609 -2.33418 -0.0618083 0
M  V30 1745 C 158.59 -1.48165 -0.835541 0
M  V30 1746 O 159.775 -1.76886 -0.801564 0
M  V30 1747 C 156.905 -3.31222 -1.04449 0
M  V30 1748 C 155.859 -4.26288 -0.382436 0
M  V30 1749 C 155.185 -5.13954 -1.47497 0
M  V30 1750 C 156.485 -5.1744 0.710865 0
M  V30 1751 H 158.179 -2.91548 0.681184 0
M  V30 1752 H 155.725 -1.40191 0.329026 0
M  V30 1753 H 157.678 -3.92351 -1.53748 0
M  V30 1754 H 156.402 -2.71299 -1.81836 0
M  V30 1755 H 155.061 -3.6649 0.0899054 0
M  V30 1756 H 154.709 -4.50385 -2.2397 0
M  V30 1757 H 154.409 -5.7837 -1.03737 0
M  V30 1758 H 155.933 -5.77955 -1.96979 0
M  V30 1759 H 157.347 -5.72509 0.300996 0
M  V30 1760 H 155.744 -5.90455 1.07156 0
M  V30 1761 H 156.814 -4.58496 1.57829 0
M  V30 1762 N 158.157 -0.370918 -1.53173 0
M  V30 1763 C 159.404 0.217102 -2.01333 0
M  V30 1764 C 159.732 1.48338 -1.25802 0
M  V30 1765 O 158.987 1.92698 -0.34146 0
M  V30 1766 C 159.286 0.549696 -3.53147 0
M  V30 1767 C 158.952 -0.622872 -4.46577 0
M  V30 1768 C 157.614 -0.944595 -4.71838 0
M  V30 1769 C 159.966 -1.40819 -5.01816 0
M  V30 1770 C 157.294 -2.05351 -5.49589 0
M  V30 1771 C 159.646 -2.50757 -5.80778 0
M  V30 1772 C 158.31 -2.83458 -6.04324 0
M  V30 1773 H 157.58 0.0794431 -0.736729 0
M  V30 1774 H 160.227 -0.504481 -1.84736 0
M  V30 1775 H 158.532 1.35237 -3.6772 0
M  V30 1776 H 160.229 1.017 -3.87889 0
M  V30 1777 H 156.819 -0.36209 -4.27068 0
M  V30 1778 H 161.003 -1.17289 -4.82242 0
M  V30 1779 H 156.259 -2.3108 -5.6605 0
M  V30 1780 H 160.433 -3.12022 -6.22588 0
M  V30 1781 H 158.06 -3.69508 -6.64355 0
M  V30 1782 N 159.635 1.57281 -0.100228 0
M  V30 1783 C 160.567 2.11342 0.886972 0
M  V30 1784 C 161.58 1.05182 1.24261 0
M  V30 1785 O 162.769 1.32613 1.19483 0
M  V30 1786 C 159.869 2.5825 2.19454 0
M  V30 1787 C 159.042 3.88302 2.01346 0
M  V30 1788 C 158.101 4.21004 3.15661 0
M  V30 1789 O 157.127 4.9014 2.89398 0
M  V30 1790 N 158.329 3.76818 4.41575 0
M  V30 1791 H 161.094 2.96668 0.425216 0
M  V30 1792 H 158.655 1.61678 0.0847334 0
M  V30 1793 H 160.647 2.7717 2.94888 0
M  V30 1794 H 159.217 1.77907 2.57037 0
M  V30 1795 H 158.437 3.7848 1.10212 0
M  V30 1796 H 159.725 4.73375 1.8653 0
M  V30 1797 H 159.123 3.2102 4.65792 0
M  V30 1798 H 157.68 4.00882 5.13942 0
M  V30 1799 N 161.113 -0.173488 1.56642 0
M  V30 1800 C 162.043 -1.2171 1.99271 0
M  V30 1801 C 163.024 -1.46289 0.867959 0
M  V30 1802 O 164.209 -1.5766 1.13388 0
M  V30 1803 C 161.339 -2.55651 2.35074 0
M  V30 1804 C 160.293 -2.45645 3.50489 0
M  V30 1805 C 159.619 -3.84056 3.72028 0
M  V30 1806 C 160.919 -1.96302 4.84007 0
M  V30 1807 H 162.613 -0.86275 2.867 0
M  V30 1808 H 160.159 -0.413571 1.37933 0
M  V30 1809 H 162.112 -3.2886 2.63494 0
M  V30 1810 H 160.836 -2.92869 1.44552 0
M  V30 1811 H 159.495 -1.7489 3.22194 0
M  V30 1812 H 159.143 -4.18664 2.788 0
M  V30 1813 H 158.843 -3.7823 4.49684 0
M  V30 1814 H 160.367 -4.58854 4.02846 0
M  V30 1815 H 161.781 -2.59284 5.11317 0
M  V30 1816 H 160.178 -2.01429 5.65284 0
M  V30 1817 H 161.248 -0.917226 4.76146 0
M  V30 1818 N 162.591 -1.51276 -0.441967 0
M  V30 1819 C 163.521 -1.752 -1.54361 0
M  V30 1820 C 164.502 -0.601682 -1.59103 0
M  V30 1821 O 165.687 -0.843913 -1.74905 0
M  V30 1822 C 162.817 -1.87282 -2.92477 0
M  V30 1823 C 161.771 -3.02687 -3.02596 0
M  V30 1824 C 161.097 -2.99947 -4.42647 0
M  V30 1825 C 162.397 -4.4273 -2.77106 0
M  V30 1826 H 164.091 -2.67442 -1.34592 0
M  V30 1827 H 161.637 -1.28694 -0.646048 0
M  V30 1828 H 163.59 -2.02602 -3.695 0
M  V30 1829 H 162.314 -0.916844 -3.13467 0
M  V30 1830 H 160.973 -2.87065 -2.28012 0
M  V30 1831 H 160.621 -2.02136 -4.60597 0
M  V30 1832 H 160.321 -3.77439 -4.50348 0
M  V30 1833 H 161.845 -3.17354 -5.2165 0
M  V30 1834 H 163.259 -4.58727 -3.43864 0
M  V30 1835 H 161.656 -5.21893 -2.96222 0
M  V30 1836 H 162.726 -4.53087 -1.72744 0
M  V30 1837 N 164.069 0.697108 -1.41344 0
M  V30 1838 C 165.016 1.81106 -1.43071 0
M  V30 1839 C 165.986 1.63632 -0.285275 0
M  V30 1840 O 167.171 1.84504 -0.486091 0
M  V30 1841 C 164.311 3.18975 -1.31715 0
M  V30 1842 C 163.424 3.47892 -2.56115 0
M  V30 1843 C 162.559 4.75367 -2.37064 0
M  V30 1844 C 161.598 4.97247 -3.56948 0
M  V30 1845 N 160.735 6.15947 -3.36977 0
M  V30 1846 H 165.575 1.78965 -2.38276 0
M  V30 1847 H 163.112 0.873975 -1.18322 0
M  V30 1848 H 165.07 3.98615 -1.23133 0
M  V30 1849 H 163.7 3.20297 -0.401183 0
M  V30 1850 H 162.752 2.62669 -2.75153 0
M  V30 1851 H 164.064 3.59962 -3.45295 0
M  V30 1852 H 163.218 5.63059 -2.25941 0
M  V30 1853 H 161.957 4.65541 -1.45338 0
M  V30 1854 H 160.962 4.08004 -3.68527 0
M  V30 1855 H 162.187 5.08934 -4.49626 0
M  V30 1856 H 160.133 6.07336 -2.47949 0
M  V30 1857 H 160.05 6.28777 -4.19732 0
M  V30 1858 H 161.318 7.06377 -3.29623 0
M  V30 1859 N 165.547 1.27147 0.931209 0
M  V30 1860 C 166.795 1.13055 1.6752 0
M  V30 1861 C 167.116 -0.324791 1.92276 0
M  V30 1862 O 166.386 -1.22775 1.52654 0
M  V30 1863 H 164.966 0.415391 0.620854 0
M  V30 1864 H 167.628 1.59623 1.11833 0
M  V30 1865 H 166.724 1.65694 2.64485 0
M  V30 1866 N 167.025 -1.13721 1.09112 0
M  V30 1867 C 167.955 -2.21148 0.749385 0
M  V30 1868 C 168.936 -1.6792 -0.271475 0
M  V30 1869 O 170.121 -1.93693 -0.140251 0
M  V30 1870 C 167.251 -3.46905 0.165659 0
M  V30 1871 C 166.205 -4.13203 1.11567 0
M  V30 1872 C 165.531 -5.33248 0.393809 0
M  V30 1873 C 166.831 -4.60912 2.45678 0
M  V30 1874 H 168.525 -2.4999 1.64758 0
M  V30 1875 H 166.071 -1.20156 0.793626 0
M  V30 1876 H 168.024 -4.21313 -0.085466 0
M  V30 1877 H 166.748 -3.17449 -0.767714 0
M  V30 1878 H 165.407 -3.40758 1.35202 0
M  V30 1879 H 165.055 -5.00054 -0.543599 0
M  V30 1880 H 164.755 -5.78552 1.02721 0
M  V30 1881 H 166.279 -6.10413 0.150908 0
M  V30 1882 H 167.693 -5.26759 2.26269 0
M  V30 1883 H 166.09 -5.16944 3.04776 0
M  V30 1884 H 167.16 -3.75603 3.06677 0
M  V30 1885 N 168.503 -0.877838 -1.30888 0
M  V30 1886 C 169.751 -0.491723 -1.96027 0
M  V30 1887 C 170.072 0.960827 -1.69685 0
M  V30 1888 O 169.342 1.67462 -1.01654 0
M  V30 1889 H 167.922 -0.17885 -0.725273 0
M  V30 1890 H 170.584 -1.11935 -1.59551 0
M  V30 1891 H 169.68 -0.656016 -3.05128 0
M  V30 1892 N 169.982 1.44106 -0.638065 0
M  V30 1893 C 171.229 2.01978 -0.14533 0
M  V30 1894 C 171.557 1.50234 1.23532 0
M  V30 1895 O 170.812 0.679548 1.83523 0
M  V30 1896 C 171.111 3.5729 -0.0887327 0
M  V30 1897 C 170.777 4.28317 -1.40909 0
M  V30 1898 C 169.439 4.47437 -1.77069 0
M  V30 1899 C 171.791 4.6867 -2.28031 0
M  V30 1900 C 169.119 5.04171 -3.00047 0
M  V30 1901 C 171.471 5.26766 -3.50286 0
M  V30 1902 C 170.135 5.44104 -3.86661 0
M  V30 1903 H 169.405 0.739089 -0.0531801 0
M  V30 1904 H 172.052 1.72781 -0.825761 0
M  V30 1905 H 170.357 3.8594 0.675095 0
M  V30 1906 H 172.054 3.99807 0.309145 0
M  V30 1907 H 168.644 4.1377 -1.1177 0
M  V30 1908 H 172.828 4.53604 -2.01388 0
M  V30 1909 H 168.084 5.15782 -3.28298 0
M  V30 1910 H 172.258 5.56983 -4.18023 0
M  V30 1911 H 169.885 5.87832 -4.82034 0
M  V30 1912 N 171.46 0.379036 1.52974 0
M  V30 1913 C 172.7 -0.206325 2.03356 0
M  V30 1914 C 173.064 -1.44892 1.25977 0
M  V30 1915 O 174.265 -2.11078 1.66432 0
M  V30 1916 C 172.536 -0.477887 3.54191 0
M  V30 1917 S 174.095 -1.035 4.26419 0
M  V30 1918 H 170.913 -0.0590259 0.708546 0
M  V30 1919 H 173.515 0.525013 1.88319 0
M  V30 1920 H 172.219 0.433745 4.08101 0
M  V30 1921 H 171.75 -1.23793 3.73415 0
M  V30 1922 H 173.765 -2.31821 4.38718 0
M  V30 1923 N 172.938 -1.57226 0.108567 0
M  V30 1924 C 173.888 -2.11305 -0.856396 0
M  V30 1925 C 174.872 -1.03129 -1.23504 0
M  V30 1926 O 176.064 -1.29381 -1.20787 0
M  V30 1927 C 173.193 -2.70771 -2.11041 0
M  V30 1928 C 172.279 -3.86011 -1.7566 0
M  V30 1929 N 172.67 -4.93492 -1.10902 0
M  V30 1930 C 170.968 -3.95999 -2.05185 0
M  V30 1931 C 171.669 -5.73984 -0.944308 0
M  V30 1932 N 170.645 -5.2346 -1.46596 0
M  V30 1933 H 174.447 -2.91784 -0.352002 0
M  V30 1934 H 171.961 -1.62126 -0.0942324 0
M  V30 1935 H 173.958 -3.07851 -2.81128 0
M  V30 1936 H 172.618 -1.91751 -2.62034 0
M  V30 1937 H 173.629 -5.1208 -0.774235 0
M  V30 1938 H 170.306 -3.28007 -2.58298 0
M  V30 1939 H 171.696 -6.70479 -0.436813 0
M  V30 1940 N 174.416 0.165178 -1.56732 0
M  V30 1941 C 175.641 0.900253 -1.86843 0
M  V30 1942 C 176.066 1.74766 -0.695596 0
M  V30 1943 O 175.424 1.77786 0.35522 0
M  V30 1944 C 175.472 1.74777 -3.15413 0
M  V30 1945 O 174.576 2.85007 -2.98068 0
M  V30 1946 H 173.917 0.251832 -0.614391 0
M  V30 1947 H 176.447 0.161468 -2.03962 0
M  V30 1948 H 176.457 2.14646 -3.46974 0
M  V30 1949 H 175.132 1.12537 -4.00385 0
M  V30 1950 H 173.709 2.48676 -2.77875 0
M  V30 1951 N 175.894 1.51508 0.433938 0
M  V30 1952 C 177.31 1.39759 0.770682 0
M  V30 1953 C 177.51 0.482594 1.95636 0
M  V30 1954 O 176.566 -0.0609691 2.52426 0
M  V30 1955 C 177.879 2.81851 1.04787 0
M  V30 1956 C 179.427 2.91025 1.1521 0
M  V30 1957 C 179.902 4.34032 1.46219 0
M  V30 1958 N 181.393 4.37154 1.53136 0
M  V30 1959 C 182.128 5.4484 1.78709 0
M  V30 1960 N 181.624 6.62682 2.02051 0
M  V30 1961 N 183.417 5.32324 1.80519 0
M  V30 1962 H 175.568 2.09548 -0.346892 0
M  V30 1963 H 177.831 0.943446 -0.0928074 0
M  V30 1964 H 177.537 3.50815 0.249304 0
M  V30 1965 H 177.411 3.21386 1.97461 0
M  V30 1966 H 179.798 2.22257 1.94128 0
M  V30 1967 H 179.879 2.54983 0.204281 0
M  V30 1968 H 179.523 5.03351 0.678274 0
M  V30 1969 H 179.453 4.6759 2.42212 0
M  V30 1970 H 181.944 3.52197 1.36987 0
M  V30 1971 H 182.257 7.40543 2.20943 0
M  V30 1972 H 180.602 6.65791 1.99366 0
M  V30 1973 H 183.793 4.39246 1.61805 0
M  V30 1974 H 183.966 6.16328 2.00111 0
M  V30 1975 N 177.372 -0.689602 1.41712 0
M  V30 1976 C 178.32 -1.82475 1.44242 0
M  V30 1977 C 179.314 -1.66354 0.319774 0
M  V30 1978 O 180.52 -1.73143 0.492089 0
M  V30 1979 H 176.895 -0.601416 0.451445 0
M  V30 1980 H 178.866 -1.77458 2.39899 0
M  V30 1981 C 177.615 -3.20535 1.3473 0
M  V30 1982 H 176.938 -3.33559 2.20405 0
M  V30 1983 H 178.378 -4.00023 1.40562 0
M  V30 1984 C 176.837 -3.36846 0.0603281 0
M  V30 1985 O 177.367 -3.91656 -0.892663 0
M  V30 1986 N 175.573 -2.90595 -0.0177039 0
M  V30 1987 H 175.12 -2.46178 0.758572 0
M  V30 1988 H 175.078 -3.01886 -0.878201 0
M  V30 1989 N 178.85 -1.27639 -0.924453 0
M  V30 1990 C 180.096 -1.14336 -1.67497 0
M  V30 1991 C 180.429 0.309465 -1.91718 0
M  V30 1992 O 179.704 1.22608 -1.50989 0
M  V30 1993 C 179.987 -1.93096 -3.0395 0
M  V30 1994 C 179.84 -3.46381 -2.8695 0
M  V30 1995 C 181.159 -1.73798 -4.0433 0
M  V30 1996 H 178.278 -0.416728 -0.607871 0
M  V30 1997 H 180.92 -1.56832 -1.07256 0
M  V30 1998 H 179.07 -1.56982 -3.55372 0
M  V30 1999 H 180.742 -3.92343 -2.42621 0
M  V30 2000 H 178.985 -3.72557 -2.22225 0
M  V30 2001 H 179.656 -3.96735 -3.83804 0
M  V30 2002 H 182.132 -2.05293 -3.61931 0
M  V30 2003 H 181.008 -2.31294 -4.97789 0
M  V30 2004 H 181.269 -0.686725 -4.36734 0
M  V30 2005 N 180.328 1.1314 -1.09713 0
M  V30 2006 C 181.258 2.20748 -0.761102 0
M  V30 2007 C 182.239 1.68061 0.262566 0
M  V30 2008 O 183.424 1.93765 0.129977 0
M  V30 2009 C 180.554 3.46812 -0.184054 0
M  V30 2010 C 179.508 4.12606 -1.13757 0
M  V30 2011 C 178.834 5.33031 -0.422083 0
M  V30 2012 C 180.134 4.59603 -2.48118 0
M  V30 2013 H 181.828 2.49113 -1.66082 0
M  V30 2014 H 179.374 1.19734 -0.799987 0
M  V30 2015 H 181.327 4.21353 0.0631215 0
M  V30 2016 H 180.051 3.17851 0.750868 0
M  V30 2017 H 178.71 3.40036 -1.37007 0
M  V30 2018 H 178.358 5.00335 0.517072 0
M  V30 2019 H 178.058 5.77999 -1.05788 0
M  V30 2020 H 179.582 6.10325 -0.183277 0
M  V30 2021 H 180.996 5.25552 -2.29059 0
M  V30 2022 H 179.393 5.15321 -3.07514 0
M  V30 2023 H 180.463 3.73971 -3.08665 0
M  V30 2024 N 181.806 0.884767 1.30421 0
M  V30 2025 C 182.756 0.322846 2.25703 0
M  V30 2026 C 183.74 -0.548582 1.51259 0
M  V30 2027 O 184.932 -0.39304 1.72581 0
M  V30 2028 C 182.061 -0.461787 3.4018 0
M  V30 2029 C 181.147 0.423717 4.21978 0
M  V30 2030 N 181.538 1.52408 4.82292 0
M  V30 2031 C 179.836 0.218795 4.45463 0
M  V30 2032 C 180.537 2.07136 5.43571 0
M  V30 2033 N 179.513 1.36635 5.26148 0
M  V30 2034 H 183.315 1.16363 2.69883 0
M  V30 2035 H 180.829 0.73415 1.44859 0
M  V30 2036 H 182.826 -0.880985 4.07485 0
M  V30 2037 H 181.486 -1.30001 2.9754 0
M  V30 2038 H 182.497 1.90693 4.81515 0
M  V30 2039 H 179.174 -0.582275 4.1342 0
M  V30 2040 H 180.564 2.99538 6.01437 0
M  V30 2041 N 183.284 -1.43765 0.645699 0
M  V30 2042 C 184.7 -1.56509 0.312591 0
M  V30 2043 C 184.9 -1.6307 -1.18365 0
M  V30 2044 O 183.956 -1.58167 -1.96824 0
M  V30 2045 C 185.269 -2.82968 1.01733 0
M  V30 2046 C 186.817 -2.96701 0.996865 0
M  V30 2047 C 187.292 -4.25982 1.68236 0
M  V30 2048 N 188.783 -4.32829 1.64964 0
M  V30 2049 C 189.518 -5.31613 2.14885 0
M  V30 2050 N 189.014 -6.36718 2.73061 0
M  V30 2051 N 190.807 -5.23217 2.05428 0
M  V30 2052 H 182.958 -1.3775 1.61675 0
M  V30 2053 H 185.221 -0.661067 0.679481 0
M  V30 2054 H 184.927 -2.84156 2.0724 0
M  V30 2055 H 184.801 -3.72957 0.564177 0
M  V30 2056 H 187.188 -2.95058 -0.0497719 0
M  V30 2057 H 187.269 -2.08022 1.48865 0
M  V30 2058 H 186.913 -4.28386 2.72852 0
M  V30 2059 H 186.843 -5.13545 1.16529 0
M  V30 2060 H 189.334 -3.57493 1.22503 0
M  V30 2061 H 189.647 -7.08401 3.08848 0
M  V30 2062 H 187.992 -6.37362 2.77118 0
M  V30 2063 H 191.183 -4.40019 1.59689 0
M  V30 2064 H 191.356 -6.00045 2.44643 0
M  V30 2065 N 184.763 -0.387143 -1.52771 0
M  V30 2066 C 186.04 0.253197 -1.93954 0
M  V30 2067 C 186.42 1.64545 -1.32243 0
M  V30 2068 O 185.768 2.23191 -0.489699 0
M  V30 2069 C 185.978 0.281722 -3.47861 0
M  V30 2070 C 187.326 0.511715 -4.21505 0
M  V30 2071 O 188.35 0.362023 -3.54356 0
M  V30 2072 O 187.209 0.804847 -5.40541 0
M  V30 2073 H 184.303 0.156845 -0.811991 0
M  V30 2074 H 186.849 -0.441494 -1.63856 0
M  V30 2075 H 185.621 -0.693571 -3.85104 0
M  V30 2076 H 185.244 1.02142 -3.84256 0
M  V30 2077 N 186.241 1.57166 -0.116904 0
M  V30 2078 C 187.171 2.18222 0.830759 0
M  V30 2079 C 188.152 1.12167 1.27877 0
M  V30 2080 O 189.337 1.40394 1.34176 0
M  V30 2081 C 186.467 2.77996 2.08172 0
M  V30 2082 C 185.421 3.89614 1.77157 0
M  V30 2083 C 184.747 4.36187 3.09265 0
M  V30 2084 C 186.047 5.1181 1.04151 0
M  V30 2085 H 187.741 2.97664 0.321992 0
M  V30 2086 H 185.287 1.4318 0.153434 0
M  V30 2087 H 187.24 3.19366 2.74924 0
M  V30 2088 H 185.964 1.9584 2.6137 0
M  V30 2089 H 184.623 3.48816 1.12796 0
M  V30 2090 H 184.271 3.50893 3.60393 0
M  V30 2091 H 183.971 5.11455 2.89288 0
M  V30 2092 H 185.495 4.80207 3.77139 0
M  V30 2093 H 186.909 5.50214 1.61052 0
M  V30 2094 H 185.306 5.92648 0.942762 0
M  V30 2095 H 186.376 4.84892 0.0279022 0
M  V30 2096 N 187.719 -0.156864 1.56817 0
M  V30 2097 C 188.666 -1.19394 1.97519 0
M  V30 2098 C 189.636 -1.4322 0.841265 0
M  V30 2099 O 190.821 -1.55719 1.10255 0
M  V30 2100 C 187.961 -2.52483 2.35258 0
M  V30 2101 C 187.074 -2.35914 3.61896 0
M  V30 2102 C 186.209 -3.61969 3.88782 0
M  V30 2103 C 185.248 -3.40395 5.08722 0
M  V30 2104 N 184.385 -4.58556 5.31668 0
M  V30 2105 H 189.225 -0.839845 2.85921 0
M  V30 2106 H 186.762 -0.403264 1.41464 0
M  V30 2107 H 188.72 -3.30071 2.55165 0
M  V30 2108 H 187.35 -2.85859 1.49949 0
M  V30 2109 H 186.402 -1.49429 3.49821 0
M  V30 2110 H 187.714 -2.15926 4.49641 0
M  V30 2111 H 186.868 -4.47989 4.09135 0
M  V30 2112 H 185.607 -3.84951 2.9944 0
M  V30 2113 H 184.612 -2.52763 4.88253 0
M  V30 2114 H 185.837 -3.18822 5.99608 0
M  V30 2115 H 183.783 -4.81729 4.45279 0
M  V30 2116 H 183.7 -4.41535 6.13664 0
M  V30 2117 H 184.968 -5.45817 5.5651 0
M  V30 2118 N 189.197 -1.51736 -0.425897 0
M  V30 2119 C 190.608 -1.5732 -1.00536 0
M  V30 2120 C 190.959 -0.403537 -1.92005 0
M  V30 2121 O 190.084 0.478256 -2.11049 0
M  V30 2122 C 190.679 -2.85119 -1.8301 0
M  V30 2123 C 189.238 -2.93236 -2.35987 0
M  V30 2124 C 188.385 -2.52098 -1.15508 0
M  V30 2125 H 191.336 -1.57348 -0.206739 0
M  V30 2126 H 191.357 -2.69526 -2.68581 0
M  V30 2127 H 190.869 -3.7023 -1.16411 0
M  V30 2128 H 188.97 -2.12581 -3.06007 0
M  V30 2129 H 189.083 -3.9713 -2.68001 0
M  V30 2130 H 187.447 -2.05558 -1.50393 0
M  V30 2131 H 188.23 -3.39565 -0.505014 0
M  V30 2132 N 190.675 0.682077 -1.42076 0
M  V30 2133 C 191.607 1.80755 -1.40926 0
M  V30 2134 C 192.62 1.59833 -0.309398 0
M  V30 2135 O 193.809 1.69087 -0.572014 0
M  V30 2136 C 190.909 3.17744 -1.17865 0
M  V30 2137 C 190.082 3.65578 -2.40149 0
M  V30 2138 C 189.141 4.81277 -2.12742 0
M  V30 2139 O 188.167 4.92197 -2.85887 0
M  V30 2140 N 189.369 5.69474 -1.12602 0
M  V30 2141 H 192.134 1.82229 -2.37935 0
M  V30 2142 H 189.695 0.864903 -1.36861 0
M  V30 2143 H 191.687 3.9279 -0.9746 0
M  V30 2144 H 190.257 3.11214 -0.294068 0
M  V30 2145 H 189.477 2.81291 -2.76169 0
M  V30 2146 H 190.765 3.94278 -3.21593 0
M  V30 2147 H 190.163 5.63297 -0.520899 0
M  V30 2148 H 188.72 6.44363 -0.981842 0
M  V30 2149 N 192.153 1.28127 0.917671 0
M  V30 2150 C 193.101 1.11569 2.04096 0
M  V30 2151 C 194.095 0.0360242 1.69362 0
M  V30 2152 O 195.301 0.194501 1.78946 0
M  V30 2153 H 191.676 0.344097 0.668656 0
M  V30 2154 H 193.647 2.06711 2.15205 0
M  V30 2155 C 192.396 0.790197 3.38602 0
M  V30 2156 H 191.719 1.61293 3.6582 0
M  V30 2157 H 193.159 0.714271 4.1794 0
M  V30 2158 C 191.618 -0.505897 3.3308 0
M  V30 2159 O 192.148 -1.53736 3.71117 0
M  V30 2160 N 190.354 -0.505193 2.86175 0
M  V30 2161 H 189.901 0.334621 2.55417 0
M  V30 2162 H 189.859 -1.37243 2.82863 0
M  V30 2163 N 193.631 -1.12557 1.10312 0
M  V30 2164 C 194.561 -2.20341 0.772798 0
M  V30 2165 C 195.542 -1.68198 -0.25365 0
M  V30 2166 O 196.727 -1.93831 -0.119699 0
M  V30 2167 C 193.857 -3.46709 0.202443 0
M  V30 2168 C 192.811 -4.11996 1.15943 0
M  V30 2169 C 192.137 -5.328 0.450345 0
M  V30 2170 C 193.437 -4.5828 2.50552 0
M  V30 2171 H 195.131 -2.48229 1.674 0
M  V30 2172 H 192.677 -1.19308 0.806326 0
M  V30 2173 H 194.63 -4.2138 -0.0407752 0
M  V30 2174 H 193.354 -3.18245 -0.734001 0
M  V30 2175 H 192.013 -3.39305 1.38808 0
M  V30 2176 H 191.661 -5.00602 -0.490531 0
M  V30 2177 H 191.361 -5.7743 1.08851 0
M  V30 2178 H 192.885 -6.10219 0.215642 0
M  V30 2179 H 194.299 -5.2433 2.31843 0
M  V30 2180 H 192.696 -5.13683 3.10242 0
M  V30 2181 H 193.766 -3.72329 3.10643 0
M  V30 2182 N 195.109 -0.891671 -1.2995 0
M  V30 2183 C 196.039 -0.379797 -2.30391 0
M  V30 2184 C 197.02 0.540919 -1.6127 0
M  V30 2185 O 198.205 0.453352 -1.88834 0
M  V30 2186 C 195.335 0.400654 -3.44981 0
M  V30 2187 C 194.289 -0.428905 -4.25846 0
M  V30 2188 C 193.615 0.478557 -5.32554 0
M  V30 2189 C 194.915 -1.67458 -4.94727 0
M  V30 2190 H 196.609 -1.21914 -2.73454 0
M  V30 2191 H 194.155 -0.587675 -1.31462 0
M  V30 2192 H 196.108 0.769434 -4.14316 0
M  V30 2193 H 194.832 1.27371 -3.0074 0
M  V30 2194 H 193.491 -0.779911 -3.58208 0
M  V30 2195 H 193.139 1.34951 -4.84559 0
M  V30 2196 H 192.839 -0.0727433 -5.87555 0
M  V30 2197 H 194.363 0.843705 -6.04743 0
M  V30 2198 H 195.777 -1.376 -5.56542 0
M  V30 2199 H 194.174 -2.16659 -5.59624 0
M  V30 2200 H 195.244 -2.41518 -4.20473 0
M  V30 2201 N 196.587 1.43421 -0.653314 0
M  V30 2202 C 197.836 2.01032 -0.164076 0
M  V30 2203 C 198.149 1.52147 1.22926 0
M  V30 2204 O 199.355 2.02031 1.81371 0
M  V30 2205 C 197.811 3.59082 -0.24252 0
M  V30 2206 C 197.419 4.1696 -1.63855 0
M  V30 2207 C 199.163 4.24079 0.18911 0
M  V30 2208 C 197.07 5.67304 -1.67092 0
M  V30 2209 H 196 0.751798 -0.0575769 0
M  V30 2210 H 198.651 1.6439 -0.815362 0
M  V30 2211 H 197.033 3.93125 0.476276 0
M  V30 2212 H 198.207 3.94416 -2.38271 0
M  V30 2213 H 196.522 3.64335 -2.01616 0
M  V30 2214 H 199.119 5.34381 0.184775 0
M  V30 2215 H 199.462 3.98005 1.22056 0
M  V30 2216 H 199.995 3.94918 -0.477938 0
M  V30 2217 H 196.734 5.98145 -2.68146 0
M  V30 2218 H 196.254 5.91904 -0.970014 0
M  V30 2219 H 197.933 6.31344 -1.4147 0
M  V30 2220 N 198.065 0.39524 1.52563 0
M  V30 2221 C 199.013 -0.451859 2.28169 0
M  V30 2222 C 200.007 -1.05792 1.32304 0
M  V30 2223 O 201.213 -0.997718 1.49818 0
M  V30 2224 H 197.588 -0.164481 0.733792 0
M  V30 2225 H 199.559 0.207199 2.9768 0
M  V30 2226 C 198.308 -1.56385 3.10546 0
M  V30 2227 H 197.631 -1.10682 3.84174 0
M  V30 2228 H 199.071 -2.13067 3.66577 0
M  V30 2229 C 197.53 -2.52328 2.23231 0
M  V30 2230 O 198.06 -3.5588 1.86312 0
M  V30 2231 N 196.266 -2.22209 1.87274 0
M  V30 2232 H 195.813 -1.38033 2.17496 0
M  V30 2233 H 195.771 -2.86652 1.29143 0
M  V30 2234 N 199.544 -1.57102 0.125237 0
M  V30 2235 C 200.96 -1.57915 -0.231322 0
M  V30 2236 C 201.16 -1.13833 -1.66266 0
M  V30 2237 O 200.216 -0.828581 -2.38518 0
M  V30 2238 C 201.529 -3.00699 0.00766489 0
M  V30 2239 C 203.077 -3.12947 -0.0577483 0
M  V30 2240 C 203.552 -4.57742 0.153626 0
M  V30 2241 N 205.043 -4.63092 0.0998073 0
M  V30 2242 C 205.778 -5.72905 0.238174 0
M  V30 2243 N 205.274 -6.91445 0.433057 0
M  V30 2244 N 207.067 -5.6182 0.177308 0
M  V30 2245 H 199.218 -1.84055 1.06007 0
M  V30 2246 H 201.481 -0.850905 0.417929 0
M  V30 2247 H 201.187 -3.3726 0.997431 0
M  V30 2248 H 201.061 -3.70236 -0.721452 0
M  V30 2249 H 203.448 -2.7624 -1.03804 0
M  V30 2250 H 203.529 -2.4594 0.70335 0
M  V30 2251 H 203.173 -4.95149 1.13092 0
M  V30 2252 H 203.103 -5.22848 -0.627534 0
M  V30 2253 H 205.594 -3.77871 -0.047051 0
M  V30 2254 H 205.907 -7.70985 0.529332 0
M  V30 2255 H 204.252 -6.93415 0.469109 0
M  V30 2256 H 207.443 -4.68093 0.0259748 0
M  V30 2257 H 207.616 -6.47357 0.288582 0
M  V30 2258 N 201.022 0.148545 -1.56898 0
M  V30 2259 C 201.97 1.20265 -1.99096 0
M  V30 2260 C 202.964 1.44559 -0.883123 0
M  V30 2261 O 204.17 1.4487 -1.0683 0
M  V30 2262 H 200.545 0.404786 -0.63376 0
M  V30 2263 H 202.516 0.82004 -2.86911 0
M  V30 2264 C 201.265 2.52886 -2.3863 0
M  V30 2265 H 200.588 2.35021 -3.23427 0
M  V30 2266 H 202.028 3.25274 -2.7198 0
M  V30 2267 C 200.487 3.13315 -1.23837 0
M  V30 2268 O 201.017 3.98077 -0.538268 0
M  V30 2269 N 199.223 2.72742 -1.00301 0
M  V30 2270 H 198.77 2.03912 -1.5741 0
M  V30 2271 H 198.728 3.13507 -0.236838 0
M  V30 2272 N 202.5 1.5196 0.417844 0
M  V30 2273 C 203.748 1.65263 1.16329 0
M  V30 2274 C 204.069 0.380634 1.91249 0
M  V30 2275 O 203.339 -0.604214 1.86349 0
M  V30 2276 H 201.919 0.60912 0.432414 0
M  V30 2277 H 204.581 1.88969 0.477162 0
M  V30 2278 H 203.677 2.4896 1.88217 0
M  V30 2279 N 203.978 -0.674533 1.42435 0
M  V30 2280 C 204.888 -1.81751 1.48337 0
M  V30 2281 C 205.904 -1.69975 0.372099 0
M  V30 2282 O 207.08 -1.91521 0.62304 0
M  V30 2283 C 204.145 -3.17895 1.38361 0
M  V30 2284 C 203.206 -3.41625 2.59982 0
M  V30 2285 C 202.439 -4.71274 2.50473 0
M  V30 2286 O 202.662 -5.49197 1.54075 0
M  V30 2287 O 201.596 -4.96254 3.4061 0
M  V30 2288 H 205.422 -1.79728 2.44809 0
M  V30 2289 H 203.007 -0.830312 1.24202 0
M  V30 2290 H 204.889 -3.99136 1.35161 0
M  V30 2291 H 203.564 -3.20555 0.450144 0
M  V30 2292 H 202.471 -2.60231 2.68757 0
M  V30 2293 H 203.804 -3.43796 3.52229 0
M  V30 2294 N 205.456 -1.28612 -0.910864 0
M  V30 2295 C 206.386 -1.15326 -2.03032 0
M  V30 2296 C 207.367 -0.0502924 -1.70026 0
M  V30 2297 O 208.552 -0.227797 -1.92859 0
M  V30 2298 C 205.682 -0.817343 -3.37545 0
M  V30 2299 C 204.636 -1.8754 -3.84724 0
M  V30 2300 C 203.962 -1.39305 -5.16235 0
M  V30 2301 C 205.262 -3.28244 -4.06267 0
M  V30 2302 H 206.956 -2.08975 -2.14406 0
M  V30 2303 H 204.502 -1.00612 -1.03021 0
M  V30 2304 H 206.455 -0.711151 -4.15356 0
M  V30 2305 H 205.179 0.154846 -3.26233 0
M  V30 2306 H 203.838 -1.97079 -3.09121 0
M  V30 2307 H 203.486 -0.409846 -5.01328 0
M  V30 2308 H 203.186 -2.10057 -5.48771 0
M  V30 2309 H 204.71 -1.30014 -5.96598 0
M  V30 2310 H 206.124 -3.21611 -4.74594 0
M  V30 2311 H 204.521 -3.96855 -4.5014 0
M  V30 2312 H 205.591 -3.72048 -3.10979 0
M  V30 2313 N 206.934 1.1197 -1.10907 0
M  V30 2314 C 207.881 2.17846 -0.762345 0
M  V30 2315 C 208.851 1.63995 0.263599 0
M  V30 2316 O 210.036 1.90273 0.141773 0
M  V30 2317 C 207.176 3.44487 -0.205651 0
M  V30 2318 C 206.289 4.12369 -1.28748 0
M  V30 2319 C 205.424 5.26674 -0.691919 0
M  V30 2320 C 204.463 5.86431 -1.75399 0
M  V30 2321 N 203.6 6.92142 -1.17833 0
M  V30 2322 H 208.44 2.46851 -1.6694 0
M  V30 2323 H 205.977 1.21188 -0.833776 0
M  V30 2324 H 207.935 4.16981 0.135037 0
M  V30 2325 H 206.565 3.15884 0.664613 0
M  V30 2326 H 205.617 3.38003 -1.74522 0
M  V30 2327 H 206.929 4.52844 -2.09125 0
M  V30 2328 H 206.083 6.05953 -0.300963 0
M  V30 2329 H 204.822 4.8749 0.143232 0
M  V30 2330 H 203.827 5.05835 -2.15432 0
M  V30 2331 H 205.052 6.27685 -2.59208 0
M  V30 2332 H 202.998 6.54985 -0.364725 0
M  V30 2333 H 202.915 7.31242 -1.91887 0
M  V30 2334 H 204.183 7.75237 -0.81408 0
M  V30 2335 N 208.412 0.89855 1.29475 0
M  V30 2336 C 209.342 0.39201 2.30186 0
M  V30 2337 C 210.323 -0.532359 1.61555 0
M  V30 2338 O 211.508 -0.443331 1.89072 0
M  V30 2339 C 208.638 -0.382353 3.45189 0
M  V30 2340 C 207.592 0.451483 4.25612 0
M  V30 2341 C 206.918 -0.450307 5.328 0
M  V30 2342 C 208.218 1.70079 4.93832 0
M  V30 2343 H 209.912 1.23362 2.72804 0
M  V30 2344 H 207.458 0.594638 1.31149 0
M  V30 2345 H 209.411 -0.747451 4.14718 0
M  V30 2346 H 208.135 -1.25774 3.01411 0
M  V30 2347 H 206.794 0.798897 3.57789 0
M  V30 2348 H 206.442 -1.32379 4.85268 0
M  V30 2349 H 206.142 0.103902 5.87508 0
M  V30 2350 H 207.666 -0.811623 6.05182 0
M  V30 2351 H 209.08 1.40549 5.55805 0
M  V30 2352 H 207.477 2.19623 5.58467 0
M  V30 2353 H 208.547 2.43744 4.19186 0
M  V30 2354 N 209.89 -1.43072 0.660911 0
M  V30 2355 C 210.853 -2.29194 -0.0166406 0
M  V30 2356 C 211.853 -1.42609 -0.742912 0
M  V30 2357 O 213.043 -1.64155 -0.583004 0
M  V30 2358 C 210.175 -3.24831 -1.0343 0
M  V30 2359 H 211.368 -2.90596 0.741208 0
M  V30 2360 H 208.921 -1.5048 0.422532 0
M  V30 2361 H 209.656 -2.68339 -1.82111 0
M  V30 2362 H 209.441 -3.88676 -0.517082 0
M  V30 2363 H 210.931 -3.89451 -1.50723 0
M  V30 2364 N 211.368 -0.403325 -1.52352 0
M  V30 2365 C 212.645 0.232611 -1.94212 0
M  V30 2366 C 213.025 1.63133 -1.33981 0
M  V30 2367 O 212.373 2.22659 -0.513344 0
M  V30 2368 C 212.583 0.244811 -3.4814 0
M  V30 2369 C 213.931 0.46698 -4.22024 0
M  V30 2370 O 214.955 0.324419 -3.5472 0
M  V30 2371 O 213.814 0.74747 -5.41364 0
M  V30 2372 H 210.908 0.148223 -0.813609 0
M  V30 2373 H 213.454 -0.458848 -1.63379 0
M  V30 2374 H 212.226 -0.734378 -3.84347 0
M  V30 2375 H 211.849 0.980611 -3.85318 0
M  V30 2376 N 212.846 1.57033 -0.133567 0
M  V30 2377 C 214.093 1.95686 0.520877 0
M  V30 2378 C 214.421 1.0177 1.6575 0
M  V30 2379 O 213.676 0.0443195 1.9565 0
M  V30 2380 C 213.975 3.40674 1.08057 0
M  V30 2381 C 213.641 4.50855 0.0637899 0
M  V30 2382 C 212.303 4.80716 -0.215757 0
M  V30 2383 C 214.655 5.17398 -0.62835 0
M  V30 2384 C 211.983 5.74433 -1.19348 0
M  V30 2385 C 214.335 6.12167 -1.5948 0
M  V30 2386 C 212.999 6.40414 -1.88218 0
M  V30 2387 H 212.269 0.716067 0.190602 0
M  V30 2388 H 214.916 1.9026 -0.217556 0
M  V30 2389 H 213.221 3.42865 1.89606 0
M  V30 2390 H 214.918 3.67902 1.59529 0
M  V30 2391 H 211.508 4.27605 0.291855 0
M  V30 2392 H 215.692 4.94472 -0.425562 0
M  V30 2393 H 210.948 5.94616 -1.42272 0
M  V30 2394 H 215.122 6.6281 -2.13671 0
M  V30 2395 H 212.749 7.12838 -2.64133 0
M  V30 2396 N 214.325 -0.140222 1.56975 0
M  V30 2397 C 215.573 -0.850005 1.83356 0
M  V30 2398 C 215.894 -1.81399 0.71551 0
M  V30 2399 O 215.164 -1.94136 -0.262294 0
M  V30 2400 H 213.744 -0.316886 0.676456 0
M  V30 2401 H 216.406 -0.132608 1.94448 0
M  V30 2402 H 215.502 -1.40814 2.78528 0
M  V30 2403 N 215.803 -1.52179 -0.40978 0
M  V30 2404 C 216.733 -1.78435 -1.5061 0
M  V30 2405 C 217.714 -0.635295 -1.57791 0
M  V30 2406 O 218.899 -0.880823 -1.73076 0
M  V30 2407 C 216.029 -1.93444 -2.88439 0
M  V30 2408 C 214.983 -3.09038 -2.96108 0
M  V30 2409 C 214.309 -3.09268 -4.36185 0
M  V30 2410 C 215.609 -4.48508 -2.67652 0
M  V30 2411 H 217.303 -2.70237 -1.28889 0
M  V30 2412 H 214.849 -1.30036 -0.618605 0
M  V30 2413 H 216.802 -2.10394 -3.65119 0
M  V30 2414 H 215.526 -0.983129 -3.11452 0
M  V30 2415 H 214.185 -2.91837 -2.21872 0
M  V30 2416 H 213.833 -2.11861 -4.56206 0
M  V30 2417 H 213.533 -3.86907 -4.42241 0
M  V30 2418 H 215.057 -3.28348 -5.14801 0
M  V30 2419 H 216.471 -4.65918 -3.34056 0
M  V30 2420 H 214.868 -5.28059 -2.85085 0
M  V30 2421 H 215.938 -4.56649 -1.63095 0
M  V30 2422 N 217.281 0.66697 -1.42791 0
M  V30 2423 C 218.244 1.76211 -1.46568 0
M  V30 2424 C 219.244 1.56896 -0.352196 0
M  V30 2425 O 220.434 1.63044 -0.613364 0
M  V30 2426 C 217.566 3.14935 -1.30494 0
M  V30 2427 H 218.759 1.74247 -2.44086 0
M  V30 2428 H 216.312 0.877342 -1.29354 0
M  V30 2429 H 217.047 3.2252 -0.339301 0
M  V30 2430 H 216.832 3.30359 -2.11199 0
M  V30 2431 H 218.322 3.94821 -1.36038 0
M  V30 2432 N 218.759 1.29093 0.90403 0
M  V30 2433 C 220.175 1.07011 1.1841 0
M  V30 2434 C 220.375 -0.181358 2.00682 0
M  V30 2435 O 219.431 -0.880331 2.36657 0
M  V30 2436 C 220.744 2.32311 1.90924 0
M  V30 2437 C 222.292 2.37587 2.03768 0
M  V30 2438 C 222.767 3.62679 2.79693 0
M  V30 2439 N 224.258 3.63376 2.87249 0
M  V30 2440 C 224.993 4.56848 3.46522 0
M  V30 2441 N 224.489 5.60648 4.06996 0
M  V30 2442 N 226.282 4.44426 3.44154 0
M  V30 2443 H 218.433 2.09412 0.354993 0
M  V30 2444 H 220.696 0.922181 0.219742 0
M  V30 2445 H 220.402 3.23536 1.37905 0
M  V30 2446 H 220.276 2.39483 2.91424 0
M  V30 2447 H 222.663 1.46853 2.55965 0
M  V30 2448 H 222.744 2.34403 1.02415 0
M  V30 2449 H 222.388 4.53762 2.28173 0
M  V30 2450 H 222.318 3.63119 3.81381 0
M  V30 2451 H 224.809 2.88321 2.44293 0
M  V30 2452 H 225.122 6.28101 4.50232 0
M  V30 2453 H 223.467 5.64463 4.05471 0
M  V30 2454 H 226.658 3.62529 2.96126 0
M  V30 2455 H 226.831 5.17457 3.90054 0
M  V30 2456 N 220.237 -1.11381 1.11499 0
M  V30 2457 C 221.2 -2.15622 0.777153 0
M  V30 2458 C 222.2 -1.59504 -0.203779 0
M  V30 2459 O 223.39 -1.74188 0.020782 0
M  V30 2460 C 220.522 -3.40556 0.153116 0
M  V30 2461 H 221.715 -2.47021 1.70061 0
M  V30 2462 H 219.268 -1.26577 0.916952 0
M  V30 2463 H 220.003 -3.14767 -0.780536 0
M  V30 2464 H 219.788 -3.8257 0.859238 0
M  V30 2465 H 221.278 -4.17546 -0.0671044 0
M  V30 2466 N 221.715 -0.905404 -1.28997 0
M  V30 2467 C 222.962 -0.534248 -1.95325 0
M  V30 2468 C 223.29 0.920535 -1.71337 0
M  V30 2469 O 222.545 1.66861 -1.02254 0
M  V30 2470 C 222.844 -0.779906 -3.48787 0
M  V30 2471 C 222.51 -2.21293 -3.92861 0
M  V30 2472 C 221.172 -2.60475 -4.04606 0
M  V30 2473 C 223.524 -3.14587 -4.15553 0
M  V30 2474 C 220.852 -3.9212 -4.36416 0
M  V30 2475 C 223.204 -4.45787 -4.48839 0
M  V30 2476 C 221.868 -4.84834 -4.58794 0
M  V30 2477 H 221.138 -0.195495 -0.714747 0
M  V30 2478 H 223.785 -1.14514 -1.53488 0
M  V30 2479 H 222.09 -0.0861365 -3.91705 0
M  V30 2480 H 223.787 -0.472029 -3.98212 0
M  V30 2481 H 220.377 -1.89887 -3.84241 0
M  V30 2482 H 224.561 -2.85528 -4.0594 0
M  V30 2483 H 219.817 -4.22086 -4.42327 0
M  V30 2484 H 223.991 -5.18098 -4.65346 0
M  V30 2485 H 221.618 -5.86877 -4.83197 0
M  V30 2486 N 223.193 1.4272 -0.668489 0
M  V30 2487 C 224.441 2.01226 -0.187769 0
M  V30 2488 C 224.762 1.53092 1.2078 0
M  V30 2489 O 224.032 0.74993 1.80977 0
M  V30 2490 H 222.612 0.744041 -0.0664272 0
M  V30 2491 H 225.274 1.74723 -0.863583 0
M  V30 2492 H 224.37 3.11556 -0.184166 0
M  V30 2493 N 224.671 0.411399 1.52136 0
M  V30 2494 C 225.92 -0.165009 2.01024 0
M  V30 2495 C 226.233 -1.4603 1.30133 0
M  V30 2496 O 227.439 -2.1181 1.69849 0
M  V30 2497 C 225.895 -0.344618 3.58246 0
M  V30 2498 C 225.503 0.938716 4.38055 0
M  V30 2499 C 227.247 -0.876195 4.15359 0
M  V30 2500 C 225.154 0.726172 5.86925 0
M  V30 2501 H 224.084 -0.0654407 0.751155 0
M  V30 2502 H 226.735 0.537192 1.75461 0
M  V30 2503 H 225.117 -1.10921 3.80148 0
M  V30 2504 H 226.291 1.70963 4.27912 0
M  V30 2505 H 224.606 1.39688 3.92271 0
M  V30 2506 H 227.203 -1.05128 5.24263 0
M  V30 2507 H 227.546 -1.85152 3.7286 0
M  V30 2508 H 228.079 -0.170607 3.97434 0
M  V30 2509 H 224.818 1.67312 6.33788 0
M  V30 2510 H 224.338 -0.00540283 5.998 0
M  V30 2511 H 226.017 0.369231 6.45946 0
M  V30 2512 N 226.149 -1.5696 0.141893 0
M  V30 2513 C 227.56 -1.82797 -0.379776 0
M  V30 2514 C 227.911 -1.06033 -1.6508 0
M  V30 2515 O 227.036 -0.304011 -2.14254 0
M  V30 2516 C 227.631 -3.31578 -0.695802 0
M  V30 2517 C 226.19 -3.58014 -1.16201 0
M  V30 2518 C 225.337 -2.76699 -0.182455 0
M  V30 2519 H 228.288 -1.54406 0.366675 0
M  V30 2520 H 228.309 -3.47454 -1.55099 0
M  V30 2521 H 227.821 -3.87421 0.229449 0
M  V30 2522 H 225.922 -3.07553 -2.10338 0
M  V30 2523 H 226.035 -4.66501 -1.09151 0
M  V30 2524 H 224.399 -2.45618 -0.674072 0
M  V30 2525 H 225.182 -3.35311 0.736297 0
M  V30 2526 N 227.627 0.131896 -1.57047 0
M  V30 2527 C 228.873 0.843179 -1.84441 0
M  V30 2528 C 229.206 1.80129 -0.725749 0
M  V30 2529 O 228.481 1.92624 0.269469 0
M  V30 2530 C 228.764 1.60442 -3.22382 0
M  V30 2531 C 228.617 0.666782 -4.4483 0
M  V30 2532 C 229.936 2.56354 -3.5773 0
M  V30 2533 H 227.055 0.305081 -0.670891 0
M  V30 2534 H 229.697 0.107839 -1.89694 0
M  V30 2535 H 227.847 2.23128 -3.18035 0
M  V30 2536 H 229.519 0.0497646 -4.61273 0
M  V30 2537 H 227.762 -0.022609 -4.33794 0
M  V30 2538 H 228.433 1.23579 -5.37989 0
M  V30 2539 H 230.909 2.0378 -3.62785 0
M  V30 2540 H 229.785 3.06657 -4.5525 0
M  V30 2541 H 230.046 3.38419 -2.84473 0
M  V30 2542 N 229.106 1.52395 0.401703 0
M  V30 2543 C 230.522 1.41363 0.740864 0
M  V30 2544 C 230.722 0.523982 1.94568 0
M  V30 2545 O 229.778 -0.00741204 2.52499 0
M  V30 2546 C 231.091 2.84011 0.987847 0
M  V30 2547 C 232.639 2.93404 1.09011 0
M  V30 2548 C 233.114 4.37036 1.3698 0
M  V30 2549 N 234.605 4.40304 1.43829 0
M  V30 2550 C 235.34 5.48508 1.67112 0
M  V30 2551 N 234.836 6.66819 1.87949 0
M  V30 2552 N 236.629 5.36034 1.69187 0
M  V30 2553 H 228.78 2.08765 -0.391262 0
M  V30 2554 H 231.043 0.941265 -0.112798 0
M  V30 2555 H 230.749 3.51265 0.174835 0
M  V30 2556 H 230.623 3.25502 1.906 0
M  V30 2557 H 233.01 2.26325 1.8937 0
M  V30 2558 H 233.091 2.55359 0.15015 0
M  V30 2559 H 232.735 5.04676 0.571353 0
M  V30 2560 H 232.665 4.72623 2.3224 0
M  V30 2561 H 235.156 3.55024 1.29486 0
M  V30 2562 H 235.469 7.45063 2.05185 0
M  V30 2563 H 233.814 6.6987 1.85199 0
M  V30 2564 H 237.005 4.42579 1.52451 0
M  V30 2565 H 237.178 6.20434 1.86993 0
M  V30 2566 N 230.584 -0.659388 1.43143 0
M  V30 2567 C 231.824 -1.43121 1.45931 0
M  V30 2568 C 232.188 -1.91838 0.0789298 0
M  V30 2569 O 233.389 -2.68794 -0.018491 0
M  V30 2570 C 231.66 -2.58534 2.46769 0
M  V30 2571 S 233.219 -3.47154 2.68384 0
M  V30 2572 H 230.037 -0.488624 0.516496 0
M  V30 2573 H 232.639 -0.766128 1.79863 0
M  V30 2574 H 231.343 -2.21007 3.45809 0
M  V30 2575 H 230.874 -3.29898 2.14315 0
M  V30 2576 H 232.889 -4.55051 1.97845 0
M  V30 2577 N 232.062 -1.29571 -0.897171 0
M  V30 2578 C 233.292 -1.20408 -1.67886 0
M  V30 2579 C 233.7 0.237429 -1.87704 0
M  V30 2580 O 233.043 1.17048 -1.41582 0
M  V30 2581 C 233.105 -1.84887 -3.08314 0
M  V30 2582 C 232.769 -3.34189 -3.11716 0
M  V30 2583 C 233.766 -4.30374 -2.91675 0
M  V30 2584 C 231.451 -3.75431 -3.33701 0
M  V30 2585 C 233.445 -5.65776 -2.93557 0
M  V30 2586 C 231.132 -5.10955 -3.35214 0
M  V30 2587 C 232.13 -6.05938 -3.15164 0
M  V30 2588 O 231.818 -7.38987 -3.1647 0
M  V30 2589 H 231.55 -0.418289 -0.531046 0
M  V30 2590 H 234.104 -1.71514 -1.13014 0
M  V30 2591 H 232.334 -1.28295 -3.64798 0
M  V30 2592 H 234.023 -1.70011 -3.6858 0
M  V30 2593 H 234.789 -3.99844 -2.74499 0
M  V30 2594 H 230.668 -3.01953 -3.48347 0
M  V30 2595 H 234.212 -6.39889 -2.77826 0
M  V30 2596 H 230.109 -5.4113 -3.51922 0
M  V30 2597 H 230.877 -7.47823 -3.3272 0
M  V30 2598 N 233.54 1.10788 -1.12088 0
M  V30 2599 C 234.765 1.87002 -0.896949 0
M  V30 2600 C 235.19 1.79933 0.548261 0
M  V30 2601 O 234.548 1.16662 1.38779 0
M  V30 2602 C 234.596 3.3349 -1.37174 0
M  V30 2603 O 233.7 4.08745 -0.547831 0
M  V30 2604 H 233.041 0.580397 -0.322545 0
M  V30 2605 H 235.571 1.39996 -1.49206 0
M  V30 2606 H 235.581 3.84339 -1.36922 0
M  V30 2607 H 234.256 3.37951 -2.42408 0
M  V30 2608 H 232.833 3.6776 -0.617034 0
M  V30 2609 N 235.018 0.912232 1.28515 0
M  V30 2610 C 235.981 0.404223 2.25607 0
M  V30 2611 C 236.981 -0.468602 1.53821 0
M  V30 2612 O 238.171 -0.271873 1.72065 0
M  V30 2613 C 235.303 -0.420653 3.38295 0
M  V30 2614 H 236.496 1.26188 2.7206 0
M  V30 2615 H 234.049 0.691495 1.40171 0
M  V30 2616 H 234.784 -1.29777 2.97201 0
M  V30 2617 H 234.569 0.204935 3.91564 0
M  V30 2618 H 236.059 -0.766971 4.10496 0
M  V30 2619 N 236.496 -1.42363 0.676048 0
M  V30 2620 C 237.406 -2.346 -0.00153389 0
M  V30 2621 C 238.422 -1.5516 -0.787485 0
M  V30 2622 O 239.598 -1.87723 -0.729521 0
M  V30 2623 C 236.663 -3.33705 -0.940298 0
M  V30 2624 C 235.724 -4.29042 -0.148739 0
M  V30 2625 C 234.957 -5.23413 -1.04279 0
M  V30 2626 O 235.18 -5.22749 -2.28232 0
M  V30 2627 O 234.114 -5.99795 -0.502925 0
M  V30 2628 H 237.94 -2.94082 0.758268 0
M  V30 2629 H 235.525 -1.42888 0.436289 0
M  V30 2630 H 237.407 -3.94586 -1.47917 0
M  V30 2631 H 236.082 -2.76695 -1.67993 0
M  V30 2632 H 234.989 -3.71571 0.43427 0
M  V30 2633 H 236.322 -4.89097 0.551805 0
M  V30 2634 N 237.974 -0.419461 -1.51915 0
M  V30 2635 C 239.22 0.153166 -2.02221 0
M  V30 2636 C 239.553 1.43907 -1.30401 0
M  V30 2637 O 238.828 1.90055 -0.413438 0
M  V30 2638 C 239.111 0.390291 -3.57979 0
M  V30 2639 C 238.964 -0.913014 -4.40436 0
M  V30 2640 C 240.283 1.16794 -4.2432 0
M  V30 2641 H 237.402 0.0541924 -0.735005 0
M  V30 2642 H 240.044 -0.554955 -1.81715 0
M  V30 2643 H 238.194 0.993491 -3.75582 0
M  V30 2644 H 239.866 -1.54882 -4.34522 0
M  V30 2645 H 238.109 -1.52168 -4.06236 0
M  V30 2646 H 238.78 -0.701361 -5.47526 0
M  V30 2647 H 241.256 0.657161 -4.10878 0
M  V30 2648 H 240.132 1.3026 -5.3322 0
M  V30 2649 H 240.393 2.19132 -3.83971 0
M  V30 2650 N 239.452 1.56882 -0.150215 0
M  V30 2651 C 240.698 1.96518 0.500834 0
M  V30 2652 C 241.031 1.03527 1.64304 0
M  V30 2653 O 240.306 0.0782751 1.94342 0
M  V30 2654 C 240.589 3.45822 1.00395 0
M  V30 2655 C 240.442 4.49591 -0.136983 0
M  V30 2656 C 241.761 3.97704 1.88467 0
M  V30 2657 H 238.88 0.714535 0.18058 0
M  V30 2658 H 241.522 1.88577 -0.232091 0
M  V30 2659 H 239.672 3.5272 1.62851 0
M  V30 2660 H 241.344 4.5477 -0.77343 0
M  V30 2661 H 239.587 4.26441 -0.795652 0
M  V30 2662 H 240.258 5.51402 0.256815 0
M  V30 2663 H 242.734 3.93304 1.35834 0
M  V30 2664 H 241.61 5.0263 2.20578 0
M  V30 2665 H 241.871 3.40252 2.82279 0
M  V30 2666 N 240.93 -0.123565 1.57115 0
M  V30 2667 C 242.158 -0.846461 1.88793 0
M  V30 2668 C 242.573 -1.73652 0.740976 0
M  V30 2669 O 241.93 -1.80207 -0.288393 0
M  V30 2670 C 241.981 -1.6837 3.19897 0
M  V30 2671 O 241.702 -0.829477 4.30176 0
M  V30 2672 C 243.203 -2.51214 3.65248 0
M  V30 2673 H 240.423 -0.243573 0.625231 0
M  V30 2674 H 242.967 -0.109324 2.04208 0
M  V30 2675 H 241.122 -2.37364 3.06165 0
M  V30 2676 H 241.536 -1.40651 5.0529 0
M  V30 2677 H 243.01 -3.05497 4.59756 0
M  V30 2678 H 243.487 -3.28359 2.9168 0
M  V30 2679 H 244.093 -1.8747 3.81752 0
M  V30 2680 N 242.408 -1.52605 -0.393616 0
M  V30 2681 C 243.338 -1.80022 -1.48709 0
M  V30 2682 C 244.319 -0.651995 -1.57108 0
M  V30 2683 O 245.504 -0.89913 -1.72132 0
M  V30 2684 C 242.634 -1.96492 -2.86371 0
M  V30 2685 C 241.588 -3.12161 -2.92813 0
M  V30 2686 C 240.914 -3.13877 -4.3288 0
M  V30 2687 C 242.214 -4.51322 -2.6288 0
M  V30 2688 H 243.908 -2.71589 -1.26015 0
M  V30 2689 H 241.454 -1.30684 -0.604778 0
M  V30 2690 H 243.407 -2.14255 -3.62867 0
M  V30 2691 H 242.131 -1.01611 -3.10391 0
M  V30 2692 H 240.79 -2.94173 -2.18764 0
M  V30 2693 H 240.438 -2.16687 -4.53933 0
M  V30 2694 H 240.138 -3.91576 -4.38112 0
M  V30 2695 H 241.662 -3.33789 -5.1129 0
M  V30 2696 H 243.076 -4.69435 -3.29096 0
M  V30 2697 H 241.473 -5.31053 -2.79468 0
M  V30 2698 H 242.543 -4.58353 -1.58242 0
M  V30 2699 N 243.887 0.651787 -1.4349 0
M  V30 2700 C 245.133 1.4121 -1.46395 0
M  V30 2701 C 245.488 1.92202 -0.087366 0
M  V30 2702 O 244.781 1.69452 0.894231 0
M  V30 2703 C 244.975 2.60914 -2.44251 0
M  V30 2704 C 244.804 2.21639 -3.91288 0
M  V30 2705 C 243.574 2.09897 -4.59643 0
M  V30 2706 C 245.772 1.81835 -4.81083 0
M  V30 2707 N 243.754 1.63967 -5.91598 0
M  V30 2708 C 245.125 1.46998 -6.02322 0
M  V30 2709 C 247.18 1.69031 -4.6833 0
M  V30 2710 C 245.883 1.00638 -7.12225 0
M  V30 2711 C 247.909 1.24077 -5.78238 0
M  V30 2712 C 247.271 0.901772 -6.98604 0
M  V30 2713 H 243.37 0.512322 -0.590805 0
M  V30 2714 H 245.954 0.74989 -1.7968 0
M  V30 2715 H 244.125 3.24792 -2.1299 0
M  V30 2716 H 245.857 3.27622 -2.37584 0
M  V30 2717 H 242.612 2.297 -4.14168 0
M  V30 2718 H 243.036 1.43359 -6.61647 0
M  V30 2719 H 247.678 1.93878 -3.75727 0
M  V30 2720 H 245.396 0.745399 -8.04655 0
M  V30 2721 H 248.982 1.14657 -5.7039 0
M  V30 2722 H 247.862 0.559226 -7.82203 0
M  V30 2723 N 245.365 1.30045 0.890287 0
M  V30 2724 C 246.595 1.21296 1.67245 0
M  V30 2725 C 247.003 -0.227471 1.87828 0
M  V30 2726 O 246.346 -1.16296 1.422 0
M  V30 2727 C 246.408 1.86519 3.07329 0
M  V30 2728 C 246.072 3.35837 3.09939 0
M  V30 2729 C 247.069 4.31915 2.89389 0
M  V30 2730 C 244.754 3.77196 3.31706 0
M  V30 2731 C 246.748 5.67325 2.90552 0
M  V30 2732 C 244.435 5.12725 3.32499 0
M  V30 2733 C 245.433 6.076 3.11947 0
M  V30 2734 O 245.121 7.40655 3.12547 0
M  V30 2735 H 244.853 0.4211 0.528821 0
M  V30 2736 H 247.407 1.72111 1.12103 0
M  V30 2737 H 245.637 1.30228 3.64112 0
M  V30 2738 H 247.326 1.71963 3.67673 0
M  V30 2739 H 248.092 4.01294 2.72375 0
M  V30 2740 H 243.971 3.03796 3.4674 0
M  V30 2741 H 247.515 6.41354 2.74429 0
M  V30 2742 H 243.412 5.42988 3.49047 0
M  V30 2743 H 244.18 7.49577 3.28749 0
M  V30 2744 N 246.843 -1.10192 1.12674 0
M  V30 2745 C 248.259 -1.34235 0.863317 0
M  V30 2746 C 248.459 -1.95062 -0.505277 0
M  V30 2747 O 247.515 -2.19192 -1.25345 0
M  V30 2748 C 248.828 -2.2616 1.98172 0
M  V30 2749 C 250.376 -2.3969 2.0129 0
M  V30 2750 C 250.851 -3.34946 3.1237 0
M  V30 2751 N 252.342 -3.42515 3.11829 0
M  V30 2752 C 253.077 -4.16199 3.94419 0
M  V30 2753 N 252.573 -4.92747 4.87004 0
M  V30 2754 N 254.366 -4.11843 3.82547 0
M  V30 2755 H 246.517 -0.690798 2.00853 0
M  V30 2756 H 248.78 -0.366774 0.874174 0
M  V30 2757 H 248.486 -1.8868 2.96804 0
M  V30 2758 H 248.36 -3.26488 1.88906 0
M  V30 2759 H 250.747 -2.76438 1.03276 0
M  V30 2760 H 250.828 -1.39169 2.14629 0
M  V30 2761 H 250.472 -2.98923 4.10619 0
M  V30 2762 H 250.402 -4.35353 2.96269 0
M  V30 2763 H 252.893 -2.87926 2.44759 0
M  V30 2764 H 253.206 -5.46376 5.46528 0
M  V30 2765 H 251.551 -4.91862 4.91016 0
M  V30 2766 H 254.742 -3.51136 3.0955 0
M  V30 2767 H 254.915 -4.69007 4.47142 0
M  V30 2768 N 248.321 -0.919034 -1.28029 0
M  V30 2769 C 249.732 -0.600735 -1.76771 0
M  V30 2770 C 250.083 0.884024 -1.75156 0
M  V30 2771 O 249.208 1.69163 -1.34956 0
M  V30 2772 C 249.803 -1.08372 -3.21 0
M  V30 2773 C 248.362 -0.816248 -3.67443 0
M  V30 2774 C 247.509 -1.24742 -2.47658 0
M  V30 2775 H 250.46 -1.09974 -1.14418 0
M  V30 2776 H 250.481 -0.427512 -3.78091 0
M  V30 2777 H 249.993 -2.16437 -3.22144 0
M  V30 2778 H 248.094 0.250968 -3.71754 0
M  V30 2779 H 248.207 -1.4277 -4.57333 0
M  V30 2780 H 246.571 -0.666083 -2.45836 0
M  V30 2781 H 247.354 -2.33653 -2.51518 0
M  V30 2782 N 249.799 1.42003 -0.683588 0
M  V30 2783 C 251.21 1.84501 -0.285736 0
M  V30 2784 C 251.561 1.57213 1.17382 0
M  V30 2785 O 250.686 1.03642 1.89966 0
M  V30 2786 C 251.281 3.34912 -0.511821 0
M  V30 2787 C 249.84 3.76025 -0.168005 0
M  V30 2788 C 248.987 2.6551 -0.799983 0
M  V30 2789 H 251.938 1.31724 -0.885119 0
M  V30 2790 H 251.959 3.79784 0.233292 0
M  V30 2791 H 251.471 3.54741 -1.57418 0
M  V30 2792 H 249.572 3.61801 0.890567 0
M  V30 2793 H 249.685 4.75141 -0.614661 0
M  V30 2794 H 248.049 2.53654 -0.230568 0
M  V30 2795 H 248.832 2.8816 -1.86597 0
M  V30 2796 N 251.277 0.427512 1.51691 0
M  V30 2797 C 252.554 -0.201684 1.94557 0
M  V30 2798 C 252.934 -1.60981 1.36559 0
M  V30 2799 O 252.282 -2.21814 0.548702 0
M  V30 2800 C 252.492 -0.189394 3.48486 0
M  V30 2801 C 253.84 -0.39978 4.22714 0
M  V30 2802 O 254.864 -0.267945 3.55191 0
M  V30 2803 O 253.723 -0.661249 5.42485 0
M  V30 2804 H 250.817 -0.135261 0.815864 0
M  V30 2805 H 253.363 0.484782 1.62628 0
M  V30 2806 H 252.135 0.795431 3.8313 0
M  V30 2807 H 251.758 -0.919187 3.86829 0
M  V30 2808 N 252.755 -1.56801 0.158532 0
M  V30 2809 C 254.001 -1.96781 -0.490405 0
M  V30 2810 C 254.334 -1.04397 -1.63753 0
M  V30 2811 O 253.609 -0.0885805 -1.94298 0
M  V30 2812 C 253.892 -3.4635 -0.985594 0
M  V30 2813 C 253.745 -4.49512 0.160824 0
M  V30 2814 C 255.064 -3.98697 -1.86355 0
M  V30 2815 H 252.183 -0.715482 -0.176788 0
M  V30 2816 H 254.825 -1.88451 0.242088 0
M  V30 2817 H 252.975 -3.53579 -1.60978 0
M  V30 2818 H 254.647 -4.54353 0.797537 0
M  V30 2819 H 252.89 -4.26013 0.818256 0
M  V30 2820 H 253.561 -5.51531 -0.227569 0
M  V30 2821 H 256.037 -3.94019 -1.33746 0
M  V30 2822 H 254.913 -5.03792 -2.17909 0
M  V30 2823 H 255.174 -3.41744 -2.8047 0
M  V30 2824 N 254.233 0.115231 -1.57178 0
M  V30 2825 C 255.163 1.1423 -2.03651 0
M  V30 2826 C 256.144 1.42967 -0.921655 0
M  V30 2827 O 257.329 1.53343 -1.19162 0
M  V30 2828 C 254.459 2.4675 -2.44401 0
M  V30 2829 C 253.413 2.32467 -3.59365 0
M  V30 2830 C 252.739 3.69984 -3.86026 0
M  V30 2831 C 254.039 1.78203 -4.90959 0
M  V30 2832 H 255.733 0.755749 -2.89705 0
M  V30 2833 H 253.279 0.362093 -1.39373 0
M  V30 2834 H 255.232 3.18854 -2.75517 0
M  V30 2835 H 253.956 2.87302 -1.55322 0
M  V30 2836 H 252.615 1.62811 -3.28463 0
M  V30 2837 H 252.263 4.08028 -2.94147 0
M  V30 2838 H 251.963 3.61279 -4.63412 0
M  V30 2839 H 253.487 4.43587 -4.19599 0
M  V30 2840 H 254.901 2.40128 -5.20587 0
M  V30 2841 H 253.298 1.8031 -5.72371 0
M  V30 2842 H 254.368 0.739876 -4.79222 0
M  V30 2843 N 255.711 1.52812 0.385517 0
M  V30 2844 C 256.958 1.68026 1.1302 0
M  V30 2845 C 257.286 0.421934 1.89868 0
M  V30 2846 O 256.541 -0.595749 1.86412 0
M  V30 2847 C 256.84 2.86856 2.13187 0
M  V30 2848 C 256.506 4.24159 1.5297 0
M  V30 2849 C 255.168 4.61501 1.36274 0
M  V30 2850 C 257.52 5.09627 1.09223 0
M  V30 2851 C 254.848 5.81966 0.743837 0
M  V30 2852 C 257.2 6.30719 0.487411 0
M  V30 2853 C 255.864 6.6679 0.307777 0
M  V30 2854 H 255.134 0.614849 0.413571 0
M  V30 2855 H 257.781 1.86962 0.414405 0
M  V30 2856 H 256.086 2.6235 2.90998 0
M  V30 2857 H 257.783 2.95821 2.70722 0
M  V30 2858 H 254.373 3.94746 1.66954 0
M  V30 2859 H 258.557 4.81343 1.20922 0
M  V30 2860 H 253.813 6.08519 0.592891 0
M  V30 2861 H 257.987 6.96259 0.140143 0
M  V30 2862 H 255.614 7.60001 -0.173879 0
M  V30 2863 N 257.189 -0.644168 1.43834 0
M  V30 2864 C 258.437 -1.40117 1.45642 0
M  V30 2865 C 258.758 -1.94814 0.0852413 0
M  V30 2866 O 258.028 -1.74988 -0.880688 0
M  V30 2867 H 256.608 -0.52005 0.536243 0
M  V30 2868 H 259.27 -0.7591 1.7951 0
M  V30 2869 H 258.366 -2.23902 2.17427 0
M  V30 2870 N 258.668 -1.30515 -0.883378 0
M  V30 2871 C 259.631 -1.1701 -1.97082 0
M  V30 2872 C 260.631 -0.10089 -1.60483 0
M  V30 2873 O 261.821 -0.349127 -1.70666 0
M  V30 2874 C 258.953 -0.793045 -3.31547 0
M  V30 2875 H 260.146 -2.13622 -2.10489 0
M  V30 2876 H 257.699 -1.13935 -1.06998 0
M  V30 2877 H 258.434 0.172499 -3.23841 0
M  V30 2878 H 258.219 -1.56576 -3.5948 0
M  V30 2879 H 259.709 -0.722073 -4.1131 0
M  V30 2880 N 260.146 1.09593 -1.13257 0
M  V30 2881 C 261.093 2.1618 -0.808381 0
M  V30 2882 C 262.063 1.64517 0.228754 0
M  V30 2883 O 263.248 1.9053 0.101381 0
M  V30 2884 C 260.388 3.43973 -0.278675 0
M  V30 2885 C 259.501 4.09545 -1.37466 0
M  V30 2886 C 258.636 5.25088 -0.803479 0
M  V30 2887 C 257.675 5.82579 -1.87799 0
M  V30 2888 N 256.812 6.89486 -1.32488 0
M  V30 2889 H 261.652 2.43254 -1.72138 0
M  V30 2890 H 259.189 1.19392 -0.859294 0
M  V30 2891 H 261.147 4.17174 0.0465583 0
M  V30 2892 H 259.777 3.17223 0.597459 0
M  V30 2893 H 258.829 3.34226 -1.81652 0
M  V30 2894 H 260.141 4.48307 -2.18684 0
M  V30 2895 H 259.295 6.05178 -0.429427 0
M  V30 2896 H 258.034 4.87684 0.0397956 0
M  V30 2897 H 257.039 5.01152 -2.26113 0
M  V30 2898 H 258.264 6.22045 -2.72463 0
M  V30 2899 H 256.21 6.54064 -0.503575 0
M  V30 2900 H 256.127 7.27007 -2.07355 0
M  V30 2901 H 257.395 7.73336 -0.978336 0
M  V30 2902 N 261.624 0.925811 1.2754 0
M  V30 2903 C 262.554 0.440748 2.29303 0
M  V30 2904 C 263.535 -0.497971 1.62648 0
M  V30 2905 O 264.72 -0.403126 1.8997 0
M  V30 2906 C 261.85 -0.309048 3.45922 0
M  V30 2907 C 260.804 0.54166 4.24559 0
M  V30 2908 C 260.13 -0.337191 5.33636 0
M  V30 2909 C 261.43 1.80516 4.90114 0
M  V30 2910 H 263.124 1.29121 2.70126 0
M  V30 2911 H 260.67 0.622323 1.29858 0
M  V30 2912 H 262.623 -0.659315 4.1621 0
M  V30 2913 H 261.347 -1.19352 3.04011 0
M  V30 2914 H 260.006 0.874609 3.56014 0
M  V30 2915 H 259.654 -1.22056 4.87966 0
M  V30 2916 H 259.354 0.228497 5.87156 0
M  V30 2917 H 260.878 -0.683072 6.06767 0
M  V30 2918 H 262.292 1.52307 5.52698 0
M  V30 2919 H 260.689 2.3142 5.53683 0
M  V30 2920 H 261.759 2.52581 4.13921 0
M  V30 2921 N 263.102 -1.41638 0.69111 0
M  V30 2922 C 264.332 -2.0533 0.228758 0
M  V30 2923 C 264.74 -1.52089 -1.12541 0
M  V30 2924 O 264.083 -0.662145 -1.71351 0
M  V30 2925 C 264.145 -3.59349 0.10407 0
M  V30 2926 C 263.809 -4.35362 1.38956 0
M  V30 2927 C 264.806 -4.64942 2.32648 0
M  V30 2928 C 262.491 -4.74714 1.64169 0
M  V30 2929 C 264.485 -5.32828 3.49818 0
M  V30 2930 C 262.172 -5.42338 2.81625 0
M  V30 2931 C 263.17 -5.71322 3.74273 0
M  V30 2932 O 262.858 -6.37554 4.89673 0
M  V30 2933 H 262.59 -0.667796 0.104997 0
M  V30 2934 H 265.144 -1.82477 0.942938 0
M  V30 2935 H 263.374 -3.80924 -0.665839 0
M  V30 2936 H 265.063 -4.04633 -0.320519 0
M  V30 2937 H 265.829 -4.35025 2.14425 0
M  V30 2938 H 261.708 -4.51538 0.929202 0
M  V30 2939 H 265.252 -5.55368 4.22152 0
M  V30 2940 H 261.149 -5.71673 2.99768 0
M  V30 2941 H 261.917 -6.56049 4.8943 0
M  V30 2942 N 264.58 -0.43555 -1.51462 0
M  V30 2943 C 265.805 0.132627 -2.06976 0
M  V30 2944 C 266.23 1.35848 -1.30104 0
M  V30 2945 O 265.588 1.78112 -0.338493 0
M  V30 2946 C 265.636 0.43523 -3.57964 0
M  V30 2947 O 264.74 1.52198 -3.83288 0
M  V30 2948 H 264.081 0.00265 -0.663995 0
M  V30 2949 H 266.611 -0.616369 -1.95095 0
M  V30 2950 H 266.621 0.686206 -4.02188 0
M  V30 2951 H 265.296 -0.460739 -4.1334 0
M  V30 2952 H 263.873 1.2611 -3.50928 0
M  V30 2953 N 266.058 1.56714 -0.166846 0
M  V30 2954 C 267.286 2.0112 0.485644 0
M  V30 2955 C 267.701 1.04705 1.57106 0
M  V30 2956 O 267.058 0.0471923 1.82439 0
M  V30 2957 C 267.109 3.45361 1.06808 0
M  V30 2958 O 266.83 4.38092 0.0259995 0
M  V30 2959 C 268.331 4.05145 1.79924 0
M  V30 2960 H 265.551 0.65931 0.124704 0
M  V30 2961 H 268.095 2.02746 -0.267262 0
M  V30 2962 H 266.25 3.44524 1.7715 0
M  V30 2963 H 266.664 5.22519 0.455398 0
M  V30 2964 H 268.138 5.08009 2.15942 0
M  V30 2965 H 268.615 3.46982 2.69258 0
M  V30 2966 H 269.221 4.09672 1.14234 0
M  V30 2967 N 267.536 -0.106894 1.57237 0
M  V30 2968 C 268.761 -0.830287 1.90055 0
M  V30 2969 C 269.186 -1.72064 0.75998 0
M  V30 2970 O 268.544 -1.78982 -0.288991 0
M  V30 2971 C 268.592 -1.6295 3.21683 0
M  V30 2972 O 267.696 -2.73748 3.08441 0
M  V30 2973 H 267.037 -0.228855 0.623315 0
M  V30 2974 H 269.567 -0.085658 2.04421 0
M  V30 2975 H 269.577 -2.01621 3.54701 0
M  V30 2976 H 268.252 -0.975989 4.04286 0
M  V30 2977 H 266.829 -2.38192 2.86913 0
M  V30 2978 N 269.014 -1.53014 -0.377408 0
M  V30 2979 C 270.263 -1.67845 -1.11853 0
M  V30 2980 C 270.576 -0.430625 -1.90801 0
M  V30 2981 O 271.782 -0.459261 -2.67587 0
M  V30 2982 C 270.238 -2.96668 -2.03756 0
M  V30 2983 C 269.846 -4.28671 -1.30175 0
M  V30 2984 C 271.59 -3.20865 -2.77932 0
M  V30 2985 C 269.497 -5.48591 -2.20911 0
M  V30 2986 H 268.427 -0.625343 -0.421263 0
M  V30 2987 H 271.078 -1.79514 -0.380409 0
M  V30 2988 H 269.46 -2.78773 -2.8125 0
M  V30 2989 H 270.634 -4.57157 -0.578259 0
M  V30 2990 H 268.949 -4.10825 -0.679108 0
M  V30 2991 H 271.546 -4.07642 -3.46024 0
M  V30 2992 H 271.889 -2.36424 -3.4265 0
M  V30 2993 H 272.422 -3.39379 -2.07525 0
M  V30 2994 H 269.161 -6.35474 -1.6079 0
M  V30 2995 H 268.681 -5.244 -2.91144 0
M  V30 2996 H 270.36 -5.8292 -2.80736 0
M  V30 2997 N 270.492 0.636531 -1.44174 0
M  V30 2998 C 271.769 1.39463 -1.37148 0
M  V30 2999 C 272.149 2.11082 -0.027507 0
M  V30 3000 O 271.497 2.05954 0.989716 0
M  V30 3001 C 271.707 2.36552 -2.56601 0
M  V30 3002 C 273.055 3.00048 -3.00427 0
M  V30 3003 O 274.079 2.46878 -2.56767 0
M  V30 3004 O 272.938 3.96488 -3.76111 0
M  V30 3005 H 270.032 0.623903 -0.542839 0
M  V30 3006 H 272.578 0.662039 -1.56253 0
M  V30 3007 H 271.35 1.82692 -3.46034 0
M  V30 3008 H 270.973 3.17236 -2.39681 0
M  V30 3009 N 271.97 1.30982 0.876444 0
M  V30 3010 C 272.903 1.12414 1.98591 0
M  V30 3011 C 273.881 0.0294078 1.62573 0
M  V30 3012 O 275.065 0.184598 1.87594 0
M  V30 3013 C 272.192 0.716276 3.3104 0
M  V30 3014 C 271.238 1.81311 3.86042 0
M  V30 3015 S 272.071 3.41727 4.1229 0
M  V30 3016 C 273.227 3.02863 5.47745 0
M  V30 3017 H 273.46 2.06338 2.14037 0
M  V30 3018 H 270.993 1.15393 1.02586 0
M  V30 3019 H 272.951 0.487697 4.07593 0
M  V30 3020 H 271.612 -0.203749 3.13438 0
M  V30 3021 H 270.805 1.48021 4.81774 0
M  V30 3022 H 270.407 1.99641 3.16259 0
M  V30 3023 H 272.699 2.51353 6.29148 0
M  V30 3024 H 273.642 3.97533 5.8598 0
M  V30 3025 H 274.05 2.40487 5.10711 0
M  V30 3026 N 273.449 -1.08991 1.13837 0
M  V30 3027 C 274.695 -1.81699 0.91417 0
M  V30 3028 C 275.05 -1.84264 -0.553594 0
M  V30 3029 O 274.343 -1.30313 -1.4046 0
M  V30 3030 C 274.537 -3.27042 1.44147 0
M  V30 3031 C 274.366 -3.38637 2.95897 0
M  V30 3032 C 273.136 -3.50177 3.64286 0
M  V30 3033 C 275.334 -3.30791 3.93804 0
M  V30 3034 N 273.316 -3.50501 5.04006 0
M  V30 3035 C 274.687 -3.38037 5.19741 0
M  V30 3036 C 276.742 -3.14488 3.86007 0
M  V30 3037 C 275.445 -3.30659 6.38793 0
M  V30 3038 C 277.471 -3.08438 5.04599 0
M  V30 3039 C 276.833 -3.1628 6.29402 0
M  V30 3040 H 272.932 -0.678967 0.387979 0
M  V30 3041 H 275.516 -1.30224 1.4474 0
M  V30 3042 H 273.687 -3.76976 0.935091 0
M  V30 3043 H 275.419 -3.87785 1.1578 0
M  V30 3044 H 272.174 -3.53815 3.1482 0
M  V30 3045 H 272.598 -3.54236 5.76928 0
M  V30 3046 H 277.24 -3.07291 2.90399 0
M  V30 3047 H 274.958 -3.36618 7.34652 0
M  V30 3048 H 278.544 -2.96952 5.0031 0
M  V30 3049 H 277.424 -3.1162 7.19627 0
M  V30 3050 N 274.927 -0.932562 -1.27047 0
M  V30 3051 C 276.152 -0.591474 -1.98787 0
M  V30 3052 C 276.577 0.824601 -1.69062 0
M  V30 3053 O 275.935 1.5541 -0.933677 0
M  V30 3054 C 275.983 -0.829808 -3.50922 0
M  V30 3055 O 275.087 0.102266 -4.12273 0
M  V30 3056 H 274.428 -0.227185 -0.623926 0
M  V30 3057 H 276.958 -1.25314 -1.61733 0
M  V30 3058 H 276.968 -0.747292 -4.01098 0
M  V30 3059 H 275.643 -1.86201 -3.7189 0
M  V30 3060 H 274.22 -0.0305761 -3.72887 0
M  V30 3061 N 276.405 1.4127 -0.698611 0
M  V30 3062 C 277.368 2.29158 -0.044132 0
M  V30 3063 C 278.368 1.44529 0.704841 0
M  V30 3064 O 279.558 1.65643 0.539276 0
M  V30 3065 C 276.69 3.27459 0.947809 0
M  V30 3066 H 277.883 2.88529 -0.817994 0
M  V30 3067 H 275.436 1.49307 -0.46228 0
M  V30 3068 H 276.171 2.73073 1.74933 0
M  V30 3069 H 275.956 3.8991 0.41385 0
M  V30 3070 H 277.446 3.93311 1.40344 0
M  V30 3071 N 277.883 0.443576 1.51229 0
M  V30 3072 C 279.131 -0.120557 2.0174 0
M  V30 3073 C 279.452 -1.42665 1.32935 0
M  V30 3074 O 278.722 -1.9028 0.465866 0
M  V30 3075 H 277.302 -0.0475426 0.745486 0
M  V30 3076 H 279.964 0.587711 1.85828 0
M  V30 3077 H 279.06 -0.291972 3.10731 0
M  V30 3078 N 279.361 -1.56624 0.175154 0
M  V30 3079 C 280.601 -1.98894 -0.471221 0
M  V30 3080 C 280.965 -1.05889 -1.60161 0
M  V30 3081 O 282.166 -1.37315 -2.3108 0
M  V30 3082 C 280.437 -3.44865 -0.938241 0
M  V30 3083 S 281.996 -4.09164 -1.58526 0
M  V30 3084 H 278.814 -0.694686 -0.151434 0
M  V30 3085 H 281.416 -1.93577 0.27352 0
M  V30 3086 H 280.12 -4.10265 -0.10518 0
M  V30 3087 H 279.651 -3.53956 -1.71693 0
M  V30 3088 H 281.666 -4.04528 -2.87352 0
M  V30 3089 N 280.839 0.0985539 -1.57292 0
M  V30 3090 C 282.088 0.801358 -1.85098 0
M  V30 3091 C 282.401 1.80066 -0.763902 0
M  V30 3092 O 283.607 2.55112 -0.928981 0
M  V30 3093 C 282.063 1.47599 -3.28242 0
M  V30 3094 C 281.671 0.516624 -4.45011 0
M  V30 3095 C 283.415 2.16272 -3.65276 0
M  V30 3096 C 281.322 1.19564 -5.79188 0
M  V30 3097 H 280.252 0.303022 -0.69043 0
M  V30 3098 H 282.903 0.0542623 -1.8342 0
M  V30 3099 H 281.285 2.27042 -3.2445 0
M  V30 3100 H 282.459 -0.246065 -4.60143 0
M  V30 3101 H 280.774 -0.064227 -4.1635 0
M  V30 3102 H 283.371 2.67802 -4.62803 0
M  V30 3103 H 283.714 2.95009 -2.93727 0
M  V30 3104 H 284.247 1.43693 -3.70941 0
M  V30 3105 H 280.986 0.449157 -6.53959 0
M  V30 3106 H 280.506 1.92984 -5.67906 0
M  V30 3107 H 282.185 1.7231 -6.23633 0
M  V30 3108 N 282.317 1.53212 0.369288 0
M  V30 3109 C 283.564 1.69215 1.11232 0
M  V30 3110 C 283.892 0.442048 1.8941 0
M  V30 3111 O 283.147 -0.575944 1.87033 0
M  V30 3112 C 283.446 2.89101 2.10132 0
M  V30 3113 C 283.112 4.25758 1.48463 0
M  V30 3114 C 281.774 4.6292 1.31372 0
M  V30 3115 C 284.126 5.10757 1.03811 0
M  V30 3116 C 281.454 5.82722 0.68207 0
M  V30 3117 C 283.806 6.31201 0.420487 0
M  V30 3118 C 282.47 6.67079 0.237038 0
M  V30 3119 H 281.74 0.619201 0.407027 0
M  V30 3120 H 284.387 1.87391 0.394552 0
M  V30 3121 H 282.692 2.65421 2.88199 0
M  V30 3122 H 284.389 2.98676 2.6757 0
M  V30 3123 H 280.979 3.96494 1.62758 0
M  V30 3124 H 285.163 4.82599 1.1581 0
M  V30 3125 H 280.419 6.09113 0.528316 0
M  V30 3126 H 284.593 6.96368 0.0662874 0
M  V30 3127 H 282.22 7.59774 -0.254477 0
M  V30 3128 N 283.795 -0.628877 1.44509 0
M  V30 3129 C 284.758 -1.72263 1.51188 0
M  V30 3130 C 285.758 -1.55907 0.39367 0
M  V30 3131 O 286.948 -1.61361 0.656377 0
M  V30 3132 C 284.08 -3.11365 1.38798 0
M  V30 3133 H 285.273 -1.67714 2.4862 0
M  V30 3134 H 282.826 -0.842737 1.31634 0
M  V30 3135 H 283.561 -3.21507 0.424693 0
M  V30 3136 H 283.346 -3.24644 2.19884 0
M  V30 3137 H 284.836 -3.91075 1.46458 0
M  V30 3138 N 285.273 -1.31445 -0.869486 0
M  V30 3139 C 286.183 -1.21097 -2.0093 0
M  V30 3140 C 287.199 -0.127584 -1.73532 0
M  V30 3141 O 288.375 -0.345477 -1.98415 0
M  V30 3142 C 285.44 -0.919378 -3.34288 0
M  V30 3143 C 284.501 -2.08971 -3.75006 0
M  V30 3144 C 283.734 -1.81194 -5.02001 0
M  V30 3145 O 283.957 -0.747296 -5.65484 0
M  V30 3146 O 282.891 -2.66883 -5.39497 0
M  V30 3147 H 286.717 -2.16883 -2.12592 0
M  V30 3148 H 284.302 -1.11189 -0.997868 0
M  V30 3149 H 286.184 -0.772625 -4.14257 0
M  V30 3150 H 284.859 0.00844772 -3.23699 0
M  V30 3151 H 283.766 -2.29187 -2.95676 0
M  V30 3152 H 285.099 -2.9998 -3.90221 0
M  V30 3153 N 286.751 1.08385 -1.14413 0
M  V30 3154 C 287.681 2.17321 -0.854044 0
M  V30 3155 C 288.662 1.69024 0.191049 0
M  V30 3156 O 289.847 1.94141 0.0476779 0
M  V30 3157 C 286.977 3.45719 -0.330983 0
M  V30 3158 C 285.931 4.07409 -1.31155 0
M  V30 3159 C 285.257 5.30762 -0.64778 0
M  V30 3160 C 286.557 4.48665 -2.67388 0
M  V30 3161 H 288.251 2.41845 -1.76498 0
M  V30 3162 H 285.797 1.16233 -0.850051 0
M  V30 3163 H 287.75 4.21241 -0.115645 0
M  V30 3164 H 286.474 3.2075 0.615381 0
M  V30 3165 H 285.133 3.33919 -1.51306 0
M  V30 3166 H 284.781 5.02078 0.304398 0
M  V30 3167 H 284.481 5.72992 -1.30207 0
M  V30 3168 H 286.005 6.08998 -0.441972 0
M  V30 3169 H 287.419 5.15364 -2.51143 0
M  V30 3170 H 285.816 5.01814 -3.29093 0
M  V30 3171 H 286.886 3.60543 -3.24248 0
M  V30 3172 N 288.23 0.939286 1.26551 0
M  V30 3173 C 289.193 0.451987 2.24699 0
M  V30 3174 C 290.193 -0.435869 1.5478 0
M  V30 3175 O 291.383 -0.235314 1.72603 0
M  V30 3176 C 288.515 -0.348801 3.39111 0
M  V30 3177 H 289.708 1.3193 2.69322 0
M  V30 3178 H 287.261 0.721072 1.38673 0
M  V30 3179 H 287.996 -1.23444 2.99887 0
M  V30 3180 H 287.781 0.287945 3.91041 0
M  V30 3181 H 289.271 -0.679726 4.12031 0
M  V30 3182 N 289.708 -1.40897 0.706093 0
M  V30 3183 C 290.656 -2.32572 0.0361893 0
M  V30 3184 C 291.65 -1.51532 -0.757266 0
M  V30 3185 O 292.856 -1.67396 -0.661703 0
M  V30 3186 H 289.231 -0.751966 -0.00709935 0
M  V30 3187 H 291.202 -2.86733 0.826249 0
M  V30 3188 C 289.951 -3.36418 -0.87854 0
M  V30 3189 H 289.274 -3.98836 -0.277401 0
M  V30 3190 H 290.714 -4.0308 -1.3154 0
M  V30 3191 C 289.173 -2.71141 -1.99961 0
M  V30 3192 O 289.703 -2.56735 -3.0895 0
M  V30 3193 N 287.909 -2.29671 -1.78043 0
M  V30 3194 H 287.456 -2.41588 -0.894042 0
M  V30 3195 H 287.414 -1.86332 -2.53235 0
M  V30 3196 N 291.186 -0.45159 -1.50991 0
M  V30 3197 C 292.149 0.341117 -2.26647 0
M  V30 3198 C 293.149 0.937422 -1.30649 0
M  V30 3199 O 294.339 0.809644 -1.54241 0
M  V30 3200 C 291.471 1.48398 -3.06905 0
M  V30 3201 H 292.664 -0.322117 -2.98165 0
M  V30 3202 H 290.217 -0.205122 -1.54948 0
M  V30 3203 H 290.952 2.18284 -2.39838 0
M  V30 3204 H 290.737 1.06241 -3.77432 0
M  V30 3205 H 292.227 2.04367 -3.64176 0
M  V30 3206 N 292.664 1.56529 -0.183458 0
M  V30 3207 C 293.912 1.96855 0.457452 0
M  V30 3208 C 294.233 1.07104 1.62953 0
M  V30 3209 O 293.503 0.139887 1.954 0
M  V30 3210 H 292.083 0.72693 0.171992 0
M  V30 3211 H 294.745 1.93056 -0.267476 0
M  V30 3212 H 293.841 3.01423 0.809368 0
M  V30 3213 N 294.142 -0.090211 1.57342 0
M  V30 3214 C 295.558 -0.444547 1.53284 0
M  V30 3215 C 295.758 -1.80238 0.900914 0
M  V30 3216 O 294.814 -2.4759 0.495513 0
M  V30 3217 C 296.127 -0.402543 2.97993 0
M  V30 3218 C 297.675 -0.48405 3.09234 0
M  V30 3219 C 298.15 -0.472144 4.5556 0
M  V30 3220 N 299.641 -0.532757 4.60126 0
M  V30 3221 C 300.376 -0.545462 5.708 0
M  V30 3222 N 299.872 -0.514082 6.9089 0
M  V30 3223 N 301.665 -0.59064 5.58988 0
M  V30 3224 H 293.816 0.799121 1.96794 0
M  V30 3225 H 296.079 0.297965 0.899956 0
M  V30 3226 H 295.785 0.528106 3.47712 0
M  V30 3227 H 295.659 -1.21969 3.56936 0
M  V30 3228 H 298.046 -1.40512 2.595 0
M  V30 3229 H 298.127 0.361328 2.53235 0
M  V30 3230 H 297.771 0.445 5.05947 0
M  V30 3231 H 297.701 -1.3348 5.09402 0
M  V30 3232 H 300.192 -0.562006 3.73698 0
M  V30 3233 H 300.505 -0.527195 7.71 0
M  V30 3234 H 298.85 -0.481054 6.93333 0
M  V30 3235 H 302.041 -0.61272 4.64073 0
M  V30 3236 H 302.214 -0.597073 6.45243 0
M  V30 3237 N 295.62 -1.53406 -0.361157 0
M  V30 3238 C 297.031 -1.61442 -0.937728 0
M  V30 3239 C 297.382 -0.48461 -1.90121 0
M  V30 3240 O 296.507 0.388312 -2.12888 0
M  V30 3241 C 297.102 -2.92624 -1.70753 0
M  V30 3242 C 295.661 -3.02981 -2.23337 0
M  V30 3243 C 294.808 -2.5677 -1.04712 0
M  V30 3244 H 297.759 -1.58083 -0.139816 0
M  V30 3245 H 297.78 -2.80675 -2.56908 0
M  V30 3246 H 297.292 -3.74834 -1.00604 0
M  V30 3247 H 295.393 -2.25368 -2.96715 0
M  V30 3248 H 295.506 -4.0814 -2.50916 0
M  V30 3249 H 293.87 -2.11752 -1.41539 0
M  V30 3250 H 294.653 -3.41402 -0.360539 0
M  V30 3251 N 297.098 0.621204 -1.44841 0
M  V30 3252 C 298.028 1.74366 -1.55303 0
M  V30 3253 C 299.009 1.65199 -0.405385 0
M  V30 3254 O 300.194 1.83807 -0.626787 0
M  V30 3255 C 297.324 3.12931 -1.50637 0
M  V30 3256 C 296.278 3.36896 -2.63979 0
M  V30 3257 C 295.604 4.75594 -2.44366 0
M  V30 3258 C 296.904 3.28483 -4.06074 0
M  V30 3259 H 298.598 1.65867 -2.49256 0
M  V30 3260 H 296.144 0.796558 -1.19962 0
M  V30 3261 H 298.097 3.9124 -1.56555 0
M  V30 3262 H 296.821 3.22237 -0.532057 0
M  V30 3263 H 295.48 2.60972 -2.57467 0
M  V30 3264 H 295.128 4.81616 -1.45105 0
M  V30 3265 H 294.828 4.92586 -3.20364 0
M  V30 3266 H 296.352 5.5612 -2.52117 0
M  V30 3267 H 297.766 3.96684 -4.13902 0
M  V30 3268 H 296.163 3.57008 -4.82354 0
M  V30 3269 H 297.233 2.26133 -4.28943 0
M  V30 3270 N 298.576 1.31904 0.862503 0
M  V30 3271 C 299.823 1.22017 1.61611 0
M  V30 3272 C 300.151 -0.21991 1.93253 0
M  V30 3273 O 299.406 -1.17076 1.56817 0
M  V30 3274 C 299.705 2.01713 2.95037 0
M  V30 3275 C 299.371 3.51145 2.82857 0
M  V30 3276 C 298.033 3.91889 2.79243 0
M  V30 3277 C 300.385 4.46204 2.69353 0
M  V30 3278 C 297.713 5.25947 2.59993 0
M  V30 3279 C 300.065 5.80397 2.5164 0
M  V30 3280 C 298.729 6.20352 2.46413 0
M  V30 3281 H 297.999 0.44649 0.591378 0
M  V30 3282 H 300.646 1.63248 1.00111 0
M  V30 3283 H 298.951 1.53185 3.60613 0
M  V30 3284 H 300.648 1.91437 3.52353 0
M  V30 3285 H 297.238 3.1878 2.86491 0
M  V30 3286 H 301.422 4.15652 2.71196 0
M  V30 3287 H 296.678 5.5597 2.54376 0
M  V30 3288 H 300.852 6.53676 2.40169 0
M  V30 3289 H 298.479 7.24172 2.31256 0
M  V30 3290 N 300.054 -1.07777 1.14986 0
M  V30 3291 C 301.465 -1.61766 0.932127 0
M  V30 3292 C 301.816 -1.88974 -0.527581 0
M  V30 3293 O 300.941 -1.65198 -1.39781 0
M  V30 3294 C 301.536 -2.93891 1.68563 0
M  V30 3295 C 300.095 -3.44639 1.5133 0
M  V30 3296 C 299.242 -2.18767 1.704 0
M  V30 3297 H 302.193 -0.909201 1.30074 0
M  V30 3298 H 302.214 -3.62623 1.15259 0
M  V30 3299 H 301.726 -2.74057 2.74799 0
M  V30 3300 H 299.827 -3.69564 0.474702 0
M  V30 3301 H 299.94 -4.20966 2.28746 0
M  V30 3302 H 298.304 -2.28253 1.13016 0
M  V30 3303 H 299.087 -2.01433 2.77992 0
M  V30 3304 N 301.532 -0.945985 -1.26051 0
M  V30 3305 C 302.78 -0.594941 -1.93145 0
M  V30 3306 C 303.101 0.86953 -1.7454 0
M  V30 3307 O 302.371 1.61838 -1.10387 0
M  V30 3308 H 300.951 -0.217044 -0.714773 0
M  V30 3309 H 303.613 -1.20235 -1.53393 0
M  V30 3310 H 302.709 -0.816835 -3.01221 0
M  V30 3311 N 303.011 1.40521 -0.713556 0
M  V30 3312 C 303.959 2.32549 -0.0485227 0
M  V30 3313 C 304.953 1.51931 0.74922 0
M  V30 3314 O 306.159 1.67745 0.652816 0
M  V30 3315 H 302.534 0.751994 0.00311138 0
M  V30 3316 H 304.505 2.86291 -0.841443 0
M  V30 3317 C 303.254 3.36879 0.860687 0
M  V30 3318 H 302.577 3.98978 0.256246 0
M  V30 3319 H 304.017 4.03772 1.294 0
M  V30 3320 C 302.476 2.72197 1.9852 0
M  V30 3321 O 303.006 2.5837 3.07584 0
M  V30 3322 N 301.212 2.30612 1.76823 0
M  V30 3323 H 300.759 2.42059 0.881217 0
M  V30 3324 H 300.717 1.87672 2.52243 0
M  V30 3325 N 304.489 0.459591 1.5075 0
M  V30 3326 C 305.766 -0.160371 1.94941 0
M  V30 3327 C 306.146 -1.58048 1.39943 0
M  V30 3328 O 305.494 -2.206 0.595629 0
M  V30 3329 C 305.704 -0.115432 3.48809 0
M  V30 3330 C 307.052 -0.310026 4.23467 0
M  V30 3331 O 308.076 -0.192543 3.55679 0
M  V30 3332 O 306.935 -0.546031 5.43765 0
M  V30 3333 H 304.029 -0.117925 0.818549 0
M  V30 3334 H 306.575 0.519169 1.61563 0
M  V30 3335 H 305.347 0.87652 3.81357 0
M  V30 3336 H 304.97 -0.836928 3.88692 0
M  V30 3337 N 305.967 -1.56429 0.191757 0
M  V30 3338 C 307.213 -1.97777 -0.448554 0
M  V30 3339 C 307.546 -1.07847 -1.61501 0
M  V30 3340 O 306.821 -0.129774 -1.94067 0
M  V30 3341 C 307.104 -3.48362 -0.911906 0
M  V30 3342 C 306.957 -4.4907 0.256136 0
M  V30 3343 C 308.276 -4.02561 -1.77857 0
M  V30 3344 H 305.395 -0.719071 -0.161572 0
M  V30 3345 H 308.037 -1.87896 0.282007 0
M  V30 3346 H 306.187 -3.56914 -1.53442 0
M  V30 3347 H 307.859 -4.5256 0.893733 0
M  V30 3348 H 306.102 -4.24181 0.908436 0
M  V30 3349 H 306.773 -5.51889 -0.11053 0
M  V30 3350 H 309.249 -3.96767 -1.25359 0
M  V30 3351 H 308.125 -5.08301 -2.07174 0
M  V30 3352 H 308.386 -3.47616 -2.73158 0
M  V30 3353 N 307.445 0.0818655 -1.57387 0
M  V30 3354 C 308.722 0.815343 -1.77796 0
M  V30 3355 C 309.102 1.96289 -0.77679 0
M  V30 3356 O 308.45 2.27691 0.192106 0
M  V30 3357 C 308.66 1.29765 -3.23978 0
M  V30 3358 C 310.008 1.7351 -3.8753 0
M  V30 3359 O 311.032 1.39356 -3.27808 0
M  V30 3360 O 309.891 2.36708 -4.92576 0
M  V30 3361 H 306.985 0.389914 -0.729312 0
M  V30 3362 H 309.531 0.0627213 -1.69584 0
M  V30 3363 H 308.303 0.47608 -3.88393 0
M  V30 3364 H 307.926 2.11189 -3.36875 0
M  V30 3365 N 308.923 1.53595 0.353017 0
M  V30 3366 C 310.2 1.61002 1.11075 0
M  V30 3367 C 310.58 0.425356 2.0677 0
M  V30 3368 O 309.928 -0.583267 2.2093 0
M  V30 3369 C 310.138 2.96631 1.83877 0
M  V30 3370 C 311.486 3.51653 2.37961 0
M  V30 3371 O 312.51 2.98743 1.93987 0
M  V30 3372 O 311.369 4.44177 3.18386 0
M  V30 3373 H 308.463 0.650825 0.510251 0
M  V30 3374 H 311.009 1.6594 0.35527 0
M  V30 3375 H 309.781 3.74293 1.14108 0
M  V30 3376 H 309.404 2.95242 2.66304 0
M  V30 3377 N 310.401 -0.613514 1.45168 0
M  V30 3378 C 311.333 -1.73825 1.4939 0
M  V30 3379 C 312.346 -1.58175 0.385304 0
M  V30 3380 O 313.535 -1.66165 0.652036 0
M  V30 3381 C 310.635 -3.11758 1.32891 0
M  V30 3382 C 309.808 -3.53704 2.57317 0
M  V30 3383 C 308.867 -4.70579 2.35462 0
M  V30 3384 O 307.893 -4.77996 3.09044 0
M  V30 3385 N 309.095 -5.63454 1.39644 0
M  V30 3386 H 311.86 -1.70669 2.46358 0
M  V30 3387 H 309.421 -0.79862 1.40832 0
M  V30 3388 H 311.413 -3.87692 1.1609 0
M  V30 3389 H 309.983 -3.09456 0.442218 0
M  V30 3390 H 309.203 -2.67794 2.89275 0
M  V30 3391 H 310.491 -3.78486 3.40038 0
M  V30 3392 H 309.889 -5.6017 0.789062 0
M  V30 3393 H 308.446 -6.38944 1.28816 0
M  V30 3394 N 311.879 -1.3236 -0.855495 0
M  V30 3395 C 312.809 -1.23833 -1.97958 0
M  V30 3396 C 313.79 -0.122361 -1.69659 0
M  V30 3397 O 314.975 -0.30939 -1.9172 0
M  V30 3398 C 312.105 -0.959772 -3.33775 0
M  V30 3399 C 311.059 -2.03689 -3.76424 0
M  V30 3400 C 310.385 -1.61075 -5.09862 0
M  V30 3401 C 311.685 -3.4518 -3.9198 0
M  V30 3402 H 313.379 -2.1788 -2.0535 0
M  V30 3403 H 310.925 -1.04891 -0.986605 0
M  V30 3404 H 312.878 -0.886678 -4.11966 0
M  V30 3405 H 311.602 0.0163404 -3.26596 0
M  V30 3406 H 310.261 -2.10012 -3.00484 0
M  V30 3407 H 309.909 -0.622107 -4.99138 0
M  V30 3408 H 309.609 -2.33143 -5.39368 0
M  V30 3409 H 311.133 -1.55201 -5.90546 0
M  V30 3410 H 312.547 -3.4145 -4.60526 0
M  V30 3411 H 310.944 -4.1559 -4.32903 0
M  V30 3412 H 312.014 -3.84903 -2.94919 0
M  V30 3413 N 313.357 1.07166 -1.15556 0
M  V30 3414 C 314.304 2.14417 -0.854055 0
M  V30 3415 C 315.274 1.64965 0.193806 0
M  V30 3416 O 316.459 1.90703 0.0609443 0
M  V30 3417 C 313.599 3.43304 -0.351574 0
M  V30 3418 C 312.712 4.06537 -1.46123 0
M  V30 3419 C 311.847 5.23266 -0.914677 0
M  V30 3420 C 310.886 5.78464 -2.00114 0
M  V30 3421 N 310.023 6.86521 -1.47083 0
M  V30 3422 H 314.863 2.39548 -1.77259 0
M  V30 3423 H 312.4 1.17543 -0.884425 0
M  V30 3424 H 314.358 4.17179 -0.0419409 0
M  V30 3425 H 312.988 3.18419 0.530037 0
M  V30 3426 H 312.04 3.30297 -1.88701 0
M  V30 3427 H 313.352 4.43567 -2.28144 0
M  V30 3428 H 312.506 6.04131 -0.557698 0
M  V30 3429 H 311.245 4.87658 -0.0636583 0
M  V30 3430 H 310.25 4.96243 -2.36692 0
M  V30 3431 H 311.475 6.16126 -2.85597 0
M  V30 3432 H 309.421 6.52849 -0.642198 0
M  V30 3433 H 309.338 7.22446 -2.22729 0
M  V30 3434 H 310.606 7.71087 -1.14215 0
M  V30 3435 N 314.835 0.952656 1.25548 0
M  V30 3436 C 316.251 0.656769 1.4546 0
M  V30 3437 C 316.451 -0.78633 1.85524 0
M  V30 3438 O 315.507 -1.56183 1.98402 0
M  V30 3439 C 316.82 1.62801 2.52817 0
M  V30 3440 C 318.368 1.63897 2.66659 0
M  V30 3441 C 318.843 2.5978 3.77198 0
M  V30 3442 N 320.334 2.58133 3.84606 0
M  V30 3443 C 321.069 3.29003 4.69621 0
M  V30 3444 N 320.565 4.09339 5.58939 0
M  V30 3445 N 322.358 3.179 4.63569 0
M  V30 3446 H 314.509 1.88526 0.978344 0
M  V30 3447 H 316.772 0.810815 0.491206 0
M  V30 3448 H 316.478 2.65869 2.30232 0
M  V30 3449 H 316.352 1.38898 3.50695 0
M  V30 3450 H 318.739 0.615481 2.8861 0
M  V30 3451 H 318.82 1.91858 1.69187 0
M  V30 3452 H 318.464 3.62254 3.55997 0
M  V30 3453 H 318.394 2.29105 4.7415 0
M  V30 3454 H 320.885 1.99809 3.20757 0
M  V30 3455 H 321.198 4.6034 6.20731 0
M  V30 3456 H 319.543 4.13438 5.58654 0
M  V30 3457 H 322.734 2.54612 3.92798 0
M  V30 3458 H 322.907 3.73398 5.29602 0
M  V30 3459 N 316.313 -1.40141 0.720998 0
M  V30 3460 C 317.562 -2.0002 0.259804 0
M  V30 3461 C 317.875 -1.57839 -1.15526 0
M  V30 3462 O 319.081 -2.10455 -1.71525 0
M  V30 3463 C 317.537 -3.57516 0.413566 0
M  V30 3464 C 317.145 -4.08667 1.83562 0
M  V30 3465 C 318.889 -4.24498 0.0134387 0
M  V30 3466 C 316.796 -5.58686 1.93968 0
M  V30 3467 H 315.726 -0.748195 0.0933806 0
M  V30 3468 H 318.377 -1.60313 0.892866 0
M  V30 3469 H 316.759 -3.9495 -0.288169 0
M  V30 3470 H 317.933 -3.82598 2.56817 0
M  V30 3471 H 316.248 -3.543 2.1877 0
M  V30 3472 H 318.845 -5.34654 0.0703954 0
M  V30 3473 H 319.188 -4.03375 -1.02927 0
M  V30 3474 H 319.721 -3.92188 0.665815 0
M  V30 3475 H 316.46 -5.8467 2.96379 0
M  V30 3476 H 315.98 -5.86602 1.25131 0
M  V30 3477 H 317.659 -6.23875 1.71431 0
M  V30 3478 N 317.792 -0.46758 -1.50504 0
M  V30 3479 C 319.039 0.0886219 -2.02306 0
M  V30 3480 C 319.367 1.40037 -1.34981 0
M  V30 3481 O 318.622 1.90136 -0.463318 0
M  V30 3482 C 318.921 0.323995 -3.55928 0
M  V30 3483 C 318.587 -0.905618 -4.41712 0
M  V30 3484 C 317.249 -1.24275 -4.64875 0
M  V30 3485 C 319.601 -1.72448 -4.91845 0
M  V30 3486 C 316.929 -2.39888 -5.35417 0
M  V30 3487 C 319.281 -2.87185 -5.63656 0
M  V30 3488 C 317.945 -3.21317 -5.85074 0
M  V30 3489 H 317.215 0.0324291 -0.74029 0
M  V30 3490 H 319.862 -0.620945 -1.81153 0
M  V30 3491 H 318.167 1.11577 -3.75577 0
M  V30 3492 H 319.864 0.76826 -3.93572 0
M  V30 3493 H 316.454 -0.632956 -4.239 0
M  V30 3494 H 320.638 -1.4772 -4.73806 0
M  V30 3495 H 315.894 -2.66611 -5.50208 0
M  V30 3496 H 320.068 -3.50985 -6.01484 0
M  V30 3497 H 317.695 -4.1101 -6.39511 0
M  V30 3498 N 319.27 1.56325 -0.20005 0
M  V30 3499 C 320.686 1.58839 0.155716 0
M  V30 3500 C 320.886 1.21636 1.60645 0
M  V30 3501 O 319.942 0.941437 2.34293 0
M  V30 3502 C 321.255 3.0032 -0.151124 0
M  V30 3503 C 322.803 3.12866 -0.0916284 0
M  V30 3504 C 323.278 4.56488 -0.371845 0
M  V30 3505 N 324.769 4.62089 -0.320641 0
M  V30 3506 C 325.504 5.71116 -0.511243 0
M  V30 3507 N 325 6.88592 -0.762461 0
M  V30 3508 N 326.793 5.60335 -0.445157 0
M  V30 3509 H 318.944 1.78788 -1.14668 0
M  V30 3510 H 321.207 0.829996 -0.458051 0
M  V30 3511 H 320.913 3.32117 -1.15721 0
M  V30 3512 H 320.787 3.73257 0.543986 0
M  V30 3513 H 323.174 2.80878 0.905065 0
M  V30 3514 H 323.255 2.42304 -0.81989 0
M  V30 3515 H 322.899 4.89189 -1.36588 0
M  V30 3516 H 322.829 5.25246 0.377362 0
M  V30 3517 H 325.32 3.77665 -0.13329 0
M  V30 3518 H 325.633 7.67581 -0.896576 0
M  V30 3519 H 323.978 6.90387 -0.799412 0
M  V30 3520 H 327.169 4.67436 -0.249278 0
M  V30 3521 H 327.342 6.45243 -0.597116 0
M  V30 3522 N 320.748 -0.0735177 1.57428 0
M  V30 3523 C 321.678 -1.0879 2.06608 0
M  V30 3524 C 322.659 -1.40473 0.959237 0
M  V30 3525 O 323.844 -1.5013 1.23185 0
M  V30 3526 C 320.974 -2.40183 2.50857 0
M  V30 3527 C 319.928 -2.22858 3.65402 0
M  V30 3528 C 319.254 -3.59619 3.957 0
M  V30 3529 C 320.554 -1.65123 4.95511 0
M  V30 3530 H 322.248 -0.678673 2.91607 0
M  V30 3531 H 319.794 -0.325013 1.40284 0
M  V30 3532 H 321.747 -3.11437 2.83874 0
M  V30 3533 H 320.471 -2.83083 1.62885 0
M  V30 3534 H 319.13 -1.54045 3.32664 0
M  V30 3535 H 318.778 -4.00086 3.04861 0
M  V30 3536 H 318.478 -3.48866 4.72828 0
M  V30 3537 H 320.002 -4.32306 4.31212 0
M  V30 3538 H 321.416 -2.26241 5.26771 0
M  V30 3539 H 319.813 -1.65071 5.7695 0
M  V30 3540 H 320.883 -0.612559 4.81015 0
M  V30 3541 N 322.226 -1.5378 -0.344866 0
M  V30 3542 C 323.156 -1.84662 -1.42906 0
M  V30 3543 C 324.137 -0.701648 -1.54955 0
M  V30 3544 O 325.322 -0.953438 -1.69184 0
M  V30 3545 C 322.452 -2.05503 -2.79974 0
M  V30 3546 C 321.406 -3.21318 -2.82734 0
M  V30 3547 C 320.732 -3.2749 -4.22675 0
M  V30 3548 C 322.032 -4.59456 -2.48389 0
M  V30 3549 H 323.726 -2.75461 -1.17311 0
M  V30 3550 H 321.272 -1.32542 -0.562896 0
M  V30 3551 H 323.225 -2.25691 -3.55867 0
M  V30 3552 H 321.949 -1.11434 -3.07002 0
M  V30 3553 H 320.608 -3.00984 -2.09294 0
M  V30 3554 H 320.256 -2.31019 -4.4681 0
M  V30 3555 H 319.956 -4.05316 -4.25433 0
M  V30 3556 H 321.48 -3.49887 -5.00412 0
M  V30 3557 H 322.894 -4.79667 -3.13995 0
M  V30 3558 H 321.291 -5.39675 -2.62432 0
M  V30 3559 H 322.361 -4.63155 -1.4358 0
M  V30 3560 N 323.704 0.605807 -1.45491 0
M  V30 3561 C 324.952 1.36207 -1.49305 0
M  V30 3562 C 325.273 1.94519 -0.136863 0
M  V30 3563 O 324.543 1.77261 0.833983 0
M  V30 3564 H 323.123 0.50565 -0.549843 0
M  V30 3565 H 325.785 0.711239 -1.81459 0
M  V30 3566 H 324.881 2.18058 -2.23287 0
M  V30 3567 N 325.182 1.32811 0.848464 0
M  V30 3568 C 326.41 1.26739 1.63538 0
M  V30 3569 C 326.825 -0.163484 1.88091 0
M  V30 3570 O 326.182 -1.10258 1.45429 0
M  V30 3571 C 326.233 2.03013 2.99112 0
M  V30 3572 O 325.954 3.40518 2.75643 0
M  V30 3573 C 327.455 2.04038 3.93552 0
M  V30 3574 H 324.675 0.437024 0.509167 0
M  V30 3575 H 327.219 1.75033 1.05753 0
M  V30 3576 H 325.374 1.58426 3.53525 0
M  V30 3577 H 325.788 3.79635 3.61908 0
M  V30 3578 H 327.262 2.61877 4.85926 0
M  V30 3579 H 327.739 1.0282 4.26995 0
M  V30 3580 H 328.345 2.486 3.45077 0
M  V30 3581 N 326.66 -1.06551 1.16123 0
M  V30 3582 C 328.071 -1.60768 0.949232 0
M  V30 3583 C 328.422 -1.89523 -0.507508 0
M  V30 3584 O 327.547 -1.66671 -1.38021 0
M  V30 3585 C 328.142 -2.92086 1.71671 0
M  V30 3586 C 326.701 -3.43015 1.54977 0
M  V30 3587 C 325.848 -2.16947 1.72711 0
M  V30 3588 H 328.799 -0.895354 1.31031 0
M  V30 3589 H 328.82 -3.6138 1.19099 0
M  V30 3590 H 328.332 -2.71127 2.7769 0
M  V30 3591 H 326.433 -3.69039 0.513873 0
M  V30 3592 H 326.546 -4.18516 2.33198 0
M  V30 3593 H 324.91 -2.27041 1.15431 0
M  V30 3594 H 325.693 -1.98473 2.80113 0
M  V30 3595 N 328.138 -0.959301 -1.25041 0
M  V30 3596 C 329.366 -0.633949 -1.96948 0
M  V30 3597 C 329.781 0.794916 -1.7125 0
M  V30 3598 O 329.138 1.53231 -0.991287 0
M  V30 3599 C 329.189 -0.888805 -3.50403 0
M  V30 3600 O 328.91 -2.26149 -3.75218 0
M  V30 3601 C 330.411 -0.576482 -4.39536 0
M  V30 3602 H 327.631 -0.237263 -0.627652 0
M  V30 3603 H 330.175 -1.28495 -1.59089 0
M  V30 3604 H 328.33 -0.284145 -3.86357 0
M  V30 3605 H 328.744 -2.33514 -4.6965 0
M  V30 3606 H 330.218 -0.805314 -5.46094 0
M  V30 3607 H 330.695 0.489075 -4.36468 0
M  V30 3608 H 331.301 -1.16067 -4.09156 0
M  V30 3609 N 329.616 1.39756 -0.72842 0
M  V30 3610 C 330.526 2.34444 -0.0855374 0
M  V30 3611 C 331.542 1.57976 0.729356 0
M  V30 3612 O 332.718 1.90301 0.659346 0
M  V30 3613 C 329.783 3.36965 0.815798 0
M  V30 3614 C 328.844 4.29299 -0.0105996 0
M  V30 3615 C 328.077 5.26923 0.84781 0
M  V30 3616 O 328.3 5.30859 2.08673 0
M  V30 3617 O 327.234 6.01249 0.279969 0
M  V30 3618 H 331.06 2.91065 -0.866892 0
M  V30 3619 H 328.645 1.4117 -0.48902 0
M  V30 3620 H 330.527 3.99804 1.33171 0
M  V30 3621 H 329.202 2.82739 1.57608 0
M  V30 3622 H 328.109 3.69703 -0.571877 0
M  V30 3623 H 329.442 4.86712 -0.73295 0
M  V30 3624 N 331.094 0.475555 1.50254 0
M  V30 3625 C 332.004 -0.321501 2.32387 0
M  V30 3626 C 333.02 -0.991755 1.42969 0
M  V30 3627 O 334.196 -0.978747 1.76018 0
M  V30 3628 C 331.261 -1.38667 3.17762 0
M  V30 3629 C 330.322 -0.732538 4.23004 0
M  V30 3630 C 329.555 -1.74695 5.04299 0
M  V30 3631 O 329.778 -2.97399 4.86734 0
M  V30 3632 O 328.712 -1.31631 5.8733 0
M  V30 3633 H 332.538 0.350071 3.01676 0
M  V30 3634 H 330.123 0.237321 1.47503 0
M  V30 3635 H 332.005 -2.00354 3.70724 0
M  V30 3636 H 330.68 -2.04163 2.51196 0
M  V30 3637 H 329.587 -0.0765902 3.74022 0
M  V30 3638 H 330.92 -0.120452 4.92053 0
M  V30 3639 N 332.573 -1.56217 0.208337 0
M  V30 3640 C 333.505 -2.1695 -0.739276 0
M  V30 3641 C 334.518 -1.13492 -1.1672 0
M  V30 3642 O 335.707 -1.40529 -1.10063 0
M  V30 3643 C 332.807 -2.72755 -2.01142 0
M  V30 3644 C 331.98 -4.0125 -1.74118 0
M  V30 3645 C 331.039 -4.41749 -2.85909 0
M  V30 3646 O 330.065 -5.08912 -2.54946 0
M  V30 3647 N 331.267 -4.06342 -4.14568 0
M  V30 3648 H 334.032 -2.98893 -0.219837 0
M  V30 3649 H 331.593 -1.61878 0.0268445 0
M  V30 3650 H 333.585 -2.96826 -2.75094 0
M  V30 3651 H 332.155 -1.95191 -2.4417 0
M  V30 3652 H 331.375 -3.85173 -0.838775 0
M  V30 3653 H 332.663 -4.851 -1.53477 0
M  V30 3654 H 332.061 -3.52345 -4.42571 0
M  V30 3655 H 330.618 -4.35335 -4.85105 0
M  V30 3656 N 334.051 0.0651679 -1.57465 0
M  V30 3657 C 335.297 0.758912 -1.88712 0
M  V30 3658 C 335.652 1.7485 -0.802819 0
M  V30 3659 O 334.945 1.90632 0.192359 0
M  V30 3660 C 335.139 1.50081 -3.24362 0
M  V30 3661 C 334.968 0.584579 -4.45884 0
M  V30 3662 C 333.738 0.219039 -5.04825 0
M  V30 3663 C 335.936 -0.121559 -5.14156 0
M  V30 3664 N 333.918 -0.702222 -6.09871 0
M  V30 3665 C 335.289 -0.899767 -6.13436 0
M  V30 3666 C 337.344 -0.192331 -4.97528 0
M  V30 3667 C 336.047 -1.74218 -6.97883 0
M  V30 3668 C 338.073 -1.02174 -5.82507 0
M  V30 3669 C 337.435 -1.78798 -6.8133 0
M  V30 3670 H 333.534 0.25293 -0.739967 0
M  V30 3671 H 336.118 0.0201744 -1.9469 0
M  V30 3672 H 334.289 2.21023 -3.1938 0
M  V30 3673 H 336.021 2.14409 -3.43236 0
M  V30 3674 H 332.776 0.57336 -4.70117 0
M  V30 3675 H 333.2 -1.15629 -6.67052 0
M  V30 3676 H 337.842 0.385741 -4.21037 0
M  V30 3677 H 335.56 -2.3312 -7.73745 0
M  V30 3678 H 339.146 -1.07957 -5.71696 0
M  V30 3679 H 338.026 -2.41942 -7.45945 0
M  V30 3680 N 335.529 1.53961 0.336706 0
M  V30 3681 C 336.94 1.62914 0.911925 0
M  V30 3682 C 337.291 0.514795 1.89326 0
M  V30 3683 O 336.416 -0.354395 2.13478 0
M  V30 3684 C 337.011 2.95304 1.66076 0
M  V30 3685 C 335.57 3.06496 2.18489 0
M  V30 3686 C 334.717 2.58403 1.00613 0
M  V30 3687 H 337.668 1.58285 0.114649 0
M  V30 3688 H 337.689 2.84727 2.5241 0
M  V30 3689 H 337.201 3.76387 0.946276 0
M  V30 3690 H 335.302 2.3006 2.93092 0
M  V30 3691 H 335.415 4.1208 2.44391 0
M  V30 3692 H 333.779 2.13977 1.38152 0
M  V30 3693 H 334.562 3.41932 0.306179 0
M  V30 3694 N 337.007 -0.598083 1.45811 0
M  V30 3695 C 338.232 -1.3881 1.54099 0
M  V30 3696 C 338.657 -1.8726 0.177578 0
M  V30 3697 O 338.015 -1.6069 -0.839541 0
M  V30 3698 C 338.063 -2.56217 2.53743 0
M  V30 3699 O 337.167 -3.5716 2.06182 0
M  V30 3700 H 336.508 -0.414024 0.519115 0
M  V30 3701 H 339.038 -0.726971 1.91249 0
M  V30 3702 H 339.048 -3.03337 2.72856 0
M  V30 3703 H 337.723 -2.20303 3.5276 0
M  V30 3704 H 336.3 -3.16624 1.96987 0
M  V30 3705 N 338.485 -1.33259 -0.841409 0
M  V30 3706 C 339.418 -1.1764 -1.95541 0
M  V30 3707 C 340.396 -0.072501 -1.62438 0
M  V30 3708 O 341.58 -0.23427 -1.87039 0
M  V30 3709 C 338.707 -0.803794 -3.29024 0
M  V30 3710 C 337.753 -1.91482 -3.81099 0
M  V30 3711 S 338.586 -3.52538 -4.03085 0
M  V30 3712 C 339.742 -3.17279 -5.39523 0
M  V30 3713 H 339.975 -2.11941 -2.08491 0
M  V30 3714 H 337.508 -1.18072 -0.9949 0
M  V30 3715 H 339.466 -0.595592 -4.06156 0
M  V30 3716 H 338.127 0.120574 -3.13868 0
M  V30 3717 H 337.32 -1.60742 -4.7768 0
M  V30 3718 H 336.922 -2.07956 -3.10854 0
M  V30 3719 H 339.214 -2.67946 -6.22263 0
M  V30 3720 H 340.157 -4.1293 -5.75234 0
M  V30 3721 H 340.565 -2.53943 -5.04156 0
M  V30 3722 N 339.963 1.05934 -1.16686 0
M  V30 3723 C 341.191 1.8249 -0.974929 0
M  V30 3724 C 341.606 1.82679 0.476861 0
M  V30 3725 O 340.963 1.2486 1.33103 0
M  V30 3726 C 341.014 3.28943 -1.49929 0
M  V30 3727 O 340.735 3.28886 -2.89423 0
M  V30 3728 C 342.236 4.22215 -1.35089 0
M  V30 3729 H 339.456 0.575295 -0.345365 0
M  V30 3730 H 342 1.33631 -1.548 0
M  V30 3731 H 340.155 3.751 -0.968423 0
M  V30 3732 H 340.569 4.20493 -3.13506 0
M  V30 3733 H 342.043 5.22987 -1.76603 0
M  V30 3734 H 342.52 4.38195 -0.296935 0
M  V30 3735 H 343.126 3.81907 -1.87155 0
M  V30 3736 N 341.441 0.965919 1.2453 0
M  V30 3737 C 342.388 0.49402 2.25451 0
M  V30 3738 C 343.358 -0.45948 1.59618 0
M  V30 3739 O 344.543 -0.370238 1.87173 0
M  V30 3740 C 341.683 -0.211359 3.44452 0
M  V30 3741 C 340.796 0.7807 4.24887 0
M  V30 3742 C 339.931 0.0516105 5.31175 0
M  V30 3743 C 338.97 1.03385 6.03306 0
M  V30 3744 N 338.107 0.334887 7.01301 0
M  V30 3745 H 342.947 1.35946 2.65184 0
M  V30 3746 H 340.484 0.681515 1.3036 0
M  V30 3747 H 342.442 -0.637 4.12308 0
M  V30 3748 H 341.072 -1.04077 3.05562 0
M  V30 3749 H 340.124 1.32479 3.56586 0
M  V30 3750 H 341.436 1.52978 4.74762 0
M  V30 3751 H 340.59 -0.432114 6.05159 0
M  V30 3752 H 339.329 -0.730179 4.82203 0
M  V30 3753 H 338.334 1.52847 5.28127 0
M  V30 3754 H 339.559 1.81606 6.54367 0
M  V30 3755 H 337.505 -0.427959 6.54603 0
M  V30 3756 H 337.422 1.02287 7.49048 0
M  V30 3757 H 338.69 -0.126928 7.79397 0
M  V30 3758 N 342.919 -1.39368 0.735821 0
M  V30 3759 C 343.849 -2.33234 0.111506 0
M  V30 3760 C 344.83 -1.53954 -0.723334 0
M  V30 3761 O 346.015 -1.82344 -0.668147 0
M  V30 3762 C 343.145 -3.38057 -0.795917 0
M  V30 3763 C 342.099 -4.2795 -0.065172 0
M  V30 3764 C 341.425 -5.23479 -1.08967 0
M  V30 3765 C 342.725 -5.10741 1.09273 0
M  V30 3766 H 344.419 -2.85692 0.895571 0
M  V30 3767 H 341.965 -1.37364 0.432109 0
M  V30 3768 H 343.918 -4.02675 -1.24221 0
M  V30 3769 H 342.642 -2.8404 -1.61211 0
M  V30 3770 H 341.301 -3.64813 0.361511 0
M  V30 3771 H 340.949 -4.65758 -1.89944 0
M  V30 3772 H 340.649 -5.84472 -0.605489 0
M  V30 3773 H 342.173 -5.90974 -1.53565 0
M  V30 3774 H 343.587 -5.68699 0.724841 0
M  V30 3775 H 341.984 -5.8088 1.50659 0
M  V30 3776 H 343.054 -4.45525 1.91404 0
M  V30 3777 N 344.397 -0.483516 -1.5 0
M  V30 3778 C 345.808 -0.0314176 -1.86674 0
M  V30 3779 C 346.159 1.37728 -1.39733 0
M  V30 3780 O 345.284 2.02327 -0.767635 0
M  V30 3781 C 345.879 -0.0502376 -3.38763 0
M  V30 3782 C 344.438 0.346442 -3.74802 0
M  V30 3783 C 343.585 -0.430366 -2.7394 0
M  V30 3784 H 346.536 -0.697182 -1.42566 0
M  V30 3785 H 346.557 0.749116 -3.73053 0
M  V30 3786 H 346.069 -1.07563 -3.72897 0
M  V30 3787 H 344.17 1.37572 -3.46273 0
M  V30 3788 H 344.283 0.0391486 -4.79084 0
M  V30 3789 H 342.647 0.117557 -2.54429 0
M  V30 3790 H 343.43 -1.4555 -3.10918 0
M  V30 3791 N 345.875 1.56104 -0.216619 0
M  V30 3792 C 347.152 1.89988 0.465165 0
M  V30 3793 C 347.532 1.13326 1.78102 0
M  V30 3794 O 346.88 0.241033 2.27225 0
M  V30 3795 C 347.09 3.42646 0.662939 0
M  V30 3796 C 348.438 4.13311 0.972602 0
M  V30 3797 O 349.462 3.48217 0.749901 0
M  V30 3798 O 348.321 5.28396 1.39499 0
M  V30 3799 H 345.415 0.78979 0.245276 0
M  V30 3800 H 347.961 1.67721 -0.258436 0
M  V30 3801 H 346.733 3.90399 -0.26543 0
M  V30 3802 H 346.356 3.70677 1.43821 0
M  V30 3803 N 347.353 -0.0568162 1.57498 0
M  V30 3804 C 348.583 -0.764515 1.91934 0
M  V30 3805 C 348.991 -1.70877 0.81227 0
M  V30 3806 O 348.334 -1.82351 -0.222213 0
M  V30 3807 C 348.396 -1.5994 3.21962 0
M  V30 3808 C 348.06 -0.822925 4.4953 0
M  V30 3809 C 349.057 -0.135464 5.19723 0
M  V30 3810 C 346.742 -0.785666 4.96117 0
M  V30 3811 C 348.736 0.578861 6.34766 0
M  V30 3812 C 346.423 -0.0675784 6.11063 0
M  V30 3813 C 347.421 0.613471 6.80239 0
M  V30 3814 O 347.109 1.31996 7.92989 0
M  V30 3815 H 346.841 -0.221647 0.63863 0
M  V30 3816 H 349.395 -0.0268218 2.05382 0
M  V30 3817 H 347.625 -2.38026 3.04763 0
M  V30 3818 H 349.314 -2.18715 3.41934 0
M  V30 3819 H 350.08 -0.155458 4.84751 0
M  V30 3820 H 345.959 -1.30524 4.42136 0
M  V30 3821 H 349.503 1.111 6.88696 0
M  V30 3822 H 345.4 -0.0455636 6.45484 0
M  V30 3823 H 346.168 1.23077 8.09194 0
M  V30 3824 N 348.832 -1.54138 -0.328536 0
M  V30 3825 C 349.779 -1.83176 -1.40411 0
M  V30 3826 C 350.749 -0.678494 -1.5161 0
M  V30 3827 O 351.934 -0.92443 -1.6691 0
M  V30 3828 C 349.074 -2.06035 -2.76846 0
M  V30 3829 C 348.187 -3.33727 -2.74318 0
M  V30 3830 C 347.322 -3.46574 -4.02567 0
M  V30 3831 C 346.361 -4.68159 -3.94327 0
M  V30 3832 N 345.498 -4.77959 -5.14296 0
M  V30 3833 H 350.338 -2.74938 -1.14948 0
M  V30 3834 H 347.875 -1.36166 -0.556538 0
M  V30 3835 H 349.833 -2.1728 -3.56153 0
M  V30 3836 H 348.463 -1.1757 -3.00628 0
M  V30 3837 H 347.515 -3.31246 -1.8703 0
M  V30 3838 H 348.827 -4.23139 -2.64111 0
M  V30 3839 H 347.981 -3.57333 -4.90304 0
M  V30 3840 H 346.72 -2.55245 -4.15574 0
M  V30 3841 H 345.725 -4.57461 -3.04974 0
M  V30 3842 H 346.95 -5.60868 -3.82889 0
M  V30 3843 H 344.896 -3.89544 -5.27818 0
M  V30 3844 H 344.813 -5.6133 -5.06404 0
M  V30 3845 H 346.081 -4.93044 -6.03761 0
M  V30 3846 N 350.31 0.590341 -1.46126 0
M  V30 3847 C 351.721 1.17243 -1.45296 0
M  V30 3848 C 352.072 1.95281 -0.189723 0
M  V30 3849 O 351.197 2.04502 0.707674 0
M  V30 3850 C 351.792 2.13284 -2.6324 0
M  V30 3851 C 350.351 2.66832 -2.65476 0
M  V30 3852 C 349.498 1.42557 -2.3785 0
M  V30 3853 H 352.449 0.378692 -1.54116 0
M  V30 3854 H 352.47 2.96619 -2.38323 0
M  V30 3855 H 351.982 1.56459 -3.55165 0
M  V30 3856 H 350.083 3.27548 -1.77603 0
M  V30 3857 H 350.196 3.10088 -3.65215 0
M  V30 3858 H 348.56 1.72107 -1.87753 0
M  V30 3859 H 349.343 0.875741 -3.31942 0
M  V30 3860 N 351.788 1.33704 0.83433 0
M  V30 3861 C 353.018 1.28281 1.6195 0
M  V30 3862 C 353.426 -0.147603 1.88623 0
M  V30 3863 O 352.769 -1.1016 1.47005 0
M  V30 3864 C 352.831 1.99386 2.99141 0
M  V30 3865 C 352.495 3.48681 2.95416 0
M  V30 3866 C 353.492 4.438 2.70809 0
M  V30 3867 C 351.177 3.90925 3.15409 0
M  V30 3868 C 353.171 5.79138 2.66229 0
M  V30 3869 C 350.858 5.26366 3.10454 0
M  V30 3870 C 351.856 6.20284 2.85895 0
M  V30 3871 O 351.544 7.53245 2.80852 0
M  V30 3872 H 351.276 0.44315 0.510484 0
M  V30 3873 H 353.83 1.76711 1.04702 0
M  V30 3874 H 352.06 1.45554 3.58261 0
M  V30 3875 H 353.749 1.87403 3.60049 0
M  V30 3876 H 354.515 4.12485 2.5511 0
M  V30 3877 H 350.394 3.18229 3.33543 0
M  V30 3878 H 353.938 6.52416 2.4698 0
M  V30 3879 H 349.835 5.57304 3.25703 0
M  V30 3880 H 350.603 7.62846 2.96661 0
M  V30 3881 N 353.266 -1.05314 1.17247 0
M  V30 3882 C 354.677 -1.59753 0.96623 0
M  V30 3883 C 355.028 -1.9005 -0.487378 0
M  V30 3884 O 354.153 -1.68126 -1.36245 0
M  V30 3885 C 354.748 -2.90249 1.74759 0
M  V30 3886 C 353.307 -3.41352 1.58606 0
M  V30 3887 C 352.454 -2.15103 1.75002 0
M  V30 3888 H 355.405 -0.881406 1.31973 0
M  V30 3889 H 355.426 -3.60097 1.22925 0
M  V30 3890 H 354.938 -2.68166 2.8055 0
M  V30 3891 H 353.039 -3.68474 0.552985 0
M  V30 3892 H 353.152 -4.16019 2.37624 0
M  V30 3893 H 351.516 -2.25804 1.17833 0
M  V30 3894 H 352.299 -1.95491 2.82202 0
M  V30 3895 N 354.744 -0.972509 -1.24016 0
M  V30 3896 C 355.677 -0.45117 -2.23696 0
M  V30 3897 C 356.655 0.477378 -1.55434 0
M  V30 3898 O 357.839 0.407647 -1.84039 0
M  V30 3899 C 354.966 0.34818 -3.36906 0
M  V30 3900 C 354.012 -0.523355 -4.23277 0
M  V30 3901 S 354.845 -1.96647 -4.98087 0
M  V30 3902 C 356.001 -1.17604 -6.14752 0
M  V30 3903 H 356.234 -1.29588 -2.67571 0
M  V30 3904 H 353.767 -0.777903 -1.33372 0
M  V30 3905 H 355.725 0.803387 -4.02562 0
M  V30 3906 H 354.386 1.16792 -2.91579 0
M  V30 3907 H 353.579 0.0906181 -5.03919 0
M  V30 3908 H 353.181 -0.914485 -3.62647 0
M  V30 3909 H 355.473 -0.433434 -6.76112 0
M  V30 3910 H 356.416 -1.95701 -6.8052 0
M  V30 3911 H 356.824 -0.698295 -5.60164 0
M  V30 3912 N 356.222 1.38976 -0.743202 0
M  V30 3913 C 357.452 2.04339 -0.304807 0
M  V30 3914 C 357.86 1.56162 1.06819 0
M  V30 3915 O 357.203 0.725284 1.68776 0
M  V30 3916 C 357.265 3.58716 -0.237369 0
M  V30 3917 C 356.929 4.29905 -1.55018 0
M  V30 3918 C 357.926 4.55987 -2.49744 0
M  V30 3919 C 355.611 4.68294 -1.81675 0
M  V30 3920 C 357.605 5.19478 -3.69353 0
M  V30 3921 C 355.292 5.31512 -3.0156 0
M  V30 3922 C 356.29 5.57037 -3.9522 0
M  V30 3923 O 355.978 6.18941 -5.12998 0
M  V30 3924 H 355.71 0.663439 -0.12971 0
M  V30 3925 H 358.264 1.78852 -1.01001 0
M  V30 3926 H 356.494 3.83133 0.524003 0
M  V30 3927 H 358.183 4.05543 0.170121 0
M  V30 3928 H 358.949 4.26767 -2.30423 0
M  V30 3929 H 354.828 4.47779 -1.09615 0
M  V30 3930 H 358.372 5.39318 -4.42473 0
M  V30 3931 H 354.269 5.60153 -3.20778 0
M  V30 3932 H 355.037 6.37433 -5.13441 0
M  V30 3933 N 357.7 0.491464 1.49741 0
M  V30 3934 C 359.111 0.0413169 1.86654 0
M  V30 3935 C 359.462 -1.36985 1.40462 0
M  V30 3936 O 358.587 -2.01917 0.778354 0
M  V30 3937 C 359.182 0.0682023 3.38731 0
M  V30 3938 C 357.741 -0.32656 3.74981 0
M  V30 3939 C 356.888 0.444888 2.73708 0
M  V30 3940 H 359.839 0.704733 1.42194 0
M  V30 3941 H 359.86 -0.729322 3.73445 0
M  V30 3942 H 359.372 1.09539 3.72321 0
M  V30 3943 H 357.473 -1.35734 3.46997 0
M  V30 3944 H 357.586 -0.013741 4.79098 0
M  V30 3945 H 355.95 -0.104062 2.54487 0
M  V30 3946 H 356.733 1.47197 3.10142 0
M  V30 3947 N 359.178 -1.55987 0.224894 0
M  V30 3948 C 360.141 -2.19178 -0.670348 0
M  V30 3949 C 361.141 -1.15461 -1.11917 0
M  V30 3950 O 362.331 -1.40675 -1.02743 0
M  V30 3951 C 359.463 -2.81777 -1.9187 0
M  V30 3952 H 360.656 -2.99662 -0.119364 0
M  V30 3953 H 358.209 -1.5628 -0.0247128 0
M  V30 3954 H 358.944 -2.05172 -2.51147 0
M  V30 3955 H 358.729 -3.57732 -1.60531 0
M  V30 3956 H 360.219 -3.30205 -2.55645 0
M  V30 3957 N 360.656 0.0484629 -1.57525 0
M  V30 3958 C 361.884 0.755421 -1.92616 0
M  V30 3959 C 362.299 1.69919 -0.822984 0
M  V30 3960 O 361.656 1.81378 0.202085 0
M  V30 3961 C 361.707 1.52915 -3.27566 0
M  V30 3962 O 361.428 0.62329 -4.33644 0
M  V30 3963 C 362.929 2.33502 -3.76818 0
M  V30 3964 H 360.149 0.213465 -0.63614 0
M  V30 3965 H 362.693 0.0117698 -2.04497 0
M  V30 3966 H 360.848 2.22486 -3.17142 0
M  V30 3967 H 361.262 1.16383 -5.11425 0
M  V30 3968 H 362.736 2.83214 -4.73808 0
M  V30 3969 H 363.213 3.14068 -3.07014 0
M  V30 3970 H 363.819 1.69043 -3.90262 0
M  V30 3971 N 362.134 1.5431 0.320358 0
M  V30 3972 C 363.362 1.76636 1.07738 0
M  V30 3973 C 363.777 0.51649 1.81598 0
M  V30 3974 O 363.134 -0.512942 1.75143 0
M  V30 3975 C 363.185 2.96158 2.07299 0
M  V30 3976 O 362.906 4.16313 1.36438 0
M  V30 3977 C 364.407 3.3072 2.95193 0
M  V30 3978 H 361.627 0.589597 0.320339 0
M  V30 3979 H 364.171 2.01207 0.36551 0
M  V30 3980 H 362.326 2.73851 2.74016 0
M  V30 3981 H 362.74 4.83565 2.03138 0
M  V30 3982 H 364.214 4.17643 3.60941 0
M  V30 3983 H 364.691 2.48026 3.62463 0
M  V30 3984 H 365.297 3.55117 2.34034 0
M  V30 3985 N 363.613 -0.582584 1.46437 0
M  V30 3986 C 364.838 -1.37168 1.55563 0
M  V30 3987 C 365.263 -1.87061 0.19743 0
M  V30 3988 O 364.621 -1.61572 -0.822451 0
M  V30 3989 C 364.669 -2.53511 2.56446 0
M  V30 3990 O 363.773 -3.54953 2.09958 0
M  V30 3991 H 363.114 -0.408494 0.523477 0
M  V30 3992 H 365.644 -0.706646 1.9201 0
M  V30 3993 H 365.654 -3.00426 2.76058 0
M  V30 3994 H 364.329 -2.16549 3.55076 0
M  V30 3995 H 362.906 -3.14516 2.00334 0
M  V30 3996 N 365.091 -1.34144 -0.827227 0
M  V30 3997 C 366.021 -1.28005 -1.95287 0
M  V30 3998 C 367.002 -0.158321 -1.69362 0
M  V30 3999 O 368.187 -0.349987 -1.9102 0
M  V30 4000 C 365.317 -1.03036 -3.31664 0
M  V30 4001 C 364.271 -2.11628 -3.72019 0
M  V30 4002 C 363.597 -1.71854 -5.0633 0
M  V30 4003 C 364.897 -3.53417 -3.8457 0
M  V30 4004 H 366.591 -2.22187 -2.00682 0
M  V30 4005 H 364.137 -1.0696 -0.964135 0
M  V30 4006 H 366.09 -0.973863 -4.09993 0
M  V30 4007 H 364.814 -0.0529391 -3.26557 0
M  V30 4008 H 363.473 -2.16339 -2.95961 0
M  V30 4009 H 363.121 -0.727841 -4.97706 0
M  V30 4010 H 362.821 -2.44531 -5.34302 0
M  V30 4011 H 364.345 -1.67692 -5.87122 0
M  V30 4012 H 365.759 -3.51142 -4.5318 0
M  V30 4013 H 364.156 -4.24679 -4.2399 0
M  V30 4014 H 365.226 -3.91072 -2.86689 0
M  V30 4015 N 366.569 1.04691 -1.17803 0
M  V30 4016 C 367.815 1.78045 -0.970969 0
M  V30 4017 C 368.148 1.87686 0.498751 0
M  V30 4018 O 367.423 1.38035 1.37027 0
M  V30 4019 C 367.706 3.2166 -1.61884 0
M  V30 4020 C 367.559 3.20001 -3.161 0
M  V30 4021 C 368.878 4.1962 -1.3269 0
M  V30 4022 H 365.997 0.64633 -0.354155 0
M  V30 4023 H 368.639 1.22333 -1.45378 0
M  V30 4024 H 366.789 3.69232 -1.20831 0
M  V30 4025 H 368.461 2.80467 -3.66246 0
M  V30 4026 H 366.704 2.58203 -3.48588 0
M  V30 4027 H 367.375 4.21386 -3.56564 0
M  V30 4028 H 369.851 3.80567 -1.68249 0
M  V30 4029 H 368.727 5.18339 -1.80599 0
M  V30 4030 H 368.988 4.414 -0.248622 0
M  V30 4031 N 368.047 0.979072 1.23499 0
M  V30 4032 C 368.995 0.510604 2.26926 0
M  V30 4033 C 369.989 -0.431691 1.63807 0
M  V30 4034 O 371.195 -0.30573 1.77385 0
M  V30 4035 H 367.57 0.146688 0.737554 0
M  V30 4036 H 369.541 1.39466 2.63803 0
M  V30 4037 C 368.29 -0.172658 3.47271 0
M  V30 4038 H 367.613 0.543331 3.96091 0
M  V30 4039 H 369.053 -0.464101 4.21452 0
M  V30 4040 C 367.512 -1.40345 3.06276 0
M  V30 4041 O 368.042 -2.49978 3.14442 0
M  V30 4042 N 366.248 -1.27362 2.61203 0
M  V30 4043 H 365.795 -0.381584 2.54758 0
M  V30 4044 H 365.753 -2.09822 2.34141 0
M  V30 4045 N 369.525 -1.3858 0.750561 0
M  V30 4046 C 370.771 -2.00481 0.305825 0
M  V30 4047 C 371.104 -1.5944 -1.10872 0
M  V30 4048 O 370.379 -0.83052 -1.75877 0
M  V30 4049 C 370.662 -3.5758 0.425287 0
M  V30 4050 C 370.515 -4.08594 1.88072 0
M  V30 4051 C 371.834 -4.39719 -0.183122 0
M  V30 4052 H 368.953 -0.728348 0.112598 0
M  V30 4053 H 371.595 -1.64566 0.949638 0
M  V30 4054 H 369.745 -3.88306 -0.122828 0
M  V30 4055 H 371.417 -3.88523 2.48691 0
M  V30 4056 H 369.66 -3.61574 2.39681 0
M  V30 4057 H 370.331 -5.177 1.91548 0
M  V30 4058 H 372.807 -4.15128 0.284303 0
M  V30 4059 H 371.683 -5.48856 -0.0692757 0
M  V30 4060 H 371.944 -4.23434 -1.27106 0
M  V30 4061 N 371.003 -0.499398 -1.49478 0
M  V30 4062 C 372.249 0.0457576 -2.02748 0
M  V30 4063 C 372.582 1.36793 -1.37846 0
M  V30 4064 O 371.857 1.87596 -0.513601 0
M  V30 4065 C 372.14 0.199986 -3.59544 0
M  V30 4066 C 371.993 -1.1452 -4.34977 0
M  V30 4067 C 373.312 0.94137 -4.29914 0
M  V30 4068 H 370.431 0.0151552 -0.736844 0
M  V30 4069 H 373.073 -0.650498 -1.78518 0
M  V30 4070 H 371.223 0.793007 -3.8032 0
M  V30 4071 H 372.895 -1.77697 -4.25701 0
M  V30 4072 H 371.138 -1.73488 -3.97598 0
M  V30 4073 H 371.809 -0.990607 -5.43039 0
M  V30 4074 H 374.285 0.43844 -4.13784 0
M  V30 4075 H 373.161 1.01812 -5.39375 0
M  V30 4076 H 373.422 1.98471 -3.95046 0
M  V30 4077 N 372.481 1.55866 -0.233164 0
M  V30 4078 C 373.892 1.847 0.272554 0
M  V30 4079 C 374.243 1.15477 1.58617 0
M  V30 4080 O 373.368 0.42841 2.12117 0
M  V30 4081 C 373.963 3.35071 0.501299 0
M  V30 4082 C 372.522 3.6418 0.951304 0
M  V30 4083 C 371.669 2.77292 0.0208209 0
M  V30 4084 H 374.62 1.52005 -0.456074 0
M  V30 4085 H 374.641 3.55906 1.34577 0
M  V30 4086 H 374.153 3.85424 -0.454936 0
M  V30 4087 H 372.254 3.19293 1.92049 0
M  V30 4088 H 372.367 4.72071 0.817675 0
M  V30 4089 H 370.731 2.49131 0.529723 0
M  V30 4090 H 371.514 3.30448 -0.93054 0
M  V30 4091 N 373.959 -0.0401083 1.57549 0
M  V30 4092 C 374.906 -1.04413 2.05831 0
M  V30 4093 C 375.876 -1.36585 0.945184 0
M  V30 4094 O 377.061 -1.47112 1.21502 0
M  V30 4095 C 374.201 -2.34336 2.53339 0
M  V30 4096 C 373.314 -2.08419 3.78398 0
M  V30 4097 C 372.449 -3.32133 4.14561 0
M  V30 4098 C 371.488 -3.01721 5.3257 0
M  V30 4099 N 370.625 -4.17855 5.64218 0
M  V30 4100 H 375.465 -0.625442 2.91363 0
M  V30 4101 H 373.002 -0.297218 1.44066 0
M  V30 4102 H 374.96 -3.10234 2.78946 0
M  V30 4103 H 373.59 -2.73948 1.7074 0
M  V30 4104 H 372.642 -1.23069 3.59942 0
M  V30 4105 H 373.954 -1.81978 4.64419 0
M  V30 4106 H 373.108 -4.16406 4.41238 0
M  V30 4107 H 371.847 -3.61678 3.2717 0
M  V30 4108 H 370.852 -2.15849 5.05657 0
M  V30 4109 H 372.077 -2.73466 6.21605 0
M  V30 4110 H 370.023 -4.47372 4.79786 0
M  V30 4111 H 369.94 -3.94798 6.44725 0
M  V30 4112 H 371.208 -5.03033 5.95465 0
M  V30 4113 N 375.437 -1.54477 -0.31217 0
M  V30 4114 C 376.367 -1.87652 -1.38957 0
M  V30 4115 C 377.348 -0.734358 -1.53431 0
M  V30 4116 O 378.533 -0.98911 -1.67123 0
M  V30 4117 C 375.663 -2.11396 -2.75552 0
M  V30 4118 C 374.617 -3.27243 -2.75855 0
M  V30 4119 C 373.943 -3.36382 -4.15633 0
M  V30 4120 C 375.243 -4.64622 -2.38587 0
M  V30 4121 H 376.937 -2.77887 -1.11442 0
M  V30 4122 H 374.483 -1.33707 -0.534655 0
M  V30 4123 H 376.436 -2.33189 -3.51 0
M  V30 4124 H 375.16 -1.17921 -3.04569 0
M  V30 4125 H 373.819 -3.05356 -2.02863 0
M  V30 4126 H 373.467 -2.40445 -4.41809 0
M  V30 4127 H 373.167 -4.14249 -4.1674 0
M  V30 4128 H 374.691 -3.60422 -4.92877 0
M  V30 4129 H 376.105 -4.86219 -3.03749 0
M  V30 4130 H 374.502 -5.45121 -2.50925 0
M  V30 4131 H 375.572 -4.66097 -1.33723 0
M  V30 4132 N 376.915 0.57481 -1.46744 0
M  V30 4133 C 377.863 1.70435 -1.58286 0
M  V30 4134 C 378.857 1.63287 -0.450956 0
M  V30 4135 O 380.063 1.68685 -0.628121 0
M  V30 4136 H 376.438 0.56364 -0.497809 0
M  V30 4137 H 378.409 1.57833 -2.53242 0
M  V30 4138 C 377.158 3.08815 -1.59776 0
M  V30 4139 H 376.481 3.1499 -2.46214 0
M  V30 4140 H 377.921 3.87588 -1.71905 0
M  V30 4141 C 376.38 3.35301 -0.327812 0
M  V30 4142 O 376.91 3.97511 0.57861 0
M  V30 4143 N 375.116 2.89816 -0.213274 0
M  V30 4144 H 374.663 2.39371 -0.951798 0
M  V30 4145 H 374.621 3.0791 0.63553 0
M  V30 4146 N 378.394 1.34581 0.820102 0
M  V30 4147 C 379.357 1.2628 1.91275 0
M  V30 4148 C 380.357 0.177344 1.59819 0
M  V30 4149 O 381.547 0.430156 1.68806 0
M  V30 4150 C 378.679 0.950327 3.27386 0
M  V30 4151 H 379.872 2.23421 2.00057 0
M  V30 4152 H 377.425 1.1891 1.0144 0
M  V30 4153 H 378.16 -0.0177938 3.24295 0
M  V30 4154 H 377.945 1.73549 3.51601 0
M  V30 4155 H 379.435 0.917492 4.07396 0
M  V30 4156 N 379.872 -1.04064 1.18357 0
M  V30 4157 C 381.1 -1.80916 1.00384 0
M  V30 4158 C 381.515 -1.83414 -0.447738 0
M  V30 4159 O 380.872 -1.26962 -1.31099 0
M  V30 4160 C 380.923 -3.26516 1.55144 0
M  V30 4161 O 380.644 -3.2424 2.94618 0
M  V30 4162 C 382.145 -4.20013 1.41789 0
M  V30 4163 H 379.365 -0.569728 0.354474 0
M  V30 4164 H 381.909 -1.31151 1.56906 0
M  V30 4165 H 380.064 -3.73512 1.02798 0
M  V30 4166 H 380.478 -4.15452 3.20156 0
M  V30 4167 H 381.952 -5.20111 1.84901 0
M  V30 4168 H 382.429 -4.37667 0.36661 0
M  V30 4169 H 383.035 -3.78881 1.93207 0
M  V30 4170 N 381.35 -0.985608 -1.22978 0
M  V30 4171 C 382.598 -0.656087 -1.91154 0
M  V30 4172 C 382.919 0.813561 -1.77218 0
M  V30 4173 O 382.189 1.58244 -1.1548 0
M  V30 4174 H 380.769 -0.239674 -0.707506 0
M  V30 4175 H 383.431 -1.25054 -1.49491 0
M  V30 4176 H 382.527 -0.912253 -2.9847 0
M  V30 4177 N 382.828 1.3818 -0.7579 0
M  V30 4178 C 384.244 1.5353 -0.435972 0
M  V30 4179 C 384.444 1.71961 1.05032 0
M  V30 4180 O 383.5 1.73307 1.83633 0
M  V30 4181 C 384.813 2.73989 -1.23898 0
M  V30 4182 C 386.361 2.87841 -1.22949 0
M  V30 4183 C 386.836 4.11266 -2.01554 0
M  V30 4184 N 388.327 4.18352 -1.98837 0
M  V30 4185 C 389.062 5.12856 -2.5645 0
M  V30 4186 N 388.558 6.13005 -3.22794 0
M  V30 4187 N 390.351 5.05238 -2.46356 0
M  V30 4188 H 382.502 1.24467 -1.7211 0
M  V30 4189 H 384.765 0.604982 -0.729864 0
M  V30 4190 H 384.471 2.66789 -2.29165 0
M  V30 4191 H 384.345 3.67294 -0.858764 0
M  V30 4192 H 386.732 2.9452 -0.184854 0
M  V30 4193 H 386.813 1.95534 -1.64924 0
M  V30 4194 H 386.457 4.05349 -3.06031 0
M  V30 4195 H 386.387 5.02661 -1.5697 0
M  V30 4196 H 388.878 3.46628 -1.50524 0
M  V30 4197 H 389.191 6.81619 -3.64165 0
M  V30 4198 H 387.536 6.13325 -3.2689 0
M  V30 4199 H 390.727 4.25938 -1.9415 0
M  V30 4200 H 390.9 5.78707 -2.91552 0
M  V30 4201 N 384.306 0.507319 1.49211 0
M  V30 4202 C 385.583 -0.0982702 1.95353 0
M  V30 4203 C 385.963 -1.53516 1.449 0
M  V30 4204 O 385.311 -2.18594 0.66551 0
M  V30 4205 C 385.521 -0.00440283 3.49 0
M  V30 4206 C 386.869 -0.175147 4.24239 0
M  V30 4207 O 387.893 -0.0792891 3.56112 0
M  V30 4208 O 386.752 -0.37276 5.45227 0
M  V30 4209 H 383.846 -0.0918236 0.821887 0
M  V30 4210 H 386.392 0.570307 1.5983 0
M  V30 4211 H 385.164 0.997402 3.78375 0
M  V30 4212 H 384.787 -0.712845 3.91158 0
M  V30 4213 N 385.784 -1.5574 0.241426 0
M  V30 4214 C 386.714 -2.24133 -0.654722 0
M  V30 4215 C 387.695 -1.21974 -1.1856 0
M  V30 4216 O 388.88 -1.50612 -1.22595 0
M  V30 4217 C 386.01 -2.93659 -1.85423 0
M  V30 4218 C 384.964 -4.0246 -1.45636 0
M  V30 4219 C 384.29 -4.59383 -2.73626 0
M  V30 4220 C 385.59 -5.18468 -0.631506 0
M  V30 4221 H 387.284 -2.99281 -0.0844353 0
M  V30 4222 H 384.83 -1.43947 -0.0391707 0
M  V30 4223 H 386.783 -3.40203 -2.48676 0
M  V30 4224 H 385.507 -2.15991 -2.44981 0
M  V30 4225 H 384.166 -3.56676 -0.847202 0
M  V30 4226 H 383.814 -3.78422 -3.3137 0
M  V30 4227 H 383.514 -5.32826 -2.4773 0
M  V30 4228 H 385.038 -5.08658 -3.37786 0
M  V30 4229 H 386.452 -5.61272 -1.1682 0
M  V30 4230 H 384.849 -5.98266 -0.468831 0
M  V30 4231 H 385.919 -4.8358 0.357506 0
M  V30 4232 N 387.262 0.0317525 -1.57568 0
M  V30 4233 C 388.192 1.03274 -2.0942 0
M  V30 4234 C 389.173 1.3788 -0.996143 0
M  V30 4235 O 390.358 1.46811 -1.27122 0
M  V30 4236 C 387.488 2.33448 -2.57137 0
M  V30 4237 C 386.442 2.13091 -3.71182 0
M  V30 4238 C 385.768 3.49001 -4.05095 0
M  V30 4239 C 387.068 1.51928 -4.99715 0
M  V30 4240 H 388.762 0.60112 -2.93303 0
M  V30 4241 H 386.308 0.287705 -1.41097 0
M  V30 4242 H 388.261 3.03802 -2.92032 0
M  V30 4243 H 386.985 2.78665 -1.70333 0
M  V30 4244 H 385.644 1.45171 -3.36632 0
M  V30 4245 H 385.292 3.91862 -3.15362 0
M  V30 4246 H 384.992 3.36207 -4.81911 0
M  V30 4247 H 386.516 4.20721 -4.42522 0
M  V30 4248 H 387.93 2.12196 -5.32584 0
M  V30 4249 H 386.327 1.49716 -5.81124 0
M  V30 4250 H 387.397 0.484811 -4.8247 0
M  V30 4251 N 388.74 1.54641 0.303973 0
M  V30 4252 C 389.672 1.81754 1.39636 0
M  V30 4253 C 390.685 0.70035 1.46966 0
M  V30 4254 O 391.874 0.97778 1.49338 0
M  V30 4255 C 388.974 1.93785 2.7803 0
M  V30 4256 C 388.147 3.24156 2.93669 0
M  V30 4257 C 387.206 3.26641 4.12544 0
M  V30 4258 O 386.232 4.00187 4.04771 0
M  V30 4259 N 387.434 2.5182 5.23036 0
M  V30 4260 H 390.199 2.76031 1.16734 0
M  V30 4261 H 387.76 1.54178 0.494033 0
M  V30 4262 H 389.752 1.92852 3.55795 0
M  V30 4263 H 388.322 1.06515 2.93893 0
M  V30 4264 H 387.542 3.37887 2.03042 0
M  V30 4265 H 388.83 4.10195 3.01027 0
M  V30 4266 H 388.228 1.91692 5.32232 0
M  V30 4267 H 386.785 2.56644 5.99147 0
M  V30 4268 N 390.218 -0.567019 1.47046 0
M  V30 4269 C 391.166 -1.69593 1.59188 0
M  V30 4270 C 392.16 -1.63046 0.459609 0
M  V30 4271 O 393.366 -1.6835 0.637058 0
M  V30 4272 H 389.741 -0.560993 0.500791 0
M  V30 4273 H 391.712 -1.56488 2.54075 0
M  V30 4274 C 390.461 -3.07964 1.61411 0
M  V30 4275 H 389.784 -3.13679 2.47881 0
M  V30 4276 H 391.224 -3.86671 1.73958 0
M  V30 4277 C 389.683 -3.35123 0.34559 0
M  V30 4278 O 390.213 -3.97812 -0.557521 0
M  V30 4279 N 388.419 -2.89699 0.22864 0
M  V30 4280 H 387.966 -2.38863 0.964479 0
M  V30 4281 H 387.924 -3.08242 -0.619192 0
M  V30 4282 N 391.696 -1.35014 -0.812953 0
M  V30 4283 C 392.626 -1.30069 -1.93919 0
M  V30 4284 C 393.607 -0.176275 -1.69184 0
M  V30 4285 O 394.792 -0.370227 -1.90638 0
M  V30 4286 C 391.922 -1.06547 -3.30552 0
M  V30 4287 C 390.876 -2.15561 -3.69753 0
M  V30 4288 C 390.202 -1.77214 -5.04479 0
M  V30 4289 C 391.502 -3.57476 -3.808 0
M  V30 4290 H 393.196 -2.24303 -1.98314 0
M  V30 4291 H 390.742 -1.07977 -0.952736 0
M  V30 4292 H 392.695 -1.01729 -4.08937 0
M  V30 4293 H 391.419 -0.0875719 -3.26483 0
M  V30 4294 H 390.078 -2.19466 -2.9365 0
M  V30 4295 H 389.726 -0.780589 -4.96906 0
M  V30 4296 H 389.426 -2.50184 -5.31678 0
M  V30 4297 H 390.95 -1.7391 -5.8531 0
M  V30 4298 H 392.364 -3.55929 -4.4943 0
M  V30 4299 H 390.761 -4.29152 -4.19462 0
M  V30 4300 H 391.831 -3.94091 -2.82525 0
M  V30 4301 N 393.175 1.03435 -1.18907 0
M  V30 4302 C 394.105 2.13503 -0.945448 0
M  V30 4303 C 395.086 1.69682 0.119189 0
M  V30 4304 O 396.271 1.94169 -0.034707 0
M  V30 4305 C 393.401 3.44004 -0.477316 0
M  V30 4306 C 392.355 4.0148 -1.48316 0
M  V30 4307 C 391.681 5.27537 -0.872311 0
M  V30 4308 C 392.981 4.36921 -2.86177 0
M  V30 4309 H 394.675 2.34141 -1.86597 0
M  V30 4310 H 392.221 1.12523 -0.898584 0
M  V30 4311 H 394.174 4.20372 -0.294204 0
M  V30 4312 H 392.898 3.23072 0.478786 0
M  V30 4313 H 391.557 3.27201 -1.65332 0
M  V30 4314 H 391.205 5.02917 0.0911752 0
M  V30 4315 H 390.905 5.66954 -1.54393 0
M  V30 4316 H 392.429 6.06576 -0.699871 0
M  V30 4317 H 393.843 5.04248 -2.72776 0
M  V30 4318 H 392.24 4.87405 -3.50081 0
M  V30 4319 H 393.31 3.46466 -3.39248 0
M  V30 4320 N 394.653 0.992116 1.22453 0
M  V30 4321 C 395.6 0.541731 2.24352 0
M  V30 4322 C 396.57 -0.425519 1.60557 0
M  V30 4323 O 397.755 -0.330453 1.87917 0
M  V30 4324 C 394.895 -0.138248 3.44823 0
M  V30 4325 C 394.008 0.870649 4.23136 0
M  V30 4326 C 393.143 0.164269 5.30946 0
M  V30 4327 C 392.182 1.16159 6.00977 0
M  V30 4328 N 391.319 0.483568 7.00433 0
M  V30 4329 H 396.159 1.41541 2.62241 0
M  V30 4330 H 393.696 0.709013 1.28885 0
M  V30 4331 H 395.654 -0.5494 4.13567 0
M  V30 4332 H 394.284 -0.975721 3.077 0
M  V30 4333 H 393.336 1.40013 3.53696 0
M  V30 4334 H 394.648 1.63014 4.7141 0
M  V30 4335 H 393.802 -0.303653 6.0594 0
M  V30 4336 H 392.541 -0.627733 4.83643 0
M  V30 4337 H 391.546 1.64015 5.24766 0
M  V30 4338 H 392.771 1.95445 6.50368 0
M  V30 4339 H 390.717 -0.289012 6.55363 0
M  V30 4340 H 390.634 1.18152 7.4671 0
M  V30 4341 H 391.902 0.0384219 7.79491 0
M  V30 4342 N 396.131 -1.37776 0.765217 0
M  V30 4343 C 397.371 -2.01691 0.331669 0
M  V30 4344 C 397.735 -1.59432 -1.06983 0
M  V30 4345 O 398.936 -2.15761 -1.60314 0
M  V30 4346 C 397.207 -3.54385 0.463261 0
M  V30 4347 S 398.766 -4.38652 0.114011 0
M  V30 4348 H 395.584 -0.699387 0.127979 0
M  V30 4349 H 398.186 -1.68084 0.998396 0
M  V30 4350 H 396.89 -3.82629 1.48401 0
M  V30 4351 H 396.421 -3.92783 -0.220246 0
M  V30 4352 H 398.436 -4.84021 -1.09261 0
M  V30 4353 N 397.609 -0.515225 -1.4894 0
M  V30 4354 C 398.557 0.269115 -2.31038 0
M  V30 4355 C 399.551 0.949443 -1.40292 0
M  V30 4356 O 400.757 0.87551 -1.57273 0
M  V30 4357 H 397.132 0.10565 -0.744542 0
M  V30 4358 H 399.103 -0.443096 -2.95092 0
M  V30 4359 C 397.852 1.31213 -3.21991 0
M  V30 4360 H 397.175 0.798034 -3.91754 0
M  V30 4361 H 398.615 1.83263 -3.82349 0
M  V30 4362 C 397.074 2.33791 -2.42576 0
M  V30 4363 O 397.604 3.3995 -2.14003 0
M  V30 4364 N 395.81 2.06625 -2.0434 0
M  V30 4365 H 395.357 1.20314 -2.27777 0
M  V30 4366 H 395.315 2.75483 -1.51514 0
M  V30 4367 N 399.087 1.5561 -0.249682 0
M  V30 4368 C 400.498 1.84979 0.252949 0
M  V30 4369 C 400.849 1.17153 1.57384 0
M  V30 4370 O 399.974 0.450884 2.11651 0
M  V30 4371 C 400.569 3.35584 0.465732 0
M  V30 4372 C 399.128 3.65169 0.912624 0
M  V30 4373 C 398.275 2.77299 -0.00859085 0
M  V30 4374 H 401.226 1.51513 -0.47217 0
M  V30 4375 H 401.247 3.57313 1.30795 0
M  V30 4376 H 400.759 3.8492 -0.49579 0
M  V30 4377 H 398.86 3.21312 1.88652 0
M  V30 4378 H 398.973 4.72912 0.767559 0
M  V30 4379 H 397.337 2.49678 0.50327 0
M  V30 4380 H 398.12 3.29442 -0.965537 0
M  V30 4381 N 400.565 -0.0233959 1.57583 0
M  V30 4382 C 401.811 -0.714119 1.89811 0
M  V30 4383 C 402.144 -1.74702 0.848113 0
M  V30 4384 O 401.419 -1.94023 -0.136135 0
M  V30 4385 C 401.702 -1.37853 3.32669 0
M  V30 4386 C 401.555 -0.358764 4.48367 0
M  V30 4387 C 402.874 -2.31101 3.7454 0
M  V30 4388 H 399.993 -0.25814 0.690314 0
M  V30 4389 H 402.635 0.0230927 1.89986 0
M  V30 4390 H 400.785 -2.00689 3.3265 0
M  V30 4391 H 402.457 0.268115 4.6052 0
M  V30 4392 H 400.7 0.321387 4.32608 0
M  V30 4393 H 401.371 -0.862242 5.45224 0
M  V30 4394 H 403.847 -1.78304 3.75961 0
M  V30 4395 H 402.723 -2.74567 4.75294 0
M  V30 4396 H 402.984 -3.18018 3.0711 0
M  V30 4397 N 402.043 -1.548 -0.295768 0
M  V30 4398 C 402.975 -1.82492 -1.3867 0
M  V30 4399 C 403.988 -0.708134 -1.46592 0
M  V30 4400 O 405.177 -0.985686 -1.48817 0
M  V30 4401 C 402.277 -1.95256 -2.76999 0
M  V30 4402 C 401.45 -3.25709 -2.91946 0
M  V30 4403 C 400.509 -3.28824 -4.10806 0
M  V30 4404 O 399.535 -4.02328 -4.02643 0
M  V30 4405 N 400.737 -2.5459 -5.21694 0
M  V30 4406 H 403.502 -2.76646 -1.15269 0
M  V30 4407 H 401.063 -1.54438 -0.485849 0
M  V30 4408 H 403.055 -1.94736 -3.54768 0
M  V30 4409 H 401.625 -1.08072 -2.93324 0
M  V30 4410 H 400.845 -3.38959 -2.01247 0
M  V30 4411 H 402.133 -4.11786 -2.98847 0
M  V30 4412 H 401.531 -1.94512 -5.31208 0
M  V30 4413 H 400.088 -2.59818 -5.97778 0
M  V30 4414 N 403.521 0.559213 -1.47345 0
M  V30 4415 C 404.937 0.884943 -1.32819 0
M  V30 4416 C 405.137 1.98988 -0.317173 0
M  V30 4417 O 404.193 2.51031 0.272011 0
M  V30 4418 C 405.506 1.28007 -2.72093 0
M  V30 4419 C 407.054 1.39161 -2.80363 0
M  V30 4420 C 407.529 1.82031 -4.20272 0
M  V30 4421 N 409.02 1.89185 -4.22804 0
M  V30 4422 C 409.755 2.2368 -5.27973 0
M  V30 4423 N 409.251 2.56802 -6.43447 0
M  V30 4424 N 411.044 2.24436 -5.15349 0
M  V30 4425 H 403.195 -0.170304 -2.11716 0
M  V30 4426 H 405.458 -0.0135247 -0.947904 0
M  V30 4427 H 405.164 0.542027 -3.47498 0
M  V30 4428 H 405.038 2.23665 -3.03733 0
M  V30 4429 H 407.425 2.12048 -2.05231 0
M  V30 4430 H 407.506 0.41696 -2.52379 0
M  V30 4431 H 407.15 1.09715 -4.95908 0
M  V30 4432 H 407.08 2.80495 -4.45679 0
M  V30 4433 H 409.571 1.65982 -3.39497 0
M  V30 4434 H 409.884 2.82144 -7.19454 0
M  V30 4435 H 408.229 2.54387 -6.46771 0
M  V30 4436 H 411.42 1.97998 -4.24163 0
M  V30 4437 H 411.593 2.50989 -5.97418 0
M  V30 4438 N 404.999 1.35443 0.805782 0
M  V30 4439 C 406.248 1.28097 1.55801 0
M  V30 4440 C 406.561 -0.142428 1.95081 0
M  V30 4441 O 407.767 -0.33817 2.69386 0
M  V30 4442 C 406.223 2.24653 2.81174 0
M  V30 4443 C 405.831 3.72342 2.49129 0
M  V30 4444 C 407.575 2.2625 3.59181 0
M  V30 4445 C 405.482 4.60719 3.70799 0
M  V30 4446 H 404.412 0.475937 0.584808 0
M  V30 4447 H 407.063 1.60712 0.885661 0
M  V30 4448 H 405.445 1.85011 3.50124 0
M  V30 4449 H 406.619 4.20624 1.88181 0
M  V30 4450 H 404.934 3.73361 1.84366 0
M  V30 4451 H 407.531 2.89495 4.49552 0
M  V30 4452 H 407.874 1.26647 3.96568 0
M  V30 4453 H 408.407 2.64426 2.97193 0
M  V30 4454 H 405.146 5.61324 3.3852 0
M  V30 4455 H 404.666 4.17163 4.3097 0
M  V30 4456 H 406.345 4.76182 4.38018 0
M  V30 4457 N 406.477 -1.02803 1.19454 0
M  V30 4458 C 407.702 -1.80378 1.02364 0
M  V30 4459 C 408.127 -1.83282 -0.423007 0
M  V30 4460 O 407.485 -1.25945 -1.30413 0
M  V30 4461 C 407.533 -3.23248 1.59821 0
M  V30 4462 O 406.637 -4.04 0.828105 0
M  V30 4463 H 405.978 -0.556799 0.361761 0
M  V30 4464 H 408.508 -1.29385 1.58495 0
M  V30 4465 H 408.518 -3.73994 1.63073 0
M  V30 4466 H 407.193 -3.2045 2.65113 0
M  V30 4467 H 405.77 -3.62635 0.86891 0
M  V30 4468 N 407.956 -0.998596 -1.21925 0
M  V30 4469 C 408.919 -0.558679 -2.22287 0
M  V30 4470 C 409.919 0.361525 -1.56683 0
M  V30 4471 O 411.109 0.152695 -1.73529 0
M  V30 4472 C 408.241 0.18661 -3.40389 0
M  V30 4473 H 409.434 -1.4463 -2.62721 0
M  V30 4474 H 406.987 -0.786413 -1.35075 0
M  V30 4475 H 407.722 1.08996 -3.05435 0
M  V30 4476 H 407.507 -0.474188 -3.89222 0
M  V30 4477 H 408.997 0.482367 -4.14805 0
M  V30 4478 N 409.434 1.37368 -0.772513 0
M  V30 4479 C 410.344 2.34053 -0.160081 0
M  V30 4480 C 411.36 1.60216 0.678728 0
M  V30 4481 O 412.536 1.92303 0.59847 0
M  V30 4482 C 409.601 3.3939 0.708182 0
M  V30 4483 C 408.662 4.29048 -0.147172 0
M  V30 4484 C 407.895 5.29354 0.679744 0
M  V30 4485 O 408.118 5.3723 1.91678 0
M  V30 4486 O 407.052 6.01835 0.0885444 0
M  V30 4487 H 410.878 2.88159 -0.959053 0
M  V30 4488 H 408.463 1.39543 -0.533685 0
M  V30 4489 H 410.345 4.03839 1.20384 0
M  V30 4490 H 409.02 2.8761 1.48533 0
M  V30 4491 H 407.927 3.67697 -0.689205 0
M  V30 4492 H 409.26 4.84134 -0.887423 0
M  V30 4493 N 410.912 0.523116 1.48665 0
M  V30 4494 C 411.822 -0.247406 2.33292 0
M  V30 4495 C 412.838 -0.945769 1.46052 0
M  V30 4496 O 414.014 -0.922253 1.79043 0
M  V30 4497 C 411.079 -1.28487 3.22012 0
M  V30 4498 C 410.14 -0.597592 4.2512 0
M  V30 4499 C 409.373 -1.58563 5.09601 0
M  V30 4500 O 409.596 -2.81763 4.95949 0
M  V30 4501 O 408.53 -1.12879 5.91221 0
M  V30 4502 H 412.356 0.445869 3.00409 0
M  V30 4503 H 409.941 0.284128 1.46673 0
M  V30 4504 H 411.823 -1.88459 3.7691 0
M  V30 4505 H 410.498 -1.96068 2.57564 0
M  V30 4506 H 409.405 0.0424407 3.74076 0
M  V30 4507 H 410.738 0.0361517 4.92187 0
M  V30 4508 N 412.39 -1.55475 0.257931 0
M  V30 4509 C 413.353 -2.20551 -0.623706 0
M  V30 4510 C 414.353 -1.17809 -1.09443 0
M  V30 4511 O 415.543 -1.42823 -0.997362 0
M  V30 4512 C 412.675 -2.85784 -1.8585 0
M  V30 4513 H 413.868 -2.99848 -0.0557743 0
M  V30 4514 H 411.421 -1.56298 0.0084422 0
M  V30 4515 H 412.156 -2.10453 -2.46739 0
M  V30 4516 H 411.941 -3.61057 -1.52907 0
M  V30 4517 H 413.431 -3.35553 -2.48584 0
M  V30 4518 N 413.868 0.0150385 -1.57593 0
M  V30 4519 C 414.798 1.01047 -2.10503 0
M  V30 4520 C 415.779 1.36816 -1.01071 0
M  V30 4521 O 416.964 1.45455 -1.28672 0
M  V30 4522 C 414.094 2.30708 -2.59598 0
M  V30 4523 C 413.048 2.09142 -3.73421 0
M  V30 4524 C 412.374 3.44685 -4.08774 0
M  V30 4525 C 413.674 1.46619 -5.01298 0
M  V30 4526 H 415.368 0.569978 -2.93925 0
M  V30 4527 H 412.914 0.272724 -1.41394 0
M  V30 4528 H 414.867 3.00687 -2.95238 0
M  V30 4529 H 413.591 2.76843 -1.73279 0
M  V30 4530 H 412.25 1.41592 -3.38153 0
M  V30 4531 H 411.898 3.88495 -3.195 0
M  V30 4532 H 411.598 3.31077 -4.8545 0
M  V30 4533 H 413.122 4.16004 -4.4696 0
M  V30 4534 H 414.536 2.06535 -5.34805 0
M  V30 4535 H 412.933 1.43544 -5.82679 0
M  V30 4536 H 414.003 0.433611 -4.82957 0
M  V30 4537 N 415.346 1.54954 0.287554 0
M  V30 4538 C 416.278 1.83224 1.37701 0
M  V30 4539 C 417.291 0.715898 1.46215 0
M  V30 4540 O 418.48 0.993565 1.48292 0
M  V30 4541 C 415.58 1.96723 2.75959 0
M  V30 4542 C 414.753 3.27253 2.90215 0
M  V30 4543 C 413.812 3.30998 4.09056 0
M  V30 4544 O 412.838 4.04457 4.00503 0
M  V30 4545 N 414.04 2.57353 5.20336 0
M  V30 4546 H 416.805 2.77254 1.138 0
M  V30 4547 H 414.366 1.54694 0.477652 0
M  V30 4548 H 416.358 1.96615 3.5373 0
M  V30 4549 H 414.928 1.09626 2.92747 0
M  V30 4550 H 414.148 3.40022 1.99447 0
M  V30 4551 H 415.436 4.13365 2.96659 0
M  V30 4552 H 414.834 1.97327 5.30169 0
M  V30 4553 H 413.391 2.62984 5.96391 0
M  V30 4554 N 416.824 -0.551391 1.4764 0
M  V30 4555 C 417.774 -1.65362 1.56969 0
M  V30 4556 C 418.758 -1.55098 0.428189 0
M  V30 4557 O 419.95 -1.63481 0.678441 0
M  V30 4558 C 417.079 -3.04129 1.59249 0
M  V30 4559 C 416.165 -3.19576 2.78804 0
M  V30 4560 N 416.556 -3.05067 4.03445 0
M  V30 4561 C 414.854 -3.50588 2.75688 0
M  V30 4562 C 415.555 -3.2336 4.83543 0
M  V30 4563 N 414.531 -3.4996 4.15968 0
M  V30 4564 H 418.333 -1.52722 2.51104 0
M  V30 4565 H 415.847 -0.756303 1.43714 0
M  V30 4566 H 417.844 -3.83278 1.64024 0
M  V30 4567 H 416.504 -3.17877 0.662148 0
M  V30 4568 H 417.515 -2.82273 4.34215 0
M  V30 4569 H 414.192 -3.70827 1.91817 0
M  V30 4570 H 415.582 -3.17061 5.92387 0
M  V30 4571 N 418.302 -1.35869 -0.798587 0
M  V30 4572 C 419.713 -1.26498 -1.37314 0
M  V30 4573 C 420.064 0.0991899 -1.95949 0
M  V30 4574 O 419.189 1.0004 -1.91888 0
M  V30 4575 C 419.784 -2.29054 -2.49639 0
M  V30 4576 C 418.343 -2.234 -3.02935 0
M  V30 4577 C 417.49 -2.14329 -1.75949 0
M  V30 4578 H 420.441 -1.46881 -0.600971 0
M  V30 4579 H 420.462 -1.92166 -3.28409 0
M  V30 4580 H 419.974 -3.2833 -2.06933 0
M  V30 4581 H 418.075 -1.27562 -3.50084 0
M  V30 4582 H 418.188 -3.15703 -3.60372 0
M  V30 4583 H 416.552 -1.60435 -1.9782 0
M  V30 4584 H 417.335 -3.15477 -1.35384 0
M  V30 4585 N 419.78 1.02168 -1.19998 0
M  V30 4586 C 421.01 1.79036 -1.031 0
M  V30 4587 C 421.418 1.84409 0.423078 0
M  V30 4588 O 420.761 1.29228 1.30559 0
M  V30 4589 C 420.823 3.25185 -1.53281 0
M  V30 4590 C 420.487 3.43431 -3.01503 0
M  V30 4591 C 421.484 3.33063 -3.99206 0
M  V30 4592 C 419.169 3.69412 -3.40353 0
M  V30 4593 C 421.163 3.48413 -5.33748 0
M  V30 4594 C 418.85 3.84406 -4.75053 0
M  V30 4595 C 419.848 3.7391 -5.71559 0
M  V30 4596 O 419.536 3.88452 -7.03818 0
M  V30 4597 H 419.268 0.570043 -0.363355 0
M  V30 4598 H 421.822 1.29524 -1.59414 0
M  V30 4599 H 420.052 3.75756 -0.913483 0
M  V30 4600 H 421.741 3.83671 -1.32481 0
M  V30 4601 H 422.507 3.12934 -3.70537 0
M  V30 4602 H 418.386 3.76671 -2.65782 0
M  V30 4603 H 421.93 3.40137 -6.09059 0
M  V30 4604 H 417.827 4.04035 -5.03415 0
M  V30 4605 H 418.595 4.055 -7.10993 0
M  V30 4606 N 421.258 1.00505 1.21394 0
M  V30 4607 C 422.505 0.687774 1.90462 0
M  V30 4608 C 422.833 -0.78147 1.7811 0
M  V30 4609 O 422.088 -1.58208 1.1519 0
M  V30 4610 C 422.387 1.0546 3.41486 0
M  V30 4611 C 422.053 2.51812 3.74034 0
M  V30 4612 C 420.715 2.91804 3.82628 0
M  V30 4613 C 423.067 3.46614 3.8924 0
M  V30 4614 C 420.395 4.2556 4.03876 0
M  V30 4615 C 422.747 4.80044 4.11995 0
M  V30 4616 C 421.411 5.19759 4.18816 0
M  V30 4617 H 420.681 0.251674 0.696951 0
M  V30 4618 H 423.328 1.26349 1.43903 0
M  V30 4619 H 421.633 0.397133 3.89782 0
M  V30 4620 H 423.33 0.786976 3.93202 0
M  V30 4621 H 419.92 2.1982 3.67936 0
M  V30 4622 H 424.104 3.16883 3.81967 0
M  V30 4623 H 419.36 4.55901 4.07387 0
M  V30 4624 H 423.534 5.53439 4.22704 0
M  V30 4625 H 421.161 6.23418 4.35033 0
M  V30 4626 N 422.737 -1.36956 0.779787 0
M  V30 4627 C 423.962 -2.04283 0.358224 0
M  V30 4628 C 424.387 -1.58422 -1.01411 0
M  V30 4629 O 423.745 -0.748179 -1.65142 0
M  V30 4630 C 423.793 -3.58152 0.419479 0
M  V30 4631 O 422.897 -4.08342 -0.577142 0
M  V30 4632 H 422.238 -0.645967 0.153698 0
M  V30 4633 H 424.768 -1.75108 1.05822 0
M  V30 4634 H 424.778 -4.07041 0.279636 0
M  V30 4635 H 423.453 -3.90886 1.42061 0
M  V30 4636 H 422.03 -3.70751 -0.399755 0
M  V30 4637 N 424.215 -0.530993 -1.48385 0
M  V30 4638 C 425.492 0.0671788 -1.95485 0
M  V30 4639 C 425.872 1.51191 -1.47324 0
M  V30 4640 O 425.22 2.17507 -0.700202 0
M  V30 4641 C 425.43 -0.0511206 -3.48963 0
M  V30 4642 C 426.778 0.107632 -4.24464 0
M  V30 4643 O 427.802 0.0226248 -3.56193 0
M  V30 4644 O 426.661 0.285972 -5.45751 0
M  V30 4645 H 423.755 0.0787365 -0.823243 0
M  V30 4646 H 426.301 -0.595662 -1.58902 0
M  V30 4647 H 425.073 -1.05747 -3.7674 0
M  V30 4648 H 424.696 0.650525 -3.92242 0
M  V30 4649 N 425.693 1.55336 -0.266172 0
M  V30 4650 C 426.94 1.99397 0.353158 0
M  V30 4651 C 427.268 1.15451 1.56529 0
M  V30 4652 O 426.523 0.209974 1.9457 0
M  V30 4653 C 426.822 3.48606 0.787957 0
M  V30 4654 C 426.488 4.49773 -0.318541 0
M  V30 4655 C 425.15 4.77158 -0.62239 0
M  V30 4656 C 427.502 5.10212 -1.06459 0
M  V30 4657 C 424.83 5.62251 -1.67602 0
M  V30 4658 C 427.182 5.96449 -2.10788 0
M  V30 4659 C 425.846 6.22158 -2.41817 0
M  V30 4660 H 425.116 0.729644 0.12923 0
M  V30 4661 H 427.763 1.87732 -0.37802 0
M  V30 4662 H 426.068 3.57701 1.59866 0
M  V30 4663 H 427.765 3.80098 1.27775 0
M  V30 4664 H 424.355 4.2854 -0.0715925 0
M  V30 4665 H 428.539 4.89086 -0.843098 0
M  V30 4666 H 423.795 5.80419 -1.92155 0
M  V30 4667 H 427.969 6.42317 -2.69076 0
M  V30 4668 H 425.596 6.87888 -3.23596 0
M  V30 4669 N 427.171 -0.0066808 1.57599 0
M  V30 4670 C 428.411 -0.697501 1.92131 0
M  V30 4671 C 428.775 -1.71306 0.867071 0
M  V30 4672 O 429.976 -2.45377 1.09743 0
M  V30 4673 C 428.247 -1.32978 3.3174 0
M  V30 4674 S 429.806 -2.04665 3.88146 0
M  V30 4675 H 426.624 -0.230555 0.672581 0
M  V30 4676 H 429.226 0.0484026 1.9544 0
M  V30 4677 H 427.93 -0.57772 4.06313 0
M  V30 4678 H 427.461 -2.11376 3.31789 0
M  V30 4679 H 429.476 -3.32097 3.68682 0
M  V30 4680 N 428.649 -1.55105 -0.279332 0
M  V30 4681 C 430.06 -1.66186 -0.850832 0
M  V30 4682 C 430.411 -0.584707 -1.87285 0
M  V30 4683 O 429.536 0.274919 -2.14647 0
M  V30 4684 C 430.131 -3.01264 -1.55001 0
M  V30 4685 C 428.69 -3.14394 -2.06963 0
M  V30 4686 C 427.837 -2.61959 -0.909536 0
M  V30 4687 H 430.788 -1.58602 -0.0558235 0
M  V30 4688 H 430.809 -2.93899 -2.41669 0
M  V30 4689 H 430.321 -3.7964 -0.805931 0
M  V30 4690 H 428.422 -2.4078 -2.84352 0
M  V30 4691 H 428.535 -4.20867 -2.28928 0
M  V30 4692 H 426.899 -2.18957 -1.30116 0
M  V30 4693 H 427.682 -3.42833 -0.179062 0
M  V30 4694 N 430.127 0.543554 -1.4793 0
M  V30 4695 C 431.538 1.12561 -1.48953 0
M  V30 4696 C 431.889 1.94578 -0.251754 0
M  V30 4697 O 431.014 2.0665 0.642255 0
M  V30 4698 C 431.609 2.04801 -2.69892 0
M  V30 4699 C 430.168 2.58251 -2.73831 0
M  V30 4700 C 429.315 1.34918 -2.42265 0
M  V30 4701 H 432.266 0.32947 -1.55242 0
M  V30 4702 H 432.287 2.88886 -2.47639 0
M  V30 4703 H 431.799 1.4508 -3.59963 0
M  V30 4704 H 429.9 3.21732 -1.87934 0
M  V30 4705 H 430.013 2.98312 -3.74895 0
M  V30 4706 H 428.377 1.66046 -1.93134 0
M  V30 4707 H 429.16 0.769693 -3.3456 0
M  V30 4708 O 431.644 1.46095 0.688375 0
M  V30 4709 H 432.335 1.39822 1.34051 0
M  V30 END ATOM
M  V30 BEGIN BOND
M  V30 END BOND
M  V30 END CTAB
M  END
$$$$
