drugbank_target|Q00532 Cyclin-dependent kinase-like 1 (DB12010)
 OpenBabel12092121143D

  0  0  0     0  0            999 V3000
M  V30 BEGIN CTAB
M  V30 COUNTS 5932 6008 0 0 0
M  V30 BEGIN ATOM
M  V30 1 H -0.908 1.98254 -0.117106 0
M  V30 2 N 0 1.576 0 0
M  V30 3 C 0.933 2.03868 1.02534 0
M  V30 4 C 1.911 0.928543 1.3348 0
M  V30 5 O 3.095 1.19667 1.45644 0
M  V30 6 C 0.222 2.43627 2.35294 0
M  V30 7 C -0.732 3.65373 2.2001 0
M  V30 8 S 0.101 5.13292 1.52614 0
M  V30 9 C 1.257 5.56322 2.86805 0
M  V30 10 H 1.49 2.90518 0.631377 0
M  V30 11 H -0.977 1.52953 0.210867 0
M  V30 12 H 0.981 2.67203 3.11629 0
M  V30 13 H -0.358 1.57376 2.7183 0
M  V30 14 H -1.165 3.90944 3.18086 0
M  V30 15 H -1.563 3.418 1.51819 0
M  V30 16 H 0.729 5.58782 3.83104 0
M  V30 17 H 1.672 6.56266 2.65933 0
M  V30 18 H 2.08 4.83886 2.90714 0
M  V30 19 N 1.4781 -0.272755 1.55222 0
M  V30 20 C 2.4111 -1.3627 1.83046 0
M  V30 21 C 3.3891 -1.47536 0.683521 0
M  V30 22 O 4.5731 -1.64157 0.926545 0
M  V30 23 C 1.7001 -2.73908 1.99229 0
M  V30 24 C 0.7461 -2.79925 3.21783 0
M  V30 25 S 1.5791 -2.39146 4.79134 0
M  V30 26 C 2.7351 -3.78758 4.9829 0
M  V30 27 H 2.9681 -1.12464 2.75207 0
M  V30 28 H 0.5011 -0.472398 1.46996 0
M  V30 29 H 2.4591 -3.53171 2.09238 0
M  V30 30 H 1.1201 -2.94965 1.07956 0
M  V30 31 H 0.3131 -3.80946 3.29994 0
M  V30 32 H -0.0849 -2.08683 3.10367 0
M  V30 33 H 2.2071 -4.7403 4.84047 0
M  V30 34 H 3.1501 -3.75499 6.00338 0
M  V30 35 H 3.5581 -3.70072 4.26271 0
M  V30 36 N 2.9562 -1.48159 -0.537278 0
M  V30 37 C 3.8662 -1.64807 -1.6696 0
M  V30 38 C 4.8822 -0.530651 -1.65711 0
M  V30 39 O 6.0582 -0.800784 -1.84796 0
M  V30 40 C 3.1232 -1.67708 -3.03438 0
M  V30 41 C 2.1842 -2.91025 -3.156 0
M  V30 42 C 1.4172 -2.93778 -4.45567 0
M  V30 43 O 1.6402 -2.05153 -5.3223 0
M  V30 44 O 0.5742 -3.85868 -4.61941 0
M  V30 45 H 4.4002 -2.6066 -1.55853 0
M  V30 46 H 1.9852 -1.31475 -0.709549 0
M  V30 47 H 3.8672 -1.7218 -3.84619 0
M  V30 48 H 2.5422 -0.750278 -3.14885 0
M  V30 49 H 1.4492 -2.92089 -2.33741 0
M  V30 50 H 2.7822 -3.83065 -3.09066 0
M  V30 51 N 4.4343 0.785586 -1.36625 0
M  V30 52 C 5.3813 1.89838 -1.31264 0
M  V30 53 C 6.3513 1.65115 -0.180633 0
M  V30 54 O 7.5363 1.87222 -0.36777 0
M  V30 55 C 4.6763 3.26706 -1.11163 0
M  V30 56 C 3.7893 3.63476 -2.33472 0
M  V30 57 C 2.9243 4.89481 -2.06353 0
M  V30 58 C 1.9633 5.18941 -3.24602 0
M  V30 59 N 1.1003 6.36131 -2.97123 0
M  V30 60 H 5.9403 1.93756 -2.26413 0
M  V30 61 H 3.4773 0.947454 -1.12524 0
M  V30 62 H 5.4353 4.05639 -0.975337 0
M  V30 63 H 4.0653 3.222 -0.196674 0
M  V30 64 H 3.1173 2.79636 -2.57891 0
M  V30 65 H 4.4293 3.81193 -3.21704 0
M  V30 66 H 3.5833 5.76288 -1.89675 0
M  V30 67 H 2.3223 4.73841 -1.15437 0
M  V30 68 H 1.3273 4.30615 -3.41834 0
M  V30 69 H 2.5523 5.36498 -4.16349 0
M  V30 70 H 0.4983 6.21875 -2.08823 0
M  V30 71 H 0.4153 6.54198 -3.78894 0
M  V30 72 H 1.6833 7.2591 -2.84033 0
M  V30 73 N 5.9124 1.20967 1.01018 0
M  V30 74 C 7.1424 1.04803 1.78044 0
M  V30 75 C 7.5504 -0.405462 1.84804 0
M  V30 76 O 6.8934 -1.2932 1.30468 0
M  V30 77 C 6.9554 1.56377 3.23707 0
M  V30 78 C 6.6194 3.04767 3.40538 0
M  V30 79 C 7.6164 4.02366 3.29239 0
M  V30 80 C 5.3014 3.43862 3.66147 0
M  V30 81 C 7.2954 5.37049 3.43304 0
M  V30 82 C 4.9824 4.78699 3.79855 0
M  V30 83 C 5.9804 5.75101 3.68439 0
M  V30 84 O 5.6684 7.07493 3.81719 0
M  V30 85 H 5.4004 0.368778 0.56655 0
M  V30 86 H 7.9544 1.60642 1.27997 0
M  V30 87 H 6.1844 0.949297 3.74867 0
M  V30 88 H 7.8734 1.36136 3.8239 0
M  V30 89 H 8.6394 3.73506 3.09384 0
M  V30 90 H 4.5184 2.69364 3.74118 0
M  V30 91 H 8.0624 6.12277 3.34309 0
M  V30 92 H 3.9594 5.07247 3.99213 0
M  V30 93 H 4.7274 7.1483 3.98697 0
M  V30 94 N 7.3905 -1.2043 1.01659 0
M  V30 95 C 8.3005 -2.2689 0.596484 0
M  V30 96 C 9.3165 -1.70107 -0.36599 0
M  V30 97 O 10.4925 -2.00117 -0.226942 0
M  V30 98 C 7.5575 -3.4665 -0.0586659 0
M  V30 99 C 6.6185 -4.18662 0.949751 0
M  V30 100 C 5.8515 -5.32705 0.32577 0
M  V30 101 O 6.0745 -5.63656 -0.874509 0
M  V30 102 O 5.0085 -5.92803 1.04249 0
M  V30 103 H 8.8345 -2.65041 1.4828 0
M  V30 104 H 6.4195 -1.27048 0.786082 0
M  V30 105 H 8.3015 -4.19256 -0.424564 0
M  V30 106 H 6.9765 -3.10375 -0.91918 0
M  V30 107 H 5.8835 -3.48229 1.36702 0
M  V30 108 H 7.2165 -4.58878 1.78023 0
M  V30 109 N 8.8686 -0.792821 -1.36206 0
M  V30 110 C 9.8156 -0.191653 -2.30003 0
M  V30 111 C 10.7856 0.666453 -1.52143 0
M  V30 112 O 11.9706 0.61442 -1.80636 0
M  V30 113 C 9.1106 0.664848 -3.38635 0
M  V30 114 C 8.2236 -0.212175 -4.31479 0
M  V30 115 C 7.3586 0.651022 -5.27196 0
M  V30 116 C 6.3976 -0.227247 -6.11678 0
M  V30 117 N 5.5346 0.595127 -6.99573 0
M  V30 118 H 10.3746 -0.996978 -2.80828 0
M  V30 119 H 7.9116 -0.503206 -1.38225 0
M  V30 120 H 9.8696 1.17645 -4.00269 0
M  V30 121 H 8.4996 1.43557 -2.89122 0
M  V30 122 H 7.5516 -0.841777 -3.70969 0
M  V30 123 H 8.8636 -0.888751 -4.90818 0
M  V30 124 H 8.0176 1.2283 -5.94136 0
M  V30 125 H 6.7566 1.36121 -4.68319 0
M  V30 126 H 5.7616 -0.816904 -5.43697 0
M  V30 127 H 6.9866 -0.93509 -6.72631 0
M  V30 128 H 4.9326 1.28955 -6.432 0
M  V30 129 H 4.8496 -0.0236952 -7.55996 0
M  V30 130 H 6.1176 1.15613 -7.70879 0
M  V30 131 N 10.3467 1.47872 -0.545128 0
M  V30 132 C 11.5957 2.01695 -0.0145033 0
M  V30 133 C 11.9087 1.42609 1.33873 0
M  V30 134 O 13.1147 1.88021 1.95858 0
M  V30 135 C 11.5707 3.59892 0.0245068 0
M  V30 136 C 11.1787 4.27966 -1.32475 0
M  V30 137 C 12.9227 4.21507 0.50316 0
M  V30 138 C 10.8297 5.78136 -1.2455 0
M  V30 139 H 9.7597 0.753998 -0.00165172 0
M  V30 140 H 12.4107 1.69985 -0.691175 0
M  V30 141 H 10.7927 3.88509 0.766575 0
M  V30 142 H 11.9667 4.11003 -2.08357 0
M  V30 143 H 10.2817 3.78286 -1.74036 0
M  V30 144 H 12.8787 5.31538 0.580656 0
M  V30 145 H 13.2217 3.87855 1.51243 0
M  V30 146 H 13.7547 3.97376 -0.183681 0
M  V30 147 H 10.4937 6.16388 -2.23039 0
M  V30 148 H 10.0137 5.97469 -0.528282 0
M  V30 149 H 11.6927 6.40099 -0.942488 0
M  V30 150 N 11.8248 0.280983 1.55075 0
M  V30 151 C 13.0728 -0.333455 1.9933 0
M  V30 152 C 13.3938 -1.55937 1.17085 0
M  V30 153 O 12.6638 -1.94143 0.261805 0
M  V30 154 H 11.2438 -0.126197 0.736263 0
M  V30 155 H 13.9058 0.387678 1.91005 0
M  V30 156 H 13.0018 -0.619292 3.05894 0
M  V30 157 N 13.3029 -1.57598 0.00835791 0
M  V30 158 C 14.2499 -2.08945 -0.980346 0
M  V30 159 C 15.2199 -0.986738 -1.33614 0
M  V30 160 O 16.4049 -1.25968 -1.43306 0
M  V30 161 C 13.5449 -2.60425 -2.26435 0
M  V30 162 C 12.6579 -3.84628 -1.96685 0
M  V30 163 C 11.7929 -4.24579 -3.19228 0
M  V30 164 C 10.8319 -5.41596 -2.85202 0
M  V30 165 N 9.9689 -5.768 -4.00307 0
M  V30 166 H 14.8089 -2.93148 -0.535551 0
M  V30 167 H 12.3459 -1.44912 -0.252776 0
M  V30 168 H 14.3039 -2.88354 -3.01509 0
M  V30 169 H 12.9339 -1.79083 -2.68568 0
M  V30 170 H 11.9859 -3.63556 -1.11942 0
M  V30 171 H 13.2979 -4.69796 -1.67611 0
M  V30 172 H 12.4519 -4.53834 -4.02641 0
M  V30 173 H 11.1909 -3.38137 -3.51447 0
M  V30 174 H 10.1959 -5.12056 -2.00198 0
M  V30 175 H 11.4209 -6.29721 -2.54222 0
M  V30 176 H 9.3669 -4.93316 -4.32407 0
M  V30 177 H 9.2839 -6.5656 -3.74786 0
M  V30 178 H 10.5519 -6.10652 -4.84484 0
M  V30 179 N 14.781 0.264519 -1.55364 0
M  V30 180 C 16.03 0.992812 -1.75574 0
M  V30 181 C 16.343 1.87142 -0.568979 0
M  V30 182 O 17.549 2.63513 -0.653682 0
M  V30 183 C 16.005 1.81519 -3.10771 0
M  V30 184 C 15.613 0.984839 -4.37041 0
M  V30 185 C 17.357 2.53727 -3.40327 0
M  V30 186 C 15.264 1.80209 -5.63275 0
M  V30 187 H 14.194 0.374412 -0.65447 0
M  V30 188 H 16.845 0.248138 -1.81815 0
M  V30 189 H 15.227 2.60115 -2.98591 0
M  V30 190 H 16.401 0.242455 -4.60162 0
M  V30 191 H 14.716 0.37691 -4.14691 0
M  V30 192 H 17.313 3.15292 -4.3185 0
M  V30 193 H 17.656 3.24447 -2.60845 0
M  V30 194 H 18.189 1.82156 -3.53644 0
M  V30 195 H 14.928 1.13896 -6.45529 0
M  V30 196 H 14.448 2.52022 -5.44284 0
M  V30 197 H 16.127 2.37364 -6.01887 0
M  V30 198 N 16.2591 1.48442 0.529413 0
M  V30 199 C 17.5071 1.56179 1.28267 0
M  V30 200 C 17.8281 0.237721 1.93546 0
M  V30 201 O 17.0981 -0.740779 1.81354 0
M  V30 202 H 15.6781 0.575367 0.476405 0
M  V30 203 H 18.3401 1.84909 0.61602 0
M  V30 204 H 17.4361 2.34312 2.06165 0
M  V30 205 N 17.7372 -0.778329 1.37039 0
M  V30 206 C 18.6472 -1.92253 1.34446 0
M  V30 207 C 19.6632 -1.72267 0.244991 0
M  V30 208 O 20.8392 -1.95615 0.479258 0
M  V30 209 C 17.9042 -3.27282 1.144 0
M  V30 210 C 16.9652 -3.59969 2.33925 0
M  V30 211 C 16.1982 -4.88555 2.14825 0
M  V30 212 O 16.4212 -5.59113 1.12912 0
M  V30 213 O 15.3552 -5.20153 3.02861 0
M  V30 214 H 19.1812 -1.97392 2.30803 0
M  V30 215 H 16.7662 -0.920154 1.17701 0
M  V30 216 H 18.6482 -4.08062 1.05182 0
M  V30 217 H 17.3232 -3.23011 0.211124 0
M  V30 218 H 16.2302 -2.7945 2.48714 0
M  V30 219 H 17.5632 -3.68976 3.25757 0
M  V30 220 N 19.2153 -1.21501 -1.00376 0
M  V30 221 C 20.4633 -1.03095 -1.73827 0
M  V30 222 C 20.7843 0.436341 -1.90055 0
M  V30 223 O 20.0543 1.31466 -1.45236 0
M  V30 224 H 18.6343 -0.378487 -0.644016 0
M  V30 225 H 21.2963 -1.52831 -1.20949 0
M  V30 226 H 20.3923 -1.49991 -2.73695 0
M  V30 227 N 20.6934 1.19889 -1.02296 0
M  V30 228 C 21.9184 1.9393 -0.735237 0
M  V30 229 C 22.3434 1.74639 0.698782 0
M  V30 230 O 21.7014 1.04481 1.48167 0
M  V30 231 C 21.7494 3.43916 -1.08417 0
M  V30 232 O 20.8534 4.11917 -0.199446 0
M  V30 233 H 20.1944 0.605645 -0.272196 0
M  V30 234 H 22.7244 1.52137 -1.36804 0
M  V30 235 H 22.7344 3.9456 -1.03856 0
M  V30 236 H 21.4094 3.5728 -2.12894 0
M  V30 237 H 19.9864 3.71666 -0.303136 0
M  V30 238 N 22.1715 0.800033 1.35784 0
M  V30 239 C 23.4015 0.389041 2.02904 0
M  V30 240 C 23.8095 -1.0027 1.60445 0
M  V30 241 O 23.1525 -1.65633 0.794453 0
M  V30 242 C 23.2145 0.385495 3.57427 0
M  V30 243 C 22.8785 1.72662 4.23127 0
M  V30 244 C 23.8755 2.68385 4.4527 0
M  V30 245 C 21.5605 2.00883 4.60381 0
M  V30 246 C 23.5545 3.90517 5.03761 0
M  V30 247 C 21.2415 3.2328 5.18588 0
M  V30 248 C 22.2395 4.17915 5.40218 0
M  V30 249 O 21.9275 5.38153 5.97199 0
M  V30 250 H 21.6595 0.157032 0.657508 0
M  V30 251 H 24.2135 1.08311 1.74522 0
M  V30 252 H 22.4435 -0.365128 3.84972 0
M  V30 253 H 24.1325 -0.00228296 4.059 0
M  V30 254 H 24.8985 2.47872 4.16874 0
M  V30 255 H 20.7775 1.28037 4.42863 0
M  V30 256 H 24.3215 4.64395 5.2056 0
M  V30 257 H 20.2185 3.43667 5.4641 0
M  V30 258 H 20.9865 5.3936 6.15656 0
M  V30 259 N 23.6496 -1.47581 0.552962 0
M  V30 260 C 24.8976 -2.02082 0.0272703 0
M  V30 261 C 25.2186 -1.4301 -1.32563 0
M  V30 262 O 24.4886 -0.603745 -1.86365 0
M  V30 263 H 23.0686 -0.746966 0.00709182 0
M  V30 264 H 25.7306 -1.81033 0.722008 0
M  V30 265 H 24.8266 -3.12034 -0.0639951 0
M  V30 266 N 25.1277 -0.289203 -1.54924 0
M  V30 267 C 26.3737 0.323998 -2.00195 0
M  V30 268 C 26.7067 1.54441 -1.17735 0
M  V30 269 O 25.9817 1.92875 -0.250878 0
M  V30 270 C 26.2647 0.692276 -3.53383 0
M  V30 271 C 26.1177 -0.536457 -4.46589 0
M  V30 272 C 27.4367 1.52335 -4.12895 0
M  V30 273 H 24.5557 0.116289 -0.727768 0
M  V30 274 H 27.1977 -0.398954 -1.85764 0
M  V30 275 H 25.3477 1.30822 -3.65811 0
M  V30 276 H 27.0197 -1.17499 -4.46085 0
M  V30 277 H 25.2627 -1.17192 -4.1767 0
M  V30 278 H 25.9337 -0.234806 -5.515 0
M  V30 279 H 28.4097 1.00302 -4.0383 0
M  V30 280 H 27.2857 1.74982 -5.20262 0
M  V30 281 H 27.5467 2.50886 -3.64018 0
M  V30 282 N 26.6058 1.57591 -0.0167156 0
M  V30 283 C 27.8518 1.91567 0.665582 0
M  V30 284 C 28.1848 0.892298 1.72487 0
M  V30 285 O 27.4598 -0.0867127 1.94307 0
M  V30 286 C 27.7428 3.36069 1.29342 0
M  V30 287 C 27.5958 4.49135 0.244541 0
M  V30 288 C 28.9148 3.803 2.21495 0
M  V30 289 H 26.0338 0.69666 0.240488 0
M  V30 290 H 28.6758 1.89866 -0.0714356 0
M  V30 291 H 26.8258 3.3765 1.92158 0
M  V30 292 H 28.4978 4.59689 -0.385228 0
M  V30 293 H 26.7408 4.3165 -0.431379 0
M  V30 294 H 27.4118 5.47242 0.723207 0
M  V30 295 H 29.8878 3.80377 1.68678 0
M  V30 296 H 28.7638 4.82127 2.62382 0
M  V30 297 H 29.0248 3.15104 3.101 0
M  V30 298 N 28.0839 -0.256276 1.55502 0
M  V30 299 C 29.3309 -0.985619 1.76895 0
M  V30 300 C 29.6589 -1.85671 0.579355 0
M  V30 301 O 28.9139 -1.90744 -0.437651 0
M  V30 302 C 29.2129 -1.88432 3.03691 0
M  V30 303 C 28.8789 -1.16936 4.35473 0
M  V30 304 C 27.5409 -0.97173 4.71286 0
M  V30 305 C 29.8929 -0.661889 5.1698 0
M  V30 306 C 27.2209 -0.254179 5.86149 0
M  V30 307 C 29.5729 0.042149 6.32586 0
M  V30 308 C 28.2369 0.25134 6.67027 0
M  V30 309 H 27.5069 -0.360663 0.647304 0
M  V30 310 H 30.1539 -0.256483 1.89775 0
M  V30 311 H 28.4589 -2.68021 2.85783 0
M  V30 312 H 30.1559 -2.45015 3.1744 0
M  V30 313 H 26.7459 -1.33332 4.07333 0
M  V30 314 H 30.9299 -0.802145 4.89775 0
M  V30 315 H 26.1859 -0.0815408 6.11346 0
M  V30 316 H 30.3599 0.443049 6.94989 0
M  V30 317 H 27.9869 0.809314 7.5588 0
M  V30 318 N 29.562 -1.4872 -0.521534 0
M  V30 319 C 30.509 -1.63871 -1.62527 0
M  V30 320 C 31.479 -0.480559 -1.58996 0
M  V30 321 O 32.664 -0.705085 -1.77294 0
M  V30 322 C 29.804 -1.69227 -3.00759 0
M  V30 323 C 28.917 -2.96207 -3.14461 0
M  V30 324 C 28.052 -2.92671 -4.43303 0
M  V30 325 C 27.091 -4.14318 -4.50563 0
M  V30 326 N 26.228 -4.0881 -5.70805 0
M  V30 327 H 31.068 -2.58123 -1.48918 0
M  V30 328 H 28.605 -1.28 -0.724878 0
M  V30 329 H 30.563 -1.70314 -3.80853 0
M  V30 330 H 29.193 -0.784586 -3.1312 0
M  V30 331 H 28.245 -3.04826 -2.27564 0
M  V30 332 H 29.557 -3.86192 -3.15686 0
M  V30 333 H 28.711 -2.92206 -5.31696 0
M  V30 334 H 27.45 -2.00429 -4.44612 0
M  V30 335 H 26.455 -4.15049 -3.60575 0
M  V30 336 H 27.68 -5.07729 -4.50986 0
M  V30 337 H 25.626 -3.19394 -5.72995 0
M  V30 338 H 25.543 -4.92509 -5.7356 0
M  V30 339 H 26.811 -4.12418 -6.61462 0
M  V30 340 N 31.0401 0.771051 -1.3745 0
M  V30 341 C 32.2801 1.54264 -1.34096 0
M  V30 342 C 32.6441 1.91858 0.0737639 0
M  V30 343 O 33.8451 2.67797 0.23203 0
M  V30 344 C 32.1161 2.77326 -2.25445 0
M  V30 345 S 33.6751 3.67383 -2.39948 0
M  V30 346 H 30.4931 0.528122 -0.476034 0
M  V30 347 H 33.0951 0.906633 -1.73206 0
M  V30 348 H 31.7991 2.47788 -3.27153 0
M  V30 349 H 31.3301 3.45886 -1.87421 0
M  V30 350 H 33.3451 4.69334 -1.61059 0
M  V30 351 N 32.5182 1.22032 0.997298 0
M  V30 352 C 33.9342 0.979326 1.26021 0
M  V30 353 C 34.1342 -0.32972 1.98784 0
M  V30 354 O 33.1902 -1.05345 2.29475 0
M  V30 355 C 34.5032 2.17509 2.07631 0
M  V30 356 C 36.0512 2.21817 2.2083 0
M  V30 357 C 36.5262 3.40933 3.05825 0
M  V30 358 N 38.0172 3.41067 3.13412 0
M  V30 359 C 38.7522 4.29885 3.79455 0
M  V30 360 N 38.2482 5.28914 4.47462 0
M  V30 361 N 40.0412 4.17673 3.76173 0
M  V30 362 H 32.1922 2.06202 0.509352 0
M  V30 363 H 34.4552 0.90334 0.287541 0
M  V30 364 H 34.1612 3.12415 1.61524 0
M  V30 365 H 34.0352 2.17206 3.08385 0
M  V30 366 H 36.4222 1.27462 2.66153 0
M  V30 367 H 36.5032 2.2616 1.1952 0
M  V30 368 H 36.1472 4.35586 2.61203 0
M  V30 369 H 36.0772 3.33829 4.07266 0
M  V30 370 H 38.5682 2.69406 2.65007 0
M  V30 371 H 38.8812 5.92973 4.95583 0
M  V30 372 H 37.2262 5.32831 4.46224 0
M  V30 373 H 40.4172 3.39564 3.22202 0
M  V30 374 H 40.5902 4.87098 4.27363 0
M  V30 375 N 33.9963 -1.19345 1.0293 0
M  V30 376 C 34.9443 -2.24621 0.604001 0
M  V30 377 C 35.9383 -1.65452 -0.363587 0
M  V30 378 O 37.1443 -1.78497 -0.23212 0
M  V30 379 H 33.5193 -0.730858 0.177061 0
M  V30 380 H 35.4903 -2.5781 1.50255 0
M  V30 381 C 34.2393 -3.47688 -0.0289127 0
M  V30 382 H 33.5623 -3.93505 0.706651 0
M  V30 383 H 35.0023 -4.23011 -0.289432 0
M  V30 384 C 33.4613 -3.11817 -1.2756 0
M  V30 385 O 33.9913 -3.2451 -2.36762 0
M  V30 386 N 32.1973 -2.66246 -1.16453 0
M  V30 387 H 31.7443 -2.56118 -0.275914 0
M  V30 388 H 31.7023 -2.42617 -1.99961 0
M  V30 389 N 35.4744 -0.807222 -1.35358 0
M  V30 390 C 36.8904 -0.491038 -1.51858 0
M  V30 391 C 37.0904 0.987648 -1.75635 0
M  V30 392 O 36.1464 1.77265 -1.79815 0
M  V30 393 C 37.4594 -1.33695 -2.69344 0
M  V30 394 C 39.0074 -1.33246 -2.83222 0
M  V30 395 C 39.4824 -2.1625 -4.03733 0
M  V30 396 N 40.9734 -2.1379 -4.10911 0
M  V30 397 C 41.7084 -2.74772 -5.03277 0
M  V30 398 N 41.2044 -3.44684 -6.0097 0
M  V30 399 N 42.9974 -2.6441 -4.96028 0
M  V30 400 H 35.1484 -1.76485 -1.18181 0
M  V30 401 H 37.4114 -0.751199 -0.578276 0
M  V30 402 H 37.1174 -2.38634 -2.58354 0
M  V30 403 H 36.9914 -0.990618 -3.6396 0
M  V30 404 H 39.3784 -0.290911 -2.93663 0
M  V30 405 H 39.4594 -1.71866 -1.89461 0
M  V30 406 H 39.1034 -3.20445 -3.94052 0
M  V30 407 H 39.0334 -1.74989 -4.96675 0
M  V30 408 H 41.5244 -1.62923 -3.40976 0
M  V30 409 H 41.8374 -3.88501 -6.68047 0
M  V30 410 H 40.1824 -3.48788 -6.01142 0
M  V30 411 H 43.3734 -2.0938 -4.18662 0
M  V30 412 H 43.5464 -3.12225 -5.6782 0
M  V30 413 N 36.9525 1.47285 -0.560781 0
M  V30 414 C 38.2295 1.9558 0.0277798 0
M  V30 415 C 38.6095 1.5034 1.48192 0
M  V30 416 O 37.9575 0.743882 2.16052 0
M  V30 417 C 38.1675 3.48789 -0.121418 0
M  V30 418 C 39.5155 4.24594 0.0220912 0
M  V30 419 O 40.5395 3.56166 -0.0491439 0
M  V30 420 O 39.3985 5.46217 0.175958 0
M  V30 421 H 36.4925 0.824663 0.0621342 0
M  V30 422 H 39.0385 1.5767 -0.627556 0
M  V30 423 H 37.8105 3.74533 -1.13316 0
M  V30 424 H 37.4335 3.93473 0.571366 0
M  V30 425 N 38.4306 0.297415 1.54768 0
M  V30 426 C 39.6586 -0.315623 2.04478 0
M  V30 427 C 40.0736 -1.47792 1.17486 0
M  V30 428 O 39.4306 -1.81404 0.19971 0
M  V30 429 C 39.4816 -0.7753 3.53088 0
M  V30 430 O 39.2026 0.340732 4.36773 0
M  V30 431 C 40.7036 -1.45386 4.18781 0
M  V30 432 H 37.9236 -0.0690887 0.667434 0
M  V30 433 H 40.4676 0.436003 1.99798 0
M  V30 434 H 38.6226 -1.47696 3.58141 0
M  V30 435 H 39.0366 -0.0165035 5.24497 0
M  V30 436 H 40.5106 -1.72669 5.24299 0
M  V30 437 H 40.9876 -2.39275 3.68299 0
M  V30 438 H 41.5936 -0.795475 4.17795 0
M  V30 439 N 39.9087 -1.5758 0.0250728 0
M  V30 440 C 41.1567 -1.91255 -0.653151 0
M  V30 441 C 41.4777 -0.901691 -1.729 0
M  V30 442 O 40.7477 0.0573785 -1.95816 0
M  V30 443 H 39.3277 -0.705942 -0.244243 0
M  V30 444 H 41.9897 -1.94767 0.0719209 0
M  V30 445 H 41.0857 -2.91752 -1.10847 0
M  V30 446 N 41.3868 0.248026 -1.55636 0
M  V30 447 C 42.3188 1.32993 -1.8667 0
M  V30 448 C 43.3318 1.44345 -0.752877 0
M  V30 449 O 44.5208 1.45715 -1.03098 0
M  V30 450 C 41.6208 2.70863 -2.03682 0
M  V30 451 C 40.7938 2.81792 -3.34532 0
M  V30 452 C 39.8528 4.005 -3.41301 0
M  V30 453 O 38.8788 3.9008 -4.14519 0
M  V30 454 N 40.0808 5.13618 -2.70512 0
M  V30 455 H 42.8458 1.06707 -2.8006 0
M  V30 456 H 40.4068 0.438129 -1.55859 0
M  V30 457 H 42.3988 3.48612 -2.05553 0
M  V30 458 H 40.9688 2.89862 -1.17041 0
M  V30 459 H 40.1888 1.90729 -3.44987 0
M  V30 460 H 41.4768 2.86043 -4.20781 0
M  V30 461 H 40.8748 5.24975 -2.10755 0
M  V30 462 H 39.4318 5.89505 -2.78077 0
M  V30 463 N 42.8649 1.48995 0.513639 0
M  V30 464 C 44.1139 1.57093 1.2651 0
M  V30 465 C 44.4269 0.257091 1.93903 0
M  V30 466 O 45.6329 0.216478 2.70636 0
M  V30 467 C 44.0889 2.77118 2.29638 0
M  V30 468 C 43.6969 4.15209 1.68241 0
M  V30 469 C 45.4409 2.94538 3.05692 0
M  V30 470 C 43.3479 5.26474 2.69406 0
M  V30 471 H 42.2779 0.584876 0.475854 0
M  V30 472 H 44.9289 1.7536 0.540487 0
M  V30 473 H 43.3109 2.52319 3.05207 0
M  V30 474 H 44.4849 4.50094 0.987505 0
M  V30 475 H 42.7999 4.03042 1.04623 0
M  V30 476 H 45.3969 3.74832 3.8132 0
M  V30 477 H 45.7399 2.04614 3.62545 0
M  V30 478 H 46.2729 3.19316 2.37238 0
M  V30 479 H 43.0119 6.18417 2.17351 0
M  V30 480 H 42.5319 4.96058 3.37175 0
M  V30 481 H 44.2109 5.55277 3.32078 0
M  V30 482 N 44.343 -0.763751 1.37857 0
M  V30 483 C 45.589 -1.52483 1.33704 0
M  V30 484 C 45.922 -1.94051 -0.0759612 0
M  V30 485 O 45.197 -1.64675 -1.03501 0
M  V30 486 C 45.48 -2.78441 2.28348 0
M  V30 487 C 45.333 -2.43075 3.78463 0
M  V30 488 C 46.652 -3.80415 2.21298 0
M  V30 489 H 43.771 -0.553169 0.487005 0
M  V30 490 H 46.413 -0.875562 1.68624 0
M  V30 491 H 44.563 -3.33842 1.987 0
M  V30 492 H 46.235 -1.93527 4.18742 0
M  V30 493 H 44.478 -1.75666 3.96641 0
M  V30 494 H 45.149 -3.33149 4.40132 0
M  V30 495 H 47.625 -3.34527 2.47449 0
M  V30 496 H 46.501 -4.66257 2.89647 0
M  V30 497 H 46.762 -4.25262 1.20849 0
M  V30 498 N 45.8211 -1.22559 -0.990812 0
M  V30 499 C 46.7841 -0.998863 -2.0629 0
M  V30 500 C 47.7841 0.0354834 -1.60761 0
M  V30 501 O 48.9741 -0.203231 -1.7301 0
M  V30 502 C 46.1061 -0.509203 -3.37076 0
M  V30 503 H 47.2991 -1.95014 -2.27837 0
M  V30 504 H 44.8521 -1.04456 -1.16269 0
M  V30 505 H 45.5871 0.446335 -3.21214 0
M  V30 506 H 45.3721 -1.25547 -3.71457 0
M  V30 507 H 46.8621 -0.370888 -4.1595 0
M  V30 508 N 47.2992 1.18797 -1.03562 0
M  V30 509 C 48.5482 1.87978 -0.731235 0
M  V30 510 C 48.8612 1.80911 0.743671 0
M  V30 511 O 50.0672 2.45407 1.16137 0
M  V30 512 C 48.5232 3.3721 -1.25768 0
M  V30 513 C 48.1312 3.52818 -2.76085 0
M  V30 514 C 49.8752 4.11825 -1.0296 0
M  V30 515 C 47.7822 4.9598 -3.22114 0
M  V30 516 H 46.7122 0.704063 -0.269835 0
M  V30 517 H 49.3632 1.34266 -1.25079 0
M  V30 518 H 47.7452 3.90359 -0.666011 0
M  V30 519 H 48.9192 3.09965 -3.40966 0
M  V30 520 H 47.2342 2.91602 -2.97249 0
M  V30 521 H 49.8312 5.17411 -1.34869 0
M  V30 522 H 50.1742 4.16287 0.0333546 0
M  V30 523 H 50.7072 3.64833 -1.58562 0
M  V30 524 H 47.4462 4.96684 -4.27768 0
M  V30 525 H 46.9662 5.39569 -2.61965 0
M  V30 526 H 48.6452 5.6467 -3.15844 0
M  V30 527 N 48.7773 0.814389 1.34928 0
M  V30 528 C 49.7243 0.22822 2.29669 0
M  V30 529 C 50.6943 -0.642164 1.53184 0
M  V30 530 O 51.8793 -0.585605 1.81591 0
M  V30 531 C 49.0193 -0.61089 3.3965 0
M  V30 532 C 48.1323 0.280792 4.31086 0
M  V30 533 C 47.2673 -0.567067 5.28165 0
M  V30 534 C 46.3063 0.324531 6.11239 0
M  V30 535 N 45.4433 -0.483756 7.00431 0
M  V30 536 H 50.2833 1.04153 2.79206 0
M  V30 537 H 47.8203 0.525133 1.37407 0
M  V30 538 H 49.7783 -1.11263 4.0209 0
M  V30 539 H 48.4083 -1.38939 2.91369 0
M  V30 540 H 47.4603 0.900688 3.69583 0
M  V30 541 H 48.7723 0.966723 4.89342 0
M  V30 542 H 47.9263 -1.13363 5.96015 0
M  V30 543 H 46.6653 -1.28654 4.70425 0
M  V30 544 H 45.6703 0.903298 5.42329 0
M  V30 545 H 46.8953 1.04198 6.71059 0
M  V30 546 H 44.8413 -1.18706 6.45171 0
M  V30 547 H 44.7583 0.143965 7.55863 0
M  V30 548 H 46.0263 -1.03334 7.7262 0
M  V30 549 N 50.2554 -1.46986 0.568584 0
M  V30 550 C 51.2024 -2.30153 -0.172707 0
M  V30 551 C 52.1724 -1.39759 -0.897586 0
M  V30 552 O 53.3574 -1.68716 -0.891044 0
M  V30 553 C 50.4974 -3.23952 -1.1895 0
M  V30 554 C 49.6104 -4.29441 -0.469517 0
M  V30 555 C 48.7454 -5.1038 -1.47259 0
M  V30 556 C 47.7844 -6.07632 -0.738225 0
M  V30 557 N 46.9214 -6.8149 -1.68868 0
M  V30 558 H 51.7614 -2.93019 0.542596 0
M  V30 559 H 49.2984 -1.44422 0.279401 0
M  V30 560 H 51.2564 -3.76767 -1.79173 0
M  V30 561 H 49.8864 -2.62926 -1.87269 0
M  V30 562 H 48.9384 -3.79594 0.247467 0
M  V30 563 H 50.2504 -4.98689 0.105241 0
M  V30 564 H 49.4044 -5.67402 -2.14803 0
M  V30 565 H 48.1434 -4.4106 -2.08128 0
M  V30 566 H 47.1484 -5.49778 -0.0489293 0
M  V30 567 H 48.3734 -6.78966 -0.135129 0
M  V30 568 H 46.3194 -6.14891 -2.28573 0
M  V30 569 H 46.2364 -7.46948 -1.16636 0
M  V30 570 H 47.5044 -7.43078 -2.3549 0
M  V30 571 N 51.7335 -0.305618 -1.54608 0
M  V30 572 C 52.9805 0.302298 -2.00231 0
M  V30 573 C 53.3085 1.5354 -1.19398 0
M  V30 574 O 52.5635 1.93973 -0.259423 0
M  V30 575 C 52.8625 0.698983 -3.50498 0
M  V30 576 C 52.5285 -0.432903 -4.48817 0
M  V30 577 C 51.1905 -0.743622 -4.75419 0
M  V30 578 C 53.5425 -1.19409 -5.07337 0
M  V30 579 C 50.8705 -1.81857 -5.57804 0
M  V30 580 C 53.2225 -2.25899 -5.90891 0
M  V30 581 C 51.8865 -2.57572 -6.15803 0
M  V30 582 H 51.1565 0.110619 -0.732697 0
M  V30 583 H 53.8035 -0.425674 -1.86709 0
M  V30 584 H 52.1085 1.50711 -3.61654 0
M  V30 585 H 53.8055 1.1806 -3.83227 0
M  V30 586 H 50.3955 -0.18063 -4.28219 0
M  V30 587 H 54.5795 -0.967295 -4.86782 0
M  V30 588 H 49.8355 -2.06864 -5.75341 0
M  V30 589 H 54.0095 -2.85335 -6.35261 0
M  V30 590 H 51.6365 -3.40998 -6.7943 0
M  V30 591 N 53.2116 1.57565 -0.0334293 0
M  V30 592 C 54.1416 2.13511 0.945265 0
M  V30 593 C 55.1226 1.05231 1.33643 0
M  V30 594 O 56.3076 1.33084 1.41429 0
M  V30 595 C 53.4376 2.6657 2.22616 0
M  V30 596 C 52.3916 3.79676 1.97561 0
M  V30 597 C 51.7176 4.1918 3.31952 0
M  V30 598 C 53.0176 5.0557 1.31135 0
M  V30 599 H 54.7116 2.95538 0.479325 0
M  V30 600 H 52.2576 1.42166 0.229115 0
M  V30 601 H 54.2106 3.04344 2.91466 0
M  V30 602 H 52.9346 1.8171 2.71384 0
M  V30 603 H 51.5936 3.42347 1.31127 0
M  V30 604 H 51.2416 3.31296 3.78487 0
M  V30 605 H 50.9416 4.95402 3.15992 0
M  V30 606 H 52.4656 4.59541 4.02063 0
M  V30 607 H 53.8796 5.40903 1.89992 0
M  V30 608 H 52.2766 5.86818 1.25559 0
M  V30 609 H 53.3466 4.84062 0.284894 0
M  V30 610 N 54.6897 -0.239769 1.55765 0
M  V30 611 C 55.5997 -1.31831 1.94056 0
M  V30 612 C 56.6157 -1.52275 0.841925 0
M  V30 613 O 57.7917 -1.65759 1.14394 0
M  V30 614 C 54.8567 -2.65156 2.23368 0
M  V30 615 C 53.9177 -2.53173 3.46701 0
M  V30 616 C 53.1507 -3.8014 3.74606 0
M  V30 617 O 53.3737 -4.82343 3.04469 0
M  V30 618 O 52.3077 -3.78344 4.68123 0
M  V30 619 H 56.1337 -1.02347 2.85935 0
M  V30 620 H 53.7187 -0.441123 1.42739 0
M  V30 621 H 55.6007 -3.43929 2.43497 0
M  V30 622 H 54.2757 -2.94358 1.34666 0
M  V30 623 H 53.1827 -1.72662 3.31871 0
M  V30 624 H 54.5157 -2.28915 4.35728 0
M  V30 625 N 56.1678 -1.49265 -0.50573 0
M  V30 626 C 57.3928 -1.62478 -1.28902 0
M  V30 627 C 57.8178 -0.294332 -1.85783 0
M  V30 628 O 57.1758 0.737412 -1.65626 0
M  V30 629 C 57.2238 -2.69268 -2.39848 0
M  V30 630 O 56.3278 -2.28113 -3.43567 0
M  V30 631 H 55.6688 -0.54399 -0.380751 0
M  V30 632 H 58.1988 -1.95421 -0.605952 0
M  V30 633 H 58.2088 -2.91291 -2.85681 0
M  V30 634 H 56.8838 -3.65846 -1.97812 0
M  V30 635 H 55.4608 -2.16401 -3.03685 0
M  V30 636 N 57.6459 0.756429 -1.3826 0
M  V30 637 C 58.5559 1.9009 -1.37488 0
M  V30 638 C 59.5719 1.71855 -0.272366 0
M  V30 639 O 60.7479 1.94827 -0.510318 0
M  V30 640 C 57.8129 3.25421 -1.19592 0
M  V30 641 C 56.8739 3.56202 -2.39622 0
M  V30 642 C 56.1069 4.85075 -2.2257 0
M  V30 643 O 56.3299 5.57246 -1.21793 0
M  V30 644 O 55.2639 5.15269 -3.11098 0
M  V30 645 H 59.0899 1.93695 -2.33914 0
M  V30 646 H 56.6749 0.901313 -1.1915 0
M  V30 647 H 58.5569 4.06337 -1.11661 0
M  V30 648 H 57.2319 3.22634 -0.262486 0
M  V30 649 H 56.1389 2.75458 -2.53128 0
M  V30 650 H 57.4719 3.63747 -3.31586 0
M  V30 651 N 59.124 1.23083 0.984299 0
M  V30 652 C 60.401 0.9689 1.69917 0
M  V30 653 C 60.781 -0.513604 2.04757 0
M  V30 654 O 60.129 -1.48383 1.73767 0
M  V30 655 C 60.339 1.87518 2.94343 0
M  V30 656 C 61.687 2.13636 3.6694 0
M  V30 657 O 62.711 1.85036 3.04368 0
M  V30 658 O 61.57 2.62119 4.79537 0
M  V30 659 H 58.664 0.365095 0.742048 0
M  V30 660 H 61.21 1.34107 1.03987 0
M  V30 661 H 59.982 2.87756 2.65164 0
M  V30 662 H 59.605 1.50514 3.6801 0
M  V30 663 N 60.6021 -1.18246 1.0419 0
M  V30 664 C 61.8791 -1.84121 0.660208 0
M  V30 665 C 62.2591 -1.92778 -0.860221 0
M  V30 666 O 61.6071 -1.45464 -1.76217 0
M  V30 667 C 61.8171 -3.22355 1.33747 0
M  V30 668 C 63.1651 -3.98376 1.46906 0
M  V30 669 O 64.1891 -3.31799 1.29568 0
M  V30 670 O 63.0481 -5.17665 1.75171 0
M  V30 671 H 60.1421 -0.794036 0.231161 0
M  V30 672 H 62.6881 -1.25628 1.14087 0
M  V30 673 H 61.4601 -3.10964 2.37522 0
M  V30 674 H 61.0831 -3.88506 0.845515 0
M  V30 675 N 62.0802 -0.821533 -1.34494 0
M  V30 676 C 63.4912 -0.467956 -1.8074 0
M  V30 677 C 63.8422 1.01151 -1.68116 0
M  V30 678 O 62.9672 1.78707 -1.22036 0
M  V30 679 C 63.5622 -0.842627 -3.28154 0
M  V30 680 C 62.1212 -0.541439 -3.72485 0
M  V30 681 C 61.2682 -1.06028 -2.56229 0
M  V30 682 H 64.2192 -1.01183 -1.22261 0
M  V30 683 H 64.2402 -0.145876 -3.8022 0
M  V30 684 H 63.7522 -1.91945 -3.37311 0
M  V30 685 H 61.8532 0.526034 -3.68868 0
M  V30 686 H 61.9662 -1.08453 -4.66663 0
M  V30 687 H 60.3302 -0.481892 -2.501 0
M  V30 688 H 61.1132 -2.14352 -2.68157 0
M  V30 689 N 63.5583 1.46682 -0.576371 0
M  V30 690 C 64.8043 2.02712 -0.0596221 0
M  V30 691 C 65.1373 1.44765 1.29448 0
M  V30 692 O 64.4123 0.610355 1.84675 0
M  V30 693 C 64.6953 3.60098 0.0129503 0
M  V30 694 C 64.5483 4.28441 -1.3696 0
M  V30 695 C 65.8673 4.34224 0.71678 0
M  V30 696 H 62.9863 0.736637 -0.0231407 0
M  V30 697 H 65.6283 1.74898 -0.742351 0
M  V30 698 H 63.7783 3.83926 0.594378 0
M  V30 699 H 65.4503 4.15896 -1.9957 0
M  V30 700 H 63.6933 3.8805 -1.93907 0
M  V30 701 H 64.3643 5.3716 -1.27135 0
M  V30 702 H 66.8403 4.15503 0.222908 0
M  V30 703 H 65.7163 5.43936 0.73657 0
M  V30 704 H 65.9773 4.04823 1.77682 0
M  V30 705 N 65.0364 0.313813 1.54444 0
M  V30 706 C 66.2854 -0.292519 1.99568 0
M  V30 707 C 66.5984 -1.54011 1.20582 0
M  V30 708 O 67.8044 -2.22183 1.56035 0
M  V30 709 C 66.2604 -0.571752 3.55329 0
M  V30 710 C 65.8684 0.658229 4.43138 0
M  V30 711 C 67.6124 -1.13857 4.08946 0
M  V30 712 C 65.5194 0.351439 5.90355 0
M  V30 713 H 64.4494 -0.113079 0.745472 0
M  V30 714 H 67.1004 0.424518 1.78522 0
M  V30 715 H 65.4824 -1.34872 3.72325 0
M  V30 716 H 66.6564 1.43403 4.37918 0
M  V30 717 H 64.9714 1.14458 4.0036 0
M  V30 718 H 67.5684 -1.38257 5.16516 0
M  V30 719 H 67.9114 -2.08489 3.6033 0
M  V30 720 H 68.4444 -0.423015 3.95544 0
M  V30 721 H 65.1834 1.26667 6.43145 0
M  V30 722 H 64.7034 -0.386842 5.98551 0
M  V30 723 H 66.3824 -0.0423134 6.46986 0
M  V30 724 N 66.5145 -1.57545 0.0417849 0
M  V30 725 C 67.4615 -2.10977 -0.935805 0
M  V30 726 C 68.4315 -1.01486 -1.31491 0
M  V30 727 O 69.6165 -1.2898 -1.40602 0
M  V30 728 C 66.7565 -2.65169 -2.2086 0
M  V30 729 C 65.8695 -3.88714 -1.88482 0
M  V30 730 C 65.0045 -4.31254 -3.1015 0
M  V30 731 C 64.0435 -5.47524 -2.7365 0
M  V30 732 N 63.1805 -5.85162 -3.87982 0
M  V30 733 H 68.0205 -2.94218 -0.473249 0
M  V30 734 H 65.5575 -1.45415 -0.221981 0
M  V30 735 H 67.5155 -2.94685 -2.95325 0
M  V30 736 H 66.1455 -1.8474 -2.64709 0
M  V30 737 H 65.1975 -3.65849 -1.04205 0
M  V30 738 H 66.5095 -4.73245 -1.57608 0
M  V30 739 H 65.6635 -4.62273 -3.92923 0
M  V30 740 H 64.4025 -3.45516 -3.44195 0
M  V30 741 H 63.4075 -5.16187 -1.89291 0
M  V30 742 H 64.6325 -6.34971 -2.40807 0
M  V30 743 H 62.5785 -5.02377 -4.21846 0
M  V30 744 H 62.4955 -6.64362 -3.60775 0
M  V30 745 H 63.7635 -6.20791 -4.71422 0
M  V30 746 N 67.9926 0.231505 -1.5589 0
M  V30 747 C 68.9396 1.28682 -1.91598 0
M  V30 748 C 69.9096 1.47071 -0.771974 0
M  V30 749 O 71.0946 1.60802 -1.027 0
M  V30 750 C 68.2346 2.6342 -2.22944 0
M  V30 751 C 67.3476 2.52912 -3.50228 0
M  V30 752 C 66.4826 3.80106 -3.7107 0
M  V30 753 C 65.5216 3.64279 -4.91902 0
M  V30 754 N 64.6586 4.834 -5.09184 0
M  V30 755 H 69.4986 0.975305 -2.81588 0
M  V30 756 H 67.0356 0.470299 -1.39379 0
M  V30 757 H 68.9936 3.41869 -2.39126 0
M  V30 758 H 67.6236 2.92687 -1.36139 0
M  V30 759 H 66.6756 1.6595 -3.42294 0
M  V30 760 H 67.9876 2.37133 -4.38827 0
M  V30 761 H 67.1416 4.66999 -3.87295 0
M  V30 762 H 65.8806 3.98799 -2.80733 0
M  V30 763 H 64.8856 2.7577 -4.75637 0
M  V30 764 H 66.1106 3.47067 -5.83714 0
M  V30 765 H 64.0566 5.02425 -4.21788 0
M  V30 766 H 63.9736 4.70311 -5.91898 0
M  V30 767 H 65.2416 5.71747 -5.29835 0
M  V30 768 N 69.4707 1.49531 0.497807 0
M  V30 769 C 70.7197 1.58426 1.24837 0
M  V30 770 C 71.0327 0.277643 1.93619 0
M  V30 771 O 72.2387 0.24517 2.70391 0
M  V30 772 C 70.6947 2.79538 2.26686 0
M  V30 773 C 70.3027 4.16971 1.63828 0
M  V30 774 C 72.0467 2.97764 3.0255 0
M  V30 775 C 69.9537 5.29301 2.63807 0
M  V30 776 H 68.8837 0.58989 0.469623 0
M  V30 777 H 71.5347 1.75923 0.521857 0
M  V30 778 H 69.9167 2.55542 3.02514 0
M  V30 779 H 71.0907 4.51116 0.939711 0
M  V30 780 H 69.4057 4.04129 1.00342 0
M  V30 781 H 72.0027 3.78856 3.77323 0
M  V30 782 H 72.3457 2.08448 3.60354 0
M  V30 783 H 72.8787 3.21815 2.33838 0
M  V30 784 H 69.6177 6.20687 2.10779 0
M  V30 785 H 69.1377 4.99606 3.31894 0
M  V30 786 H 70.8167 5.58768 3.2617 0
M  V30 787 N 70.9488 -0.749086 1.3866 0
M  V30 788 C 71.9118 -1.84457 1.36045 0
M  V30 789 C 72.9118 -1.58682 0.260122 0
M  V30 790 O 74.1018 -1.66343 0.517261 0
M  V30 791 C 71.2338 -3.22008 1.11911 0
M  V30 792 H 72.4268 -1.88182 2.33512 0
M  V30 793 H 69.9798 -0.951266 1.24019 0
M  V30 794 H 70.7148 -3.2395 0.150686 0
M  V30 795 H 70.4998 -3.42111 1.91579 0
M  V30 796 H 71.9898 -4.0208 1.12788 0
M  V30 797 N 72.4269 -1.23603 -0.977757 0
M  V30 798 C 73.3569 -1.04401 -2.0886 0
M  V30 799 C 74.3379 0.0399052 -1.70053 0
M  V30 800 O 75.5229 -0.125246 -1.93796 0
M  V30 801 C 72.6529 -0.637269 -3.41403 0
M  V30 802 C 71.6069 -1.66883 -3.94124 0
M  V30 803 C 70.9329 -1.11745 -5.22893 0
M  V30 804 C 72.2329 -3.06247 -4.23096 0
M  V30 805 H 73.9269 -1.97316 -2.25182 0
M  V30 806 H 71.4729 -0.950096 -1.08209 0
M  V30 807 H 73.4259 -0.48998 -4.18542 0
M  V30 808 H 72.1499 0.327557 -3.24953 0
M  V30 809 H 70.8089 -1.80416 -3.19133 0
M  V30 810 H 70.4569 -0.143527 -5.02795 0
M  V30 811 H 70.1569 -1.80672 -5.59134 0
M  V30 812 H 71.6809 -0.982067 -6.02651 0
M  V30 813 H 73.0949 -2.96001 -4.90975 0
M  V30 814 H 71.4919 -3.72436 -4.70544 0
M  V30 815 H 72.5619 -3.55041 -3.30263 0
M  V30 816 N 73.905 1.17692 -1.04816 0
M  V30 817 C 75.321 1.39863 -0.768794 0
M  V30 818 C 75.521 1.91118 0.638451 0
M  V30 819 O 74.577 2.10036 1.40146 0
M  V30 820 C 75.89 2.39274 -1.82122 0
M  V30 821 C 77.438 2.52987 -1.843 0
M  V30 822 C 77.913 3.55669 -2.88555 0
M  V30 823 N 79.404 3.63183 -2.87493 0
M  V30 824 C 80.139 4.42381 -3.64811 0
M  V30 825 N 79.635 5.25125 -4.51903 0
M  V30 826 N 81.428 4.37217 -3.53267 0
M  V30 827 H 73.579 0.82752 -1.95617 0
M  V30 828 H 75.842 0.426123 -0.846831 0
M  V30 829 H 75.548 2.08678 -2.83102 0
M  V30 830 H 75.422 3.38725 -1.65967 0
M  V30 831 H 77.809 2.82896 -0.839869 0
M  V30 832 H 77.89 1.53623 -2.04532 0
M  V30 833 H 77.534 3.26499 -3.89051 0
M  V30 834 H 77.464 4.54728 -2.65575 0
M  V30 835 H 79.955 3.04103 -2.24343 0
M  V30 836 H 80.268 5.82728 -5.07591 0
M  V30 837 H 78.613 5.24519 -4.55966 0
M  V30 838 H 81.804 3.71626 -2.84625 0
M  V30 839 H 81.977 4.98696 -4.13771 0
M  V30 840 N 75.3831 0.828654 1.34056 0
M  V30 841 C 76.2931 0.256725 2.33191 0
M  V30 842 C 77.3091 -0.611898 1.62886 0
M  V30 843 O 78.4851 -0.51844 1.94613 0
M  V30 844 C 75.5501 -0.567238 3.42028 0
M  V30 845 C 74.6111 0.324458 4.28072 0
M  V30 846 C 73.8441 -0.460274 5.31712 0
M  V30 847 O 74.0671 -1.693 5.44696 0
M  V30 848 O 73.0011 0.160391 6.01686 0
M  V30 849 H 76.8271 1.07739 2.83947 0
M  V30 850 H 74.4121 0.59093 1.37217 0
M  V30 851 H 76.2941 -1.03582 4.08471 0
M  V30 852 H 74.9691 -1.36513 2.93506 0
M  V30 853 H 73.8761 0.840659 3.64532 0
M  V30 854 H 75.2091 1.08685 4.8005 0
M  V30 855 N 76.8612 -1.46375 0.584142 0
M  V30 856 C 78.1102 -2.01585 0.0679741 0
M  V30 857 C 78.4232 -1.46109 -1.30045 0
M  V30 858 O 79.6292 -1.93148 -1.90804 0
M  V30 859 C 78.0852 -3.5983 0.0709207 0
M  V30 860 C 77.6932 -4.24303 1.43775 0
M  V30 861 C 79.4372 -4.22693 -0.391228 0
M  V30 862 C 77.3442 -5.74631 1.39834 0
M  V30 863 H 76.2742 -0.753689 0.0216421 0
M  V30 864 H 78.9252 -1.68093 0.736001 0
M  V30 865 H 77.3072 -3.90405 -0.663299 0
M  V30 866 H 78.4812 -4.05335 2.19181 0
M  V30 867 H 76.7962 -3.73539 1.84004 0
M  V30 868 H 79.3932 -5.3289 -0.439524 0
M  V30 869 H 79.7362 -3.91728 -1.40906 0
M  V30 870 H 80.2692 -3.96749 0.288974 0
M  V30 871 H 77.0082 -6.10258 2.39303 0
M  V30 872 H 76.5282 -5.95858 0.686505 0
M  V30 873 H 78.2072 -6.37375 1.11187 0
M  V30 874 N 78.3393 -0.321999 -1.54275 0
M  V30 875 C 79.7553 0.0306999 -1.5957 0
M  V30 876 C 79.9553 1.50614 -1.33857 0
M  V30 877 O 79.0113 2.2619 -1.12223 0
M  V30 878 C 80.3243 -0.386122 -2.98211 0
M  V30 879 C 81.8723 -0.336647 -3.11184 0
M  V30 880 C 82.3473 -0.728607 -4.52167 0
M  V30 881 N 83.8383 -0.681952 -4.58152 0
M  V30 882 C 84.5733 -0.957449 -5.6535 0
M  V30 883 N 84.0693 -1.3 -6.80494 0
M  V30 884 N 85.8623 -0.883113 -5.55119 0
M  V30 885 H 78.0133 -1.28332 -1.69247 0
M  V30 886 H 80.2763 -0.521716 -0.791528 0
M  V30 887 H 79.9823 -1.41404 -3.22022 0
M  V30 888 H 79.8563 0.249662 -3.76373 0
M  V30 889 H 82.2433 0.682058 -2.8711 0
M  V30 890 H 82.3243 -1.00734 -2.3513 0
M  V30 891 H 81.9683 -1.74522 -4.76974 0
M  V30 892 H 81.8983 -0.0356152 -5.26588 0
M  V30 893 H 84.3893 -0.428985 -3.75457 0
M  V30 894 H 84.7023 -1.49563 -7.58189 0
M  V30 895 H 83.0473 -1.33824 -6.81994 0
M  V30 896 H 86.2383 -0.615001 -4.64042 0
M  V30 897 H 86.4113 -1.10118 -6.38575 0
M  V30 898 N 79.8174 1.5752 -0.0501392 0
M  V30 899 C 80.7504 2.07026 0.959962 0
M  V30 900 C 81.7284 0.970539 1.30458 0
M  V30 901 O 82.9124 1.2424 1.41763 0
M  V30 902 C 80.0394 2.5099 2.27424 0
M  V30 903 C 79.0854 3.72188 2.08275 0
M  V30 904 S 79.9184 5.17888 1.36207 0
M  V30 905 C 81.0744 5.65165 2.6896 0
M  V30 906 H 81.3074 2.9238 0.538631 0
M  V30 907 H 78.8404 1.53547 0.162099 0
M  V30 908 H 80.7984 2.76982 3.02971 0
M  V30 909 H 79.4594 1.65944 2.66686 0
M  V30 910 H 78.6524 4.00866 3.05487 0
M  V30 911 H 78.2544 3.46457 1.40868 0
M  V30 912 H 80.5464 5.70687 3.65133 0
M  V30 913 H 81.4894 6.64394 2.4492 0
M  V30 914 H 81.8974 4.9289 2.75172 0
M  V30 915 N 81.2955 -0.223234 1.56011 0
M  V30 916 C 82.2255 -1.27988 1.95298 0
M  V30 917 C 83.2065 -1.48976 0.820979 0
M  V30 918 O 84.3915 -1.61188 1.08315 0
M  V30 919 C 81.5215 -2.63 2.26822 0
M  V30 920 C 80.4755 -2.56671 3.42497 0
M  V30 921 C 79.8015 -3.95697 3.59622 0
M  V30 922 C 81.1015 -2.11601 4.77517 0
M  V30 923 H 82.7955 -0.953525 2.8381 0
M  V30 924 H 80.3415 -0.457244 1.36548 0
M  V30 925 H 82.2945 -3.37077 2.52898 0
M  V30 926 H 81.0185 -2.9732 1.35161 0
M  V30 927 H 79.6775 -1.85051 3.16467 0
M  V30 928 H 79.3255 -4.27322 2.6534 0
M  V30 929 H 79.0255 -3.92345 4.37424 0
M  V30 930 H 80.5495 -4.71438 3.88044 0
M  V30 931 H 81.9635 -2.7542 5.02809 0
M  V30 932 H 80.3605 -2.19311 5.5859 0
M  V30 933 H 81.4305 -1.06824 4.72987 0
M  V30 934 N 82.7736 -1.49793 -0.48987 0
M  V30 935 C 83.7206 -1.67281 -1.59014 0
M  V30 936 C 84.6906 -0.514177 -1.57941 0
M  V30 937 O 85.8756 -0.742533 -1.75759 0
M  V30 938 C 83.0156 -1.75569 -2.97102 0
M  V30 939 C 82.1286 -3.0281 -3.08107 0
M  V30 940 C 81.2636 -3.02008 -4.36995 0
M  V30 941 C 80.3026 -4.23782 -4.41673 0
M  V30 942 N 79.4396 -4.20826 -5.62005 0
M  V30 943 H 84.2796 -2.61224 -1.43409 0
M  V30 944 H 81.8166 -1.29508 -0.697565 0
M  V30 945 H 83.7746 -1.78354 -3.77155 0
M  V30 946 H 82.4046 -0.850827 -3.11385 0
M  V30 947 H 81.4566 -3.09584 -2.21047 0
M  V30 948 H 82.7686 -3.92801 -3.07423 0
M  V30 949 H 81.9226 -3.03418 -5.25378 0
M  V30 950 H 80.6616 -2.09815 -4.4026 0
M  V30 951 H 79.6666 -4.22604 -3.5169 0
M  V30 952 H 80.8916 -5.17181 -4.40115 0
M  V30 953 H 78.8376 -3.31476 -5.66091 0
M  V30 954 H 78.7546 -5.04564 -5.62984 0
M  V30 955 H 80.0226 -4.26355 -6.52565 0
M  V30 956 N 84.2517 0.741722 -1.39055 0
M  V30 957 C 85.1837 1.8657 -1.33133 0
M  V30 958 C 86.1967 1.61001 -0.241329 0
M  V30 959 O 87.3857 1.7136 -0.499784 0
M  V30 960 C 84.4857 3.22457 -1.04283 0
M  V30 961 C 83.6587 3.75435 -2.24427 0
M  V30 962 C 82.7177 4.89867 -1.92138 0
M  V30 963 O 81.7437 5.03879 -2.64754 0
M  V30 964 N 82.9457 5.73738 -0.88347 0
M  V30 965 H 85.7107 1.92156 -2.29991 0
M  V30 966 H 83.2717 0.922172 -1.3307 0
M  V30 967 H 85.2637 3.9657 -0.807128 0
M  V30 968 H 83.8337 3.12181 -0.161807 0
M  V30 969 H 83.0537 2.92751 -2.6399 0
M  V30 970 H 84.3417 4.07563 -3.04581 0
M  V30 971 H 83.7397 5.64999 -0.281517 0
M  V30 972 H 82.2967 6.47947 -0.707662 0
M  V30 973 N 85.7298 1.2412 0.971189 0
M  V30 974 C 86.6598 1.05508 2.08304 0
M  V30 975 C 87.6408 -0.0308864 1.70072 0
M  V30 976 O 88.8258 0.135521 1.93727 0
M  V30 977 C 85.9558 0.655365 3.4106 0
M  V30 978 C 84.9098 1.68971 3.93234 0
M  V30 979 C 84.2358 1.14516 5.22293 0
M  V30 980 C 85.5358 3.08487 4.21465 0
M  V30 981 H 87.2298 1.98507 2.24132 0
M  V30 982 H 84.7758 0.955821 1.07704 0
M  V30 983 H 86.7288 0.51217 4.18276 0
M  V30 984 H 85.4528 -0.31032 3.25122 0
M  V30 985 H 84.1118 1.82106 3.18171 0
M  V30 986 H 83.7598 0.170189 5.02712 0
M  V30 987 H 83.4598 1.83635 5.58168 0
M  V30 988 H 84.9838 1.01401 6.02121 0
M  V30 989 H 86.3978 2.98601 4.89398 0
M  V30 990 H 84.7948 3.74926 4.68562 0
M  V30 991 H 85.8648 3.56787 3.28376 0
M  V30 992 N 87.2079 -1.17134 1.05439 0
M  V30 993 C 88.1549 -2.21235 0.657539 0
M  V30 994 C 89.1249 -1.62551 -0.341543 0
M  V30 995 O 90.3099 -1.89379 -0.232393 0
M  V30 996 C 87.4499 -3.45076 0.0410575 0
M  V30 997 C 86.5629 -4.18042 1.08927 0
M  V30 998 C 85.6979 -5.29376 0.439848 0
M  V30 999 C 84.7369 -5.94132 1.4722 0
M  V30 1000 N 83.8739 -6.96975 0.846756 0
M  V30 1001 H 88.7139 -2.54534 1.54972 0
M  V30 1002 H 86.2509 -1.25028 0.775006 0
M  V30 1003 H 88.2089 -4.15862 -0.33383 0
M  V30 1004 H 86.8389 -3.12353 -0.814568 0
M  V30 1005 H 85.8909 -3.45945 1.58196 0
M  V30 1006 H 87.2029 -4.62306 1.87282 0
M  V30 1007 H 86.3569 -6.06699 0.0115125 0
M  V30 1008 H 85.0959 -4.86251 -0.375656 0
M  V30 1009 H 84.1009 -5.15538 1.91052 0
M  V30 1010 H 85.3259 -6.39337 2.28965 0
M  V30 1011 H 83.2719 -6.5598 0.0518075 0
M  V30 1012 H 83.1889 -7.39565 1.5678 0
M  V30 1013 H 84.4569 -7.78239 0.443277 0
M  V30 1014 N 88.686 -0.835752 -1.33615 0
M  V30 1015 C 89.636 -0.238856 -2.26745 0
M  V30 1016 C 90.62 0.604343 -1.49119 0
M  V30 1017 O 91.812 0.456822 -1.71003 0
M  V30 1018 C 88.941 0.587725 -3.38232 0
M  V30 1019 C 88.027 -0.266811 -4.2326 0
M  V30 1020 N 88.418 -1.34403 -4.87616 0
M  V30 1021 C 86.716 -0.0533131 -4.45968 0
M  V30 1022 C 87.417 -1.86819 -5.50884 0
M  V30 1023 N 86.393 -1.17013 -5.30857 0
M  V30 1024 H 90.195 -1.06266 -2.74016 0
M  V30 1025 H 87.709 -0.679881 -1.47483 0
M  V30 1026 H 89.706 1.03161 -4.03935 0
M  V30 1027 H 88.366 1.40954 -2.9251 0
M  V30 1028 H 89.377 -1.7269 -4.88261 0
M  V30 1029 H 86.054 0.735312 -4.10974 0
M  V30 1030 H 87.444 -2.7701 -6.1214 0
M  V30 1031 N 90.1641 1.46063 -0.591896 0
M  V30 1032 C 91.5751 1.85944 -0.167822 0
M  V30 1033 C 91.9261 1.49429 1.27143 0
M  V30 1034 O 91.0511 0.913515 1.96173 0
M  V30 1035 C 91.6461 3.37489 -0.297794 0
M  V30 1036 C 90.2051 3.76332 0.0714732 0
M  V30 1037 C 89.3521 2.7006 -0.629509 0
M  V30 1038 H 92.3031 1.37087 -0.799555 0
M  V30 1039 H 92.3241 3.77532 0.474349 0
M  V30 1040 H 91.8361 3.64034 -1.3454 0
M  V30 1041 H 89.9371 3.55405 1.11886 0
M  V30 1042 H 90.0501 4.78088 -0.311245 0
M  V30 1043 H 88.4141 2.54607 -0.0687867 0
M  V30 1044 H 89.1971 2.99444 -1.67894 0
M  V30 1045 N 91.6422 0.330177 1.54103 0
M  V30 1046 C 92.5902 -0.548226 2.26047 0
M  V30 1047 C 93.5842 -1.11309 1.27698 0
M  V30 1048 O 94.7902 -1.06036 1.45452 0
M  V30 1049 H 91.1652 -0.195456 0.726155 0
M  V30 1050 H 93.1362 0.0807567 2.98291 0
M  V30 1051 C 91.8852 -1.69415 3.03634 0
M  V30 1052 H 91.2082 -1.26876 3.79134 0
M  V30 1053 H 92.6482 -2.28423 3.5721 0
M  V30 1054 C 91.1072 -2.61569 2.12328 0
M  V30 1055 O 91.6372 -3.63462 1.7105 0
M  V30 1056 N 89.8432 -2.29952 1.77681 0
M  V30 1057 H 89.3902 -1.47134 2.11446 0
M  V30 1058 H 89.3482 -2.91871 1.16869 0
M  V30 1059 N 93.1203 -1.57491 0.0584922 0
M  V30 1060 C 94.0503 -2.14988 -0.911178 0
M  V30 1061 C 95.0313 -1.07343 -1.31952 0
M  V30 1062 O 96.2163 -1.35318 -1.39294 0
M  V30 1063 C 93.3463 -2.70078 -2.18347 0
M  V30 1064 C 92.3003 -3.82771 -1.91495 0
M  V30 1065 C 91.6263 -4.24408 -3.25241 0
M  V30 1066 C 92.9263 -5.07592 -1.23075 0
M  V30 1067 H 94.6203 -2.96263 -0.432246 0
M  V30 1068 H 92.1663 -1.42512 -0.206469 0
M  V30 1069 H 94.1193 -3.08943 -2.86587 0
M  V30 1070 H 92.8433 -1.86005 -2.68458 0
M  V30 1071 H 91.5023 -3.44389 -1.25664 0
M  V30 1072 H 91.1503 -3.37275 -3.73168 0
M  V30 1073 H 90.8503 -5.00366 -3.08071 0
M  V30 1074 H 92.3743 -4.65879 -3.94701 0
M  V30 1075 H 93.7883 -5.43857 -1.81362 0
M  V30 1076 H 92.1853 -5.88741 -1.16207 0
M  V30 1077 H 93.2553 -4.84454 -0.207847 0
M  V30 1078 N 94.5984 0.214957 -1.56127 0
M  V30 1079 C 95.8444 0.939762 -1.79712 0
M  V30 1080 C 96.1774 1.83723 -0.629247 0
M  V30 1081 O 95.4524 1.90925 0.371197 0
M  V30 1082 C 95.7354 1.77306 -3.13424 0
M  V30 1083 C 95.5884 0.90164 -4.40671 0
M  V30 1084 C 96.9074 2.74956 -3.43638 0
M  V30 1085 H 94.0264 0.340214 -0.653776 0
M  V30 1086 H 96.6684 0.20824 -1.88855 0
M  V30 1087 H 94.8184 2.39673 -3.0576 0
M  V30 1088 H 96.4904 0.294206 -4.60361 0
M  V30 1089 H 94.7334 0.207368 -4.33304 0
M  V30 1090 H 95.4044 1.51923 -5.30682 0
M  V30 1091 H 97.8804 2.22724 -3.51473 0
M  V30 1092 H 96.7564 3.30358 -4.38355 0
M  V30 1093 H 97.0174 3.53023 -2.66134 0
M  V30 1094 N 96.0765 1.50051 0.48192 0
M  V30 1095 C 97.0245 1.68635 1.60203 0
M  V30 1096 C 98.0185 0.552184 1.60148 0
M  V30 1097 O 99.2245 0.732377 1.64427 0
M  V30 1098 H 95.5995 0.532081 0.531407 0
M  V30 1099 H 97.5705 2.62616 1.41688 0
M  V30 1100 C 96.3195 1.78775 2.9822 0
M  V30 1101 H 95.6425 2.6543 2.98976 0
M  V30 1102 H 97.0825 1.95806 3.7608 0
M  V30 1103 C 95.5415 0.536849 3.32595 0
M  V30 1104 O 96.0715 -0.328897 4.00351 0
M  V30 1105 N 94.2775 0.394091 2.87915 0
M  V30 1106 H 93.8245 1.09962 2.32951 0
M  V30 1107 H 93.7825 -0.441737 3.11281 0
M  V30 1108 N 97.5546 -0.734337 1.39446 0
M  V30 1109 C 98.4846 -1.86155 1.40955 0
M  V30 1110 C 99.4656 -1.67898 0.272827 0
M  V30 1111 O 100.651 -1.88207 0.478743 0
M  V30 1112 C 97.7806 -3.23912 1.25294 0
M  V30 1113 C 96.7346 -3.56808 2.36373 0
M  V30 1114 C 96.0606 -4.93508 2.058 0
M  V30 1115 C 97.3606 -3.59713 3.78687 0
M  V30 1116 H 99.0546 -1.8515 2.35287 0
M  V30 1117 H 96.6006 -0.889367 1.13253 0
M  V30 1118 H 98.5536 -4.02443 1.2497 0
M  V30 1119 H 97.2776 -3.25446 0.274308 0
M  V30 1120 H 95.9366 -2.80606 2.35914 0
M  V30 1121 H 95.5846 -4.91623 1.06374 0
M  V30 1122 H 95.2846 -5.16486 2.80208 0
M  V30 1123 H 96.8086 -5.74396 2.07128 0
M  V30 1124 H 98.2226 -4.2832 3.81071 0
M  V30 1125 H 96.6196 -3.94209 4.52459 0
M  V30 1126 H 97.6896 -2.59504 4.09617 0
M  V30 1127 N 99.0327 -1.24633 -0.964593 0
M  V30 1128 C 99.9627 -1.06611 -2.07741 0
M  V30 1129 C 100.944 0.0218666 -1.70086 0
M  V30 1130 O 102.129 -0.145793 -1.93652 0
M  V30 1131 C 99.2587 -0.673444 -3.40708 0
M  V30 1132 C 98.2127 -1.71054 -3.92332 0
M  V30 1133 C 97.5387 -1.17285 -5.21678 0
M  V30 1134 C 98.8387 -3.10718 -4.19824 0
M  V30 1135 H 100.533 -1.99693 -2.23076 0
M  V30 1136 H 98.0787 -0.96152 -1.07195 0
M  V30 1137 H 100.032 -0.534345 -4.17998 0
M  V30 1138 H 98.7557 0.293073 -3.25282 0
M  V30 1139 H 97.4147 -1.83791 -3.17201 0
M  V30 1140 H 97.0627 -0.196847 -5.02615 0
M  V30 1141 H 96.7627 -1.86592 -5.57187 0
M  V30 1142 H 98.2867 -1.04593 -6.01575 0
M  V30 1143 H 99.7007 -3.01192 -4.87808 0
M  V30 1144 H 98.0977 -3.77406 -4.66567 0
M  V30 1145 H 99.1677 -3.58524 -3.26479 0
M  V30 1146 N 100.511 1.16574 -1.06058 0
M  V30 1147 C 101.421 2.2452 -0.680282 0
M  V30 1148 C 102.437 1.71348 0.302604 0
M  V30 1149 O 103.613 2.00822 0.152513 0
M  V30 1150 C 100.678 3.46629 -0.0700315 0
M  V30 1151 C 99.7388 4.14849 -1.10448 0
M  V30 1152 C 98.9718 5.31129 -0.523256 0
M  V30 1153 O 99.1948 5.66514 0.664709 0
M  V30 1154 O 98.1288 5.88526 -1.26179 0
M  V30 1155 H 101.955 2.59355 -1.58015 0
M  V30 1156 H 99.5398 1.24043 -0.832694 0
M  V30 1157 H 101.422 4.20543 0.268667 0
M  V30 1158 H 100.097 3.13573 0.803353 0
M  V30 1159 H 99.0038 3.42916 -1.49532 0
M  V30 1160 H 100.337 4.51954 -1.94931 0
M  V30 1161 N 101.989 0.842826 1.3317 0
M  V30 1162 C 103.235 0.441099 1.97945 0
M  V30 1163 C 103.568 -0.998024 1.66593 0
M  V30 1164 O 102.843 -1.69839 0.947898 0
M  V30 1165 C 103.126 0.666841 3.53872 0
M  V30 1166 C 102.979 2.15352 3.94897 0
M  V30 1167 C 104.298 0.115544 4.39948 0
M  V30 1168 H 101.417 0.161739 0.719034 0
M  V30 1169 H 104.059 1.05907 1.57746 0
M  V30 1170 H 102.209 0.140828 3.88245 0
M  V30 1171 H 103.881 2.7447 3.70761 0
M  V30 1172 H 102.124 2.63653 3.44484 0
M  V30 1173 H 102.795 2.26221 5.03516 0
M  V30 1174 H 105.271 0.565213 4.12243 0
M  V30 1175 H 104.147 0.303152 5.48062 0
M  V30 1176 H 104.408 -0.980935 4.3108 0
M  V30 1177 N 103.467 -1.45747 0.599634 0
M  V30 1178 C 104.714 -2.02292 0.0917284 0
M  V30 1179 C 105.042 -1.46906 -1.27472 0
M  V30 1180 O 104.297 -0.630652 -1.8526 0
M  V30 1181 C 104.596 -3.57399 -0.00602758 0
M  V30 1182 C 104.262 -4.31902 1.29503 0
M  V30 1183 C 102.924 -4.51974 1.65144 0
M  V30 1184 C 105.276 -4.74551 2.15525 0
M  V30 1185 C 102.604 -5.11949 2.86574 0
M  V30 1186 C 104.956 -5.35868 3.36196 0
M  V30 1187 C 103.62 -5.54165 3.72099 0
M  V30 1188 H 102.89 -0.740239 0.0335658 0
M  V30 1189 H 105.537 -1.7491 0.779661 0
M  V30 1190 H 103.842 -3.84014 -0.777183 0
M  V30 1191 H 105.539 -3.98846 -0.415038 0
M  V30 1192 H 102.129 -4.16588 1.00761 0
M  V30 1193 H 106.313 -4.58784 1.8929 0
M  V30 1194 H 101.569 -5.24305 3.14507 0
M  V30 1195 H 105.743 -5.6787 4.03109 0
M  V30 1196 H 103.37 -6.00406 4.6628 0
M  V30 1197 N 104.945 -0.338344 -1.53925 0
M  V30 1198 C 106.361 0.0137736 -1.59594 0
M  V30 1199 C 106.561 1.49186 -1.35447 0
M  V30 1200 O 105.617 2.24987 -1.14616 0
M  V30 1201 C 106.93 -0.41773 -2.97784 0
M  V30 1202 C 108.478 -0.369633 -3.1081 0
M  V30 1203 C 108.953 -0.776524 -4.51369 0
M  V30 1204 N 110.444 -0.730506 -4.57403 0
M  V30 1205 C 111.179 -1.01736 -5.64303 0
M  V30 1206 N 110.675 -1.3721 -6.79077 0
M  V30 1207 N 112.468 -0.941942 -5.54151 0
M  V30 1208 H 104.619 -1.3012 -1.67876 0
M  V30 1209 H 106.882 -0.530082 -0.78595 0
M  V30 1210 H 106.588 -1.44811 -3.20504 0
M  V30 1211 H 106.462 0.209729 -3.76616 0
M  V30 1212 H 108.849 0.651568 -2.87817 0
M  V30 1213 H 108.93 -1.03223 -2.34049 0
M  V30 1214 H 108.574 -1.79571 -4.75096 0
M  V30 1215 H 108.504 -0.0914649 -5.26521 0
M  V30 1216 H 110.995 -0.468783 -3.74981 0
M  V30 1217 H 111.308 -1.57597 -7.5656 0
M  V30 1218 H 109.653 -1.4105 -6.80536 0
M  V30 1219 H 112.844 -0.664184 -4.63364 0
M  V30 1220 H 113.017 -1.16884 -6.37371 0
M  V30 1221 N 106.423 1.57458 -0.0668435 0
M  V30 1222 C 107.839 1.56947 0.289772 0
M  V30 1223 C 108.039 1.07584 1.70376 0
M  V30 1224 O 107.095 0.739486 2.41429 0
M  V30 1225 C 108.408 3.0052 0.103943 0
M  V30 1226 C 109.956 3.12517 0.173857 0
M  V30 1227 C 110.431 4.57997 0.0163682 0
M  V30 1228 N 111.922 4.63144 0.0721352 0
M  V30 1229 C 112.657 5.73394 -0.0253794 0
M  V30 1230 N 112.153 6.92576 -0.176133 0
M  V30 1231 N 113.946 5.62091 0.0313305 0
M  V30 1232 H 106.097 1.87863 -0.991027 0
M  V30 1233 H 108.36 0.86583 -0.38606 0
M  V30 1234 H 108.066 3.40729 -0.871572 0
M  V30 1235 H 107.94 3.67304 0.858366 0
M  V30 1236 H 110.327 2.72197 1.13985 0
M  V30 1237 H 110.408 2.48381 -0.611586 0
M  V30 1238 H 110.052 4.99005 -0.946374 0
M  V30 1239 H 109.982 5.20158 0.821153 0
M  V30 1240 H 112.473 3.77436 0.187263 0
M  V30 1241 H 112.786 7.72418 -0.242821 0
M  V30 1242 H 111.131 6.94678 -0.211429 0
M  V30 1243 H 114.322 4.67867 0.147773 0
M  V30 1244 H 114.495 6.47982 -0.048121 0
M  V30 1245 N 107.901 -0.206675 1.56239 0
M  V30 1246 C 108.848 -1.25617 1.93621 0
M  V30 1247 C 109.818 -1.45824 0.795274 0
M  V30 1248 O 111.003 -1.59148 1.05245 0
M  V30 1249 C 108.143 -2.59839 2.27107 0
M  V30 1250 C 107.256 -2.47308 3.54207 0
M  V30 1251 C 106.391 -3.74155 3.7707 0
M  V30 1252 C 105.43 -3.56407 4.97635 0
M  V30 1253 N 104.567 -4.75238 5.1681 0
M  V30 1254 H 109.407 -0.930383 2.83104 0
M  V30 1255 H 106.944 -0.448065 1.4011 0
M  V30 1256 H 108.902 -3.38021 2.44535 0
M  V30 1257 H 107.532 -2.90485 1.40778 0
M  V30 1258 H 106.584 -1.60483 3.4489 0
M  V30 1259 H 107.896 -2.30122 4.42544 0
M  V30 1260 H 107.05 -4.60778 3.94675 0
M  V30 1261 H 105.789 -3.94282 2.87042 0
M  V30 1262 H 104.794 -2.68168 4.79964 0
M  V30 1263 H 106.019 -3.37736 5.89161 0
M  V30 1264 H 103.965 -4.95651 4.29728 0
M  V30 1265 H 103.882 -4.60835 5.99306 0
M  V30 1266 H 105.15 -5.63246 5.38864 0
M  V30 1267 N 109.379 -1.50304 -0.473955 0
M  V30 1268 C 110.795 -1.37667 -0.807466 0
M  V30 1269 C 110.995 -0.430555 -1.96846 0
M  V30 1270 O 110.051 0.127874 -2.52176 0
M  V30 1271 C 111.364 -2.78974 -1.12223 0
M  V30 1272 C 112.912 -2.87868 -1.22885 0
M  V30 1273 C 113.387 -4.30003 -1.57676 0
M  V30 1274 N 114.878 -4.3294 -1.64673 0
M  V30 1275 C 115.613 -5.3991 -1.93091 0
M  V30 1276 N 115.109 -6.57092 -2.1955 0
M  V30 1277 N 116.902 -5.27351 -1.94569 0
M  V30 1278 H 109.053 -2.10394 0.291212 0
M  V30 1279 H 111.316 -0.945575 0.0677609 0
M  V30 1280 H 111.022 -3.50031 -0.342229 0
M  V30 1281 H 110.896 -3.16038 -2.05913 0
M  V30 1282 H 113.283 -2.17032 -1.99953 0
M  V30 1283 H 113.364 -2.54352 -0.271814 0
M  V30 1284 H 113.008 -5.01375 -0.81149 0
M  V30 1285 H 112.938 -4.61004 -2.54525 0
M  V30 1286 H 115.429 -3.48441 -1.46277 0
M  V30 1287 H 115.742 -7.34425 -2.405 0
M  V30 1288 H 114.087 -6.60272 -2.16948 0
M  V30 1289 H 117.278 -4.34801 -1.73394 0
M  V30 1290 H 117.451 -6.10805 -2.16381 0
M  V30 1291 N 110.857 0.726932 -1.39834 0
M  V30 1292 C 112.273 1.03354 -1.21615 0
M  V30 1293 C 112.473 2.01327 -0.08338 0
M  V30 1294 O 111.529 2.46158 0.56238 0
M  V30 1295 C 112.842 1.58811 -2.55342 0
M  V30 1296 C 114.39 1.70851 -2.62257 0
M  V30 1297 C 114.865 2.29716 -3.96225 0
M  V30 1298 N 116.356 2.37116 -3.97907 0
M  V30 1299 C 117.091 2.83619 -4.98345 0
M  V30 1300 N 116.587 3.29958 -6.09179 0
M  V30 1301 N 118.38 2.82901 -4.8572 0
M  V30 1302 H 110.531 0.0773069 -2.12259 0
M  V30 1303 H 112.794 0.0969102 -0.943034 0
M  V30 1304 H 112.5 0.942855 -3.38826 0
M  V30 1305 H 112.374 2.57502 -2.75632 0
M  V30 1306 H 114.761 2.34497 -1.79152 0
M  V30 1307 H 114.842 0.707913 -2.45809 0
M  V30 1308 H 114.486 1.66696 -4.79765 0
M  V30 1309 H 114.416 3.30469 -4.09997 0
M  V30 1310 H 116.907 2.04374 -3.17868 0
M  V30 1311 H 117.22 3.63976 -6.8172 0
M  V30 1312 H 115.565 3.27946 -6.12761 0
M  V30 1313 H 118.756 2.46027 -3.98231 0
M  V30 1314 H 118.929 3.18827 -5.6414 0
M  V30 1315 N 112.336 1.25143 0.95797 0
M  V30 1316 C 113.266 1.07711 2.07173 0
M  V30 1317 C 114.247 -0.0128462 1.70095 0
M  V30 1318 O 115.432 0.156061 1.93572 0
M  V30 1319 C 112.562 0.691503 3.40346 0
M  V30 1320 C 111.516 1.73132 3.9142 0
M  V30 1321 C 110.842 1.20049 5.21049 0
M  V30 1322 C 112.142 3.1294 4.1817 0
M  V30 1323 H 113.836 2.00873 2.22014 0
M  V30 1324 H 111.382 0.967191 1.06684 0
M  V30 1325 H 113.335 0.556505 4.17709 0
M  V30 1326 H 112.059 -0.275819 3.25433 0
M  V30 1327 H 110.718 1.8547 3.16222 0
M  V30 1328 H 110.366 0.223499 5.02503 0
M  V30 1329 H 110.066 1.89545 5.56189 0
M  V30 1330 H 111.59 1.07782 6.01012 0
M  V30 1331 H 113.004 3.03775 4.86203 0
M  V30 1332 H 111.401 3.79875 4.64559 0
M  V30 1333 H 112.471 3.6025 3.24573 0
M  V30 1334 N 113.814 -1.1601 1.06675 0
M  V30 1335 C 114.764 -2.18512 0.650888 0
M  V30 1336 C 115.748 -1.57677 -0.320441 0
M  V30 1337 O 116.94 -1.76482 -0.135266 0
M  V30 1338 C 114.069 -3.43273 0.0429255 0
M  V30 1339 C 113.155 -4.11176 1.03898 0
M  V30 1340 N 113.546 -4.54672 2.216 0
M  V30 1341 C 111.844 -4.37417 0.870779 0
M  V30 1342 C 112.545 -5.07248 2.84736 0
M  V30 1343 N 111.521 -5.0037 2.12441 0
M  V30 1344 H 115.323 -2.49863 1.54745 0
M  V30 1345 H 112.837 -1.32503 0.938975 0
M  V30 1346 H 114.834 -4.16006 -0.272857 0
M  V30 1347 H 113.494 -3.13408 -0.84884 0
M  V30 1348 H 114.505 -4.4828 2.59356 0
M  V30 1349 H 111.182 -4.17488 0.0313293 0
M  V30 1350 H 112.572 -5.50912 3.84636 0
M  V30 1351 N 115.292 -0.849877 -1.32721 0
M  V30 1352 C 116.222 -0.306308 -2.31482 0
M  V30 1353 C 117.203 0.591952 -1.59468 0
M  V30 1354 O 118.388 0.513199 -1.87296 0
M  V30 1355 C 115.518 0.510204 -3.43532 0
M  V30 1356 C 114.472 -0.293209 -4.26994 0
M  V30 1357 C 113.798 0.647743 -5.30762 0
M  V30 1358 C 115.098 -1.51634 -4.99804 0
M  V30 1359 H 116.792 -1.13153 -2.77195 0
M  V30 1360 H 114.338 -0.545553 -1.33266 0
M  V30 1361 H 116.291 0.900856 -4.11658 0
M  V30 1362 H 115.015 1.36874 -2.96535 0
M  V30 1363 H 113.674 -0.665555 -3.60508 0
M  V30 1364 H 113.322 1.50299 -4.8002 0
M  V30 1365 H 113.022 0.11422 -5.87489 0
M  V30 1366 H 114.546 1.03567 -6.01753 0
M  V30 1367 H 115.96 -1.19824 -5.60638 0
M  V30 1368 H 114.357 -1.98745 -5.66234 0
M  V30 1369 H 115.427 -2.28018 -4.27943 0
M  V30 1370 N 116.77 1.45427 -0.607355 0
M  V30 1371 C 118.016 2.0254 -0.102607 0
M  V30 1372 C 118.349 1.47478 1.26348 0
M  V30 1373 O 117.624 0.64939 1.83339 0
M  V30 1374 C 117.907 3.60044 -0.0634347 0
M  V30 1375 C 117.76 4.2544 -1.46017 0
M  V30 1376 C 119.079 4.35646 0.624514 0
M  V30 1377 H 116.198 0.73598 -0.0387607 0
M  V30 1378 H 118.84 1.73284 -0.779282 0
M  V30 1379 H 116.99 3.85101 0.512808 0
M  V30 1380 H 118.662 4.11569 -2.08347 0
M  V30 1381 H 116.905 3.83849 -2.02094 0
M  V30 1382 H 117.576 5.34342 -1.385 0
M  V30 1383 H 120.052 4.15882 0.134723 0
M  V30 1384 H 118.928 5.45376 0.621028 0
M  V30 1385 H 119.189 4.08501 1.69055 0
M  V30 1386 N 118.248 0.346503 1.53744 0
M  V30 1387 C 119.495 -0.249104 2.00962 0
M  V30 1388 C 119.823 -1.5032 1.23426 0
M  V30 1389 O 119.078 -1.93217 0.310761 0
M  V30 1390 C 119.377 -0.605809 3.52228 0
M  V30 1391 C 119.043 0.551747 4.47512 0
M  V30 1392 C 117.705 0.86941 4.73281 0
M  V30 1393 C 120.057 1.32818 5.03993 0
M  V30 1394 C 117.385 1.96582 5.52786 0
M  V30 1395 C 119.737 2.41486 5.84694 0
M  V30 1396 C 118.401 2.73808 6.08757 0
M  V30 1397 H 117.671 -0.0911538 0.735372 0
M  V30 1398 H 120.318 0.475027 1.85515 0
M  V30 1399 H 118.623 -1.4107 3.65522 0
M  V30 1400 H 120.32 -1.07858 3.86222 0
M  V30 1401 H 116.91 0.294102 4.2759 0
M  V30 1402 H 121.094 1.09602 4.84047 0
M  V30 1403 H 116.35 2.22045 5.69654 0
M  V30 1404 H 120.524 3.02078 6.27473 0
M  V30 1405 H 118.151 3.58892 6.7015 0
M  V30 1406 N 119.726 -1.57421 0.075193 0
M  V30 1407 C 120.636 -2.1642 -0.905511 0
M  V30 1408 C 121.652 -1.12828 -1.32461 0
M  V30 1409 O 122.828 -1.45109 -1.39661 0
M  V30 1410 C 119.893 -2.71693 -2.15369 0
M  V30 1411 C 118.954 -3.90171 -1.79068 0
M  V30 1412 C 118.187 -4.42798 -2.97936 0
M  V30 1413 O 118.41 -3.94416 -4.12058 0
M  V30 1414 O 117.344 -5.34085 -2.77555 0
M  V30 1415 H 121.17 -3.00588 -0.433626 0
M  V30 1416 H 118.755 -1.48664 -0.148067 0
M  V30 1417 H 120.637 -3.07104 -2.88557 0
M  V30 1418 H 119.312 -1.90582 -2.61649 0
M  V30 1419 H 118.219 -3.59606 -1.03122 0
M  V30 1420 H 119.552 -4.72584 -1.37569 0
M  V30 1421 N 121.204 0.198386 -1.56346 0
M  V30 1422 C 122.434 0.934215 -1.84271 0
M  V30 1423 C 122.842 1.77496 -0.655125 0
M  V30 1424 O 122.185 1.7961 0.385488 0
M  V30 1425 C 122.247 1.88278 -3.06254 0
M  V30 1426 C 121.911 1.22431 -4.40295 0
M  V30 1427 C 122.908 0.602839 -5.16393 0
M  V30 1428 C 120.593 1.22915 -4.87029 0
M  V30 1429 C 122.587 -0.0050083 -6.374 0
M  V30 1430 C 120.274 0.617465 -6.07973 0
M  V30 1431 C 121.272 0.00146341 -6.83 0
M  V30 1432 O 120.96 -0.600642 -8.01653 0
M  V30 1433 H 120.692 0.278245 -0.616081 0
M  V30 1434 H 123.246 0.211626 -2.04307 0
M  V30 1435 H 121.476 2.64498 -2.82095 0
M  V30 1436 H 123.165 2.48612 -3.20853 0
M  V30 1437 H 123.931 0.591265 -4.81382 0
M  V30 1438 H 119.81 1.69801 -4.28589 0
M  V30 1439 H 123.354 -0.48643 -6.95902 0
M  V30 1440 H 119.251 0.62653 -6.42452 0
M  V30 1441 H 120.019 -0.497225 -8.16988 0
M  V30 1442 N 122.682 1.50554 0.465978 0
M  V30 1443 C 123.922 1.63439 1.22747 0
M  V30 1444 C 124.286 0.329822 1.89146 0
M  V30 1445 O 125.487 0.334161 2.66715 0
M  V30 1446 C 123.758 2.78542 2.2394 0
M  V30 1447 S 125.317 3.11591 3.0896 0
M  V30 1448 H 122.135 0.576113 0.416672 0
M  V30 1449 H 124.737 1.88357 0.523641 0
M  V30 1450 H 123.441 3.71805 1.7375 0
M  V30 1451 H 122.972 2.55726 2.98944 0
M  V30 1452 H 124.987 2.55811 4.25176 0
M  V30 1453 N 124.16 -0.719506 1.40217 0
M  V30 1454 C 125.437 -1.47221 1.28784 0
M  V30 1455 C 125.817 -2.10883 -0.0956067 0
M  V30 1456 O 125.165 -1.99833 -1.10811 0
M  V30 1457 C 125.375 -2.5111 2.42373 0
M  V30 1458 C 126.723 -3.17053 2.82423 0
M  V30 1459 O 127.747 -2.61429 2.41937 0
M  V30 1460 O 126.606 -4.17742 3.52355 0
M  V30 1461 H 123.7 -0.654491 0.50554 0
M  V30 1462 H 126.246 -0.752014 1.52128 0
M  V30 1463 H 125.018 -2.02556 3.34793 0
M  V30 1464 H 124.641 -3.3067 2.20778 0
M  V30 1465 N 125.638 -1.25649 -0.95132 0
M  V30 1466 C 126.588 -1.03004 -2.03406 0
M  V30 1467 C 127.572 0.034187 -1.60864 0
M  V30 1468 O 128.764 -0.181549 -1.76066 0
M  V30 1469 C 125.893 -0.654255 -3.37008 0
M  V30 1470 C 124.979 -1.75542 -3.86065 0
M  V30 1471 N 125.37 -2.99113 -4.07879 0
M  V30 1472 C 123.668 -1.63669 -4.14884 0
M  V30 1473 C 124.369 -3.70611 -4.48356 0
M  V30 1474 N 123.345 -2.98247 -4.54477 0
M  V30 1475 H 127.147 -1.96813 -2.1827 0
M  V30 1476 H 124.661 -1.16017 -1.13639 0
M  V30 1477 H 126.658 -0.473206 -4.14206 0
M  V30 1478 H 125.318 0.276468 -3.23521 0
M  V30 1479 H 126.329 -3.35124 -3.94857 0
M  V30 1480 H 123.006 -0.775161 -4.10241 0
M  V30 1481 H 124.396 -4.76695 -4.73509 0
M  V30 1482 N 127.117 1.15442 -1.07289 0
M  V30 1483 C 128.345 1.90096 -0.81676 0
M  V30 1484 C 128.76 1.7798 0.629966 0
M  V30 1485 O 128.117 1.1313 1.43206 0
M  V30 1486 C 128.168 3.40466 -1.21512 0
M  V30 1487 O 127.889 3.52232 -2.60508 0
M  V30 1488 C 129.39 4.32145 -0.988198 0
M  V30 1489 H 126.61 0.602495 -0.295366 0
M  V30 1490 H 129.154 1.4627 -1.42918 0
M  V30 1491 H 127.309 3.81958 -0.647039 0
M  V30 1492 H 127.723 4.45549 -2.76742 0
M  V30 1493 H 129.197 5.36072 -1.31645 0
M  V30 1494 H 129.674 4.39135 0.0755063 0
M  V30 1495 H 130.28 3.96395 -1.54115 0
M  V30 1496 N 128.595 0.856903 1.32268 0
M  V30 1497 C 129.841 0.462069 1.97466 0
M  V30 1498 C 130.174 -0.980298 1.67642 0
M  V30 1499 O 129.449 -1.68824 0.965858 0
M  V30 1500 C 129.732 0.704336 3.53145 0
M  V30 1501 C 129.585 2.19529 3.9259 0
M  V30 1502 C 130.904 0.1622 4.39801 0
M  V30 1503 H 128.023 0.169357 0.717278 0
M  V30 1504 H 130.665 1.07574 1.56614 0
M  V30 1505 H 128.815 0.181999 3.88073 0
M  V30 1506 H 130.487 2.78387 3.67829 0
M  V30 1507 H 128.73 2.67292 3.41668 0
M  V30 1508 H 129.401 2.31549 5.01088 0
M  V30 1509 H 131.877 0.608905 4.11621 0
M  V30 1510 H 130.753 0.361265 5.4771 0
M  V30 1511 H 131.014 -0.935158 4.32096 0
M  V30 1512 N 130.073 -1.45103 0.615059 0
M  V30 1513 C 131.003 -2.33339 -0.0865619 0
M  V30 1514 C 131.984 -1.4727 -0.851209 0
M  V30 1515 O 133.169 -1.76026 -0.820281 0
M  V30 1516 C 130.299 -3.30095 -1.07956 0
M  V30 1517 C 129.253 -4.25858 -0.427628 0
M  V30 1518 C 128.579 -5.12361 -1.5294 0
M  V30 1519 C 129.879 -5.18165 0.655944 0
M  V30 1520 H 131.573 -2.92254 0.650224 0
M  V30 1521 H 129.119 -1.40532 0.314138 0
M  V30 1522 H 131.072 -3.90698 -1.57901 0
M  V30 1523 H 129.796 -2.69355 -1.84703 0
M  V30 1524 H 128.455 -3.66564 0.0510292 0
M  V30 1525 H 128.103 -4.47984 -2.28734 0
M  V30 1526 H 127.803 -5.77238 -1.09865 0
M  V30 1527 H 129.327 -5.75833 -2.03098 0
M  V30 1528 H 130.741 -5.72796 0.240257 0
M  V30 1529 H 129.138 -5.91559 1.00888 0
M  V30 1530 H 130.208 -4.60144 1.52957 0
M  V30 1531 N 131.551 -0.354651 -1.53558 0
M  V30 1532 C 132.501 0.513179 -2.2215 0
M  V30 1533 C 133.485 1.05734 -1.21281 0
M  V30 1534 O 134.677 0.989202 -1.46778 0
M  V30 1535 C 131.806 1.65798 -3.00609 0
M  V30 1536 C 130.892 1.12722 -4.08845 0
M  V30 1537 N 131.283 0.318563 -5.04796 0
M  V30 1538 C 129.581 1.40307 -4.23356 0
M  V30 1539 C 130.282 0.0292224 -5.81693 0
M  V30 1540 N 129.258 0.623891 -5.40008 0
M  V30 1541 H 133.06 -0.111586 -2.93688 0
M  V30 1542 H 130.574 -0.162091 -1.61589 0
M  V30 1543 H 132.571 2.29176 -3.48258 0
M  V30 1544 H 131.231 2.28591 -2.306 0
M  V30 1545 H 132.242 -0.0413091 -5.17884 0
M  V30 1546 H 128.919 2.03458 -3.6457 0
M  V30 1547 H 130.309 -0.623808 -6.68998 0
M  V30 1548 N 133.029 1.57378 -0.0835403 0
M  V30 1549 C 133.939 2.16897 0.894021 0
M  V30 1550 C 134.955 1.13528 1.31861 0
M  V30 1551 O 136.131 1.45848 1.3889 0
M  V30 1552 C 133.196 2.72831 2.13925 0
M  V30 1553 C 132.257 3.91115 1.76997 0
M  V30 1554 C 131.49 4.44371 2.95584 0
M  V30 1555 O 131.713 3.96596 4.09961 0
M  V30 1556 O 130.647 5.35549 2.74719 0
M  V30 1557 H 134.473 3.00814 0.417679 0
M  V30 1558 H 132.058 1.48741 0.140181 0
M  V30 1559 H 133.94 3.0863 2.86924 0
M  V30 1560 H 132.615 1.91967 2.60635 0
M  V30 1561 H 131.522 3.60148 1.01214 0
M  V30 1562 H 132.855 4.73307 1.3506 0
M  V30 1563 N 134.507 -0.190092 1.56449 0
M  V30 1564 C 135.437 -1.23816 1.97969 0
M  V30 1565 C 136.418 -1.47201 0.852395 0
M  V30 1566 O 137.603 -1.58854 1.1171 0
M  V30 1567 C 134.733 -2.5813 2.3235 0
M  V30 1568 C 133.687 -2.49348 3.47864 0
M  V30 1569 C 133.013 -3.8798 3.67934 0
M  V30 1570 C 134.313 -2.01424 4.81898 0
M  V30 1571 H 136.007 -0.89311 2.85769 0
M  V30 1572 H 133.553 -0.428177 1.37487 0
M  V30 1573 H 135.506 -3.31637 2.59991 0
M  V30 1574 H 134.23 -2.94386 1.41438 0
M  V30 1575 H 132.889 -1.78297 3.20321 0
M  V30 1576 H 132.537 -4.21597 2.74344 0
M  V30 1577 H 132.237 -3.82978 4.45648 0
M  V30 1578 H 133.761 -4.63101 3.97957 0
M  V30 1579 H 135.175 -2.64693 5.08538 0
M  V30 1580 H 133.572 -2.07413 5.63116 0
M  V30 1581 H 134.642 -0.967677 4.75146 0
M  V30 1582 N 135.985 -1.50799 -0.457987 0
M  V30 1583 C 137.262 -1.52968 -1.21902 0
M  V30 1584 C 137.642 -0.281906 -2.09209 0
M  V30 1585 O 136.99 0.734076 -2.16388 0
M  V30 1586 C 137.2 -2.8326 -2.03875 0
M  V30 1587 C 138.548 -3.34425 -2.6162 0
M  V30 1588 O 139.572 -2.8467 -2.14106 0
M  V30 1589 O 138.431 -4.21188 -3.48228 0
M  V30 1590 H 135.525 -0.614129 -0.553873 0
M  V30 1591 H 138.071 -1.63098 -0.468739 0
M  V30 1592 H 136.843 -3.65543 -1.39621 0
M  V30 1593 H 136.466 -2.76195 -2.8601 0
M  V30 1594 N 137.463 0.71206 -1.40597 0
M  V30 1595 C 138.879 1.02058 -1.22704 0
M  V30 1596 C 139.079 2.01228 -0.104729 0
M  V30 1597 O 138.135 2.4674 0.53624 0
M  V30 1598 C 139.448 1.56094 -2.57012 0
M  V30 1599 C 140.996 1.6806 -2.64054 0
M  V30 1600 C 141.471 2.25501 -3.9864 0
M  V30 1601 N 142.962 2.32882 -4.004 0
M  V30 1602 C 143.697 2.78317 -5.01325 0
M  V30 1603 N 143.193 3.23478 -6.12645 0
M  V30 1604 N 144.986 2.77733 -4.88693 0
M  V30 1605 H 137.137 0.0547896 -2.12329 0
M  V30 1606 H 139.4 0.0869027 -0.944008 0
M  V30 1607 H 139.106 0.906865 -3.39807 0
M  V30 1608 H 138.98 2.54564 -2.78347 0
M  V30 1609 H 141.367 2.32583 -1.81629 0
M  V30 1610 H 141.448 0.681802 -2.46546 0
M  V30 1611 H 141.092 1.61598 -4.81506 0
M  V30 1612 H 141.022 3.26102 -4.13479 0
M  V30 1613 H 143.513 2.00991 -3.20017 0
M  V30 1614 H 143.826 3.56725 -6.85542 0
M  V30 1615 H 142.171 3.21429 -6.16205 0
M  V30 1616 H 145.362 2.4179 -4.00818 0
M  V30 1617 H 145.535 3.12826 -5.67489 0
M  V30 1618 N 138.941 1.26152 0.944643 0
M  V30 1619 C 140.171 1.14094 1.72239 0
M  V30 1620 C 140.579 -0.306931 1.86694 0
M  V30 1621 O 139.922 -1.22222 1.3714 0
M  V30 1622 C 139.984 1.73316 3.14963 0
M  V30 1623 C 139.648 3.2239 3.23904 0
M  V30 1624 C 140.645 4.19252 3.07447 0
M  V30 1625 C 138.33 3.62788 3.47405 0
M  V30 1626 C 140.324 5.54491 3.14353 0
M  V30 1627 C 138.011 4.98162 3.53947 0
M  V30 1628 C 139.009 5.93823 3.37436 0
M  V30 1629 O 138.697 7.26732 3.43679 0
M  V30 1630 H 138.429 0.398292 0.546205 0
M  V30 1631 H 140.983 1.67201 1.19301 0
M  V30 1632 H 139.213 1.14667 3.69308 0
M  V30 1633 H 140.902 1.56214 3.74636 0
M  V30 1634 H 141.668 3.8938 2.8915 0
M  V30 1635 H 137.547 2.88816 3.59313 0
M  V30 1636 H 141.091 6.29137 3.01384 0
M  V30 1637 H 136.988 5.27695 3.71763 0
M  V30 1638 H 137.756 7.3496 3.60245 0
M  V30 1639 N 140.419 -1.14872 1.07899 0
M  V30 1640 C 141.351 -2.19425 0.662231 0
M  V30 1641 C 142.364 -1.60231 -0.288079 0
M  V30 1642 O 143.553 -1.78336 -0.076534 0
M  V30 1643 C 140.653 -3.38867 -0.0470695 0
M  V30 1644 C 139.826 -4.27597 0.920831 0
M  V30 1645 C 138.885 -5.25616 0.247805 0
M  V30 1646 O 137.911 -5.62189 0.890599 0
M  V30 1647 N 139.113 -5.71746 -1.00435 0
M  V30 1648 H 141.878 -2.55797 1.56166 0
M  V30 1649 H 139.439 -1.30042 0.964404 0
M  V30 1650 H 141.431 -4.01497 -0.50813 0
M  V30 1651 H 140.001 -3.00864 -0.848523 0
M  V30 1652 H 139.221 -3.61982 1.56087 0
M  V30 1653 H 140.509 -4.83748 1.57688 0
M  V30 1654 H 139.907 -5.44153 -1.54642 0
M  V30 1655 H 138.464 -6.36389 -1.40899 0
M  V30 1656 N 141.898 -0.863906 -1.31812 0
M  V30 1657 C 143.314 -0.555004 -1.49639 0
M  V30 1658 C 143.514 0.912266 -1.79666 0
M  V30 1659 O 142.57 1.69479 -1.87171 0
M  V30 1660 C 143.883 -1.44998 -2.63431 0
M  V30 1661 C 145.431 -1.45138 -2.77316 0
M  V30 1662 C 145.906 -2.33179 -3.94197 0
M  V30 1663 N 147.397 -2.31025 -4.01474 0
M  V30 1664 C 148.132 -2.95871 -4.9117 0
M  V30 1665 N 147.628 -3.69863 -5.8581 0
M  V30 1666 N 149.421 -2.85211 -4.84367 0
M  V30 1667 H 141.572 -1.81339 -1.10589 0
M  V30 1668 H 143.835 -0.77505 -0.545895 0
M  V30 1669 H 143.541 -2.49377 -2.48 0
M  V30 1670 H 143.415 -1.14409 -3.59431 0
M  V30 1671 H 145.802 -0.415201 -2.92164 0
M  V30 1672 H 145.883 -1.79747 -1.82001 0
M  V30 1673 H 145.527 -3.3687 -3.80107 0
M  V30 1674 H 145.457 -1.95897 -4.88807 0
M  V30 1675 H 147.948 -1.77238 -3.33759 0
M  V30 1676 H 148.261 -4.16486 -6.50968 0
M  V30 1677 H 146.606 -3.73971 -5.85808 0
M  V30 1678 H 149.797 -2.26948 -4.09405 0
M  V30 1679 H 149.97 -3.36027 -5.54066 0
M  V30 1680 N 143.376 1.44774 -0.622745 0
M  V30 1681 C 144.624 2.01721 -0.123655 0
M  V30 1682 C 144.945 1.49172 1.25589 0
M  V30 1683 O 144.215 0.691974 1.83272 0
M  V30 1684 H 142.795 0.745777 -0.0427225 0
M  V30 1685 H 145.457 1.77382 -0.807559 0
M  V30 1686 H 144.553 3.11984 -0.0849534 0
M  V30 1687 N 144.854 0.36279 1.53368 0
M  V30 1688 C 146.1 -0.228113 2.01513 0
M  V30 1689 C 146.433 -1.48648 1.2497 0
M  V30 1690 O 145.708 -1.91459 0.342616 0
M  V30 1691 C 145.991 -0.522884 3.56284 0
M  V30 1692 C 145.844 0.74892 4.43521 0
M  V30 1693 C 147.163 -1.32461 4.19693 0
M  V30 1694 H 144.282 -0.0814343 0.732487 0
M  V30 1695 H 146.924 0.48713 1.83649 0
M  V30 1696 H 145.074 -1.1322 3.71636 0
M  V30 1697 H 146.746 1.38648 4.39971 0
M  V30 1698 H 144.989 1.36986 4.11603 0
M  V30 1699 H 145.66 0.497667 5.49752 0
M  V30 1700 H 148.136 -0.809203 4.08156 0
M  V30 1701 H 147.012 -1.49961 5.28018 0
M  V30 1702 H 147.273 -2.33232 3.75573 0
M  V30 1703 N 146.332 -1.57332 0.0918853 0
M  V30 1704 C 147.743 -1.81496 -0.437739 0
M  V30 1705 C 148.094 -1.00727 -1.6837 0
M  V30 1706 O 147.219 -0.235694 -2.15113 0
M  V30 1707 C 147.814 -3.29197 -0.800939 0
M  V30 1708 C 146.373 -3.54136 -1.27532 0
M  V30 1709 C 145.52 -2.75979 -0.270392 0
M  V30 1710 H 148.471 -1.55494 0.317366 0
M  V30 1711 H 148.492 -3.42344 -1.66074 0
M  V30 1712 H 148.004 -3.87955 0.106078 0
M  V30 1713 H 146.105 -3.00705 -2.20016 0
M  V30 1714 H 146.218 -4.62792 -1.23938 0
M  V30 1715 H 144.582 -2.43349 -0.751872 0
M  V30 1716 H 145.365 -3.37484 0.629248 0
M  V30 1717 N 147.81 0.181792 -1.56548 0
M  V30 1718 C 148.72 1.24538 -1.98815 0
M  V30 1719 C 149.736 1.49045 -0.897861 0
M  V30 1720 O 150.912 1.61399 -1.20467 0
M  V30 1721 C 147.977 2.56683 -2.33055 0
M  V30 1722 C 147.038 2.40131 -3.55859 0
M  V30 1723 C 146.271 3.65975 -3.88456 0
M  V30 1724 O 146.494 4.70711 -3.22161 0
M  V30 1725 O 145.428 3.6071 -4.81842 0
M  V30 1726 H 149.254 0.916647 -2.89536 0
M  V30 1727 H 146.839 0.387842 -1.44278 0
M  V30 1728 H 148.721 3.34655 -2.56094 0
M  V30 1729 H 147.396 2.89157 -1.45498 0
M  V30 1730 H 146.303 1.60226 -3.38051 0
M  V30 1731 H 147.636 2.12585 -4.43924 0
M  V30 1732 N 149.288 1.51039 0.449983 0
M  V30 1733 C 150.238 1.67824 1.54335 0
M  V30 1734 C 151.222 0.5324 1.51836 0
M  V30 1735 O 152.414 0.787762 1.58503 0
M  V30 1736 C 149.543 1.7951 2.92628 0
M  V30 1737 C 148.629 2.99838 2.9993 0
M  V30 1738 N 149.02 4.23207 2.77001 0
M  V30 1739 C 147.318 2.98832 3.31082 0
M  V30 1740 C 148.019 5.04361 2.89818 0
M  V30 1741 N 146.995 4.38746 3.2094 0
M  V30 1742 H 150.797 2.60884 1.35339 0
M  V30 1743 H 148.311 1.48513 0.657085 0
M  V30 1744 H 150.308 1.89642 3.7127 0
M  V30 1745 H 148.968 0.876227 3.12654 0
M  V30 1746 H 149.979 4.5236 2.52172 0
M  V30 1747 H 146.656 2.16527 3.56963 0
M  V30 1748 H 148.046 6.12528 2.76151 0
M  V30 1749 N 150.766 -0.704594 1.40972 0
M  V30 1750 C 151.696 -1.83124 1.44872 0
M  V30 1751 C 152.677 -1.67281 0.30838 0
M  V30 1752 O 153.862 -1.87149 0.518556 0
M  V30 1753 C 150.992 -3.21181 1.32136 0
M  V30 1754 C 149.946 -3.51714 2.43888 0
M  V30 1755 C 149.272 -4.89032 2.16222 0
M  V30 1756 C 150.572 -3.516 3.86232 0
M  V30 1757 H 152.266 -1.80117 2.39161 0
M  V30 1758 H 149.812 -0.865145 1.15114 0
M  V30 1759 H 151.765 -3.99702 1.33479 0
M  V30 1760 H 150.489 -3.24791 0.343279 0
M  V30 1761 H 149.148 -2.75539 2.41813 0
M  V30 1762 H 148.796 -4.89256 1.16778 0
M  V30 1763 H 148.496 -5.10426 2.911 0
M  V30 1764 H 150.02 -5.69873 2.19265 0
M  V30 1765 H 151.434 -4.2014 3.9007 0
M  V30 1766 H 149.831 -3.84523 4.60719 0
M  V30 1767 H 150.901 -2.50757 4.15029 0
M  V30 1768 N 152.244 -1.26651 -0.937939 0
M  V30 1769 C 153.49 -1.12553 -1.687 0
M  V30 1770 C 153.823 0.329782 -1.91379 0
M  V30 1771 O 153.098 1.24202 -1.4968 0
M  V30 1772 C 153.381 -1.89862 -3.05981 0
M  V30 1773 C 153.234 -3.43318 -2.90607 0
M  V30 1774 C 154.553 -1.69499 -4.0615 0
M  V30 1775 H 151.672 -0.410257 -0.612257 0
M  V30 1776 H 154.314 -1.55685 -1.08913 0
M  V30 1777 H 152.464 -1.53204 -3.57017 0
M  V30 1778 H 154.136 -3.89747 -2.46769 0
M  V30 1779 H 152.379 -3.70179 -2.26164 0
M  V30 1780 H 153.05 -3.92642 -3.8799 0
M  V30 1781 H 155.526 -2.01442 -3.64088 0
M  V30 1782 H 154.402 -2.26002 -5.00214 0
M  V30 1783 H 154.663 -0.640365 -4.37438 0
M  V30 1784 N 153.722 1.14298 -1.08507 0
M  V30 1785 C 154.669 2.19414 -0.715965 0
M  V30 1786 C 155.639 1.63399 0.298326 0
M  V30 1787 O 156.824 1.89929 0.182101 0
M  V30 1788 C 153.964 3.44845 -0.132534 0
M  V30 1789 C 153.077 4.15007 -1.19973 0
M  V30 1790 C 152.212 5.28024 -0.580048 0
M  V30 1791 C 151.251 5.9002 -1.62921 0
M  V30 1792 N 150.388 6.94485 -1.03125 0
M  V30 1793 H 155.228 2.50336 -1.61666 0
M  V30 1794 H 152.765 1.2293 -0.807882 0
M  V30 1795 H 154.723 4.16601 0.223454 0
M  V30 1796 H 153.353 3.14403 0.731467 0
M  V30 1797 H 152.405 3.41629 -1.67313 0
M  V30 1798 H 153.717 4.57178 -1.99473 0
M  V30 1799 H 152.871 6.06455 -0.172364 0
M  V30 1800 H 151.61 4.87076 0.246603 0
M  V30 1801 H 150.615 5.10291 -2.04654 0
M  V30 1802 H 151.84 6.33042 -2.45835 0
M  V30 1803 H 149.786 6.55612 -0.225711 0
M  V30 1804 H 149.703 7.35148 -1.76334 0
M  V30 1805 H 150.971 7.7679 -0.649458 0
M  V30 1806 N 155.201 0.870884 1.31352 0
M  V30 1807 C 156.426 0.495957 2.01383 0
M  V30 1808 C 156.851 -0.904324 1.64935 0
M  V30 1809 O 156.209 -1.59687 0.858466 0
M  V30 1810 C 156.257 0.661433 3.54482 0
M  V30 1811 O 155.361 -0.298851 4.11316 0
M  V30 1812 H 154.702 0.197158 0.634054 0
M  V30 1813 H 157.232 1.17455 1.67527 0
M  V30 1814 H 157.242 0.555072 4.04207 0
M  V30 1815 H 155.917 1.68246 3.8035 0
M  V30 1816 H 154.494 -0.147368 3.72609 0
M  V30 1817 N 156.679 -1.44442 0.630414 0
M  V30 1818 C 157.928 -2.01267 0.132073 0
M  V30 1819 C 158.241 -1.50172 -1.25331 0
M  V30 1820 O 159.447 -1.9912 -1.84562 0
M  V30 1821 C 157.903 -3.59422 0.185362 0
M  V30 1822 C 157.511 -4.19514 1.57201 0
M  V30 1823 C 159.255 -4.23724 -0.256553 0
M  V30 1824 C 157.162 -5.69891 1.58045 0
M  V30 1825 H 156.092 -0.752619 0.0456092 0
M  V30 1826 H 158.743 -1.65666 0.789106 0
M  V30 1827 H 157.125 -3.92318 -0.538759 0
M  V30 1828 H 158.299 -3.98156 2.31966 0
M  V30 1829 H 156.614 -3.67496 1.95795 0
M  V30 1830 H 159.211 -5.34019 -0.269767 0
M  V30 1831 H 159.554 -3.96013 -1.28372 0
M  V30 1832 H 160.087 -3.95629 0.41505 0
M  V30 1833 H 156.826 -6.02336 2.58597 0
M  V30 1834 H 156.346 -5.93373 0.875725 0
M  V30 1835 H 158.025 -6.33515 1.31408 0
M  V30 1836 N 158.157 -0.370918 -1.53173 0
M  V30 1837 C 159.385 0.217704 -2.05751 0
M  V30 1838 C 159.8 1.42018 -1.24404 0
M  V30 1839 O 159.157 1.80245 -0.286033 0
M  V30 1840 C 159.208 0.605954 -3.56385 0
M  V30 1841 O 158.929 -0.548734 -4.3465 0
M  V30 1842 C 160.43 1.2524 -4.25241 0
M  V30 1843 H 157.65 0.0371659 -0.66997 0
M  V30 1844 H 160.194 -0.530832 -1.9749 0
M  V30 1845 H 158.349 1.3044 -3.6478 0
M  V30 1846 H 158.763 -0.23376 -5.23979 0
M  V30 1847 H 160.237 1.47458 -5.3194 0
M  V30 1848 H 160.714 2.2143 -3.79296 0
M  V30 1849 H 161.32 0.595233 -4.21114 0
M  V30 1850 N 159.635 1.57281 -0.100228 0
M  V30 1851 C 160.881 1.95626 0.556946 0
M  V30 1852 C 161.236 0.981655 1.65473 0
M  V30 1853 O 160.529 0.00849847 1.91598 0
M  V30 1854 C 160.723 3.38305 1.15259 0
M  V30 1855 C 160.552 4.49555 0.114035 0
M  V30 1856 C 159.322 5.0434 -0.311266 0
M  V30 1857 C 161.52 5.10051 -0.659768 0
M  V30 1858 N 159.502 5.99152 -1.33755 0
M  V30 1859 C 160.873 6.00628 -1.53774 0
M  V30 1860 C 162.928 4.92772 -0.712723 0
M  V30 1861 C 161.631 6.7578 -2.46403 0
M  V30 1862 C 163.657 5.6859 -1.62663 0
M  V30 1863 C 163.019 6.58838 -2.49222 0
M  V30 1864 H 159.118 0.7624 0.173982 0
M  V30 1865 H 161.702 1.93829 -0.183988 0
M  V30 1866 H 159.873 3.40786 1.86332 0
M  V30 1867 H 161.605 3.63817 1.77254 0
M  V30 1868 H 158.36 4.73537 0.0774812 0
M  V30 1869 H 158.784 6.5126 -1.84905 0
M  V30 1870 H 163.426 4.22761 -0.0576648 0
M  V30 1871 H 161.144 7.4505 -3.12931 0
M  V30 1872 H 164.73 5.57233 -1.67281 0
M  V30 1873 H 163.61 7.16479 -3.18791 0
M  V30 1874 N 161.113 -0.173488 1.56642 0
M  V30 1875 C 162.045 -1.23935 1.92802 0
M  V30 1876 C 163.058 -1.40589 0.820889 0
M  V30 1877 O 164.247 -1.40631 1.09933 0
M  V30 1878 C 161.347 -2.60837 2.16373 0
M  V30 1879 C 160.52 -2.6551 3.47596 0
M  V30 1880 C 159.579 -3.8376 3.60021 0
M  V30 1881 O 158.605 -3.69859 4.32658 0
M  V30 1882 N 159.807 -5.00127 2.94709 0
M  V30 1883 H 162.572 -0.932236 2.84832 0
M  V30 1884 H 160.133 -0.363268 1.57772 0
M  V30 1885 H 162.125 -3.38407 2.21952 0
M  V30 1886 H 160.695 -2.83948 1.30738 0
M  V30 1887 H 159.915 -1.74052 3.53694 0
M  V30 1888 H 161.203 -2.65641 4.33949 0
M  V30 1889 H 160.601 -5.14322 2.35563 0
M  V30 1890 H 159.158 -5.75567 3.05886 0
M  V30 1891 N 162.591 -1.51276 -0.441967 0
M  V30 1892 C 163.819 -1.67516 -1.21434 0
M  V30 1893 C 164.234 -0.37055 -1.85128 0
M  V30 1894 O 163.591 0.650498 -1.70513 0
M  V30 1895 C 163.642 -2.78748 -2.30177 0
M  V30 1896 O 163.363 -4.04154 -1.69089 0
M  V30 1897 C 164.864 -3.06217 -3.20541 0
M  V30 1898 H 162.084 -0.562276 -0.366178 0
M  V30 1899 H 164.628 -1.97666 -0.524244 0
M  V30 1900 H 162.783 -2.5121 -2.94911 0
M  V30 1901 H 163.197 -4.65894 -2.40922 0
M  V30 1902 H 164.671 -3.8764 -3.92987 0
M  V30 1903 H 165.148 -2.18439 -3.81026 0
M  V30 1904 H 165.754 -3.35397 -2.61513 0
M  V30 1905 N 164.069 0.697108 -1.41344 0
M  V30 1906 C 164.999 1.82353 -1.45841 0
M  V30 1907 C 165.98 1.67115 -0.317247 0
M  V30 1908 O 167.165 1.86871 -0.528474 0
M  V30 1909 C 164.295 3.20476 -1.33838 0
M  V30 1910 C 163.249 3.50415 -2.4575 0
M  V30 1911 C 162.575 4.87878 -2.18813 0
M  V30 1912 C 163.875 3.49546 -3.88091 0
M  V30 1913 H 165.569 1.78846 -2.40113 0
M  V30 1914 H 163.115 0.859028 -1.15571 0
M  V30 1915 H 165.068 3.98988 -1.35596 0
M  V30 1916 H 163.792 3.24604 -0.360498 0
M  V30 1917 H 162.451 2.74253 -2.43271 0
M  V30 1918 H 162.099 4.8863 -1.19371 0
M  V30 1919 H 161.799 5.08875 -2.93803 0
M  V30 1920 H 163.323 5.68702 -2.22284 0
M  V30 1921 H 164.737 4.18066 -3.92293 0
M  V30 1922 H 163.134 3.82075 -4.62751 0
M  V30 1923 H 164.204 2.48552 -4.16353 0
M  V30 1924 N 165.547 1.27147 0.931209 0
M  V30 1925 C 166.479 1.05364 2.03546 0
M  V30 1926 C 167.492 0.0108438 1.62796 0
M  V30 1927 O 168.681 0.25202 1.76712 0
M  V30 1928 C 165.781 0.575566 3.33977 0
M  V30 1929 C 164.954 1.68985 4.03439 0
M  V30 1930 C 164.013 1.20813 5.12143 0
M  V30 1931 O 163.039 1.90712 5.363 0
M  V30 1932 N 164.241 0.0618851 5.80467 0
M  V30 1933 H 167.006 2.00454 2.22796 0
M  V30 1934 H 164.567 1.18666 1.10136 0
M  V30 1935 H 166.559 0.237264 4.04004 0
M  V30 1936 H 165.129 -0.282016 3.11325 0
M  V30 1937 H 164.349 2.19861 3.27192 0
M  V30 1938 H 165.637 2.4378 4.46597 0
M  V30 1939 H 165.035 -0.521621 5.6329 0
M  V30 1940 H 163.592 -0.217264 6.51438 0
M  V30 1941 N 167.025 -1.13721 1.09112 0
M  V30 1942 C 167.988 -2.17222 0.731241 0
M  V30 1943 C 168.988 -1.59035 -0.237566 0
M  V30 1944 O 170.178 -1.74192 -0.0161704 0
M  V30 1945 C 167.31 -3.40804 0.0808443 0
M  V30 1946 H 168.503 -2.50573 1.64783 0
M  V30 1947 H 166.056 -1.28493 0.889897 0
M  V30 1948 H 166.791 -3.1304 -0.847127 0
M  V30 1949 H 166.576 -3.84306 0.777896 0
M  V30 1950 H 168.066 -4.1731 -0.155657 0
M  V30 1951 N 168.503 -0.877838 -1.30888 0
M  V30 1952 C 169.749 -0.493426 -1.96706 0
M  V30 1953 C 170.082 0.953504 -1.6918 0
M  V30 1954 O 169.357 1.67266 -0.992594 0
M  V30 1955 C 169.64 -0.760429 -3.51979 0
M  V30 1956 C 169.493 -2.25747 -3.89048 0
M  V30 1957 C 170.812 -0.232148 -4.39487 0
M  V30 1958 H 167.931 -0.180746 -0.714493 0
M  V30 1959 H 170.573 -1.10052 -1.54882 0
M  V30 1960 H 168.723 -0.243715 -3.87735 0
M  V30 1961 H 170.395 -2.84204 -3.63354 0
M  V30 1962 H 168.638 -2.72694 -3.37373 0
M  V30 1963 H 169.309 -2.39491 -4.97341 0
M  V30 1964 H 171.785 -0.674314 -4.106 0
M  V30 1965 H 170.661 -0.448355 -5.47066 0
M  V30 1966 H 170.922 0.866297 -4.33529 0
M  V30 1967 N 169.982 1.44106 -0.638065 0
M  V30 1968 C 170.93 2.3248 0.0748149 0
M  V30 1969 C 171.924 1.47746 0.828702 0
M  V30 1970 O 173.13 1.64049 0.740816 0
M  V30 1971 H 169.505 0.750771 0.0429686 0
M  V30 1972 H 171.476 2.90348 -0.688504 0
M  V30 1973 C 170.225 3.31843 1.03805 0
M  V30 1974 H 169.548 3.97059 0.467375 0
M  V30 1975 H 170.988 3.96345 1.50622 0
M  V30 1976 C 169.447 2.61291 2.1267 0
M  V30 1977 O 169.977 2.41702 3.20847 0
M  V30 1978 N 168.183 2.20915 1.88798 0
M  V30 1979 H 167.73 2.37047 1.00829 0
M  V30 1980 H 167.688 1.74038 2.61836 0
M  V30 1981 N 171.46 0.379036 1.52974 0
M  V30 1982 C 172.707 -0.206421 2.01445 0
M  V30 1983 C 173.035 -1.47668 1.26587 0
M  V30 1984 O 172.29 -1.92514 0.351675 0
M  V30 1985 C 172.589 -0.53096 3.53434 0
M  V30 1986 C 172.255 0.646546 4.46241 0
M  V30 1987 C 170.917 0.969604 4.7133 0
M  V30 1988 C 173.269 1.43479 5.01062 0
M  V30 1989 C 170.597 2.08263 5.48492 0
M  V30 1990 C 172.949 2.53834 5.7944 0
M  V30 1991 C 171.613 2.86659 6.02812 0
M  V30 1992 H 170.883 -0.0755349 0.73714 0
M  V30 1993 H 173.53 0.514271 1.84465 0
M  V30 1994 H 171.835 -1.33285 3.68432 0
M  V30 1995 H 173.532 -0.996417 3.88423 0
M  V30 1996 H 170.122 0.384734 4.2687 0
M  V30 1997 H 174.306 1.19844 4.81613 0
M  V30 1998 H 169.562 2.34078 5.64816 0
M  V30 1999 H 173.736 3.15319 6.20924 0
M  V30 2000 H 171.363 3.73026 6.62387 0
M  V30 2001 N 172.938 -1.57226 0.108567 0
M  V30 2002 C 174.178 -1.96717 -0.555155 0
M  V30 2003 C 174.542 -0.990003 -1.64508 0
M  V30 2004 O 175.743 -1.2739 -2.36696 0
M  V30 2005 C 174.014 -3.40575 -1.08367 0
M  V30 2006 S 175.573 -4.02072 -1.75737 0
M  V30 2007 H 172.391 -0.687638 -0.180762 0
M  V30 2008 H 174.993 -1.94563 0.191172 0
M  V30 2009 H 173.697 -4.0945 -0.279092 0
M  V30 2010 H 173.228 -3.46356 -1.86551 0
M  V30 2011 H 175.243 -3.91977 -3.04251 0
M  V30 2012 N 174.416 0.165178 -1.56732 0
M  V30 2013 C 175.366 1.20917 -1.93295 0
M  V30 2014 C 176.35 1.39488 -0.801985 0
M  V30 2015 O 177.542 1.41356 -1.06525 0
M  V30 2016 C 174.671 2.54718 -2.3016 0
M  V30 2017 C 173.757 2.39815 -3.49785 0
M  V30 2018 N 174.148 1.94637 -4.66851 0
M  V30 2019 C 172.446 2.70623 -3.54513 0
M  V30 2020 C 173.147 1.92344 -5.4898 0
M  V30 2021 N 172.123 2.34978 -4.9019 0
M  V30 2022 H 175.925 0.851675 -2.81289 0
M  V30 2023 H 173.439 0.373399 -1.58049 0
M  V30 2024 H 175.436 3.30165 -2.54552 0
M  V30 2025 H 174.096 2.91265 -1.43508 0
M  V30 2026 H 175.107 1.6488 -4.90953 0
M  V30 2027 H 171.784 3.11167 -2.78354 0
M  V30 2028 H 173.174 1.5906 -6.52801 0
M  V30 2029 N 175.894 1.51508 0.433938 0
M  V30 2030 C 176.841 1.73068 1.52696 0
M  V30 2031 C 177.811 0.572441 1.55924 0
M  V30 2032 O 178.996 0.807253 1.72882 0
M  V30 2033 C 176.136 1.86474 2.90381 0
M  V30 2034 C 175.249 3.14037 2.96656 0
M  V30 2035 C 174.384 3.18019 4.25485 0
M  V30 2036 C 173.423 4.39882 4.2564 0
M  V30 2037 N 172.56 4.41394 5.45999 0
M  V30 2038 H 177.4 2.66366 1.33615 0
M  V30 2039 H 174.937 1.32008 0.649018 0
M  V30 2040 H 176.895 1.92229 3.70275 0
M  V30 2041 H 175.525 0.965809 3.08013 0
M  V30 2042 H 174.577 3.17575 2.09404 0
M  V30 2043 H 175.889 4.0394 2.92633 0
M  V30 2044 H 175.043 3.22708 5.13755 0
M  V30 2045 H 173.782 2.2601 4.3217 0
M  V30 2046 H 172.787 4.35366 3.35763 0
M  V30 2047 H 174.012 5.33159 4.20617 0
M  V30 2048 H 171.958 3.52258 5.53399 0
M  V30 2049 H 171.875 5.25111 5.4387 0
M  V30 2050 H 173.143 4.50281 6.36292 0
M  V30 2051 N 177.372 -0.689602 1.41712 0
M  V30 2052 C 178.322 -1.79571 1.40493 0
M  V30 2053 C 179.306 -1.58473 0.278409 0
M  V30 2054 O 180.498 -1.69204 0.519532 0
M  V30 2055 C 177.627 -3.17923 1.29536 0
M  V30 2056 C 176.713 -3.44695 2.47075 0
M  V30 2057 N 177.104 -3.42132 3.72531 0
M  V30 2058 C 175.402 -3.75269 2.41017 0
M  V30 2059 C 176.103 -3.67976 4.50521 0
M  V30 2060 N 175.079 -3.88014 3.80718 0
M  V30 2061 H 178.881 -1.75961 2.35404 0
M  V30 2062 H 176.395 -0.889839 1.35851 0
M  V30 2063 H 178.392 -3.97167 1.26745 0
M  V30 2064 H 177.052 -3.22741 0.356153 0
M  V30 2065 H 178.063 -3.22375 4.05333 0
M  V30 2066 H 174.74 -3.87421 1.55599 0
M  V30 2067 H 176.13 -3.7208 5.59469 0
M  V30 2068 N 178.85 -1.27639 -0.924453 0
M  V30 2069 C 179.798 -1.10485 -2.04685 0
M  V30 2070 C 180.792 -0.0270421 -1.69378 0
M  V30 2071 O 181.998 -0.185008 -1.79047 0
M  V30 2072 H 178.373 -0.340546 -0.670472 0
M  V30 2073 H 180.344 -2.05566 -2.16298 0
M  V30 2074 C 179.093 -0.772229 -3.39016 0
M  V30 2075 H 178.416 -1.59351 -3.66671 0
M  V30 2076 H 179.856 -0.692097 -4.18313 0
M  V30 2077 C 178.315 0.523554 -3.32807 0
M  V30 2078 O 178.845 1.55702 -3.70297 0
M  V30 2079 N 177.051 0.520363 -2.85903 0
M  V30 2080 H 176.598 -0.32107 -2.55591 0
M  V30 2081 H 176.556 1.38742 -2.82131 0
M  V30 2082 N 180.328 1.1314 -1.09713 0
M  V30 2083 C 181.568 1.8613 -0.844683 0
M  V30 2084 C 181.932 1.81765 0.618491 0
M  V30 2085 O 183.133 2.50024 0.98699 0
M  V30 2086 C 181.404 3.30151 -1.36877 0
M  V30 2087 S 182.963 4.206 -1.25064 0
M  V30 2088 H 179.781 0.642056 -0.305427 0
M  V30 2089 H 182.383 1.36343 -1.4011 0
M  V30 2090 H 181.087 3.30883 -2.42786 0
M  V30 2091 H 180.618 3.85 -0.808614 0
M  V30 2092 H 182.633 4.95783 -0.203486 0
M  V30 2093 N 181.806 0.884767 1.30421 0
M  V30 2094 C 183.055 0.499164 1.95426 0
M  V30 2095 C 183.368 -0.95645 1.70621 0
M  V30 2096 O 184.574 -1.44889 2.29607 0
M  V30 2097 C 183.03 0.84177 3.49917 0
M  V30 2098 C 182.638 2.31514 3.83543 0
M  V30 2099 C 184.382 0.525355 4.21237 0
M  V30 2100 C 182.289 2.59939 5.31212 0
M  V30 2101 H 181.219 0.182944 0.73147 0
M  V30 2102 H 183.87 1.07971 1.48373 0
M  V30 2103 H 182.252 0.190311 3.95542 0
M  V30 2104 H 183.426 3.0109 3.48829 0
M  V30 2105 H 181.741 2.59907 3.25326 0
M  V30 2106 H 184.338 0.714762 5.29901 0
M  V30 2107 H 184.681 -0.535222 4.12845 0
M  V30 2108 H 185.214 1.134 3.81294 0
M  V30 2109 H 181.953 3.64736 5.44654 0
M  V30 2110 H 181.473 1.94972 5.67227 0
M  V30 2111 H 183.152 2.45429 5.98643 0
M  V30 2112 N 183.284 -1.43765 0.645699 0
M  V30 2113 C 184.234 -2.27884 -0.0726442 0
M  V30 2114 C 185.218 -1.39483 -0.802086 0
M  V30 2115 O 186.41 -1.63174 -0.685791 0
M  V30 2116 C 183.539 -3.27055 -1.04356 0
M  V30 2117 C 182.625 -4.22944 -0.312985 0
M  V30 2118 N 183.016 -5.01391 0.666386 0
M  V30 2119 C 181.314 -4.42528 -0.55546 0
M  V30 2120 C 182.015 -5.71217 1.09935 0
M  V30 2121 N 180.991 -5.41856 0.435137 0
M  V30 2122 H 184.793 -2.85949 0.678988 0
M  V30 2123 H 182.307 -1.55378 0.472368 0
M  V30 2124 H 184.304 -3.86089 -1.57292 0
M  V30 2125 H 182.964 -2.70551 -1.79534 0
M  V30 2126 H 183.975 -5.07252 1.04481 0
M  V30 2127 H 180.652 -3.97104 -1.28899 0
M  V30 2128 H 182.042 -6.44202 1.90929 0
M  V30 2129 N 184.763 -0.387143 -1.52771 0
M  V30 2130 C 186.179 -0.037007 -1.59557 0
M  V30 2131 C 186.379 1.44801 -1.40124 0
M  V30 2132 O 185.435 2.21227 -1.21716 0
M  V30 2133 C 186.748 -0.512256 -2.96305 0
M  V30 2134 C 188.296 -0.468328 -3.09476 0
M  V30 2135 C 188.771 -0.919731 -4.4867 0
M  V30 2136 N 190.262 -0.875656 -4.54848 0
M  V30 2137 C 190.997 -1.19637 -5.6078 0
M  V30 2138 N 190.493 -1.58745 -6.74368 0
M  V30 2139 N 192.286 -1.11776 -5.50874 0
M  V30 2140 H 184.437 -1.35395 -1.63652 0
M  V30 2141 H 186.7 -0.554818 -0.768688 0
M  V30 2142 H 186.406 -1.54935 -3.15734 0
M  V30 2143 H 186.28 0.089805 -3.77093 0
M  V30 2144 H 188.667 0.559671 -2.89744 0
M  V30 2145 H 188.748 -1.10616 -2.30646 0
M  V30 2146 H 188.392 -1.94595 -4.69143 0
M  V30 2147 H 188.322 -0.258927 -5.25963 0
M  V30 2148 H 190.813 -0.587843 -3.733 0
M  V30 2149 H 191.126 -1.81586 -7.51163 0
M  V30 2150 H 189.471 -1.6263 -6.75705 0
M  V30 2151 H 192.662 -0.811264 -4.61016 0
M  V30 2152 H 192.835 -1.37103 -6.3333 0
M  V30 2153 N 186.241 1.57166 -0.116904 0
M  V30 2154 C 187.518 1.86645 0.585049 0
M  V30 2155 C 187.898 1.0177 1.84949 0
M  V30 2156 O 187.246 0.0960379 2.28298 0
M  V30 2157 C 187.456 3.37736 0.879507 0
M  V30 2158 C 188.804 4.06289 1.23348 0
M  V30 2159 O 189.828 3.42743 0.969836 0
M  V30 2160 O 188.687 5.18455 1.7282 0
M  V30 2161 H 185.781 0.772593 0.295007 0
M  V30 2162 H 188.327 1.69025 -0.151249 0
M  V30 2163 H 187.099 3.91296 -0.0166136 0
M  V30 2164 H 186.722 3.6078 1.67103 0
M  V30 2165 N 187.719 -0.156864 1.56817 0
M  V30 2166 C 188.965 -0.872416 1.83076 0
M  V30 2167 C 189.298 -1.81261 0.697001 0
M  V30 2168 O 188.573 -1.92171 -0.30008 0
M  V30 2169 C 188.856 -1.65551 3.19789 0
M  V30 2170 C 188.709 -0.737467 4.43713 0
M  V30 2171 C 190.028 -2.62012 3.53606 0
M  V30 2172 H 187.147 -0.315715 0.665953 0
M  V30 2173 H 189.789 -0.138004 1.89498 0
M  V30 2174 H 187.939 -2.28159 3.14445 0
M  V30 2175 H 189.611 -0.123143 4.61136 0
M  V30 2176 H 187.854 -0.0464067 4.33775 0
M  V30 2177 H 188.525 -1.32122 5.35955 0
M  V30 2178 H 191.001 -2.09525 3.59497 0
M  V30 2179 H 189.877 -3.13861 4.50314 0
M  V30 2180 H 190.138 -3.42902 2.79053 0
M  V30 2181 N 189.197 -1.51736 -0.425897 0
M  V30 2182 C 190.144 -1.73875 -1.51776 0
M  V30 2183 C 191.114 -0.580702 -1.55618 0
M  V30 2184 O 192.299 -0.81641 -1.72451 0
M  V30 2185 C 189.439 -1.88012 -2.89388 0
M  V30 2186 C 188.552 -3.15606 -2.94986 0
M  V30 2187 C 187.687 -3.20271 -4.23793 0
M  V30 2188 C 186.726 -4.42134 -4.23302 0
M  V30 2189 N 185.863 -4.44284 -5.43651 0
M  V30 2190 H 190.703 -2.67071 -1.32201 0
M  V30 2191 H 188.24 -1.32351 -0.642008 0
M  V30 2192 H 190.198 -1.9419 -3.69251 0
M  V30 2193 H 188.828 -0.98213 -3.07496 0
M  V30 2194 H 187.88 -3.18681 -2.07717 0
M  V30 2195 H 189.192 -4.05486 -2.90486 0
M  V30 2196 H 188.346 -3.25428 -5.12036 0
M  V30 2197 H 187.085 -2.28299 -4.30965 0
M  V30 2198 H 186.09 -4.3714 -3.3345 0
M  V30 2199 H 187.315 -5.35382 -4.17783 0
M  V30 2200 H 185.261 -3.55188 -5.51523 0
M  V30 2201 H 185.178 -5.27988 -5.41078 0
M  V30 2202 H 186.446 -4.53649 -6.33895 0
M  V30 2203 N 190.675 0.682077 -1.42076 0
M  V30 2204 C 192.086 1.26246 -1.37546 0
M  V30 2205 C 192.437 1.96092 -0.0651481 0
M  V30 2206 O 191.562 1.99587 0.836297 0
M  V30 2207 C 192.157 2.29594 -2.49143 0
M  V30 2208 C 190.716 2.83175 -2.47969 0
M  V30 2209 C 189.863 1.57395 -2.28303 0
M  V30 2210 H 192.814 0.475937 -1.51395 0
M  V30 2211 H 192.835 3.11175 -2.18976 0
M  V30 2212 H 192.347 1.78729 -3.44496 0
M  V30 2213 H 190.448 3.3818 -1.56413 0
M  V30 2214 H 190.561 3.32687 -3.44755 0
M  V30 2215 H 188.925 1.83699 -1.76428 0
M  V30 2216 H 189.708 1.08507 -3.25701 0
M  V30 2217 N 192.153 1.28127 0.917671 0
M  V30 2218 C 193.063 1.13556 2.05286 0
M  V30 2219 C 194.079 0.0630914 1.73886 0
M  V30 2220 O 195.255 0.271598 1.9956 0
M  V30 2221 C 192.32 0.794676 3.3747 0
M  V30 2222 C 191.381 1.94909 3.82504 0
M  V30 2223 C 190.614 1.62437 5.0838 0
M  V30 2224 O 190.837 0.536905 5.67867 0
M  V30 2225 O 189.771 2.46677 5.4903 0
M  V30 2226 H 193.597 2.08844 2.20495 0
M  V30 2227 H 191.182 1.07409 1.03845 0
M  V30 2228 H 193.064 0.618344 4.16839 0
M  V30 2229 H 191.739 -0.128581 3.23445 0
M  V30 2230 H 190.646 2.18055 3.03978 0
M  V30 2231 H 191.979 2.85291 4.01086 0
M  V30 2232 N 193.631 -1.12557 1.10312 0
M  V30 2233 C 194.579 -2.20325 0.745629 0
M  V30 2234 C 195.573 -1.67429 -0.25763 0
M  V30 2235 O 196.779 -1.79612 -0.118132 0
M  V30 2236 H 193.154 -0.718118 0.223182 0
M  V30 2237 H 195.125 -2.47733 1.66346 0
M  V30 2238 C 193.874 -3.47168 0.192262 0
M  V30 2239 H 193.197 -3.88215 0.955475 0
M  V30 2240 H 194.637 -4.23995 -0.0198274 0
M  V30 2241 C 193.096 -3.19298 -1.07472 0
M  V30 2242 O 193.626 -3.3891 -2.15645 0
M  V30 2243 N 191.832 -2.73113 -0.992847 0
M  V30 2244 H 191.379 -2.57354 -0.112474 0
M  V30 2245 H 191.337 -2.54842 -1.84127 0
M  V30 2246 N 195.109 -0.891671 -1.2995 0
M  V30 2247 C 196.358 -0.509521 -1.95158 0
M  V30 2248 C 196.671 0.947388 -1.71125 0
M  V30 2249 O 197.877 1.43669 -2.30372 0
M  V30 2250 C 196.333 -0.860315 -3.49466 0
M  V30 2251 C 195.941 -2.33545 -3.8231 0
M  V30 2252 C 197.685 -0.547687 -4.20952 0
M  V30 2253 C 195.592 -2.62752 -5.29826 0
M  V30 2254 H 194.522 -0.18682 -0.730489 0
M  V30 2255 H 197.173 -1.08756 -1.47798 0
M  V30 2256 H 195.555 -0.211285 -3.95436 0
M  V30 2257 H 196.729 -3.02936 -3.47227 0
M  V30 2258 H 195.044 -2.61629 -3.23944 0
M  V30 2259 H 197.641 -0.742854 -5.29515 0
M  V30 2260 H 197.984 0.51332 -4.13123 0
M  V30 2261 H 198.517 -1.1542 -3.80688 0
M  V30 2262 H 195.256 -3.6762 -5.42712 0
M  V30 2263 H 194.776 -1.97977 -5.66185 0
M  V30 2264 H 196.455 -2.48601 -5.97333 0
M  V30 2265 N 196.587 1.43421 -0.653314 0
M  V30 2266 C 197.517 2.33487 0.0246656 0
M  V30 2267 C 198.498 1.49475 0.811863 0
M  V30 2268 O 199.683 1.78139 0.773322 0
M  V30 2269 C 196.813 3.32841 0.99166 0
M  V30 2270 C 195.767 4.26842 0.314568 0
M  V30 2271 C 195.093 5.16236 1.39302 0
M  V30 2272 C 196.393 5.16243 -0.793095 0
M  V30 2273 H 198.087 2.90427 -0.727481 0
M  V30 2274 H 195.633 1.39649 -0.351287 0
M  V30 2275 H 197.586 3.94747 1.47487 0
M  V30 2276 H 196.31 2.74158 1.77497 0
M  V30 2277 H 194.969 3.663 -0.148199 0
M  V30 2278 H 194.617 4.53891 2.16776 0
M  V30 2279 H 194.317 5.79948 0.945223 0
M  V30 2280 H 195.841 5.81015 1.87759 0
M  V30 2281 H 197.255 5.71958 -0.392039 0
M  V30 2282 H 195.652 5.88676 -1.16536 0
M  V30 2283 H 196.722 4.55927 -1.65103 0
M  V30 2284 N 198.065 0.39524 1.52563 0
M  V30 2285 C 199.314 -0.186321 2.00838 0
M  V30 2286 C 199.627 -1.47402 1.28577 0
M  V30 2287 O 200.833 -2.13599 1.67593 0
M  V30 2288 C 199.289 -0.382595 3.57861 0
M  V30 2289 C 198.897 0.892202 4.39026 0
M  V30 2290 C 200.641 -0.9202 4.14406 0
M  V30 2291 C 198.548 0.66388 5.87662 0
M  V30 2292 H 197.478 -0.0734041 0.750418 0
M  V30 2293 H 200.129 0.518552 1.76021 0
M  V30 2294 H 198.511 -1.14946 3.7895 0
M  V30 2295 H 199.685 1.66414 4.29701 0
M  V30 2296 H 198 1.35519 3.9373 0
M  V30 2297 H 200.597 -1.10683 5.23119 0
M  V30 2298 H 200.94 -1.89096 3.70875 0
M  V30 2299 H 201.473 -0.212751 3.97231 0
M  V30 2300 H 198.212 1.6058 6.35527 0
M  V30 2301 H 197.732 -0.0690193 5.9976 0
M  V30 2302 H 199.411 0.300699 6.46301 0
M  V30 2303 N 199.544 -1.57102 0.125237 0
M  V30 2304 C 200.772 -1.99761 -0.538797 0
M  V30 2305 C 201.187 -1.00503 -1.59827 0
M  V30 2306 O 200.544 0.00119474 -1.825 0
M  V30 2307 C 200.595 -3.42408 -1.15927 0
M  V30 2308 O 200.316 -4.37869 -0.142143 0
M  V30 2309 C 201.817 -4.00232 -1.90602 0
M  V30 2310 H 199.037 -0.655772 -0.14214 0
M  V30 2311 H 201.581 -2.03383 0.213413 0
M  V30 2312 H 199.736 -3.39706 -1.86223 0
M  V30 2313 H 200.15 -5.21128 -0.593775 0
M  V30 2314 H 201.624 -5.02105 -2.29335 0
M  V30 2315 H 202.101 -3.39721 -2.78363 0
M  V30 2316 H 202.707 -4.06499 -1.25055 0
M  V30 2317 N 201.022 0.148545 -1.56898 0
M  V30 2318 C 201.969 1.18345 -1.98149 0
M  V30 2319 C 202.939 1.42772 -0.848848 0
M  V30 2320 O 204.124 1.55132 -1.11079 0
M  V30 2321 C 201.264 2.51231 -2.36594 0
M  V30 2322 C 200.377 2.33991 -3.63142 0
M  V30 2323 C 199.512 3.59902 -3.90697 0
M  V30 2324 C 198.551 3.37692 -5.1052 0
M  V30 2325 N 197.688 4.5573 -5.34092 0
M  V30 2326 H 202.528 0.82467 -2.86362 0
M  V30 2327 H 200.065 0.395756 -1.41676 0
M  V30 2328 H 202.023 3.28713 -2.56912 0
M  V30 2329 H 200.653 2.85059 -1.51463 0
M  V30 2330 H 199.705 1.47572 -3.50609 0
M  V30 2331 H 201.017 2.13539 -4.5078 0
M  V30 2332 H 200.171 4.45813 -4.11505 0
M  V30 2333 H 198.91 3.83357 -3.01477 0
M  V30 2334 H 197.915 2.5017 -4.89587 0
M  V30 2335 H 199.14 3.15637 -6.0129 0
M  V30 2336 H 197.086 4.79361 -4.47827 0
M  V30 2337 H 197.003 4.38274 -6.15996 0
M  V30 2338 H 198.271 5.42858 -5.59397 0
M  V30 2339 N 202.5 1.5196 0.417844 0
M  V30 2340 C 203.45 1.7106 1.5074 0
M  V30 2341 C 204.434 0.564487 1.50673 0
M  V30 2342 O 205.626 0.821206 1.56797 0
M  V30 2343 C 202.755 1.85677 2.88754 0
M  V30 2344 C 201.841 3.06133 2.93502 0
M  V30 2345 N 202.232 4.28987 2.67962 0
M  V30 2346 C 200.53 3.05787 3.24669 0
M  V30 2347 C 201.231 5.10395 2.79055 0
M  V30 2348 N 200.207 4.45455 3.11561 0
M  V30 2349 H 204.009 2.63696 1.29775 0
M  V30 2350 H 201.523 1.49873 0.625436 0
M  V30 2351 H 203.52 1.97475 3.67164 0
M  V30 2352 H 202.18 0.942348 3.10725 0
M  V30 2353 H 203.191 4.57607 2.4252 0
M  V30 2354 H 199.868 2.2405 3.52289 0
M  V30 2355 H 201.258 6.18247 2.63097 0
M  V30 2356 N 203.978 -0.674533 1.42435 0
M  V30 2357 C 205.203 -1.46784 1.46524 0
M  V30 2358 C 205.628 -1.87938 0.078066 0
M  V30 2359 O 204.986 -1.56014 -0.92354 0
M  V30 2360 C 205.034 -2.69307 2.39805 0
M  V30 2361 O 204.138 -3.67587 1.86959 0
M  V30 2362 H 203.479 -0.440959 0.496439 0
M  V30 2363 H 206.009 -0.827326 1.87127 0
M  V30 2364 H 206.019 -3.17374 2.56393 0
M  V30 2365 H 204.694 -2.38692 3.40586 0
M  V30 2366 H 203.271 -3.2662 1.79927 0
M  V30 2367 N 205.456 -1.28612 -0.910864 0
M  V30 2368 C 206.702 -1.16106 -1.66274 0
M  V30 2369 C 207.035 0.289113 -1.92036 0
M  V30 2370 O 206.31 1.21 -1.52281 0
M  V30 2371 C 206.593 -1.96309 -3.01885 0
M  V30 2372 C 206.446 -3.49405 -2.8326 0
M  V30 2373 C 207.765 -1.78076 -4.02463 0
M  V30 2374 H 204.884 -0.423152 -0.603417 0
M  V30 2375 H 207.526 -1.57961 -1.05586 0
M  V30 2376 H 205.676 -1.60742 -3.53687 0
M  V30 2377 H 207.348 -3.94894 -2.38446 0
M  V30 2378 H 205.591 -3.74893 -2.18261 0
M  V30 2379 H 206.262 -4.00784 -3.79574 0
M  V30 2380 H 208.738 -2.0912 -3.59733 0
M  V30 2381 H 207.614 -2.36561 -4.95308 0
M  V30 2382 H 207.875 -0.733008 -4.35981 0
M  V30 2383 N 206.934 1.1197 -1.10907 0
M  V30 2384 C 208.183 1.82947 -0.849302 0
M  V30 2385 C 208.496 1.85275 0.627112 0
M  V30 2386 O 209.702 2.52296 1.00295 0
M  V30 2387 C 208.158 3.28529 -1.46959 0
M  V30 2388 C 207.766 3.34546 -2.97965 0
M  V30 2389 C 209.51 4.04443 -1.28942 0
M  V30 2390 C 207.417 4.74491 -3.53004 0
M  V30 2391 H 206.347 0.685477 -0.314065 0
M  V30 2392 H 208.998 1.2604 -1.33365 0
M  V30 2393 H 207.38 3.85333 -0.912917 0
M  V30 2394 H 208.554 2.87654 -3.59989 0
M  V30 2395 H 206.869 2.72108 -3.15192 0
M  V30 2396 H 209.466 5.07787 -1.67502 0
M  V30 2397 H 209.809 4.15656 -0.231456 0
M  V30 2398 H 210.342 3.5401 -1.81443 0
M  V30 2399 H 207.081 4.68474 -4.58489 0
M  V30 2400 H 206.601 5.21816 -2.9575 0
M  V30 2401 H 208.28 5.4344 -3.51115 0
M  V30 2402 N 208.412 0.89855 1.29475 0
M  V30 2403 C 209.359 0.373819 2.27753 0
M  V30 2404 C 210.329 -0.543444 1.56958 0
M  V30 2405 O 211.514 -0.468934 1.84948 0
M  V30 2406 C 208.654 -0.393648 3.42848 0
M  V30 2407 C 207.767 0.554379 4.28428 0
M  V30 2408 C 206.902 -0.230026 5.30702 0
M  V30 2409 C 205.941 0.712599 6.07938 0
M  V30 2410 N 205.078 -0.0373283 7.0209 0
M  V30 2411 H 209.918 1.21699 2.72017 0
M  V30 2412 H 207.455 0.611456 1.33789 0
M  V30 2413 H 209.413 -0.85466 4.08352 0
M  V30 2414 H 208.043 -1.20128 2.99615 0
M  V30 2415 H 207.095 1.13391 3.63107 0
M  V30 2416 H 208.407 1.27597 4.82204 0
M  V30 2417 H 207.561 -0.752288 6.02018 0
M  V30 2418 H 206.3 -0.984758 4.77654 0
M  V30 2419 H 205.305 1.24637 5.35486 0
M  V30 2420 H 206.53 1.46664 6.63074 0
M  V30 2421 H 204.476 -0.774348 6.51414 0
M  V30 2422 H 204.393 0.624374 7.53417 0
M  V30 2423 H 205.661 -0.539891 7.77628 0
M  V30 2424 N 209.89 -1.43072 0.660911 0
M  V30 2425 C 210.82 -2.33497 -0.0122829 0
M  V30 2426 C 211.801 -1.49903 -0.803925 0
M  V30 2427 O 212.986 -1.78546 -0.763864 0
M  V30 2428 C 210.116 -3.33363 -0.973994 0
M  V30 2429 C 209.07 -4.27003 -0.291928 0
M  V30 2430 C 208.396 -5.16967 -1.36562 0
M  V30 2431 C 209.696 -5.15816 0.820462 0
M  V30 2432 H 211.39 -2.90038 0.742873 0
M  V30 2433 H 208.936 -1.39461 0.358688 0
M  V30 2434 H 210.889 -3.95524 -1.45392 0
M  V30 2435 H 209.613 -2.75095 -1.7604 0
M  V30 2436 H 208.272 -3.66217 0.167623 0
M  V30 2437 H 207.92 -4.55034 -2.14366 0
M  V30 2438 H 207.62 -5.80441 -0.914454 0
M  V30 2439 H 209.144 -5.82003 -1.84675 0
M  V30 2440 H 210.558 -5.71742 0.422366 0
M  V30 2441 H 208.955 -5.8805 1.19656 0
M  V30 2442 H 210.025 -4.55045 1.67518 0
M  V30 2443 N 211.368 -0.403325 -1.52352 0
M  V30 2444 C 212.608 0.173946 -2.03659 0
M  V30 2445 C 212.972 1.42869 -1.28267 0
M  V30 2446 O 214.173 2.08403 -1.69769 0
M  V30 2447 C 212.444 0.421478 -3.54906 0
M  V30 2448 S 214.003 0.967027 -4.28012 0
M  V30 2449 H 210.821 0.0477461 -0.709395 0
M  V30 2450 H 213.423 -0.554906 -1.87459 0
M  V30 2451 H 212.127 -0.498616 -4.0736 0
M  V30 2452 H 211.658 1.17837 -3.75337 0
M  V30 2453 H 213.673 2.24812 -4.4235 0
M  V30 2454 N 212.846 1.57033 -0.133567 0
M  V30 2455 C 214.123 1.87256 0.56522 0
M  V30 2456 C 214.503 1.03726 1.83859 0
M  V30 2457 O 213.851 0.120247 2.28183 0
M  V30 2458 C 214.061 3.3865 0.843636 0
M  V30 2459 C 215.409 4.07574 1.19032 0
M  V30 2460 O 216.433 3.43752 0.933429 0
M  V30 2461 O 215.292 5.20259 1.67312 0
M  V30 2462 H 212.386 0.775678 0.286796 0
M  V30 2463 H 214.932 1.68855 -0.169168 0
M  V30 2464 H 213.704 3.91257 -0.0581149 0
M  V30 2465 H 213.327 3.62532 1.63268 0
M  V30 2466 N 214.325 -0.140222 1.56975 0
M  V30 2467 C 215.572 -0.851687 1.83719 0
M  V30 2468 C 215.9 -1.80862 0.715485 0
M  V30 2469 O 215.155 -1.93464 -0.294956 0
M  V30 2470 C 215.454 -1.65386 3.16832 0
M  V30 2471 C 215.12 -0.843112 4.42947 0
M  V30 2472 C 213.782 -0.619464 4.77196 0
M  V30 2473 C 216.134 -0.276582 5.20466 0
M  V30 2474 C 213.462 0.181312 5.8642 0
M  V30 2475 C 215.814 0.51127 6.30531 0
M  V30 2476 C 214.478 0.745432 6.63325 0
M  V30 2477 H 213.748 -0.311654 0.672274 0
M  V30 2478 H 216.395 -0.115006 1.91154 0
M  V30 2479 H 214.7 -2.46084 3.04877 0
M  V30 2480 H 216.397 -2.20793 3.34741 0
M  V30 2481 H 212.987 -1.0275 4.16101 0
M  V30 2482 H 217.171 -0.436632 4.94376 0
M  V30 2483 H 212.427 0.372165 6.10266 0
M  V30 2484 H 216.601 0.957354 6.89788 0
M  V30 2485 H 214.228 1.36778 7.47794 0
M  V30 2486 N 215.803 -1.52179 -0.40978 0
M  V30 2487 C 217.051 -1.65878 -1.15451 0
M  V30 2488 C 217.372 -0.390771 -1.91044 0
M  V30 2489 O 216.642 0.594323 -1.86667 0
M  V30 2490 H 215.222 -0.611405 -0.429177 0
M  V30 2491 H 217.884 -1.89219 -0.467134 0
M  V30 2492 H 216.98 -2.49954 -1.86894 0
M  V30 2493 N 217.281 0.66697 -1.42791 0
M  V30 2494 C 218.528 1.42699 -1.43678 0
M  V30 2495 C 218.856 1.94419 -0.0560425 0
M  V30 2496 O 218.111 1.7182 0.936831 0
M  V30 2497 C 218.41 2.6349 -2.4147 0
M  V30 2498 C 218.076 2.30267 -3.8767 0
M  V30 2499 C 216.738 2.20918 -4.27491 0
M  V30 2500 C 219.09 2.03435 -4.79858 0
M  V30 2501 C 216.418 1.82873 -5.57471 0
M  V30 2502 C 218.77 1.66892 -6.10188 0
M  V30 2503 C 217.434 1.56058 -6.49001 0
M  V30 2504 H 216.704 0.522171 -0.525755 0
M  V30 2505 H 219.351 0.759785 -1.75783 0
M  V30 2506 H 217.656 3.35279 -2.0272 0
M  V30 2507 H 219.353 3.21684 -2.39417 0
M  V30 2508 H 215.943 2.38449 -3.56146 0
M  V30 2509 H 220.127 2.09586 -4.49875 0
M  V30 2510 H 215.383 1.7306 -5.86396 0
M  V30 2511 H 219.557 1.45157 -6.81104 0
M  V30 2512 H 217.184 1.26348 -7.49627 0
M  V30 2513 N 218.759 1.29093 0.90403 0
M  V30 2514 C 219.722 1.1386 1.98919 0
M  V30 2515 C 220.722 0.0753457 1.60623 0
M  V30 2516 O 221.912 0.321931 1.71199 0
M  V30 2517 C 219.044 0.740198 3.32767 0
M  V30 2518 H 220.237 2.10246 2.13861 0
M  V30 2519 H 217.79 1.12218 1.08797 0
M  V30 2520 H 218.525 -0.223997 3.23525 0
M  V30 2521 H 218.31 1.50838 3.61926 0
M  V30 2522 H 219.8 0.656546 4.12407 0
M  V30 2523 N 220.237 -1.11381 1.11499 0
M  V30 2524 C 221.653 -1.35143 0.849031 0
M  V30 2525 C 221.853 -1.94515 -0.525938 0
M  V30 2526 O 220.909 -2.1785 -1.27662 0
M  V30 2527 C 222.222 -2.28249 1.95762 0
M  V30 2528 C 223.77 -2.41812 1.98736 0
M  V30 2529 C 224.245 -3.3824 3.088 0
M  V30 2530 N 225.736 -3.45803 3.08179 0
M  V30 2531 C 226.471 -4.20358 3.89982 0
M  V30 2532 N 225.967 -4.97884 4.8175 0
M  V30 2533 N 227.76 -4.15877 3.78157 0
M  V30 2534 H 219.911 -0.712062 2.00109 0
M  V30 2535 H 222.174 -0.376025 0.870235 0
M  V30 2536 H 221.88 -1.91817 2.94787 0
M  V30 2537 H 221.754 -3.28473 1.85433 0
M  V30 2538 H 224.141 -2.77518 1.00338 0
M  V30 2539 H 224.222 -1.41437 2.13141 0
M  V30 2540 H 223.866 -3.03261 4.07425 0
M  V30 2541 H 223.796 -4.38471 2.91635 0
M  V30 2542 H 226.287 -2.90506 2.41691 0
M  V30 2543 H 226.6 -5.52142 5.40702 0
M  V30 2544 H 224.945 -4.97043 4.85771 0
M  V30 2545 H 228.136 -3.544 3.05808 0
M  V30 2546 H 228.309 -4.73723 4.42143 0
M  V30 2547 N 221.715 -0.905404 -1.28997 0
M  V30 2548 C 222.645 -0.404212 -2.29975 0
M  V30 2549 C 223.626 0.523784 -1.61835 0
M  V30 2550 O 224.811 0.433298 -1.89304 0
M  V30 2551 C 221.941 0.364042 -3.45387 0
M  V30 2552 C 220.895 -0.474048 -4.25367 0
M  V30 2553 C 220.221 0.422045 -5.33032 0
M  V30 2554 C 221.521 -1.72696 -4.92923 0
M  V30 2555 H 223.215 -1.24807 -2.72146 0
M  V30 2556 H 220.761 -0.601585 -1.30832 0
M  V30 2557 H 222.714 0.725447 -4.15109 0
M  V30 2558 H 221.438 1.24174 -3.02074 0
M  V30 2559 H 220.097 -0.81786 -3.57361 0
M  V30 2560 H 219.745 1.29804 -4.85963 0
M  V30 2561 H 219.445 -0.135057 -5.87445 0
M  V30 2562 H 220.969 0.779517 -6.05604 0
M  V30 2563 H 222.383 -1.43495 -5.55051 0
M  V30 2564 H 220.78 -2.22582 -5.57295 0
M  V30 2565 H 221.85 -2.45964 -4.17887 0
M  V30 2566 N 223.193 1.4272 -0.668489 0
M  V30 2567 C 224.123 2.335 -0.000100175 0
M  V30 2568 C 225.104 1.50328 0.795964 0
M  V30 2569 O 226.289 1.78949 0.754385 0
M  V30 2570 C 223.419 3.33874 0.956302 0
M  V30 2571 C 222.373 4.27152 0.269278 0
M  V30 2572 C 221.699 5.17684 1.33818 0
M  V30 2573 C 222.999 5.15373 -0.847805 0
M  V30 2574 H 224.693 2.89639 -0.758244 0
M  V30 2575 H 222.239 1.39269 -0.366079 0
M  V30 2576 H 224.192 3.9629 1.43292 0
M  V30 2577 H 222.916 2.76025 1.74579 0
M  V30 2578 H 221.575 3.66123 -0.187042 0
M  V30 2579 H 221.223 4.56165 2.1195 0
M  V30 2580 H 220.923 5.80918 0.883659 0
M  V30 2581 H 222.447 5.82974 1.81586 0
M  V30 2582 H 223.861 5.7151 -0.452681 0
M  V30 2583 H 222.258 5.87407 -1.22773 0
M  V30 2584 H 223.328 4.5415 -1.69929 0
M  V30 2585 N 224.671 0.411399 1.52136 0
M  V30 2586 C 225.634 -0.401089 2.25663 0
M  V30 2587 C 226.634 -0.971732 1.28117 0
M  V30 2588 O 227.824 -0.850254 1.52041 0
M  V30 2589 C 224.956 -1.56483 3.02863 0
M  V30 2590 H 226.149 0.24295 2.98914 0
M  V30 2591 H 223.702 0.163968 1.55438 0
M  V30 2592 H 224.437 -2.24567 2.33967 0
M  V30 2593 H 224.222 -1.16211 3.74483 0
M  V30 2594 H 225.712 -2.13951 3.58629 0
M  V30 2595 N 226.149 -1.5696 0.141893 0
M  V30 2596 C 227.397 -1.95573 -0.509484 0
M  V30 2597 C 227.718 -1.02746 -1.65736 0
M  V30 2598 O 226.988 -0.0880311 -1.95702 0
M  V30 2599 H 225.568 -0.722115 -0.191205 0
M  V30 2600 H 228.23 -1.93697 0.216196 0
M  V30 2601 H 227.326 -2.99171 -0.889 0
M  V30 2602 N 227.627 0.131896 -1.57047 0
M  V30 2603 C 229.038 0.690407 -1.73465 0
M  V30 2604 C 229.389 1.8094 -0.758629 0
M  V30 2605 O 228.514 2.16282 0.0713813 0
M  V30 2606 C 229.109 1.25916 -3.14532 0
M  V30 2607 C 227.668 1.76409 -3.32501 0
M  V30 2608 C 226.815 0.658579 -2.69366 0
M  V30 2609 H 229.766 -0.0939144 -1.58422 0
M  V30 2610 H 229.787 2.12892 -3.15369 0
M  V30 2611 H 229.299 0.444515 -3.85546 0
M  V30 2612 H 227.4 2.60391 -2.66509 0
M  V30 2613 H 227.513 1.88241 -4.4057 0
M  V30 2614 H 225.877 1.08899 -2.30246 0
M  V30 2615 H 226.66 -0.14487 -3.42994 0
M  V30 2616 N 229.106 1.52395 0.401703 0
M  V30 2617 C 230.331 1.70972 1.17403 0
M  V30 2618 C 230.756 0.421615 1.83314 0
M  V30 2619 O 230.114 -0.621564 1.70312 0
M  V30 2620 C 230.162 2.85151 2.20728 0
M  V30 2621 O 229.266 2.51238 3.27037 0
M  V30 2622 H 228.607 0.568927 0.342372 0
M  V30 2623 H 231.137 1.99131 0.469891 0
M  V30 2624 H 231.147 3.10279 2.64936 0
M  V30 2625 H 229.822 3.78603 1.7214 0
M  V30 2626 H 228.399 2.36808 2.88057 0
M  V30 2627 N 230.584 -0.659388 1.43143 0
M  V30 2628 C 231.861 -1.41627 1.34912 0
M  V30 2629 C 232.241 -2.11099 -0.00607785 0
M  V30 2630 O 231.589 -2.04353 -1.02236 0
M  V30 2631 C 231.799 -2.40604 2.52805 0
M  V30 2632 C 233.147 -3.04789 2.95616 0
M  V30 2633 O 234.171 -2.50932 2.52807 0
M  V30 2634 O 233.03 -4.02421 3.69756 0
M  V30 2635 H 230.124 -0.63246 0.532844 0
M  V30 2636 H 232.67 -0.686814 1.5518 0
M  V30 2637 H 231.442 -1.88174 3.43083 0
M  V30 2638 H 231.065 -3.21009 2.34604 0
M  V30 2639 N 232.062 -1.29571 -0.897171 0
M  V30 2640 C 233.292 -1.20408 -1.67886 0
M  V30 2641 C 233.7 0.237429 -1.87704 0
M  V30 2642 O 233.043 1.17048 -1.41582 0
M  V30 2643 C 233.105 -1.84887 -3.08314 0
M  V30 2644 C 232.769 -3.34189 -3.11716 0
M  V30 2645 C 233.766 -4.30374 -2.91675 0
M  V30 2646 C 231.451 -3.75431 -3.33701 0
M  V30 2647 C 233.445 -5.65776 -2.93557 0
M  V30 2648 C 231.132 -5.10955 -3.35214 0
M  V30 2649 C 232.13 -6.05938 -3.15164 0
M  V30 2650 O 231.818 -7.38987 -3.1647 0
M  V30 2651 H 231.55 -0.418289 -0.531046 0
M  V30 2652 H 234.104 -1.71514 -1.13014 0
M  V30 2653 H 232.334 -1.28295 -3.64798 0
M  V30 2654 H 234.023 -1.70011 -3.6858 0
M  V30 2655 H 234.789 -3.99844 -2.74499 0
M  V30 2656 H 230.668 -3.01953 -3.48347 0
M  V30 2657 H 234.212 -6.39889 -2.77826 0
M  V30 2658 H 230.109 -5.4113 -3.51922 0
M  V30 2659 H 230.877 -7.47823 -3.3272 0
M  V30 2660 N 233.54 1.10788 -1.12088 0
M  V30 2661 C 234.77 1.86191 -0.895351 0
M  V30 2662 C 235.178 1.80763 0.558702 0
M  V30 2663 O 234.521 1.19188 1.39785 0
M  V30 2664 C 234.583 3.35659 -1.28737 0
M  V30 2665 C 234.247 3.64849 -2.75198 0
M  V30 2666 C 235.244 3.61757 -3.734 0
M  V30 2667 C 232.929 3.93641 -3.12013 0
M  V30 2668 C 234.923 3.87045 -5.06434 0
M  V30 2669 C 232.61 4.18585 -4.4523 0
M  V30 2670 C 233.608 4.15277 -5.42249 0
M  V30 2671 O 233.296 4.3959 -6.73065 0
M  V30 2672 H 233.028 0.595425 -0.32007 0
M  V30 2673 H 235.582 1.40992 -1.49367 0
M  V30 2674 H 233.812 3.81497 -0.63224 0
M  V30 2675 H 235.501 3.92441 -1.03656 0
M  V30 2676 H 236.267 3.39557 -3.46303 0
M  V30 2677 H 232.146 3.95348 -2.37109 0
M  V30 2678 H 235.69 3.84378 -5.82151 0
M  V30 2679 H 231.587 4.40264 -4.72057 0
M  V30 2680 H 232.355 4.57123 -6.78956 0
M  V30 2681 N 235.018 0.912232 1.28515 0
M  V30 2682 C 236.246 0.560416 1.99166 0
M  V30 2683 C 236.661 -0.857927 1.68182 0
M  V30 2684 O 236.018 -1.56805 0.933733 0
M  V30 2685 C 236.069 0.758142 3.53461 0
M  V30 2686 O 235.79 2.12067 3.83352 0
M  V30 2687 C 237.291 0.412954 4.41372 0
M  V30 2688 H 234.511 0.213805 0.636026 0
M  V30 2689 H 237.055 1.22502 1.63749 0
M  V30 2690 H 235.21 0.140556 3.87145 0
M  V30 2691 H 235.624 2.15923 4.77993 0
M  V30 2692 H 237.098 0.60208 5.48707 0
M  V30 2693 H 237.575 -0.65073 4.34353 0
M  V30 2694 H 238.181 1.00802 4.13182 0
M  V30 2695 N 236.496 -1.42363 0.676048 0
M  V30 2696 C 237.773 -1.95183 0.127726 0
M  V30 2697 C 238.153 -1.61641 -1.35777 0
M  V30 2698 O 237.501 -0.913216 -2.09458 0
M  V30 2699 C 237.711 -3.46721 0.398199 0
M  V30 2700 C 239.059 -4.23427 0.315383 0
M  V30 2701 O 240.083 -3.54649 0.332016 0
M  V30 2702 O 238.942 -5.45888 0.25865 0
M  V30 2703 H 236.036 -0.826992 0.00359427 0
M  V30 2704 H 238.582 -1.52184 0.750864 0
M  V30 2705 H 237.354 -3.64344 1.4272 0
M  V30 2706 H 236.977 -3.96769 -0.256885 0
M  V30 2707 N 237.974 -0.419461 -1.51915 0
M  V30 2708 C 239.204 0.151915 -2.06041 0
M  V30 2709 C 239.612 1.38539 -1.28855 0
M  V30 2710 O 238.955 1.80592 -0.336463 0
M  V30 2711 C 239.017 0.557119 -3.55157 0
M  V30 2712 C 238.681 -0.567054 -4.53468 0
M  V30 2713 C 239.678 -1.43379 -4.99738 0
M  V30 2714 C 237.363 -0.742693 -4.96779 0
M  V30 2715 C 239.357 -2.46102 -5.87973 0
M  V30 2716 C 237.044 -1.77322 -5.84808 0
M  V30 2717 C 238.042 -2.63078 -6.30301 0
M  V30 2718 O 237.73 -3.64364 -7.16585 0
M  V30 2719 H 237.462 0.0193293 -0.675724 0
M  V30 2720 H 240.016 -0.592073 -1.96682 0
M  V30 2721 H 238.246 1.35355 -3.62238 0
M  V30 2722 H 239.935 1.05759 -3.9188 0
M  V30 2723 H 240.701 -1.30954 -4.66986 0
M  V30 2724 H 236.58 -0.0848307 -4.60922 0
M  V30 2725 H 240.124 -3.13071 -6.23404 0
M  V30 2726 H 236.021 -1.89773 -6.16974 0
M  V30 2727 H 236.789 -3.60731 -7.34721 0
M  V30 2728 N 239.452 1.56882 -0.150215 0
M  V30 2729 C 240.698 1.96518 0.500834 0
M  V30 2730 C 241.031 1.03527 1.64304 0
M  V30 2731 O 240.306 0.0782751 1.94342 0
M  V30 2732 C 240.589 3.45822 1.00395 0
M  V30 2733 C 240.442 4.49591 -0.136983 0
M  V30 2734 C 241.761 3.97704 1.88467 0
M  V30 2735 H 238.88 0.714535 0.18058 0
M  V30 2736 H 241.522 1.88577 -0.232091 0
M  V30 2737 H 239.672 3.5272 1.62851 0
M  V30 2738 H 241.344 4.5477 -0.77343 0
M  V30 2739 H 239.587 4.26441 -0.795652 0
M  V30 2740 H 240.258 5.51402 0.256815 0
M  V30 2741 H 242.734 3.93304 1.35834 0
M  V30 2742 H 241.61 5.0263 2.20578 0
M  V30 2743 H 241.871 3.40252 2.82279 0
M  V30 2744 N 240.93 -0.123565 1.57115 0
M  V30 2745 C 241.893 -1.13583 1.99076 0
M  V30 2746 C 242.893 -1.34564 0.880296 0
M  V30 2747 O 244.083 -1.31158 1.14644 0
M  V30 2748 C 241.215 -2.49128 2.32698 0
M  V30 2749 H 242.408 -0.775287 2.89706 0
M  V30 2750 H 239.961 -0.36771 1.51913 0
M  V30 2751 H 240.696 -2.90111 1.44934 0
M  V30 2752 H 240.481 -2.35255 3.13684 0
M  V30 2753 H 241.971 -3.2199 2.65918 0
M  V30 2754 N 242.408 -1.52605 -0.393616 0
M  V30 2755 C 243.636 -1.71294 -1.16043 0
M  V30 2756 C 244.051 -0.429259 -1.83855 0
M  V30 2757 O 243.408 0.595921 -1.72496 0
M  V30 2758 C 243.459 -2.8593 -2.21193 0
M  V30 2759 O 243.18 -4.09329 -1.56146 0
M  V30 2760 C 244.681 -3.16259 -3.10636 0
M  V30 2761 H 241.901 -0.573641 -0.348104 0
M  V30 2762 H 244.445 -1.99234 -0.461092 0
M  V30 2763 H 242.6 -2.60465 -2.86769 0
M  V30 2764 H 243.014 -4.73323 -2.25978 0
M  V30 2765 H 244.488 -3.99946 -3.80456 0
M  V30 2766 H 244.965 -2.3045 -3.73884 0
M  V30 2767 H 245.571 -3.43547 -2.50711 0
M  V30 2768 N 243.887 0.651787 -1.4349 0
M  V30 2769 C 245.303 0.96762 -1.26922 0
M  V30 2770 C 245.503 2.00602 -0.189982 0
M  V30 2771 O 244.559 2.48793 0.431107 0
M  V30 2772 C 245.872 1.45052 -2.63401 0
M  V30 2773 C 247.42 1.5671 -2.70945 0
M  V30 2774 C 247.895 2.0839 -4.07845 0
M  V30 2775 N 249.386 2.1569 -4.09917 0
M  V30 2776 C 250.121 2.56804 -5.12679 0
M  V30 2777 N 249.617 2.97203 -6.25813 0
M  V30 2778 N 251.41 2.56756 -5.00033 0
M  V30 2779 H 243.561 -0.0353158 -2.12371 0
M  V30 2780 H 245.824 0.0467858 -0.946845 0
M  V30 2781 H 245.53 0.761926 -3.43348 0
M  V30 2782 H 245.404 2.42529 -2.88894 0
M  V30 2783 H 247.791 2.2467 -1.9133 0
M  V30 2784 H 247.872 0.57662 -2.49216 0
M  V30 2785 H 247.516 1.41031 -4.87927 0
M  V30 2786 H 247.446 3.08271 -4.26938 0
M  V30 2787 H 249.937 1.87237 -3.28254 0
M  V30 2788 H 250.25 3.27328 -7.00055 0
M  V30 2789 H 248.595 2.95004 -6.29283 0
M  V30 2790 H 251.786 2.24572 -4.10713 0
M  V30 2791 H 251.959 2.88475 -5.80247 0
M  V30 2792 N 245.365 1.30045 0.890287 0
M  V30 2793 C 246.611 1.19747 1.64415 0
M  V30 2794 C 246.966 -0.246591 1.90813 0
M  V30 2795 O 246.259 -1.174 1.51419 0
M  V30 2796 C 246.453 1.95409 2.99249 0
M  V30 2797 C 246.282 3.47025 2.86013 0
M  V30 2798 C 245.052 4.1638 2.86279 0
M  V30 2799 C 247.25 4.42353 2.62351 0
M  V30 2800 N 245.232 5.54293 2.63879 0
M  V30 2801 C 246.603 5.67792 2.49022 0
M  V30 2802 C 248.658 4.32009 2.47533 0
M  V30 2803 C 247.361 6.8406 2.22383 0
M  V30 2804 C 249.387 5.48038 2.22279 0
M  V30 2805 C 248.749 6.72455 2.09722 0
M  V30 2806 H 244.848 0.493223 0.60684 0
M  V30 2807 H 247.432 1.6399 1.04954 0
M  V30 2808 H 245.603 1.53565 3.56752 0
M  V30 2809 H 247.335 1.77298 3.63796 0
M  V30 2810 H 244.09 3.68164 2.97913 0
M  V30 2811 H 244.514 6.26852 2.55706 0
M  V30 2812 H 249.156 3.36503 2.55979 0
M  V30 2813 H 246.874 7.79612 2.12675 0
M  V30 2814 H 250.46 5.41939 2.11643 0
M  V30 2815 H 249.34 7.60722 1.90453 0
M  V30 2816 N 246.843 -1.10192 1.12674 0
M  V30 2817 C 248.073 -1.85713 0.905213 0
M  V30 2818 C 248.481 -1.81056 -0.549108 0
M  V30 2819 O 247.824 -1.19927 -1.39151 0
M  V30 2820 C 247.886 -3.34972 1.30516 0
M  V30 2821 C 247.55 -3.63385 2.77129 0
M  V30 2822 C 248.547 -3.59772 3.75313 0
M  V30 2823 C 246.232 -3.91981 3.14096 0
M  V30 2824 C 248.226 -3.84354 5.08479 0
M  V30 2825 C 245.913 -4.16218 4.47443 0
M  V30 2826 C 246.911 -4.12395 5.44444 0
M  V30 2827 O 246.599 -4.36014 6.75387 0
M  V30 2828 H 246.331 -0.593719 0.323223 0
M  V30 2829 H 248.885 -1.40198 1.50112 0
M  V30 2830 H 247.115 -3.81156 0.652463 0
M  V30 2831 H 248.804 -3.91886 1.05736 0
M  V30 2832 H 249.57 -3.37716 3.48099 0
M  V30 2833 H 245.449 -3.94085 2.39202 0
M  V30 2834 H 248.993 -3.81285 5.84181 0
M  V30 2835 H 244.89 -4.37754 4.74386 0
M  V30 2836 H 245.658 -4.53516 6.8137 0
M  V30 2837 N 248.321 -0.919034 -1.28029 0
M  V30 2838 C 249.737 -0.617972 -1.4715 0
M  V30 2839 C 249.937 0.835242 -1.83374 0
M  V30 2840 O 248.993 1.61388 -1.94191 0
M  V30 2841 C 250.306 -1.56041 -2.57044 0
M  V30 2842 C 251.854 -1.56769 -2.7091 0
M  V30 2843 C 252.329 -2.49688 -3.83953 0
M  V30 2844 N 253.82 -2.47845 -3.91314 0
M  V30 2845 C 254.555 -3.16437 -4.78179 0
M  V30 2846 N 254.051 -3.94376 -5.69596 0
M  V30 2847 N 255.844 -3.05498 -4.71834 0
M  V30 2848 H 247.995 -1.85866 -1.02798 0
M  V30 2849 H 250.258 -0.797506 -0.512531 0
M  V30 2850 H 249.964 -2.59671 -2.372 0
M  V30 2851 H 249.838 -1.29551 -3.54255 0
M  V30 2852 H 252.225 -0.538745 -2.90141 0
M  V30 2853 H 252.306 -1.87305 -1.74214 0
M  V30 2854 H 251.95 -3.52688 -3.65477 0
M  V30 2855 H 251.88 -2.16453 -4.80058 0
M  V30 2856 H 254.371 -1.91234 -3.25941 0
M  V30 2857 H 254.684 -4.43721 -6.32718 0
M  V30 2858 H 253.029 -3.98481 -5.69419 0
M  V30 2859 H 256.22 -2.44108 -3.99411 0
M  V30 2860 H 256.393 -3.59225 -5.39316 0
M  V30 2861 N 249.799 1.42003 -0.683588 0
M  V30 2862 C 251.024 2.06265 -0.216647 0
M  V30 2863 C 251.449 1.51059 1.12083 0
M  V30 2864 O 250.807 0.632638 1.69904 0
M  V30 2865 C 250.855 3.60191 -0.171759 0
M  V30 2866 O 249.959 4.03396 0.857069 0
M  V30 2867 H 249.3 0.65502 -0.108834 0
M  V30 2868 H 251.83 1.81982 -0.935077 0
M  V30 2869 H 251.84 4.08 0.0014303 0
M  V30 2870 H 250.515 3.99743 -1.14796 0
M  V30 2871 H 249.092 3.67117 0.654208 0
M  V30 2872 N 251.277 0.427512 1.51691 0
M  V30 2873 C 252.688 -0.0378867 1.86662 0
M  V30 2874 C 253.039 -1.42819 1.34525 0
M  V30 2875 O 252.164 -2.05037 0.692014 0
M  V30 2876 C 252.759 -0.0755266 3.38716 0
M  V30 2877 C 251.318 -0.485309 3.73258 0
M  V30 2878 C 250.465 0.328399 2.75349 0
M  V30 2879 H 253.416 0.64379 1.45055 0
M  V30 2880 H 253.437 -0.887056 3.70016 0
M  V30 2881 H 252.949 0.936487 3.76632 0
M  V30 2882 H 251.05 -1.50329 3.40928 0
M  V30 2883 H 251.163 -0.21693 4.78609 0
M  V30 2884 H 249.527 -0.211905 2.53817 0
M  V30 2885 H 250.31 1.3391 3.16106 0
M  V30 2886 N 252.755 -1.56801 0.158532 0
M  V30 2887 C 253.665 -2.20916 -0.789518 0
M  V30 2888 C 254.681 -1.1969 -1.26294 0
M  V30 2889 O 255.857 -1.52308 -1.31773 0
M  V30 2890 C 252.922 -2.82727 -2.00665 0
M  V30 2891 C 251.983 -3.99114 -1.58134 0
M  V30 2892 C 251.216 -4.57968 -2.74045 0
M  V30 2893 O 251.439 -4.15704 -3.90572 0
M  V30 2894 O 250.373 -5.48047 -2.48855 0
M  V30 2895 H 254.199 -3.02464 -0.273681 0
M  V30 2896 H 251.784 -1.4924 -0.0690548 0
M  V30 2897 H 253.666 -3.21968 -2.71872 0
M  V30 2898 H 252.341 -2.04184 -2.51179 0
M  V30 2899 H 251.248 -3.64567 -0.839155 0
M  V30 2900 H 252.581 -4.79212 -1.12325 0
M  V30 2901 N 254.233 0.115231 -1.57178 0
M  V30 2902 C 255.163 1.1423 -2.03651 0
M  V30 2903 C 256.144 1.42967 -0.921655 0
M  V30 2904 O 257.329 1.53343 -1.19162 0
M  V30 2905 C 254.459 2.4675 -2.44401 0
M  V30 2906 C 253.413 2.32467 -3.59365 0
M  V30 2907 C 252.739 3.69984 -3.86026 0
M  V30 2908 C 254.039 1.78203 -4.90959 0
M  V30 2909 H 255.733 0.755749 -2.89705 0
M  V30 2910 H 253.279 0.362093 -1.39373 0
M  V30 2911 H 255.232 3.18854 -2.75517 0
M  V30 2912 H 253.956 2.87302 -1.55322 0
M  V30 2913 H 252.615 1.62811 -3.28463 0
M  V30 2914 H 252.263 4.08028 -2.94147 0
M  V30 2915 H 251.963 3.61279 -4.63412 0
M  V30 2916 H 253.487 4.43587 -4.19599 0
M  V30 2917 H 254.901 2.40128 -5.20587 0
M  V30 2918 H 253.298 1.8031 -5.72371 0
M  V30 2919 H 254.368 0.739876 -4.79222 0
M  V30 2920 N 255.711 1.52812 0.385517 0
M  V30 2921 C 256.641 1.80808 1.47752 0
M  V30 2922 C 257.622 0.660318 1.5676 0
M  V30 2923 O 258.807 0.908246 1.71652 0
M  V30 2924 C 255.937 1.98008 2.85324 0
M  V30 2925 C 254.891 3.13709 2.91154 0
M  V30 2926 C 254.217 3.16169 4.31209 0
M  V30 2927 C 255.517 4.52709 2.60483 0
M  V30 2928 H 257.211 2.72253 1.24573 0
M  V30 2929 H 254.757 1.31003 0.597839 0
M  V30 2930 H 256.71 2.16176 3.61726 0
M  V30 2931 H 255.434 1.03255 3.09848 0
M  V30 2932 H 254.093 2.95329 2.17201 0
M  V30 2933 H 253.741 2.19092 4.52778 0
M  V30 2934 H 253.441 3.93894 4.36029 0
M  V30 2935 H 254.965 3.36496 5.09512 0
M  V30 2936 H 256.379 4.71173 3.26602 0
M  V30 2937 H 254.776 5.32528 2.76648 0
M  V30 2938 H 255.846 4.59186 1.55809 0
M  V30 2939 N 257.189 -0.644168 1.43834 0
M  V30 2940 C 258.435 -1.40603 1.46146 0
M  V30 2941 C 258.768 -1.93997 0.0887717 0
M  V30 2942 O 258.043 -1.72854 -0.891724 0
M  V30 2943 C 258.326 -2.58086 2.51124 0
M  V30 2944 C 258.179 -2.10126 3.97702 0
M  V30 2945 C 259.498 -3.60291 2.52742 0
M  V30 2946 H 256.617 -0.509905 0.532134 0
M  V30 2947 H 259.259 -0.729502 1.75437 0
M  V30 2948 H 257.409 -3.15801 2.26278 0
M  V30 2949 H 259.081 -1.57342 4.33637 0
M  V30 2950 H 257.324 -1.41419 4.10101 0
M  V30 2951 H 257.995 -2.94649 4.66783 0
M  V30 2952 H 260.471 -3.12352 2.7491 0
M  V30 2953 H 259.347 -4.40032 3.28121 0
M  V30 2954 H 259.608 -4.1349 1.56455 0
M  V30 2955 N 258.668 -1.30515 -0.883378 0
M  V30 2956 C 259.916 -1.19194 -1.63209 0
M  V30 2957 C 260.237 0.253205 -1.93349 0
M  V30 2958 O 259.507 1.17025 -1.57105 0
M  V30 2959 H 258.087 -0.438148 -0.605009 0
M  V30 2960 H 260.749 -1.63663 -1.05832 0
M  V30 2961 H 259.845 -1.75396 -2.58153 0
M  V30 2962 N 260.146 1.09593 -1.13257 0
M  V30 2963 C 261.423 1.78293 -0.804432 0
M  V30 2964 C 261.803 1.99004 0.70431 0
M  V30 2965 O 261.151 1.59007 1.641 0
M  V30 2966 C 261.361 3.10707 -1.5894 0
M  V30 2967 C 262.709 3.85443 -1.78099 0
M  V30 2968 O 263.733 3.20454 -1.55525 0
M  V30 2969 O 262.592 5.02108 -2.15753 0
M  V30 2970 H 259.686 0.773156 -0.293528 0
M  V30 2971 H 262.232 1.16164 -1.23709 0
M  V30 2972 H 261.004 2.91106 -2.61482 0
M  V30 2973 H 260.627 3.80558 -1.15157 0
M  V30 2974 N 261.624 0.925811 1.2754 0
M  V30 2975 C 262.852 0.581509 1.9856 0
M  V30 2976 C 263.267 -0.840041 1.69082 0
M  V30 2977 O 262.624 -1.55805 0.950312 0
M  V30 2978 C 262.675 0.795589 3.52637 0
M  V30 2979 O 262.396 2.16121 3.81082 0
M  V30 2980 C 263.897 0.459744 4.4091 0
M  V30 2981 H 261.117 0.220538 0.633722 0
M  V30 2982 H 263.661 1.24232 1.6244 0
M  V30 2983 H 261.816 0.18161 3.86974 0
M  V30 2984 H 262.23 2.2098 4.75676 0
M  V30 2985 H 263.704 0.660244 5.48037 0
M  V30 2986 H 264.181 -0.604625 4.35018 0
M  V30 2987 H 264.787 1.05178 4.12089 0
M  V30 2988 N 263.102 -1.41638 0.69111 0
M  V30 2989 C 264.034 -2.29194 -0.0161523 0
M  V30 2990 C 265.047 -1.44549 -0.748955 0
M  V30 2991 O 266.236 -1.681 -0.6004 0
M  V30 2992 C 263.336 -3.22325 -1.0469 0
M  V30 2993 C 262.509 -4.35706 -0.384621 0
M  V30 2994 C 261.568 -5.09443 -1.31737 0
M  V30 2995 O 260.594 -5.63386 -0.811451 0
M  V30 2996 N 261.796 -5.16487 -2.64993 0
M  V30 2997 H 264.561 -2.90534 0.735523 0
M  V30 2998 H 262.122 -1.52742 0.53679 0
M  V30 2999 H 264.114 -3.68522 -1.67252 0
M  V30 3000 H 262.684 -2.62323 -1.70015 0
M  V30 3001 H 261.904 -3.91948 0.420804 0
M  V30 3002 H 263.192 -5.08743 0.0760765 0
M  V30 3003 H 262.59 -4.741 -3.08619 0
M  V30 3004 H 261.147 -5.66276 -3.22761 0
M  V30 3005 N 264.58 -0.43555 -1.51462 0
M  V30 3006 C 265.81 0.130053 -2.0619 0
M  V30 3007 C 266.218 1.37164 -1.30317 0
M  V30 3008 O 265.561 1.80225 -0.355598 0
M  V30 3009 C 265.623 0.519418 -3.55728 0
M  V30 3010 C 265.287 -0.615119 -4.52841 0
M  V30 3011 C 266.284 -1.48671 -4.9819 0
M  V30 3012 C 263.969 -0.795341 -4.95963 0
M  V30 3013 C 265.963 -2.52324 -5.8533 0
M  V30 3014 C 263.65 -1.83514 -5.82894 0
M  V30 3015 C 264.648 -2.69748 -6.27475 0
M  V30 3016 O 264.336 -3.71944 -7.1268 0
M  V30 3017 H 264.068 0.0121612 -0.675891 0
M  V30 3018 H 266.622 -0.6129 -1.96043 0
M  V30 3019 H 264.852 1.31505 -3.63653 0
M  V30 3020 H 266.541 1.01597 -3.92979 0
M  V30 3021 H 267.307 -1.359 -4.65571 0
M  V30 3022 H 263.186 -0.133713 -4.60806 0
M  V30 3023 H 266.73 -3.19665 -6.20048 0
M  V30 3024 H 262.627 -1.96306 -6.14926 0
M  V30 3025 H 263.395 -3.68503 -7.30854 0
M  V30 3026 N 266.058 1.56714 -0.166846 0
M  V30 3027 C 267.306 1.96358 0.478305 0
M  V30 3028 C 267.627 1.0537 1.6408 0
M  V30 3029 O 266.897 0.119154 1.95537 0
M  V30 3030 H 265.477 0.725065 0.179692 0
M  V30 3031 H 268.139 1.93329 -0.246985 0
M  V30 3032 H 267.235 3.00547 0.841292 0
M  V30 3033 N 267.536 -0.106894 1.57237 0
M  V30 3034 C 268.947 -0.662723 1.74542 0
M  V30 3035 C 269.298 -1.7971 0.787319 0
M  V30 3036 O 268.423 -2.16368 -0.0369636 0
M  V30 3037 C 269.018 -1.20896 3.16496 0
M  V30 3038 C 267.577 -1.71096 3.35266 0
M  V30 3039 C 266.724 -0.615642 2.7038 0
M  V30 3040 H 269.675 0.119106 1.58252 0
M  V30 3041 H 269.696 -2.07847 3.18716 0
M  V30 3042 H 269.208 -0.383122 3.86204 0
M  V30 3043 H 267.309 -2.56119 2.70618 0
M  V30 3044 H 267.422 -1.81208 4.43509 0
M  V30 3045 H 265.786 -1.05222 2.31949 0
M  V30 3046 H 266.569 0.199419 3.4272 0
M  V30 3047 N 269.014 -1.53014 -0.377408 0
M  V30 3048 C 270.425 -1.60438 -0.954798 0
M  V30 3049 C 270.776 -0.464418 -1.90624 0
M  V30 3050 O 269.901 0.41087 -2.12464 0
M  V30 3051 C 270.496 -2.90797 -1.73847 0
M  V30 3052 C 269.055 -3.00595 -2.26538 0
M  V30 3053 C 268.202 -2.55645 -1.07429 0
M  V30 3054 H 271.153 -1.57926 -0.156575 0
M  V30 3055 H 271.174 -2.77935 -2.5987 0
M  V30 3056 H 270.686 -3.73746 -1.04574 0
M  V30 3057 H 268.787 -2.22208 -2.99089 0
M  V30 3058 H 268.9 -4.05456 -2.5523 0
M  V30 3059 H 267.264 -2.10239 -1.43777 0
M  V30 3060 H 268.047 -3.41 -0.396728 0
M  V30 3061 N 270.492 0.636531 -1.44174 0
M  V30 3062 C 271.738 1.39826 -1.4689 0
M  V30 3063 C 272.071 1.93947 -0.0990585 0
M  V30 3064 O 271.346 1.73325 0.882544 0
M  V30 3065 C 271.629 2.56751 -2.5249 0
M  V30 3066 C 271.482 2.08014 -3.98811 0
M  V30 3067 C 272.801 3.58946 -2.54649 0
M  V30 3068 H 269.92 0.507075 -0.53483 0
M  V30 3069 H 272.562 0.720188 -1.75822 0
M  V30 3070 H 270.712 3.14597 -2.2795 0
M  V30 3071 H 272.384 1.5504 -4.34466 0
M  V30 3072 H 270.627 1.39242 -4.10846 0
M  V30 3073 H 271.298 2.92169 -4.68339 0
M  V30 3074 H 273.774 3.1089 -2.76563 0
M  V30 3075 H 272.65 4.38286 -3.3045 0
M  V30 3076 H 272.911 4.12655 -1.58646 0
M  V30 3077 N 271.97 1.30982 0.876444 0
M  V30 3078 C 273.247 1.10942 1.61094 0
M  V30 3079 C 273.627 -0.338223 2.08373 0
M  V30 3080 O 272.975 -1.33122 1.85717 0
M  V30 3081 C 273.185 2.11789 2.77392 0
M  V30 3082 C 274.533 2.43965 3.47514 0
M  V30 3083 O 275.557 2.10166 2.87591 0
M  V30 3084 O 274.416 3.01817 4.55597 0
M  V30 3085 H 271.51 0.42667 0.708436 0
M  V30 3086 H 274.056 1.42438 0.922474 0
M  V30 3087 H 272.828 3.09194 2.39823 0
M  V30 3088 H 272.451 1.81161 3.5393 0
M  V30 3089 N 273.449 -1.08991 1.13837 0
M  V30 3090 C 274.695 -1.81526 0.90422 0
M  V30 3091 C 275.028 -1.85706 -0.568066 0
M  V30 3092 O 274.303 -1.32855 -1.42056 0
M  V30 3093 C 274.586 -3.27447 1.49835 0
M  V30 3094 C 274.439 -3.31512 3.04006 0
M  V30 3095 C 275.758 -4.24256 1.17025 0
M  V30 3096 H 272.877 -0.659029 0.329923 0
M  V30 3097 H 275.519 -1.27644 1.40737 0
M  V30 3098 H 273.669 -3.73462 1.07044 0
M  V30 3099 H 275.341 -2.93867 3.55584 0
M  V30 3100 H 273.584 -2.70963 3.38765 0
M  V30 3101 H 274.255 -4.34329 3.40679 0
M  V30 3102 H 276.731 -3.86549 1.54009 0
M  V30 3103 H 275.607 -5.24684 1.61237 0
M  V30 3104 H 275.868 -4.42019 0.0846274 0
M  V30 3105 N 274.927 -0.932562 -1.27047 0
M  V30 3106 C 276.173 -0.585913 -1.94778 0
M  V30 3107 C 276.528 0.864142 -1.71902 0
M  V30 3108 O 275.821 1.60894 -1.04037 0
M  V30 3109 C 276.015 -0.853713 -3.47054 0
M  V30 3110 C 275.844 -2.32825 -3.84737 0
M  V30 3111 C 274.614 -2.98184 -4.07939 0
M  V30 3112 C 276.812 -3.30612 -3.93954 0
M  V30 3113 N 274.794 -4.3574 -4.3244 0
M  V30 3114 C 276.165 -4.53395 -4.22887 0
M  V30 3115 C 278.22 -3.25755 -3.76548 0
M  V30 3116 C 276.923 -5.71927 -4.36224 0
M  V30 3117 C 278.949 -4.43604 -3.91113 0
M  V30 3118 C 278.311 -5.65166 -4.20437 0
M  V30 3119 H 274.41 -0.264617 -0.735868 0
M  V30 3120 H 276.994 -1.20019 -1.53309 0
M  V30 3121 H 275.165 -0.268557 -3.8747 0
M  V30 3122 H 276.897 -0.469202 -4.01971 0
M  V30 3123 H 273.652 -2.48835 -4.02961 0
M  V30 3124 H 274.076 -5.06915 -4.48738 0
M  V30 3125 H 278.718 -2.32835 -3.52913 0
M  V30 3126 H 276.436 -6.65308 -4.58683 0
M  V30 3127 H 280.022 -4.41368 -3.79059 0
M  V30 3128 H 278.902 -6.54836 -4.31462 0
M  V30 3129 N 276.405 1.4127 -0.698611 0
M  V30 3130 C 277.368 2.29158 -0.044132 0
M  V30 3131 C 278.368 1.44529 0.704841 0
M  V30 3132 O 279.558 1.65643 0.539276 0
M  V30 3133 C 276.69 3.27459 0.947809 0
M  V30 3134 H 277.883 2.88529 -0.817994 0
M  V30 3135 H 275.436 1.49307 -0.46228 0
M  V30 3136 H 276.171 2.73073 1.74933 0
M  V30 3137 H 275.956 3.8991 0.41385 0
M  V30 3138 H 277.446 3.93311 1.40344 0
M  V30 3139 N 277.883 0.443576 1.51229 0
M  V30 3140 C 279.132 -0.122332 2.01329 0
M  V30 3141 C 279.445 -1.43237 1.33201 0
M  V30 3142 O 280.651 -2.0816 1.74304 0
M  V30 3143 C 279.107 -0.268551 3.58897 0
M  V30 3144 C 278.715 1.03142 4.35965 0
M  V30 3145 C 280.459 -0.787894 4.17124 0
M  V30 3146 C 278.366 0.850504 5.85252 0
M  V30 3147 H 277.296 -0.0494929 0.752374 0
M  V30 3148 H 279.947 0.574289 1.74282 0
M  V30 3149 H 278.329 -1.02832 3.82415 0
M  V30 3150 H 279.503 1.80001 4.24189 0
M  V30 3151 H 277.818 1.47977 3.89219 0
M  V30 3152 H 280.415 -0.939841 5.26375 0
M  V30 3153 H 280.758 -1.77201 3.76703 0
M  V30 3154 H 281.291 -0.0862669 3.97706 0
M  V30 3155 H 278.03 1.80718 6.30096 0
M  V30 3156 H 277.55 0.121825 5.99676 0
M  V30 3157 H 279.229 0.506163 6.45017 0
M  V30 3158 N 279.361 -1.56624 0.175154 0
M  V30 3159 C 280.609 -1.96609 -0.467885 0
M  V30 3160 C 280.93 -1.06238 -1.63519 0
M  V30 3161 O 280.2 -0.129523 -1.95471 0
M  V30 3162 H 278.78 -0.726008 -0.175845 0
M  V30 3163 H 281.442 -1.93195 0.257234 0
M  V30 3164 H 280.538 -3.00989 -0.825342 0
M  V30 3165 N 280.839 0.0985539 -1.57292 0
M  V30 3166 C 282.079 0.808332 -1.87737 0
M  V30 3167 C 282.443 1.7607 -0.76572 0
M  V30 3168 O 283.644 2.51358 -0.952499 0
M  V30 3169 C 281.915 1.52093 -3.23423 0
M  V30 3170 S 283.474 2.26947 -3.75554 0
M  V30 3171 H 280.292 0.269377 -0.657995 0
M  V30 3172 H 282.894 0.0656269 -1.9539 0
M  V30 3173 H 281.598 0.81363 -4.02254 0
M  V30 3174 H 281.129 2.30361 -3.189 0
M  V30 3175 H 283.144 3.53027 -3.48692 0
M  V30 3176 N 282.317 1.53212 0.369288 0
M  V30 3177 C 283.563 1.69466 1.11397 0
M  V30 3178 C 283.896 0.443257 1.89074 0
M  V30 3179 O 283.171 -0.559386 1.86282 0
M  V30 3180 C 283.454 2.9422 2.07621 0
M  V30 3181 C 283.307 4.29508 1.33577 0
M  V30 3182 C 284.626 3.14565 3.07794 0
M  V30 3183 H 281.745 0.616667 0.403597 0
M  V30 3184 H 284.387 1.85845 0.395179 0
M  V30 3185 H 282.537 2.80387 2.68916 0
M  V30 3186 H 284.209 4.55147 0.750955 0
M  V30 3187 H 282.452 4.29088 0.637618 0
M  V30 3188 H 283.123 5.12926 2.03989 0
M  V30 3189 H 285.599 3.2756 2.56601 0
M  V30 3190 H 284.475 4.03297 3.72348 0
M  V30 3191 H 284.736 2.29675 3.77759 0
M  V30 3192 N 283.795 -0.628877 1.44509 0
M  V30 3193 C 285.042 -1.38839 1.47411 0
M  V30 3194 C 285.37 -1.94202 0.10757 0
M  V30 3195 O 284.625 -1.74243 -0.890947 0
M  V30 3196 C 284.924 -2.56995 2.48371 0
M  V30 3197 C 284.59 -2.19908 3.93639 0
M  V30 3198 C 283.252 -2.09506 4.33198 0
M  V30 3199 C 285.604 -1.9064 4.85083 0
M  V30 3200 C 282.932 -1.68028 5.62124 0
M  V30 3201 C 285.284 -1.50655 6.14399 0
M  V30 3202 C 283.948 -1.38796 6.5291 0
M  V30 3203 H 283.218 -0.508048 0.539414 0
M  V30 3204 H 285.865 -0.712913 1.77735 0
M  V30 3205 H 284.17 -3.29786 2.11538 0
M  V30 3206 H 285.867 -3.15223 2.47861 0
M  V30 3207 H 282.457 -2.28922 3.62343 0
M  V30 3208 H 286.641 -1.97585 4.55273 0
M  V30 3209 H 281.897 -1.57452 5.90778 0
M  V30 3210 H 286.071 -1.27048 6.84713 0
M  V30 3211 H 283.698 -1.06429 7.52713 0
M  V30 3212 N 285.273 -1.31445 -0.869486 0
M  V30 3213 C 286.236 -1.19094 -1.9583 0
M  V30 3214 C 287.236 -0.117906 -1.60367 0
M  V30 3215 O 288.426 -0.367208 -1.70286 0
M  V30 3216 C 285.558 -0.828165 -3.30688 0
M  V30 3217 H 286.751 -2.15842 -2.08212 0
M  V30 3218 H 284.304 -1.15063 -1.05784 0
M  V30 3219 H 285.039 0.138142 -3.24006 0
M  V30 3220 H 284.824 -1.6038 -3.578 0
M  V30 3221 H 286.314 -0.765658 -4.10521 0
M  V30 3222 N 286.751 1.08385 -1.14413 0
M  V30 3223 C 287.661 2.18856 -0.844951 0
M  V30 3224 C 288.677 1.73121 0.174668 0
M  V30 3225 O 289.853 2.014 0.00312857 0
M  V30 3226 C 286.918 3.45155 -0.32696 0
M  V30 3227 C 285.979 4.05513 -1.40916 0
M  V30 3228 C 285.212 5.25784 -0.915793 0
M  V30 3229 O 285.435 5.69884 0.242651 0
M  V30 3230 O 284.369 5.77545 -1.69487 0
M  V30 3231 H 288.195 2.46919 -1.76818 0
M  V30 3232 H 285.78 1.17524 -0.922411 0
M  V30 3233 H 287.662 4.21377 -0.0440211 0
M  V30 3234 H 286.337 3.18668 0.568539 0
M  V30 3235 H 285.244 3.30879 -1.74556 0
M  V30 3236 H 286.577 4.3625 -2.27919 0
M  V30 3237 N 288.23 0.939286 1.26551 0
M  V30 3238 C 289.16 0.465044 2.28822 0
M  V30 3239 C 290.141 -0.480692 1.63167 0
M  V30 3240 O 291.326 -0.382955 1.90387 0
M  V30 3241 C 288.456 -0.27234 3.46231 0
M  V30 3242 C 287.41 0.58666 4.2396 0
M  V30 3243 C 286.736 -0.280573 5.33963 0
M  V30 3244 C 288.036 1.85704 4.88171 0
M  V30 3245 H 289.73 1.31979 2.68741 0
M  V30 3246 H 287.276 0.636061 1.29191 0
M  V30 3247 H 289.229 -0.615133 4.16886 0
M  V30 3248 H 287.953 -1.16121 3.0526 0
M  V30 3249 H 286.612 0.91232 3.55067 0
M  V30 3250 H 286.26 -1.16874 4.89234 0
M  V30 3251 H 285.96 0.29076 5.8688 0
M  V30 3252 H 287.484 -0.618678 6.07458 0
M  V30 3253 H 288.898 1.58161 5.51052 0
M  V30 3254 H 287.295 2.37279 5.51197 0
M  V30 3255 H 288.365 2.56957 4.11219 0
M  V30 3256 N 289.708 -1.40897 0.706093 0
M  V30 3257 C 290.638 -2.33418 0.0620085 0
M  V30 3258 C 291.619 -1.52385 -0.755827 0
M  V30 3259 O 292.804 -1.80886 -0.706674 0
M  V30 3260 C 289.934 -3.36293 -0.867445 0
M  V30 3261 C 288.888 -4.27716 -0.155932 0
M  V30 3262 C 288.214 -5.2105 -1.20046 0
M  V30 3263 C 289.514 -5.12944 0.984149 0
M  V30 3264 H 291.208 -2.87527 0.83477 0
M  V30 3265 H 288.754 -1.38249 0.402875 0
M  V30 3266 H 290.707 -3.99949 -1.32735 0
M  V30 3267 H 289.431 -2.80556 -1.67199 0
M  V30 3268 H 288.09 -3.65498 0.284047 0
M  V30 3269 H 287.738 -4.61624 -1.99781 0
M  V30 3270 H 287.438 -5.83056 -0.729328 0
M  V30 3271 H 288.962 -5.87584 -1.66066 0
M  V30 3272 H 290.376 -5.70109 0.604048 0
M  V30 3273 H 288.773 -5.83945 1.38304 0
M  V30 3274 H 289.843 -4.49485 1.81911 0
M  V30 3275 N 291.186 -0.45159 -1.50991 0
M  V30 3276 C 292.411 0.110667 -2.07105 0
M  V30 3277 C 292.836 1.3446 -1.31538 0
M  V30 3278 O 292.194 1.77743 -0.357365 0
M  V30 3279 C 292.242 0.397238 -3.58405 0
M  V30 3280 O 291.346 1.48124 -3.84881 0
M  V30 3281 H 290.687 -0.00439271 -0.663985 0
M  V30 3282 H 293.217 -0.637026 -1.9443 0
M  V30 3283 H 293.227 0.64351 -4.02893 0
M  V30 3284 H 291.902 -0.504553 -4.12828 0
M  V30 3285 H 290.479 1.22381 -3.52246 0
M  V30 3286 N 292.664 1.56529 -0.183458 0
M  V30 3287 C 293.912 1.96855 0.457452 0
M  V30 3288 C 294.233 1.07104 1.62953 0
M  V30 3289 O 293.503 0.139887 1.954 0
M  V30 3290 H 292.083 0.72693 0.171992 0
M  V30 3291 H 294.745 1.93056 -0.267476 0
M  V30 3292 H 293.841 3.01423 0.809368 0
M  V30 3293 N 294.142 -0.090211 1.57342 0
M  V30 3294 C 295.388 -0.793982 1.86611 0
M  V30 3295 C 295.721 -1.78142 0.773252 0
M  V30 3296 O 294.996 -1.93271 -0.218304 0
M  V30 3297 C 295.279 -1.51839 3.26523 0
M  V30 3298 C 295.132 -0.548609 4.46442 0
M  V30 3299 C 296.451 -2.46779 3.64401 0
M  V30 3300 H 293.57 -0.287186 0.678744 0
M  V30 3301 H 296.212 -0.0575076 1.89913 0
M  V30 3302 H 294.362 -2.14617 3.23839 0
M  V30 3303 H 296.034 0.0725513 4.61243 0
M  V30 3304 H 294.277 0.137614 4.33582 0
M  V30 3305 H 294.948 -1.09271 5.41076 0
M  V30 3306 H 297.424 -1.94089 3.68061 0
M  V30 3307 H 296.3 -2.94479 4.63221 0
M  V30 3308 H 296.561 -3.30758 2.93346 0
M  V30 3309 N 295.62 -1.53406 -0.361157 0
M  V30 3310 C 297.031 -1.61442 -0.937728 0
M  V30 3311 C 297.382 -0.48461 -1.90121 0
M  V30 3312 O 296.507 0.388312 -2.12888 0
M  V30 3313 C 297.102 -2.92624 -1.70753 0
M  V30 3314 C 295.661 -3.02981 -2.23337 0
M  V30 3315 C 294.808 -2.5677 -1.04712 0
M  V30 3316 H 297.759 -1.58083 -0.139816 0
M  V30 3317 H 297.78 -2.80675 -2.56908 0
M  V30 3318 H 297.292 -3.74834 -1.00604 0
M  V30 3319 H 295.393 -2.25368 -2.96715 0
M  V30 3320 H 295.506 -4.0814 -2.50916 0
M  V30 3321 H 293.87 -2.11752 -1.41539 0
M  V30 3322 H 294.653 -3.41402 -0.360539 0
M  V30 3323 N 297.098 0.621204 -1.44841 0
M  V30 3324 C 298.028 1.74366 -1.55303 0
M  V30 3325 C 299.009 1.65199 -0.405385 0
M  V30 3326 O 300.194 1.83807 -0.626787 0
M  V30 3327 C 297.324 3.12931 -1.50637 0
M  V30 3328 C 296.278 3.36896 -2.63979 0
M  V30 3329 C 295.604 4.75594 -2.44366 0
M  V30 3330 C 296.904 3.28483 -4.06074 0
M  V30 3331 H 298.598 1.65867 -2.49256 0
M  V30 3332 H 296.144 0.796558 -1.19962 0
M  V30 3333 H 298.097 3.9124 -1.56555 0
M  V30 3334 H 296.821 3.22237 -0.532057 0
M  V30 3335 H 295.48 2.60972 -2.57467 0
M  V30 3336 H 295.128 4.81616 -1.45105 0
M  V30 3337 H 294.828 4.92586 -3.20364 0
M  V30 3338 H 296.352 5.5612 -2.52117 0
M  V30 3339 H 297.766 3.96684 -4.13902 0
M  V30 3340 H 296.163 3.57008 -4.82354 0
M  V30 3341 H 297.233 2.26133 -4.28943 0
M  V30 3342 N 298.576 1.31904 0.862503 0
M  V30 3343 C 299.822 1.23207 1.61838 0
M  V30 3344 C 300.177 -0.206062 1.91293 0
M  V30 3345 O 299.47 -1.14162 1.53875 0
M  V30 3346 C 299.664 2.01713 2.95037 0
M  V30 3347 C 299.493 3.53014 2.78588 0
M  V30 3348 C 298.263 4.22359 2.77382 0
M  V30 3349 C 300.461 4.47819 2.52909 0
M  V30 3350 N 298.443 5.59766 2.52062 0
M  V30 3351 C 299.814 5.72947 2.36922 0
M  V30 3352 C 301.869 4.37162 2.38314 0
M  V30 3353 C 300.572 6.88623 2.07823 0
M  V30 3354 C 302.598 5.5263 2.10604 0
M  V30 3355 C 301.96 6.76752 1.95411 0
M  V30 3356 H 298.059 0.505984 0.596242 0
M  V30 3357 H 300.643 1.66179 1.01452 0
M  V30 3358 H 298.814 1.61098 3.53415 0
M  V30 3359 H 300.546 1.84975 3.59953 0
M  V30 3360 H 297.301 3.74401 2.90036 0
M  V30 3361 H 297.725 6.32135 2.42352 0
M  V30 3362 H 302.367 3.41857 2.48784 0
M  V30 3363 H 300.085 7.83948 1.9609 0
M  V30 3364 H 303.671 5.46307 2.00101 0
M  V30 3365 H 302.551 7.6459 1.74274 0
M  V30 3366 N 300.054 -1.07777 1.14986 0
M  V30 3367 C 301.465 -1.61766 0.932127 0
M  V30 3368 C 301.816 -1.88974 -0.527581 0
M  V30 3369 O 300.941 -1.65198 -1.39781 0
M  V30 3370 C 301.536 -2.93891 1.68563 0
M  V30 3371 C 300.095 -3.44639 1.5133 0
M  V30 3372 C 299.242 -2.18767 1.704 0
M  V30 3373 H 302.193 -0.909201 1.30074 0
M  V30 3374 H 302.214 -3.62623 1.15259 0
M  V30 3375 H 301.726 -2.74057 2.74799 0
M  V30 3376 H 299.827 -3.69564 0.474702 0
M  V30 3377 H 299.94 -4.20966 2.28746 0
M  V30 3378 H 298.304 -2.28253 1.13016 0
M  V30 3379 H 299.087 -2.01433 2.77992 0
M  V30 3380 N 301.532 -0.945985 -1.26051 0
M  V30 3381 C 302.78 -0.594941 -1.93145 0
M  V30 3382 C 303.101 0.86953 -1.7454 0
M  V30 3383 O 302.371 1.61838 -1.10387 0
M  V30 3384 H 300.951 -0.217044 -0.714773 0
M  V30 3385 H 303.613 -1.20235 -1.53393 0
M  V30 3386 H 302.709 -0.816835 -3.01221 0
M  V30 3387 N 303.011 1.40521 -0.713556 0
M  V30 3388 C 303.958 2.30723 -0.059684 0
M  V30 3389 C 304.928 1.48079 0.752448 0
M  V30 3390 O 306.113 1.76823 0.71681 0
M  V30 3391 C 303.253 3.34274 0.857594 0
M  V30 3392 C 302.366 4.31986 0.0351536 0
M  V30 3393 C 301.501 5.22605 0.951724 0
M  V30 3394 C 300.54 6.11976 0.123253 0
M  V30 3395 N 299.677 6.9502 0.99459 0
M  V30 3396 H 304.517 2.86074 -0.834596 0
M  V30 3397 H 302.054 1.40879 -0.42326 0
M  V30 3398 H 304.012 3.92879 1.40364 0
M  V30 3399 H 302.642 2.8043 1.59871 0
M  V30 3400 H 301.694 3.7518 -0.628052 0
M  V30 3401 H 303.006 4.95101 -0.606347 0
M  V30 3402 H 302.16 5.86131 1.56638 0
M  V30 3403 H 300.899 4.59759 1.62705 0
M  V30 3404 H 299.904 5.47482 -0.50435 0
M  V30 3405 H 301.129 6.76881 -0.548539 0
M  V30 3406 H 299.075 6.34764 1.6556 0
M  V30 3407 H 298.992 7.54892 0.40908 0
M  V30 3408 H 300.26 7.62997 1.59549 0
M  V30 3409 N 304.489 0.459591 1.5075 0
M  V30 3410 C 305.714 -0.0996819 2.0716 0
M  V30 3411 C 306.139 -1.33761 1.32249 0
M  V30 3412 O 305.497 -1.77551 0.366786 0
M  V30 3413 C 305.545 -0.378226 3.58611 0
M  V30 3414 O 304.649 -1.46081 3.85661 0
M  V30 3415 H 303.99 0.00791392 0.663953 0
M  V30 3416 H 306.52 0.647329 1.9409 0
M  V30 3417 H 306.53 -0.622135 4.03229 0
M  V30 3418 H 305.205 0.526439 4.12555 0
M  V30 3419 H 303.782 -1.20511 3.5289 0
M  V30 3420 N 305.967 -1.56429 0.191757 0
M  V30 3421 C 307.244 -1.89224 -0.495332 0
M  V30 3422 C 307.624 -1.10478 -1.79883 0
M  V30 3423 O 306.972 -0.204852 -2.2758 0
M  V30 3424 C 307.182 -3.41548 -0.717367 0
M  V30 3425 C 308.53 -4.11711 -1.03823 0
M  V30 3426 O 309.554 -3.4698 -0.805204 0
M  V30 3427 O 308.413 -5.2611 -1.47887 0
M  V30 3428 H 305.507 -0.785788 -0.25781 0
M  V30 3429 H 308.053 -1.68111 0.231721 0
M  V30 3430 H 306.825 -3.90772 0.203287 0
M  V30 3431 H 306.448 -3.68342 -1.497 0
M  V30 3432 N 307.445 0.0818655 -1.57387 0
M  V30 3433 C 308.691 0.784074 -1.8703 0
M  V30 3434 C 309.024 1.77729 -0.782689 0
M  V30 3435 O 308.299 1.93384 0.208051 0
M  V30 3436 C 308.582 1.50105 -3.27323 0
M  V30 3437 C 308.435 0.524925 -4.46727 0
M  V30 3438 C 309.754 2.44843 -3.65705 0
M  V30 3439 H 306.873 0.283582 -0.680257 0
M  V30 3440 H 309.515 0.0474352 -1.89941 0
M  V30 3441 H 307.665 2.12897 -3.24972 0
M  V30 3442 H 309.337 -0.0970111 -4.61198 0
M  V30 3443 H 307.58 -0.160606 -4.33503 0
M  V30 3444 H 308.251 1.064 -5.41648 0
M  V30 3445 H 310.727 1.92135 -3.69085 0
M  V30 3446 H 309.603 2.92018 -4.64776 0
M  V30 3447 H 309.864 3.29197 -2.95096 0
M  V30 3448 N 308.923 1.53595 0.353017 0
M  V30 3449 C 310.2 1.61002 1.11075 0
M  V30 3450 C 310.58 0.425356 2.0677 0
M  V30 3451 O 309.928 -0.583267 2.2093 0
M  V30 3452 C 310.138 2.96631 1.83877 0
M  V30 3453 C 311.486 3.51653 2.37961 0
M  V30 3454 O 312.51 2.98743 1.93987 0
M  V30 3455 O 311.369 4.44177 3.18386 0
M  V30 3456 H 308.463 0.650825 0.510251 0
M  V30 3457 H 311.009 1.6594 0.35527 0
M  V30 3458 H 309.781 3.74293 1.14108 0
M  V30 3459 H 309.404 2.95242 2.66304 0
M  V30 3460 N 310.401 -0.613514 1.45168 0
M  V30 3461 C 311.333 -1.73825 1.4939 0
M  V30 3462 C 312.346 -1.58175 0.385304 0
M  V30 3463 O 313.535 -1.66165 0.652036 0
M  V30 3464 C 310.635 -3.11758 1.32891 0
M  V30 3465 C 309.808 -3.53704 2.57317 0
M  V30 3466 C 308.867 -4.70579 2.35462 0
M  V30 3467 O 307.893 -4.77996 3.09044 0
M  V30 3468 N 309.095 -5.63454 1.39644 0
M  V30 3469 H 311.86 -1.70669 2.46358 0
M  V30 3470 H 309.421 -0.79862 1.40832 0
M  V30 3471 H 311.413 -3.87692 1.1609 0
M  V30 3472 H 309.983 -3.09456 0.442218 0
M  V30 3473 H 309.203 -2.67794 2.89275 0
M  V30 3474 H 310.491 -3.78486 3.40038 0
M  V30 3475 H 309.889 -5.6017 0.789062 0
M  V30 3476 H 308.446 -6.38944 1.28816 0
M  V30 3477 N 311.879 -1.3236 -0.855495 0
M  V30 3478 C 312.809 -1.23833 -1.97958 0
M  V30 3479 C 313.79 -0.122361 -1.69659 0
M  V30 3480 O 314.975 -0.30939 -1.9172 0
M  V30 3481 C 312.105 -0.959772 -3.33775 0
M  V30 3482 C 311.059 -2.03689 -3.76424 0
M  V30 3483 C 310.385 -1.61075 -5.09862 0
M  V30 3484 C 311.685 -3.4518 -3.9198 0
M  V30 3485 H 313.379 -2.1788 -2.0535 0
M  V30 3486 H 310.925 -1.04891 -0.986605 0
M  V30 3487 H 312.878 -0.886678 -4.11966 0
M  V30 3488 H 311.602 0.0163404 -3.26596 0
M  V30 3489 H 310.261 -2.10012 -3.00484 0
M  V30 3490 H 309.909 -0.622107 -4.99138 0
M  V30 3491 H 309.609 -2.33143 -5.39368 0
M  V30 3492 H 311.133 -1.55201 -5.90546 0
M  V30 3493 H 312.547 -3.4145 -4.60526 0
M  V30 3494 H 310.944 -4.1559 -4.32903 0
M  V30 3495 H 312.014 -3.84903 -2.94919 0
M  V30 3496 N 313.357 1.07166 -1.15556 0
M  V30 3497 C 314.587 1.83248 -0.954133 0
M  V30 3498 C 314.995 1.82449 0.500911 0
M  V30 3499 O 314.338 1.23575 1.35923 0
M  V30 3500 C 314.4 3.31393 -1.39351 0
M  V30 3501 C 314.064 3.5591 -2.86666 0
M  V30 3502 C 315.061 3.49695 -3.8472 0
M  V30 3503 C 312.746 3.83515 -3.24379 0
M  V30 3504 C 314.74 3.70737 -5.18491 0
M  V30 3505 C 312.427 4.04209 -4.58321 0
M  V30 3506 C 313.425 3.97815 -5.55186 0
M  V30 3507 O 313.113 4.17954 -6.86709 0
M  V30 3508 H 312.845 0.584941 -0.338851 0
M  V30 3509 H 315.399 1.36169 -1.53777 0
M  V30 3510 H 313.629 3.79292 -0.75329 0
M  V30 3511 H 315.318 3.88945 -1.16089 0
M  V30 3512 H 316.084 3.28368 -3.56931 0
M  V30 3513 H 311.963 3.87605 -2.49567 0
M  V30 3514 H 315.507 3.65663 -5.94085 0
M  V30 3515 H 311.404 4.25023 -4.85825 0
M  V30 3516 H 312.172 4.35291 -6.93155 0
M  V30 3517 N 314.835 0.952656 1.25548 0
M  V30 3518 C 315.765 0.489287 2.28316 0
M  V30 3519 C 316.746 -0.463359 1.63667 0
M  V30 3520 O 317.931 -0.36274 1.90782 0
M  V30 3521 C 315.061 -0.235603 3.465 0
M  V30 3522 C 314.015 0.631593 4.23314 0
M  V30 3523 C 313.341 -0.223923 5.34231 0
M  V30 3524 C 314.641 1.90871 4.86174 0
M  V30 3525 H 316.335 1.34822 2.67326 0
M  V30 3526 H 313.881 0.649728 1.28509 0
M  V30 3527 H 315.834 -0.570882 4.17515 0
M  V30 3528 H 314.558 -1.12877 3.06474 0
M  V30 3529 H 313.217 0.949929 3.54079 0
M  V30 3530 H 312.865 -1.11678 4.90446 0
M  V30 3531 H 312.565 0.35299 5.86539 0
M  V30 3532 H 314.089 -0.554214 6.0808 0
M  V30 3533 H 315.503 1.63997 5.49343 0
M  V30 3534 H 313.9 2.43112 5.4865 0
M  V30 3535 H 314.97 2.61304 4.08471 0
M  V30 3536 N 316.313 -1.40141 0.720998 0
M  V30 3537 C 317.562 -2.0002 0.259804 0
M  V30 3538 C 317.875 -1.57839 -1.15526 0
M  V30 3539 O 319.081 -2.10455 -1.71525 0
M  V30 3540 C 317.537 -3.57516 0.413566 0
M  V30 3541 C 317.145 -4.08667 1.83562 0
M  V30 3542 C 318.889 -4.24498 0.0134387 0
M  V30 3543 C 316.796 -5.58686 1.93968 0
M  V30 3544 H 315.726 -0.748195 0.0933806 0
M  V30 3545 H 318.377 -1.60313 0.892866 0
M  V30 3546 H 316.759 -3.9495 -0.288169 0
M  V30 3547 H 317.933 -3.82598 2.56817 0
M  V30 3548 H 316.248 -3.543 2.1877 0
M  V30 3549 H 318.845 -5.34654 0.0703954 0
M  V30 3550 H 319.188 -4.03375 -1.02927 0
M  V30 3551 H 319.721 -3.92188 0.665815 0
M  V30 3552 H 316.46 -5.8467 2.96379 0
M  V30 3553 H 315.98 -5.86602 1.25131 0
M  V30 3554 H 317.659 -6.23875 1.71431 0
M  V30 3555 N 317.792 -0.46758 -1.50504 0
M  V30 3556 C 319.208 -0.121533 -1.59137 0
M  V30 3557 C 319.408 1.3717 -1.47603 0
M  V30 3558 O 318.464 2.14464 -1.33272 0
M  V30 3559 C 319.777 -0.6686 -2.93173 0
M  V30 3560 C 321.325 -0.631716 -3.06559 0
M  V30 3561 C 321.8 -1.15627 -4.43164 0
M  V30 3562 N 323.291 -1.11553 -4.49567 0
M  V30 3563 C 324.026 -1.49195 -5.5365 0
M  V30 3564 N 323.522 -1.94269 -6.65005 0
M  V30 3565 N 325.315 -1.4082 -5.44175 0
M  V30 3566 H 317.466 -1.4388 -1.56245 0
M  V30 3567 H 319.729 -0.594784 -0.738198 0
M  V30 3568 H 319.435 -1.71453 -3.07078 0
M  V30 3569 H 319.309 -0.11021 -3.77039 0
M  V30 3570 H 321.696 0.405297 -2.92304 0
M  V30 3571 H 321.777 -1.22687 -2.24458 0
M  V30 3572 H 321.421 -2.1919 -4.58168 0
M  V30 3573 H 321.351 -0.537365 -5.23851 0
M  V30 3574 H 323.842 -0.784895 -3.69659 0
M  V30 3575 H 324.155 -2.21148 -7.40482 0
M  V30 3576 H 322.5 -1.98219 -6.66134 0
M  V30 3577 H 325.691 -1.0545 -4.56068 0
M  V30 3578 H 325.864 -1.70481 -6.25172 0
M  V30 3579 N 319.27 1.56325 -0.20005 0
M  V30 3580 C 320.217 2.1932 0.718833 0
M  V30 3581 C 321.187 1.14198 1.20615 0
M  V30 3582 O 322.372 1.42469 1.26914 0
M  V30 3583 C 319.512 2.86041 1.93066 0
M  V30 3584 C 318.625 4.05702 1.48425 0
M  V30 3585 C 317.76 4.60266 2.65196 0
M  V30 3586 C 316.799 5.72273 2.17185 0
M  V30 3587 N 315.936 6.21221 3.27152 0
M  V30 3588 H 320.776 2.97486 0.17489 0
M  V30 3589 H 318.313 1.46911 0.0745794 0
M  V30 3590 H 320.271 3.22897 2.64184 0
M  V30 3591 H 318.901 2.1043 2.44783 0
M  V30 3592 H 317.953 3.74475 0.668755 0
M  V30 3593 H 319.265 4.86699 1.09204 0
M  V30 3594 H 318.419 4.99453 3.4443 0
M  V30 3595 H 317.158 3.78386 3.07693 0
M  V30 3596 H 316.163 5.3261 1.36407 0
M  V30 3597 H 317.388 6.55974 1.75713 0
M  V30 3598 H 315.334 5.42263 3.69171 0
M  V30 3599 H 315.251 6.97284 2.92116 0
M  V30 3600 H 316.519 6.65063 4.06585 0
M  V30 3601 N 320.748 -0.0735177 1.57428 0
M  V30 3602 C 321.976 -0.785969 1.9139 0
M  V30 3603 C 322.391 -1.71207 0.795847 0
M  V30 3604 O 321.748 -1.81033 -0.230915 0
M  V30 3605 C 321.799 -1.58107 3.25091 0
M  V30 3606 O 321.52 -0.6922 4.32597 0
M  V30 3607 C 323.021 -2.39467 3.73055 0
M  V30 3608 H 320.241 -0.223558 0.632663 0
M  V30 3609 H 322.785 -0.044302 2.04452 0
M  V30 3610 H 320.94 -2.27503 3.13562 0
M  V30 3611 H 321.354 -1.24504 5.09508 0
M  V30 3612 H 322.828 -2.90716 4.69242 0
M  V30 3613 H 323.305 -3.18913 3.01979 0
M  V30 3614 H 323.911 -1.7523 3.87523 0
M  V30 3615 N 322.226 -1.5378 -0.344866 0
M  V30 3616 C 323.156 -1.84662 -1.42906 0
M  V30 3617 C 324.137 -0.701648 -1.54955 0
M  V30 3618 O 325.322 -0.953438 -1.69184 0
M  V30 3619 C 322.452 -2.05503 -2.79974 0
M  V30 3620 C 321.406 -3.21318 -2.82734 0
M  V30 3621 C 320.732 -3.2749 -4.22675 0
M  V30 3622 C 322.032 -4.59456 -2.48389 0
M  V30 3623 H 323.726 -2.75461 -1.17311 0
M  V30 3624 H 321.272 -1.32542 -0.562896 0
M  V30 3625 H 323.225 -2.25691 -3.55867 0
M  V30 3626 H 321.949 -1.11434 -3.07002 0
M  V30 3627 H 320.608 -3.00984 -2.09294 0
M  V30 3628 H 320.256 -2.31019 -4.4681 0
M  V30 3629 H 319.956 -4.05316 -4.25433 0
M  V30 3630 H 321.48 -3.49887 -5.00412 0
M  V30 3631 H 322.894 -4.79667 -3.13995 0
M  V30 3632 H 321.291 -5.39675 -2.62432 0
M  V30 3633 H 322.361 -4.63155 -1.4358 0
M  V30 3634 N 323.704 0.605807 -1.45491 0
M  V30 3635 C 324.952 1.36207 -1.49305 0
M  V30 3636 C 325.273 1.94519 -0.136863 0
M  V30 3637 O 324.543 1.77261 0.833983 0
M  V30 3638 H 323.123 0.50565 -0.549843 0
M  V30 3639 H 325.785 0.711239 -1.81459 0
M  V30 3640 H 324.881 2.18058 -2.23287 0
M  V30 3641 N 325.182 1.32811 0.848464 0
M  V30 3642 C 326.459 1.14334 1.58704 0
M  V30 3643 C 326.839 -0.293948 2.09043 0
M  V30 3644 O 326.187 -1.29153 1.88499 0
M  V30 3645 C 326.397 2.17626 2.72837 0
M  V30 3646 C 327.745 2.51282 3.42261 0
M  V30 3647 O 328.769 2.16219 2.83068 0
M  V30 3648 O 327.628 3.11413 4.49093 0
M  V30 3649 H 324.722 0.441601 0.699226 0
M  V30 3650 H 327.268 1.44362 0.892053 0
M  V30 3651 H 326.04 3.14211 2.3321 0
M  V30 3652 H 325.663 1.88628 3.50008 0
M  V30 3653 N 326.66 -1.06551 1.16123 0
M  V30 3654 C 327.59 -2.15935 0.88851 0
M  V30 3655 C 328.571 -1.69306 -0.164135 0
M  V30 3656 O 329.756 -1.94193 -0.0167857 0
M  V30 3657 C 326.886 -3.45149 0.385942 0
M  V30 3658 C 325.84 -4.05271 1.3762 0
M  V30 3659 C 325.166 -5.29664 0.732137 0
M  V30 3660 C 326.466 -4.44355 2.74493 0
M  V30 3661 H 328.16 -2.39006 1.80323 0
M  V30 3662 H 325.706 -1.14866 0.868435 0
M  V30 3663 H 327.659 -4.21004 0.182647 0
M  V30 3664 H 326.383 -3.21689 -0.564274 0
M  V30 3665 H 325.042 -3.3147 1.56599 0
M  V30 3666 H 324.69 -5.02499 -0.224483 0
M  V30 3667 H 324.39 -5.70848 1.39307 0
M  V30 3668 H 325.914 -6.08218 0.538802 0
M  V30 3669 H 327.328 -5.11303 2.59311 0
M  V30 3670 H 325.725 -4.96515 3.37035 0
M  V30 3671 H 326.795 -3.55339 3.29943 0
M  V30 3672 N 328.138 -0.959301 -1.25041 0
M  V30 3673 C 329.387 -0.612254 -1.92183 0
M  V30 3674 C 329.7 0.855347 -1.75907 0
M  V30 3675 O 330.906 1.31256 -2.37664 0
M  V30 3676 C 329.362 -1.04435 -3.44414 0
M  V30 3677 C 328.97 -2.53482 -3.69393 0
M  V30 3678 C 330.714 -0.770055 -4.17457 0
M  V30 3679 C 328.621 -2.90468 -5.15153 0
M  V30 3680 H 327.551 -0.225279 -0.719559 0
M  V30 3681 H 330.202 -1.16438 -1.41825 0
M  V30 3682 H 328.584 -0.4206 -3.9376 0
M  V30 3683 H 329.758 -3.20916 -3.30681 0
M  V30 3684 H 328.073 -2.78432 -3.0962 0
M  V30 3685 H 330.67 -1.02249 -5.24832 0
M  V30 3686 H 331.013 0.293611 -4.15263 0
M  V30 3687 H 331.546 -1.35437 -3.74034 0
M  V30 3688 H 328.285 -3.95871 -5.22462 0
M  V30 3689 H 327.805 -2.27711 -5.54894 0
M  V30 3690 H 329.484 -2.79914 -5.83315 0
M  V30 3691 N 329.616 1.39756 -0.72842 0
M  V30 3692 C 331.027 1.83498 -0.344289 0
M  V30 3693 C 331.378 1.60868 1.12321 0
M  V30 3694 O 330.503 1.09634 1.86573 0
M  V30 3695 C 331.098 3.33114 -0.618112 0
M  V30 3696 C 329.657 3.753 -0.287549 0
M  V30 3697 C 328.804 2.62831 -0.884048 0
M  V30 3698 H 331.755 1.28842 -0.926578 0
M  V30 3699 H 331.776 3.80334 0.112349 0
M  V30 3700 H 331.288 3.49553 -1.68625 0
M  V30 3701 H 329.389 3.64451 0.775012 0
M  V30 3702 H 329.502 4.72945 -0.765512 0
M  V30 3703 H 327.866 2.52792 -0.311149 0
M  V30 3704 H 328.649 2.82078 -1.95671 0
M  V30 3705 N 331.094 0.475555 1.50254 0
M  V30 3706 C 332.51 0.12997 1.5907 0
M  V30 3707 C 332.71 -1.36385 1.48328 0
M  V30 3708 O 331.766 -2.13754 1.34407 0
M  V30 3709 C 333.079 0.684139 2.92814 0
M  V30 3710 C 334.627 0.647965 3.0622 0
M  V30 3711 C 335.102 1.17975 4.42545 0
M  V30 3712 N 336.593 1.13936 4.48969 0
M  V30 3713 C 337.328 1.52129 5.52851 0
M  V30 3714 N 336.824 1.97793 6.63965 0
M  V30 3715 N 338.617 1.43704 5.4342 0
M  V30 3716 H 330.768 1.44706 1.55479 0
M  V30 3717 H 333.031 0.598691 0.735033 0
M  V30 3718 H 332.737 1.73079 3.06164 0
M  V30 3719 H 332.611 0.130204 3.76975 0
M  V30 3720 H 334.998 -0.38979 2.92514 0
M  V30 3721 H 335.079 1.23876 2.23805 0
M  V30 3722 H 334.723 2.21616 4.57 0
M  V30 3723 H 334.653 0.565138 5.23559 0
M  V30 3724 H 337.144 0.804488 3.69238 0
M  V30 3725 H 337.457 2.25072 7.39299 0
M  V30 3726 H 335.802 2.01749 6.65073 0
M  V30 3727 H 338.993 1.07867 4.55502 0
M  V30 3728 H 339.166 1.73794 6.24259 0
M  V30 3729 N 332.573 -1.56217 0.208337 0
M  V30 3730 C 333.523 -2.16324 -0.720281 0
M  V30 3731 C 334.507 -1.10775 -1.16695 0
M  V30 3732 O 335.699 -1.36801 -1.12314 0
M  V30 3733 C 332.828 -2.83644 -1.93393 0
M  V30 3734 C 331.914 -3.96401 -1.50755 0
M  V30 3735 N 332.305 -4.99546 -0.792937 0
M  V30 3736 C 330.603 -4.08246 -1.79585 0
M  V30 3737 C 331.304 -5.78828 -0.577364 0
M  V30 3738 N 330.28 -5.31723 -1.1301 0
M  V30 3739 H 334.082 -2.93432 -0.165725 0
M  V30 3740 H 331.596 -1.62397 0.00906463 0
M  V30 3741 H 333.593 -3.25107 -2.60981 0
M  V30 3742 H 332.253 -2.08027 -2.49308 0
M  V30 3743 H 333.264 -5.15967 -0.447004 0
M  V30 3744 H 329.941 -3.4377 -2.36915 0
M  V30 3745 H 331.331 -6.71899 -0.00952956 0
M  V30 3746 N 334.051 0.0651679 -1.57465 0
M  V30 3747 C 334.983 1.10359 -2.00882 0
M  V30 3748 C 335.996 1.346 -0.915788 0
M  V30 3749 O 337.185 1.32723 -1.1936 0
M  V30 3750 C 334.285 2.45312 -2.33828 0
M  V30 3751 C 333.458 2.40934 -3.65061 0
M  V30 3752 C 332.517 3.58047 -3.85602 0
M  V30 3753 O 331.543 3.39175 -4.57109 0
M  V30 3754 N 332.745 4.78637 -3.28462 0
M  V30 3755 H 335.51 0.733807 -2.90578 0
M  V30 3756 H 333.071 0.253719 -1.599 0
M  V30 3757 H 335.063 3.22314 -2.44737 0
M  V30 3758 H 333.633 2.74267 -1.49988 0
M  V30 3759 H 332.853 1.49273 -3.64844 0
M  V30 3760 H 334.141 2.35117 -4.51218 0
M  V30 3761 H 333.539 4.96872 -2.70433 0
M  V30 3762 H 332.096 5.53127 -3.44809 0
M  V30 3763 N 335.529 1.53961 0.336706 0
M  V30 3764 C 336.461 1.78751 1.4346 0
M  V30 3765 C 337.474 0.669019 1.48418 0
M  V30 3766 O 338.663 0.945884 1.51378 0
M  V30 3767 C 335.763 1.87844 2.82078 0
M  V30 3768 C 334.936 3.17854 3.00479 0
M  V30 3769 C 333.995 3.17816 4.19379 0
M  V30 3770 O 333.021 3.91511 4.13168 0
M  V30 3771 N 334.223 2.40669 5.2826 0
M  V30 3772 H 336.988 2.73493 1.22563 0
M  V30 3773 H 334.549 1.53096 0.526625 0
M  V30 3774 H 336.541 1.85261 3.59806 0
M  V30 3775 H 335.111 1.00257 2.96086 0
M  V30 3776 H 334.331 3.33504 2.10163 0
M  V30 3777 H 335.619 4.03718 3.0966 0
M  V30 3778 H 335.017 1.8036 5.36178 0
M  V30 3779 H 333.574 2.43877 6.04456 0
M  V30 3780 N 337.007 -0.598083 1.45811 0
M  V30 3781 C 338.253 -1.35882 1.50545 0
M  V30 3782 C 338.586 -1.93616 0.150445 0
M  V30 3783 O 337.861 -1.75604 -0.83628 0
M  V30 3784 C 338.144 -2.49966 2.59208 0
M  V30 3785 C 337.997 -1.97367 4.04186 0
M  V30 3786 C 339.316 -3.52068 2.64076 0
M  V30 3787 H 336.435 -0.492717 0.548087 0
M  V30 3788 H 339.077 -0.673319 1.77669 0
M  V30 3789 H 337.227 -3.08443 2.3621 0
M  V30 3790 H 338.899 -1.43466 4.38423 0
M  V30 3791 H 337.142 -1.283 4.14393 0
M  V30 3792 H 337.813 -2.79649 4.75921 0
M  V30 3793 H 340.289 -3.03448 2.84708 0
M  V30 3794 H 339.165 -4.2937 3.41954 0
M  V30 3795 H 339.426 -4.08304 1.69531 0
M  V30 3796 N 338.485 -1.33259 -0.841409 0
M  V30 3797 C 339.732 -1.24572 -1.5965 0
M  V30 3798 C 340.06 0.189137 -1.93578 0
M  V30 3799 O 339.315 1.14566 -1.5866 0
M  V30 3800 C 339.614 -2.06381 -2.9179 0
M  V30 3801 C 339.28 -3.556 -2.77235 0
M  V30 3802 C 337.942 -3.96282 -2.72973 0
M  V30 3803 C 340.294 -4.50433 -2.62221 0
M  V30 3804 C 337.622 -5.30017 -2.51592 0
M  V30 3805 C 339.974 -5.84327 -2.42374 0
M  V30 3806 C 338.638 -6.24194 -2.36512 0
M  V30 3807 H 337.908 -0.455842 -0.5842 0
M  V30 3808 H 340.555 -1.6482 -0.975016 0
M  V30 3809 H 338.86 -1.58903 -3.5813 0
M  V30 3810 H 340.557 -1.97019 -3.49263 0
M  V30 3811 H 337.147 -3.23298 -2.81384 0
M  V30 3812 H 341.331 -4.19914 -2.64549 0
M  V30 3813 H 336.587 -5.59947 -2.45499 0
M  V30 3814 H 340.761 -6.57414 -2.29739 0
M  V30 3815 H 338.388 -7.27759 -2.19706 0
M  V30 3816 N 339.963 1.05934 -1.16686 0
M  V30 3817 C 341.188 1.83029 -0.975455 0
M  V30 3818 C 341.613 1.82096 0.471452 0
M  V30 3819 O 340.971 1.22443 1.33706 0
M  V30 3820 C 341.019 3.27372 -1.51195 0
M  V30 3821 O 340.123 4.06054 -0.720701 0
M  V30 3822 H 339.464 0.566194 -0.346872 0
M  V30 3823 H 341.994 1.33541 -1.55009 0
M  V30 3824 H 342.004 3.78186 -1.53099 0
M  V30 3825 H 340.679 3.27366 -2.56523 0
M  V30 3826 H 339.256 3.64812 -0.772458 0
M  V30 3827 N 341.441 0.965919 1.2453 0
M  V30 3828 C 342.669 0.644385 1.96609 0
M  V30 3829 C 343.084 -0.785823 1.71669 0
M  V30 3830 O 342.441 -1.52703 0.999399 0
M  V30 3831 C 342.492 0.907375 3.49927 0
M  V30 3832 O 342.213 2.28136 3.74013 0
M  V30 3833 C 343.714 0.599784 4.39224 0
M  V30 3834 H 340.934 0.240588 0.626385 0
M  V30 3835 H 343.478 1.29337 1.58405 0
M  V30 3836 H 341.633 0.304631 3.862 0
M  V30 3837 H 342.047 2.36002 4.68405 0
M  V30 3838 H 343.521 0.834263 5.45659 0
M  V30 3839 H 343.998 -0.465921 4.36722 0
M  V30 3840 H 344.604 1.18235 4.08535 0
M  V30 3841 N 342.919 -1.39368 0.735821 0
M  V30 3842 C 343.867 -2.32443 0.0855131 0
M  V30 3843 C 344.861 -1.53104 -0.724954 0
M  V30 3844 O 346.067 -1.68762 -0.626047 0
M  V30 3845 H 342.442 -0.751948 0.00885257 0
M  V30 3846 H 344.413 -2.84916 0.886883 0
M  V30 3847 C 343.162 -3.38206 -0.806983 0
M  V30 3848 H 342.485 -3.99335 -0.19274 0
M  V30 3849 H 343.925 -4.05779 -1.2296 0
M  V30 3850 C 342.384 -2.75321 -1.94165 0
M  V30 3851 O 342.914 -2.63231 -3.03435 0
M  V30 3852 N 341.12 -2.33396 -1.73132 0
M  V30 3853 H 340.667 -2.4343 -0.842596 0
M  V30 3854 H 340.625 -1.91661 -2.49225 0
M  V30 3855 N 344.397 -0.483516 -1.5 0
M  V30 3856 C 345.329 0.340634 -2.26655 0
M  V30 3857 C 346.342 0.946152 -1.32483 0
M  V30 3858 O 347.531 0.832453 -1.579 0
M  V30 3859 C 344.631 1.4929 -3.04246 0
M  V30 3860 C 343.804 0.997903 -4.25865 0
M  V30 3861 C 342.863 2.02569 -4.85646 0
M  V30 3862 O 341.889 1.60128 -5.46212 0
M  V30 3863 N 343.091 3.3548 -4.73744 0
M  V30 3864 H 345.856 -0.316577 -2.98023 0
M  V30 3865 H 343.417 -0.315024 -1.58806 0
M  V30 3866 H 345.409 2.17766 -3.41116 0
M  V30 3867 H 343.979 2.05458 -2.35597 0
M  V30 3868 H 343.199 0.138617 -3.93956 0
M  V30 3869 H 344.487 0.645305 -5.04691 0
M  V30 3870 H 343.885 3.72661 -4.25605 0
M  V30 3871 H 342.442 3.99718 -5.14848 0
M  V30 3872 N 345.875 1.56104 -0.216619 0
M  V30 3873 C 347.105 2.02269 0.420802 0
M  V30 3874 C 347.513 1.09575 1.5424 0
M  V30 3875 O 346.856 0.0967308 1.83445 0
M  V30 3876 C 346.918 3.44784 1.01806 0
M  V30 3877 C 346.582 4.56988 0.0325154 0
M  V30 3878 C 347.579 5.14225 -0.766055 0
M  V30 3879 C 345.264 5.02228 -0.0848092 0
M  V30 3880 C 347.258 6.15169 -1.6687 0
M  V30 3881 C 344.945 6.03011 -0.990994 0
M  V30 3882 C 345.943 6.59357 -1.78149 0
M  V30 3883 O 345.631 7.58179 -2.67245 0
M  V30 3884 H 345.363 0.667353 0.107776 0
M  V30 3885 H 347.917 2.02747 -0.329034 0
M  V30 3886 H 346.147 3.41359 1.81689 0
M  V30 3887 H 347.836 3.74626 1.56237 0
M  V30 3888 H 348.602 4.80126 -0.685836 0
M  V30 3889 H 344.481 4.58054 0.520349 0
M  V30 3890 H 348.025 6.59076 -2.28615 0
M  V30 3891 H 343.922 6.36532 -1.07225 0
M  V30 3892 H 344.69 7.75682 -2.61265 0
M  V30 3893 N 347.353 -0.0568162 1.57498 0
M  V30 3894 C 348.6 -0.753104 1.87975 0
M  V30 3895 C 348.928 -1.76815 0.81035 0
M  V30 3896 O 348.183 -1.94756 -0.19199 0
M  V30 3897 C 348.482 -1.48359 3.25153 0
M  V30 3898 C 348.148 -0.60713 4.46794 0
M  V30 3899 C 346.81 -0.365642 4.79809 0
M  V30 3900 C 349.162 -0.000305978 5.212 0
M  V30 3901 C 346.49 0.491905 5.84634 0
M  V30 3902 C 348.842 0.844781 6.26934 0
M  V30 3903 C 347.506 1.096 6.58441 0
M  V30 3904 H 346.776 -0.27558 0.687849 0
M  V30 3905 H 349.423 -0.0135173 1.91495 0
M  V30 3906 H 347.728 -2.29577 3.17492 0
M  V30 3907 H 349.425 -2.02739 3.45974 0
M  V30 3908 H 346.015 -0.805487 4.20963 0
M  V30 3909 H 350.199 -0.173961 4.95995 0
M  V30 3910 H 345.455 0.695131 6.07436 0
M  V30 3911 H 349.629 1.32165 6.83744 0
M  V30 3912 H 347.256 1.76224 7.39492 0
M  V30 3913 N 348.832 -1.54138 -0.328536 0
M  V30 3914 C 350.057 -1.76378 -1.09112 0
M  V30 3915 C 350.482 -0.508596 -1.81094 0
M  V30 3916 O 349.84 0.539598 -1.73084 0
M  V30 3917 C 349.888 -2.95358 -2.06872 0
M  V30 3918 O 348.992 -2.66556 -3.14677 0
M  V30 3919 H 348.333 -0.584614 -0.314838 0
M  V30 3920 H 350.863 -2.01146 -0.374348 0
M  V30 3921 H 350.873 -3.22566 -2.4983 0
M  V30 3922 H 349.548 -3.86385 -1.5388 0
M  V30 3923 H 348.125 -2.50282 -2.7643 0
M  V30 3924 N 350.31 0.590341 -1.46126 0
M  V30 3925 C 351.558 1.34616 -1.50742 0
M  V30 3926 C 351.879 1.94363 -0.157486 0
M  V30 3927 O 351.149 1.78136 0.815136 0
M  V30 3928 H 349.729 0.499789 -0.555175 0
M  V30 3929 H 352.391 0.691953 -1.82203 0
M  V30 3930 H 351.487 2.15678 -2.25587 0
M  V30 3931 N 351.788 1.33704 0.83433 0
M  V30 3932 C 353.034 1.25603 1.59222 0
M  V30 3933 C 353.367 -0.176659 1.93395 0
M  V30 3934 O 352.642 -1.11915 1.59076 0
M  V30 3935 C 352.925 2.13576 2.89926 0
M  V30 3936 C 352.778 3.65326 2.62406 0
M  V30 3937 C 354.097 2.01238 3.91397 0
M  V30 3938 H 351.216 0.457613 0.577719 0
M  V30 3939 H 353.858 1.63848 0.961972 0
M  V30 3940 H 352.008 1.8109 3.43713 0
M  V30 3941 H 353.68 4.08124 2.15017 0
M  V30 3942 H 351.923 3.8698 1.96033 0
M  V30 3943 H 352.594 4.22232 3.55562 0
M  V30 3944 H 355.07 2.29738 3.46929 0
M  V30 3945 H 353.946 2.65036 4.80673 0
M  V30 3946 H 354.207 0.985951 4.30966 0
M  V30 3947 N 353.266 -1.05314 1.17247 0
M  V30 3948 C 354.213 -2.13031 0.888058 0
M  V30 3949 C 355.183 -1.65253 -0.167537 0
M  V30 3950 O 356.368 -1.90775 -0.0305974 0
M  V30 3951 C 353.508 -3.42702 0.406147 0
M  V30 3952 C 352.621 -4.04161 1.52572 0
M  V30 3953 C 351.756 -5.21744 0.997808 0
M  V30 3954 C 350.795 -5.75207 2.09291 0
M  V30 3955 N 349.932 -6.84094 1.57986 0
M  V30 3956 H 354.772 -2.36698 1.81048 0
M  V30 3957 H 352.309 -1.16121 0.903013 0
M  V30 3958 H 354.267 -4.17059 0.108305 0
M  V30 3959 H 352.897 -3.19222 -0.479313 0
M  V30 3960 H 351.949 -3.27253 1.93931 0
M  V30 3961 H 353.261 -4.39881 2.35172 0
M  V30 3962 H 352.415 -6.03168 0.653739 0
M  V30 3963 H 351.154 -4.87495 0.141232 0
M  V30 3964 H 350.159 -4.92414 2.44557 0
M  V30 3965 H 351.384 -6.11505 2.95362 0
M  V30 3966 H 349.33 -6.51745 0.74598 0
M  V30 3967 H 349.247 -7.18811 2.34195 0
M  V30 3968 H 350.515 -7.69172 1.26468 0
M  V30 3969 N 354.744 -0.972509 -1.24016 0
M  V30 3970 C 355.993 -0.632603 -1.91523 0
M  V30 3971 C 356.306 0.836641 -1.76804 0
M  V30 3972 O 357.512 1.28728 -2.39043 0
M  V30 3973 C 355.968 -1.08082 -3.43287 0
M  V30 3974 C 355.576 -2.57386 -3.66683 0
M  V30 3975 C 357.32 -0.814288 -4.16617 0
M  V30 3976 C 355.227 -2.95915 -5.12043 0
M  V30 3977 H 354.157 -0.232898 -0.717129 0
M  V30 3978 H 356.808 -1.17936 -1.40582 0
M  V30 3979 H 355.19 -0.462339 -3.93292 0
M  V30 3980 H 356.364 -3.24405 -3.27258 0
M  V30 3981 H 354.679 -2.81701 -3.06649 0
M  V30 3982 H 357.276 -1.0781 -5.23718 0
M  V30 3983 H 357.619 0.24955 -4.15551 0
M  V30 3984 H 358.152 -1.39397 -3.72577 0
M  V30 3985 H 354.891 -4.0139 -5.18234 0
M  V30 3986 H 354.411 -2.33584 -5.52448 0
M  V30 3987 H 356.09 -2.86086 -5.80314 0
M  V30 3988 N 356.222 1.38976 -0.743202 0
M  V30 3989 C 357.633 1.83123 -0.363732 0
M  V30 3990 C 357.984 1.6205 1.10609 0
M  V30 3991 O 357.109 1.11606 1.854 0
M  V30 3992 C 357.704 3.32439 -0.653408 0
M  V30 3993 C 356.263 3.74974 -0.327338 0
M  V30 3994 C 355.41 2.61878 -0.911875 0
M  V30 3995 H 358.361 1.27852 -0.940191 0
M  V30 3996 H 358.382 3.80432 0.0720031 0
M  V30 3997 H 357.894 3.47745 -1.72323 0
M  V30 3998 H 355.995 3.65252 0.736314 0
M  V30 3999 H 356.108 4.72106 -0.815631 0
M  V30 4000 H 354.472 2.52448 -0.337944 0
M  V30 4001 H 355.255 2.79987 -1.98651 0
M  V30 4002 N 357.7 0.491464 1.49741 0
M  V30 4003 C 358.977 -0.118984 1.95238 0
M  V30 4004 C 359.357 -1.55044 1.43264 0
M  V30 4005 O 358.705 -2.19287 0.642287 0
M  V30 4006 C 358.915 -0.0414187 3.48975 0
M  V30 4007 C 360.263 -0.220133 4.24029 0
M  V30 4008 O 361.287 -0.117055 3.56008 0
M  V30 4009 O 360.146 -0.430567 5.44801 0
M  V30 4010 H 357.24 -0.100536 0.820866 0
M  V30 4011 H 359.786 0.553322 1.60426 0
M  V30 4012 H 358.558 0.957214 3.79412 0
M  V30 4013 H 358.181 -0.754292 3.9038 0
M  V30 4014 N 359.178 -1.55987 0.224894 0
M  V30 4015 C 360.589 -1.84553 -0.282345 0
M  V30 4016 C 360.94 -1.14634 -1.59227 0
M  V30 4017 O 360.065 -0.417155 -2.12341 0
M  V30 4018 C 360.66 -3.348 -0.519062 0
M  V30 4019 C 359.219 -3.63671 -0.970604 0
M  V30 4020 C 358.366 -2.77277 -0.0355261 0
M  V30 4021 H 361.317 -1.52245 0.448006 0
M  V30 4022 H 361.338 -3.55187 -1.36463 0
M  V30 4023 H 360.85 -3.8566 0.43449 0
M  V30 4024 H 358.951 -3.1827 -1.9374 0
M  V30 4025 H 359.064 -4.71631 -0.842698 0
M  V30 4026 H 357.428 -2.48846 -0.542927 0
M  V30 4027 H 358.211 -3.30937 0.913003 0
M  V30 4028 N 360.656 0.0484629 -1.57525 0
M  V30 4029 C 361.566 1.07241 -2.08654 0
M  V30 4030 C 362.582 1.409 -1.02095 0
M  V30 4031 O 363.758 1.50609 -1.33712 0
M  V30 4032 C 360.823 2.36008 -2.5397 0
M  V30 4033 C 359.884 2.09108 -3.7493 0
M  V30 4034 C 359.117 3.31736 -4.18075 0
M  V30 4035 O 359.34 4.41714 -3.60895 0
M  V30 4036 O 358.274 3.18576 -5.10679 0
M  V30 4037 H 362.1 0.667965 -2.96263 0
M  V30 4038 H 359.685 0.26417 -1.47046 0
M  V30 4039 H 361.567 3.11747 -2.83535 0
M  V30 4040 H 360.242 2.75786 -1.69481 0
M  V30 4041 H 359.149 1.31 -3.50414 0
M  V30 4042 H 360.482 1.74198 -4.60343 0
M  V30 4043 N 362.134 1.5431 0.320358 0
M  V30 4044 C 363.411 1.63322 1.07635 0
M  V30 4045 C 363.791 0.46912 2.05821 0
M  V30 4046 O 363.139 -0.536274 2.22118 0
M  V30 4047 C 363.349 3.00465 1.77544 0
M  V30 4048 C 364.697 3.56621 2.30449 0
M  V30 4049 O 365.721 3.02791 1.87606 0
M  V30 4050 O 364.58 4.5083 3.08892 0
M  V30 4051 H 361.674 0.661502 0.496331 0
M  V30 4052 H 364.22 1.66656 0.319992 0
M  V30 4053 H 362.992 3.76629 1.06143 0
M  V30 4054 H 362.615 3.00824 2.59982 0
M  V30 4055 N 363.613 -0.582584 1.46437 0
M  V30 4056 C 364.546 -1.70633 1.51524 0
M  V30 4057 C 365.524 -1.58349 0.369351 0
M  V30 4058 O 366.708 -1.79563 0.573516 0
M  V30 4059 C 363.835 -3.08687 1.39392 0
M  V30 4060 C 362.881 -3.3949 2.58164 0
M  V30 4061 S 363.714 -3.31548 4.20519 0
M  V30 4062 C 364.87 -4.72139 4.10896 0
M  V30 4063 H 365.103 -1.66058 2.46601 0
M  V30 4064 H 362.636 -0.761337 1.34324 0
M  V30 4065 H 364.594 -3.8833 1.33079 0
M  V30 4066 H 363.255 -3.10751 0.457436 0
M  V30 4067 H 362.448 -4.40071 2.45669 0
M  V30 4068 H 362.05 -2.67415 2.61468 0
M  V30 4069 H 364.342 -5.62527 3.77584 0
M  V30 4070 H 365.285 -4.89692 5.11476 0
M  V30 4071 H 365.693 -4.48995 3.42146 0
M  V30 4072 N 365.091 -1.34144 -0.827227 0
M  V30 4073 C 366.001 -1.27428 -1.96975 0
M  V30 4074 C 367.017 -0.182728 -1.73038 0
M  V30 4075 O 368.193 -0.408426 -1.97215 0
M  V30 4076 C 365.258 -1.02526 -3.31194 0
M  V30 4077 C 364.319 -2.20796 -3.68168 0
M  V30 4078 C 363.552 -1.97073 -4.95982 0
M  V30 4079 O 363.775 -0.926822 -5.6282 0
M  V30 4080 O 362.709 -2.83912 -5.30733 0
M  V30 4081 H 366.535 -2.23537 -2.05584 0
M  V30 4082 H 364.12 -1.14307 -0.961989 0
M  V30 4083 H 366.002 -0.904026 -4.11589 0
M  V30 4084 H 364.677 -0.0945389 -3.23562 0
M  V30 4085 H 363.584 -2.38477 -2.88235 0
M  V30 4086 H 364.917 -3.12243 -3.8048 0
M  V30 4087 N 366.569 1.04691 -1.17803 0
M  V30 4088 C 367.98 1.59238 -0.974689 0
M  V30 4089 C 368.331 1.90306 0.477292 0
M  V30 4090 O 367.456 1.68846 1.35352 0
M  V30 4091 C 368.051 2.89318 -1.76296 0
M  V30 4092 C 366.61 3.40506 -1.60414 0
M  V30 4093 C 365.757 2.14172 -1.76141 0
M  V30 4094 H 368.708 0.874395 -1.32439 0
M  V30 4095 H 368.729 3.5944 -1.24833 0
M  V30 4096 H 368.241 2.66675 -2.81968 0
M  V30 4097 H 366.342 3.68175 -0.572519 0
M  V30 4098 H 366.455 4.14753 -2.39827 0
M  V30 4099 H 364.819 2.25176 -1.19028 0
M  V30 4100 H 365.602 1.93992 -2.83235 0
M  V30 4101 N 368.047 0.979072 1.23499 0
M  V30 4102 C 368.977 0.537606 2.27227 0
M  V30 4103 C 369.958 -0.428539 1.64613 0
M  V30 4104 O 371.143 -0.322191 1.91509 0
M  V30 4105 C 368.273 -0.162052 3.46922 0
M  V30 4106 C 367.227 0.721242 4.21879 0
M  V30 4107 C 366.553 -0.110555 5.34586 0
M  V30 4108 C 367.853 2.01141 4.82016 0
M  V30 4109 H 369.547 1.40462 2.64406 0
M  V30 4110 H 367.093 0.67684 1.27102 0
M  V30 4111 H 369.046 -0.482192 4.18632 0
M  V30 4112 H 367.77 -1.06351 3.08799 0
M  V30 4113 H 366.429 1.02482 3.51984 0
M  V30 4114 H 366.077 -1.0125 4.92704 0
M  V30 4115 H 365.777 0.477325 5.85658 0
M  V30 4116 H 367.301 -0.425107 6.09118 0
M  V30 4117 H 368.715 1.75612 5.45741 0
M  V30 4118 H 367.112 2.54695 5.43369 0
M  V30 4119 H 368.182 2.69909 4.02836 0
M  V30 4120 N 369.525 -1.3858 0.750561 0
M  V30 4121 C 370.435 -2.34278 0.122825 0
M  V30 4122 C 371.451 -1.59116 -0.704131 0
M  V30 4123 O 372.627 -1.91326 -0.628987 0
M  V30 4124 C 369.692 -3.38221 -0.762086 0
M  V30 4125 C 368.753 -4.29227 0.078896 0
M  V30 4126 C 367.986 -5.28205 -0.763874 0
M  V30 4127 O 368.209 -5.34112 -2.00201 0
M  V30 4128 O 367.143 -6.01618 -0.18428 0
M  V30 4129 H 370.969 -2.89649 0.913088 0
M  V30 4130 H 368.554 -1.40374 0.511417 0
M  V30 4131 H 370.436 -4.01872 -1.26793 0
M  V30 4132 H 369.111 -2.85211 -1.5309 0
M  V30 4133 H 368.018 -3.68747 0.630621 0
M  V30 4134 H 369.351 -4.85484 0.810289 0
M  V30 4135 N 371.003 -0.499398 -1.49478 0
M  V30 4136 C 371.933 0.269244 -2.31943 0
M  V30 4137 C 372.914 0.964054 -1.40143 0
M  V30 4138 O 374.099 0.955767 -1.69052 0
M  V30 4139 C 371.229 1.33504 -3.20615 0
M  V30 4140 C 370.183 0.760202 -4.21195 0
M  V30 4141 C 369.509 1.9264 -4.98792 0
M  V30 4142 C 370.809 -0.247661 -5.21712 0
M  V30 4143 H 372.503 -0.419082 -2.96452 0
M  V30 4144 H 370.049 -0.202988 -1.42562 0
M  V30 4145 H 372.002 1.88048 -3.77115 0
M  V30 4146 H 370.726 2.05253 -2.54045 0
M  V30 4147 H 369.385 0.23653 -3.65836 0
M  V30 4148 H 369.033 2.63154 -4.28671 0
M  V30 4149 H 368.733 1.54785 -5.66847 0
M  V30 4150 H 370.257 2.4762 -5.58137 0
M  V30 4151 H 371.671 0.209579 -5.72917 0
M  V30 4152 H 370.068 -0.541962 -5.97648 0
M  V30 4153 H 371.138 -1.16409 -4.7072 0
M  V30 4154 N 372.481 1.55866 -0.233164 0
M  V30 4155 C 373.428 2.20796 0.67215 0
M  V30 4156 C 374.398 1.16731 1.18166 0
M  V30 4157 O 375.583 1.45129 1.23864 0
M  V30 4158 C 372.723 2.90072 1.86955 0
M  V30 4159 C 371.836 4.08759 1.39786 0
M  V30 4160 C 370.971 4.65787 2.55374 0
M  V30 4161 C 370.01 5.76752 2.04998 0
M  V30 4162 N 369.147 6.28021 3.13901 0
M  V30 4163 H 373.987 2.9779 0.111749 0
M  V30 4164 H 371.524 1.47036 0.0434007 0
M  V30 4165 H 373.482 3.28428 2.57276 0
M  V30 4166 H 372.112 2.15575 2.40265 0
M  V30 4167 H 371.164 3.7581 0.589173 0
M  V30 4168 H 372.476 4.88906 0.98856 0
M  V30 4169 H 371.63 5.06646 3.33758 0
M  V30 4170 H 370.369 3.84828 2.99598 0
M  V30 4171 H 369.374 5.35383 1.25079 0
M  V30 4172 H 370.599 6.59553 1.61759 0
M  V30 4173 H 368.545 5.49971 3.57586 0
M  V30 4174 H 368.462 7.03323 2.7726 0
M  V30 4175 H 369.73 6.73538 3.92386 0
M  V30 4176 N 373.959 -0.0401083 1.57549 0
M  V30 4177 C 375.206 -0.733125 1.88763 0
M  V30 4178 C 375.534 -1.75946 0.829058 0
M  V30 4179 O 374.789 -1.94949 -0.171323 0
M  V30 4180 C 375.088 -1.44902 3.26708 0
M  V30 4181 C 374.754 -0.559707 4.47413 0
M  V30 4182 C 373.416 -0.314731 4.8017 0
M  V30 4183 C 375.768 0.0549743 5.21171 0
M  V30 4184 C 373.096 0.553886 5.8408 0
M  V30 4185 C 375.448 0.911229 6.26003 0
M  V30 4186 C 374.112 1.16577 6.57241 0
M  V30 4187 H 373.382 -0.268269 0.690733 0
M  V30 4188 H 376.029 0.00679408 1.91499 0
M  V30 4189 H 374.334 -2.26197 3.1991 0
M  V30 4190 H 376.031 -1.99058 3.48105 0
M  V30 4191 H 372.621 -0.760793 4.21794 0
M  V30 4192 H 376.805 -0.121344 4.96152 0
M  V30 4193 H 372.061 0.759518 6.06664 0
M  V30 4194 H 376.235 1.3941 6.82303 0
M  V30 4195 H 373.862 1.84058 7.37582 0
M  V30 4196 N 375.437 -1.54477 -0.31217 0
M  V30 4197 C 376.848 -1.64344 -0.885891 0
M  V30 4198 C 377.199 -0.54485 -1.88483 0
M  V30 4199 O 376.324 0.320387 -2.14015 0
M  V30 4200 C 376.919 -2.97908 -1.61357 0
M  V30 4201 C 375.478 -3.09933 -2.13585 0
M  V30 4202 C 374.625 -2.59971 -0.964897 0
M  V30 4203 H 377.576 -1.58448 -0.0894528 0
M  V30 4204 H 377.597 -2.88706 -2.47848 0
M  V30 4205 H 377.109 -3.77845 -0.886277 0
M  V30 4206 H 375.21 -2.34694 -2.89395 0
M  V30 4207 H 375.323 -4.15916 -2.37804 0
M  V30 4208 H 373.687 -2.16147 -1.34731 0
M  V30 4209 H 374.47 -3.42376 -0.251742 0
M  V30 4210 N 376.915 0.57481 -1.46744 0
M  V30 4211 C 377.863 1.70435 -1.58286 0
M  V30 4212 C 378.857 1.63287 -0.450956 0
M  V30 4213 O 380.063 1.68685 -0.628121 0
M  V30 4214 H 376.438 0.56364 -0.497809 0
M  V30 4215 H 378.409 1.57833 -2.53242 0
M  V30 4216 C 377.158 3.08815 -1.59776 0
M  V30 4217 H 376.481 3.1499 -2.46214 0
M  V30 4218 H 377.921 3.87588 -1.71905 0
M  V30 4219 C 376.38 3.35301 -0.327812 0
M  V30 4220 O 376.91 3.97511 0.57861 0
M  V30 4221 N 375.116 2.89816 -0.213274 0
M  V30 4222 H 374.663 2.39371 -0.951798 0
M  V30 4223 H 374.621 3.0791 0.63553 0
M  V30 4224 N 378.394 1.34581 0.820102 0
M  V30 4225 C 379.643 1.26437 1.57151 0
M  V30 4226 C 379.956 -0.163111 1.94919 0
M  V30 4227 O 381.162 -0.366722 2.69012 0
M  V30 4228 C 379.618 2.21658 2.83541 0
M  V30 4229 C 379.226 3.69679 2.53065 0
M  V30 4230 C 380.97 2.22428 3.61561 0
M  V30 4231 C 378.877 4.56761 3.75664 0
M  V30 4232 H 377.807 0.469707 0.589823 0
M  V30 4233 H 380.458 1.59763 0.902656 0
M  V30 4234 H 378.84 1.81287 3.52067 0
M  V30 4235 H 380.014 4.18605 1.92631 0
M  V30 4236 H 378.329 3.71384 1.88316 0
M  V30 4237 H 380.926 2.8471 4.52597 0
M  V30 4238 H 381.269 1.22434 3.97889 0
M  V30 4239 H 381.802 2.61259 2.99981 0
M  V30 4240 H 378.541 5.57702 3.44454 0
M  V30 4241 H 378.061 4.12568 4.35371 0
M  V30 4242 H 379.74 4.71509 4.43044 0
M  V30 4243 N 379.872 -1.04064 1.18357 0
M  V30 4244 C 381.097 -1.81454 1.00445 0
M  V30 4245 C 381.522 -1.82823 -0.442423 0
M  V30 4246 O 380.88 -1.24555 -1.31741 0
M  V30 4247 C 380.928 -3.24925 1.56384 0
M  V30 4248 O 380.032 -4.04856 0.785209 0
M  V30 4249 H 379.373 -0.560604 0.355835 0
M  V30 4250 H 381.903 -1.31059 1.57114 0
M  V30 4251 H 381.913 -3.75702 1.59097 0
M  V30 4252 H 380.588 -3.23244 2.61699 0
M  V30 4253 H 379.165 -3.63537 0.830399 0
M  V30 4254 N 381.35 -0.985608 -1.22978 0
M  V30 4255 C 382.58 -0.674603 -1.95276 0
M  V30 4256 C 382.988 0.763483 -1.73111 0
M  V30 4257 O 382.331 1.52601 -1.02268 0
M  V30 4258 C 382.393 -0.891597 -3.48268 0
M  V30 4259 C 382.057 -2.31275 -3.94158 0
M  V30 4260 C 383.054 -3.29179 -4.02415 0
M  V30 4261 C 380.739 -2.64524 -4.27004 0
M  V30 4262 C 382.733 -4.58407 -4.42879 0
M  V30 4263 C 380.42 -3.93974 -4.67149 0
M  V30 4264 C 381.418 -4.90727 -4.75053 0
M  V30 4265 O 381.106 -6.17865 -5.14294 0
M  V30 4266 H 380.838 -0.249251 -0.628371 0
M  V30 4267 H 383.392 -1.32106 -1.5728 0
M  V30 4268 H 381.622 -0.187962 -3.86243 0
M  V30 4269 H 383.311 -0.576957 -4.01779 0
M  V30 4270 H 384.077 -3.04823 -3.77237 0
M  V30 4271 H 379.956 -1.89923 -4.2006 0
M  V30 4272 H 383.5 -5.33926 -4.48964 0
M  V30 4273 H 379.397 -4.18122 -4.91777 0
M  V30 4274 H 380.165 -6.21694 -5.32389 0
M  V30 4275 N 382.828 1.3818 -0.7579 0
M  V30 4276 C 384.239 1.82726 -0.383134 0
M  V30 4277 C 384.59 1.63214 1.08884 0
M  V30 4278 O 383.715 1.13566 1.84205 0
M  V30 4279 C 384.31 3.31728 -0.688631 0
M  V30 4280 C 382.869 3.74606 -0.367091 0
M  V30 4281 C 382.016 2.60896 -0.939599 0
M  V30 4282 H 384.967 1.26847 -0.953699 0
M  V30 4283 H 384.988 3.80487 0.0316492 0
M  V30 4284 H 384.5 3.45898 -1.76001 0
M  V30 4285 H 382.601 3.66013 0.697532 0
M  V30 4286 H 382.714 4.71215 -0.865658 0
M  V30 4287 H 381.078 2.52075 -0.3647 0
M  V30 4288 H 381.861 2.77864 -2.0161 0
M  V30 4289 N 384.306 0.507319 1.49211 0
M  V30 4290 C 385.269 -0.256763 2.27757 0
M  V30 4291 C 386.269 -0.888287 1.34038 0
M  V30 4292 O 387.459 -0.751841 1.5714 0
M  V30 4293 C 384.591 -1.36905 3.12202 0
M  V30 4294 H 385.784 0.432557 2.96764 0
M  V30 4295 H 383.337 0.262488 1.5408 0
M  V30 4296 H 384.072 -2.09233 2.47775 0
M  V30 4297 H 383.857 -0.921599 3.81115 0
M  V30 4298 H 385.347 -1.9071 3.7151 0
M  V30 4299 N 385.784 -1.5574 0.241426 0
M  V30 4300 C 386.714 -2.24133 -0.654722 0
M  V30 4301 C 387.695 -1.21974 -1.1856 0
M  V30 4302 O 388.88 -1.50612 -1.22595 0
M  V30 4303 C 386.01 -2.93659 -1.85423 0
M  V30 4304 C 384.964 -4.0246 -1.45636 0
M  V30 4305 C 384.29 -4.59383 -2.73626 0
M  V30 4306 C 385.59 -5.18468 -0.631506 0
M  V30 4307 H 387.284 -2.99281 -0.0844353 0
M  V30 4308 H 384.83 -1.43947 -0.0391707 0
M  V30 4309 H 386.783 -3.40203 -2.48676 0
M  V30 4310 H 385.507 -2.15991 -2.44981 0
M  V30 4311 H 384.166 -3.56676 -0.847202 0
M  V30 4312 H 383.814 -3.78422 -3.3137 0
M  V30 4313 H 383.514 -5.32826 -2.4773 0
M  V30 4314 H 385.038 -5.08658 -3.37786 0
M  V30 4315 H 386.452 -5.61272 -1.1682 0
M  V30 4316 H 384.849 -5.98266 -0.468831 0
M  V30 4317 H 385.919 -4.8358 0.357506 0
M  V30 4318 N 387.262 0.0317525 -1.57568 0
M  V30 4319 C 388.51 0.721676 -1.88776 0
M  V30 4320 C 388.831 1.76039 -0.838772 0
M  V30 4321 O 388.101 1.95482 0.127935 0
M  V30 4322 H 386.681 0.269534 -0.696678 0
M  V30 4323 H 389.343 -0.00165879 -1.949 0
M  V30 4324 H 388.439 1.21293 -2.87566 0
M  V30 4325 N 388.74 1.54641 0.303973 0
M  V30 4326 C 389.67 1.88386 1.3796 0
M  V30 4327 C 390.651 0.742485 1.5304 0
M  V30 4328 O 391.836 0.997959 1.66597 0
M  V30 4329 C 388.966 2.12854 2.74427 0
M  V30 4330 C 387.92 3.28702 2.74115 0
M  V30 4331 C 387.246 3.38582 4.13844 0
M  V30 4332 C 388.546 4.65881 2.3612 0
M  V30 4333 H 390.24 2.78474 1.09966 0
M  V30 4334 H 387.786 1.33988 0.527556 0
M  V30 4335 H 389.739 2.35047 3.49758 0
M  V30 4336 H 388.463 1.19535 3.03939 0
M  V30 4337 H 387.122 3.06428 2.0124 0
M  V30 4338 H 386.77 2.42784 4.40528 0
M  V30 4339 H 386.47 4.16453 4.14537 0
M  V30 4340 H 387.994 3.63031 4.90959 0
M  V30 4341 H 389.408 4.87823 3.01167 0
M  V30 4342 H 387.805 5.46444 2.48031 0
M  V30 4343 H 388.875 4.66799 1.3125 0
M  V30 4344 N 390.218 -0.567019 1.47046 0
M  V30 4345 C 391.148 -1.68482 1.61667 0
M  V30 4346 C 392.129 -1.6358 0.466418 0
M  V30 4347 O 393.314 -1.81354 0.694574 0
M  V30 4348 C 390.444 -3.07124 1.62148 0
M  V30 4349 C 389.398 -3.26867 2.76301 0
M  V30 4350 C 388.724 -4.66196 2.61849 0
M  V30 4351 C 390.024 -3.13186 4.17986 0
M  V30 4352 H 391.718 -1.56502 2.5524 0
M  V30 4353 H 389.264 -0.751486 1.22836 0
M  V30 4354 H 391.217 -3.8516 1.70968 0
M  V30 4355 H 389.941 -3.2004 0.651287 0
M  V30 4356 H 388.6 -2.51237 2.66975 0
M  V30 4357 H 388.248 -4.75898 1.62879 0
M  V30 4358 H 387.948 -4.80356 3.38425 0
M  V30 4359 H 389.472 -5.46379 2.72584 0
M  V30 4360 H 390.886 -3.81049 4.2834 0
M  V30 4361 H 389.283 -3.3886 4.95272 0
M  V30 4362 H 390.353 -2.10057 4.3704 0
M  V30 4363 N 391.696 -1.35014 -0.812953 0
M  V30 4364 C 392.643 -1.27412 -1.92444 0
M  V30 4365 C 393.613 -0.14733 -1.65445 0
M  V30 4366 O 394.798 -0.329974 -1.87925 0
M  V30 4367 C 391.938 -1.04558 -3.28879 0
M  V30 4368 C 391.051 -2.26101 -3.68106 0
M  V30 4369 C 390.186 -1.96449 -4.9354 0
M  V30 4370 C 389.225 -3.14081 -5.25376 0
M  V30 4371 N 388.362 -2.84246 -6.41988 0
M  V30 4372 H 393.202 -2.22463 -1.98278 0
M  V30 4373 H 390.739 -1.10593 -0.969933 0
M  V30 4374 H 392.697 -0.893413 -4.07522 0
M  V30 4375 H 391.327 -0.131719 -3.22531 0
M  V30 4376 H 390.379 -2.52204 -2.84775 0
M  V30 4377 H 391.691 -3.13959 -3.87597 0
M  V30 4378 H 390.845 -1.78026 -5.79993 0
M  V30 4379 H 389.584 -1.05867 -4.76071 0
M  V30 4380 H 388.589 -3.33089 -4.37415 0
M  V30 4381 H 389.814 -4.05455 -5.44778 0
M  V30 4382 H 387.76 -1.96252 -6.25956 0
M  V30 4383 H 387.677 -3.65637 -6.61699 0
M  V30 4384 H 388.945 -2.6935 -7.31485 0
M  V30 4385 N 393.175 1.03435 -1.18907 0
M  V30 4386 C 394.423 1.76394 -0.986382 0
M  V30 4387 C 394.744 1.88883 0.484567 0
M  V30 4388 O 394.014 1.41843 1.3512 0
M  V30 4389 H 392.594 0.65344 -0.361975 0
M  V30 4390 H 395.256 1.248 -1.49703 0
M  V30 4391 H 394.352 2.77424 -1.42978 0
M  V30 4392 N 394.653 0.992116 1.22453 0
M  V30 4393 C 395.893 0.675727 1.92907 0
M  V30 4394 C 396.257 -0.777762 1.75542 0
M  V30 4395 O 397.458 -1.20553 2.40251 0
M  V30 4396 C 395.729 1.0696 3.4102 0
M  V30 4397 S 397.288 0.871456 4.30059 0
M  V30 4398 H 394.106 0.247089 0.666684 0
M  V30 4399 H 396.708 1.27423 1.48269 0
M  V30 4400 H 395.412 2.12383 3.51172 0
M  V30 4401 H 394.943 0.462858 3.90668 0
M  V30 4402 H 396.958 -0.238436 4.95627 0
M  V30 4403 N 396.131 -1.37776 0.765217 0
M  V30 4404 C 397.061 -2.32945 0.160953 0
M  V30 4405 C 398.042 -1.55454 -0.690516 0
M  V30 4406 O 399.227 -1.83721 -0.629318 0
M  V30 4407 C 396.357 -3.39669 -0.724031 0
M  V30 4408 C 395.311 -4.27992 0.0256173 0
M  V30 4409 C 394.637 -5.25673 -0.978383 0
M  V30 4410 C 395.937 -5.08309 1.20082 0
M  V30 4411 H 397.631 -2.83728 0.955969 0
M  V30 4412 H 395.177 -1.36416 0.461149 0
M  V30 4413 H 397.13 -4.05219 -1.15652 0
M  V30 4414 H 395.854 -2.87396 -1.5515 0
M  V30 4415 H 394.513 -3.63964 0.438812 0
M  V30 4416 H 394.161 -4.69682 -1.80022 0
M  V30 4417 H 393.861 -5.85625 -0.481378 0
M  V30 4418 H 395.385 -5.94098 -1.40995 0
M  V30 4419 H 396.799 -5.67034 0.845307 0
M  V30 4420 H 395.196 -5.77554 1.62947 0
M  V30 4421 H 396.266 -4.41365 2.00811 0
M  V30 4422 N 397.609 -0.515225 -1.4894 0
M  V30 4423 C 398.559 0.275113 -2.26334 0
M  V30 4424 C 399.543 0.923007 -1.31793 0
M  V30 4425 O 400.735 0.828254 -1.56426 0
M  V30 4426 C 397.864 1.33041 -3.16473 0
M  V30 4427 C 396.95 0.688051 -4.18481 0
M  V30 4428 N 397.341 -0.217638 -5.05332 0
M  V30 4429 C 395.639 0.94699 -4.3583 0
M  V30 4430 C 396.34 -0.58676 -5.78733 0
M  V30 4431 N 395.316 0.0486966 -5.43578 0
M  V30 4432 H 399.118 -0.421876 -2.90856 0
M  V30 4433 H 396.632 -0.332249 -1.58965 0
M  V30 4434 H 398.629 1.9102 -3.70563 0
M  V30 4435 H 397.289 2.02894 -2.53504 0
M  V30 4436 H 398.3 -0.589343 -5.14536 0
M  V30 4437 H 394.977 1.63719 -3.8406 0
M  V30 4438 H 396.367 -1.32855 -6.58634 0
M  V30 4439 N 399.087 1.5561 -0.249682 0
M  V30 4440 C 400.02 2.17537 0.689408 0
M  V30 4441 C 400.998 1.12829 1.17083 0
M  V30 4442 O 402.182 1.41229 1.24846 0
M  V30 4443 C 399.309 2.77828 1.93725 0
M  V30 4444 C 398.355 3.95615 1.59346 0
M  V30 4445 S 399.188 5.30988 0.69367 0
M  V30 4446 C 400.344 5.94734 1.95046 0
M  V30 4447 H 400.577 2.96852 0.163142 0
M  V30 4448 H 398.11 1.54362 -0.0341166 0
M  V30 4449 H 400.068 3.13199 2.65361 0
M  V30 4450 H 398.729 1.98454 2.43465 0
M  V30 4451 H 397.922 4.364 2.52132 0
M  V30 4452 H 397.524 3.61535 0.957512 0
M  V30 4453 H 399.816 6.12419 2.89739 0
M  V30 4454 H 400.759 6.90109 1.58604 0
M  V30 4455 H 401.167 5.23832 2.10381 0
M  V30 4456 N 400.565 -0.0233959 1.57583 0
M  V30 4457 C 401.842 -0.748794 1.807 0
M  V30 4458 C 402.222 -1.9327 0.849106 0
M  V30 4459 O 401.57 -2.28247 -0.107468 0
M  V30 4460 C 401.78 -1.17651 3.28571 0
M  V30 4461 C 403.128 -1.59008 3.93702 0
M  V30 4462 O 404.152 -1.27094 3.32755 0
M  V30 4463 O 403.011 -2.18264 5.01022 0
M  V30 4464 H 400.105 -0.362578 0.743281 0
M  V30 4465 H 402.651 0.000261958 1.697 0
M  V30 4466 H 401.423 -0.331603 3.89892 0
M  V30 4467 H 401.046 -1.98541 3.44481 0
M  V30 4468 N 402.043 -1.548 -0.295768 0
M  V30 4469 C 403.454 -1.65274 -0.868411 0
M  V30 4470 C 403.805 -0.56481 -1.87894 0
M  V30 4471 O 402.93 0.29767 -2.14343 0
M  V30 4472 C 403.525 -2.99603 -1.58188 0
M  V30 4473 C 402.084 -3.12181 -2.10286 0
M  V30 4474 C 401.231 -2.6098 -0.93727 0
M  V30 4475 H 404.182 -1.58534 -0.0726422 0
M  V30 4476 H 404.203 -2.91319 -2.44772 0
M  V30 4477 H 403.715 -3.78764 -0.846151 0
M  V30 4478 H 401.816 -2.3775 -2.8689 0
M  V30 4479 H 401.929 -4.18415 -2.33379 0
M  V30 4480 H 400.293 -2.17564 -1.32431 0
M  V30 4481 H 401.076 -3.42623 -0.215414 0
M  V30 4482 N 403.521 0.559213 -1.47345 0
M  V30 4483 C 404.749 1.34194 -1.57479 0
M  V30 4484 C 405.164 1.87463 -0.224261 0
M  V30 4485 O 404.521 1.64888 0.782185 0
M  V30 4486 C 404.572 2.51324 -2.59843 0
M  V30 4487 O 404.293 2.00256 -3.89653 0
M  V30 4488 C 405.794 3.43563 -2.80142 0
M  V30 4489 H 403.014 0.409136 -0.531835 0
M  V30 4490 H 405.558 0.677609 -1.92947 0
M  V30 4491 H 403.713 3.13699 -2.27314 0
M  V30 4492 H 404.127 2.76708 -4.4557 0
M  V30 4493 H 405.601 4.2217 -3.55635 0
M  V30 4494 H 406.078 3.9698 -1.87892 0
M  V30 4495 H 406.684 2.87005 -3.1386 0
M  V30 4496 N 404.999 1.35443 0.805782 0
M  V30 4497 C 405.931 1.24285 1.92577 0
M  V30 4498 C 406.944 0.165962 1.61952 0
M  V30 4499 O 408.133 0.419303 1.73505 0
M  V30 4500 C 405.233 0.891272 3.2697 0
M  V30 4501 C 404.406 2.06669 3.85495 0
M  V30 4502 C 403.465 1.69077 4.98297 0
M  V30 4503 O 402.491 2.4096 5.15681 0
M  V30 4504 N 403.693 0.614869 5.77234 0
M  V30 4505 H 406.458 2.20777 2.02676 0
M  V30 4506 H 404.019 1.28623 0.983243 0
M  V30 4507 H 406.011 0.621256 3.99903 0
M  V30 4508 H 404.581 0.016004 3.12596 0
M  V30 4509 H 403.801 2.50046 3.04747 0
M  V30 4510 H 405.089 2.85237 4.21328 0
M  V30 4511 H 404.487 0.017648 5.65697 0
M  V30 4512 H 403.044 0.404636 6.50543 0
M  V30 4513 N 406.477 -1.02803 1.19454 0
M  V30 4514 C 407.893 -1.28473 0.946937 0
M  V30 4515 C 408.093 -1.97881 -0.380202 0
M  V30 4516 O 407.149 -2.26719 -1.11151 0
M  V30 4517 C 408.462 -2.13099 2.12154 0
M  V30 4518 C 410.01 -2.26404 2.16126 0
M  V30 4519 C 410.485 -3.14402 3.33039 0
M  V30 4520 N 411.976 -3.21991 3.32981 0
M  V30 4521 C 412.711 -3.90272 4.20089 0
M  V30 4522 N 412.207 -4.60777 5.17355 0
M  V30 4523 N 414 -3.8668 4.07964 0
M  V30 4524 H 406.151 -0.561665 2.04839 0
M  V30 4525 H 408.414 -0.310438 0.89573 0
M  V30 4526 H 408.12 -1.69422 3.08203 0
M  V30 4527 H 407.994 -3.13813 2.09287 0
M  V30 4528 H 410.381 -2.69311 1.20647 0
M  V30 4529 H 410.462 -1.25237 2.23045 0
M  V30 4530 H 410.106 -2.72204 4.28798 0
M  V30 4531 H 410.036 -4.1563 3.23356 0
M  V30 4532 H 412.527 -2.71778 2.62574 0
M  V30 4533 H 412.84 -5.10513 5.80169 0
M  V30 4534 H 411.185 -4.5964 5.21302 0
M  V30 4535 H 414.376 -3.30739 3.31254 0
M  V30 4536 H 414.549 -4.39621 4.76064 0
M  V30 4537 N 407.956 -0.998596 -1.21925 0
M  V30 4538 C 408.886 -0.573688 -2.26343 0
M  V30 4539 C 409.867 0.402296 -1.65274 0
M  V30 4540 O 411.052 0.291683 -1.91997 0
M  V30 4541 C 408.182 0.106839 -3.47136 0
M  V30 4542 C 407.136 -0.788269 -4.20678 0
M  V30 4543 C 406.462 0.0254927 -5.34694 0
M  V30 4544 C 407.762 -2.08784 -4.78755 0
M  V30 4545 H 409.456 -1.44651 -2.62138 0
M  V30 4546 H 407.002 -0.696975 -1.26009 0
M  V30 4547 H 408.955 0.415531 -4.19346 0
M  V30 4548 H 407.679 1.01424 -3.10452 0
M  V30 4549 H 406.338 -1.08069 -3.50309 0
M  V30 4550 H 405.986 0.933989 -4.94253 0
M  V30 4551 H 405.686 -0.570437 -5.84825 0
M  V30 4552 H 407.21 0.328147 -6.09718 0
M  V30 4553 H 408.624 -1.84272 -5.42878 0
M  V30 4554 H 407.021 -2.63307 -5.39249 0
M  V30 4555 H 408.091 -2.76284 -3.98491 0
M  V30 4556 N 409.434 1.37368 -0.772513 0
M  V30 4557 C 410.662 2.03942 -0.348588 0
M  V30 4558 C 411.077 1.58264 1.02947 0
M  V30 4559 O 410.434 0.764246 1.65727 0
M  V30 4560 C 410.485 3.5946 -0.38351 0
M  V30 4561 O 410.206 4.03468 -1.70721 0
M  V30 4562 C 411.707 4.4327 0.0519152 0
M  V30 4563 H 408.927 0.654931 -0.145966 0
M  V30 4564 H 411.471 1.75686 -1.04665 0
M  V30 4565 H 409.626 3.86486 0.265978 0
M  V30 4566 H 410.04 4.97991 -1.64636 0
M  V30 4567 H 411.514 5.51995 -0.0236733 0
M  V30 4568 H 411.991 4.2514 1.10238 0
M  V30 4569 H 412.597 4.21471 -0.569415 0
M  V30 4570 N 410.912 0.523116 1.48665 0
M  V30 4571 C 412.152 -0.0115588 2.04397 0
M  V30 4572 C 412.516 -1.32225 1.39214 0
M  V30 4573 O 413.717 -1.94253 1.85793 0
M  V30 4574 C 411.988 -0.138119 3.57133 0
M  V30 4575 S 413.547 -0.623849 4.34343 0
M  V30 4576 H 410.365 0.00877706 0.710946 0
M  V30 4577 H 412.967 0.702116 1.82457 0
M  V30 4578 H 411.671 0.820748 4.02109 0
M  V30 4579 H 411.202 -0.876377 3.83514 0
M  V30 4580 H 413.217 -1.8895 4.58816 0
M  V30 4581 N 412.39 -1.55475 0.257931 0
M  V30 4582 C 413.3 -2.2549 -0.647425 0
M  V30 4583 C 414.316 -1.2748 -1.18427 0
M  V30 4584 O 415.492 -1.6038 -1.2182 0
M  V30 4585 C 412.557 -2.94916 -1.82278 0
M  V30 4586 C 411.618 -4.08363 -1.32432 0
M  V30 4587 C 410.851 -4.74469 -2.44366 0
M  V30 4588 O 411.074 -4.39701 -3.63344 0
M  V30 4589 O 410.008 -5.62763 -2.13497 0
M  V30 4590 H 413.834 -3.03593 -0.0807707 0
M  V30 4591 H 411.419 -1.49377 0.0259962 0
M  V30 4592 H 413.301 -3.38606 -2.50846 0
M  V30 4593 H 411.976 -2.19744 -2.37685 0
M  V30 4594 H 410.883 -3.69166 -0.605605 0
M  V30 4595 H 412.216 -4.85385 -0.816211 0
M  V30 4596 N 413.868 0.0150385 -1.57593 0
M  V30 4597 C 414.8 1.03912 -2.04291 0
M  V30 4598 C 415.813 1.31618 -0.958146 0
M  V30 4599 O 417.002 1.28859 -1.23522 0
M  V30 4600 C 414.102 2.37749 -2.41514 0
M  V30 4601 C 413.275 2.29198 -3.72541 0
M  V30 4602 C 412.334 3.45598 -3.96797 0
M  V30 4603 O 411.36 3.24461 -4.67668 0
M  V30 4604 N 412.562 4.67945 -3.43523 0
M  V30 4605 H 415.327 0.64099 -2.92765 0
M  V30 4606 H 412.888 0.20272 -1.60626 0
M  V30 4607 H 414.88 3.14364 -2.54867 0
M  V30 4608 H 413.45 2.69357 -1.58637 0
M  V30 4609 H 412.67 1.3759 -3.69408 0
M  V30 4610 H 413.958 2.20642 -4.5847 0
M  V30 4611 H 413.356 4.88017 -2.86104 0
M  V30 4612 H 411.913 5.41878 -3.62232 0
M  V30 4613 N 415.346 1.54954 0.287554 0
M  V30 4614 C 416.276 1.89839 1.35954 0
M  V30 4615 C 417.257 0.758675 1.52244 0
M  V30 4616 O 418.442 1.01557 1.65529 0
M  V30 4617 C 415.572 2.15753 2.72154 0
M  V30 4618 C 414.526 3.3159 2.70614 0
M  V30 4619 C 413.852 3.42952 4.10229 0
M  V30 4620 C 415.152 4.68359 2.31165 0
M  V30 4621 H 416.846 2.79625 1.07007 0
M  V30 4622 H 414.392 1.3454 0.513316 0
M  V30 4623 H 416.345 2.38743 3.47246 0
M  V30 4624 H 415.069 1.22752 3.02654 0
M  V30 4625 H 413.728 3.08545 1.97979 0
M  V30 4626 H 413.376 2.47443 4.37928 0
M  V30 4627 H 413.076 4.20826 4.10097 0
M  V30 4628 H 414.6 3.68218 4.87081 0
M  V30 4629 H 416.014 4.9099 2.95976 0
M  V30 4630 H 414.411 5.49044 2.42221 0
M  V30 4631 H 415.481 4.68165 1.26291 0
M  V30 4632 N 416.824 -0.551391 1.4764 0
M  V30 4633 C 417.754 -1.66757 1.63445 0
M  V30 4634 C 418.735 -1.63077 0.483742 0
M  V30 4635 O 419.92 -1.80607 0.71377 0
M  V30 4636 C 417.05 -3.05387 1.65396 0
M  V30 4637 C 416.004 -3.23918 2.79752 0
M  V30 4638 C 415.33 -4.63393 2.66779 0
M  V30 4639 C 416.63 -3.08735 4.21284 0
M  V30 4640 H 418.324 -1.53786 2.56886 0
M  V30 4641 H 415.87 -0.738415 1.23626 0
M  V30 4642 H 417.823 -3.83325 1.75043 0
M  V30 4643 H 416.547 -3.19332 0.685195 0
M  V30 4644 H 415.206 -2.48391 2.69625 0
M  V30 4645 H 414.854 -4.74144 1.67918 0
M  V30 4646 H 414.554 -4.7674 3.43501 0
M  V30 4647 H 416.078 -5.43458 2.78364 0
M  V30 4648 H 417.492 -3.76484 4.32357 0
M  V30 4649 H 415.889 -3.33588 4.98838 0
M  V30 4650 H 416.959 -2.0541 4.39243 0
M  V30 4651 N 418.302 -1.35869 -0.798587 0
M  V30 4652 C 419.252 -1.25982 -1.90033 0
M  V30 4653 C 420.236 -0.153303 -1.60168 0
M  V30 4654 O 421.428 -0.38527 -1.72756 0
M  V30 4655 C 418.557 -1.04211 -3.27101 0
M  V30 4656 C 417.643 -2.19289 -3.63006 0
M  V30 4657 N 418.034 -3.44559 -3.70287 0
M  V30 4658 C 416.332 -2.10852 -3.93011 0
M  V30 4659 C 417.033 -4.20283 -4.02166 0
M  V30 4660 N 416.009 -3.49124 -4.16669 0
M  V30 4661 H 419.811 -2.20883 -1.93876 0
M  V30 4662 H 417.325 -1.28457 -0.993614 0
M  V30 4663 H 419.322 -0.952155 -4.05881 0
M  V30 4664 H 417.982 -0.102013 -3.2454 0
M  V30 4665 H 418.993 -3.7881 -3.53162 0
M  V30 4666 H 415.67 -1.24744 -3.98428 0
M  V30 4667 H 417.06 -5.28575 -4.14799 0
M  V30 4668 N 419.78 1.02168 -1.19998 0
M  V30 4669 C 420.73 2.08969 -0.911921 0
M  V30 4670 C 421.714 1.60404 0.12621 0
M  V30 4671 O 422.906 1.76817 -0.0804706 0
M  V30 4672 C 420.035 3.402 -0.460277 0
M  V30 4673 C 419.121 3.9548 -1.53155 0
M  V30 4674 N 419.512 4.24332 -2.75275 0
M  V30 4675 C 417.81 4.23572 -1.39653 0
M  V30 4676 C 418.511 4.68834 -3.44339 0
M  V30 4677 N 417.487 4.70804 -2.71744 0
M  V30 4678 H 421.289 2.29178 -1.83997 0
M  V30 4679 H 418.803 1.20094 -1.09322 0
M  V30 4680 H 420.8 4.16235 -0.235337 0
M  V30 4681 H 419.46 3.21408 0.4612 0
M  V30 4682 H 420.471 4.13393 -3.11973 0
M  V30 4683 H 417.148 4.14005 -0.539067 0
M  V30 4684 H 418.538 5.00019 -4.4881 0
M  V30 4685 N 421.258 1.00505 1.21394 0
M  V30 4686 C 422.669 0.721082 1.72213 0
M  V30 4687 C 423.02 -0.761263 1.80829 0
M  V30 4688 O 422.145 -1.59464 1.46288 0
M  V30 4689 C 422.74 1.30228 3.12772 0
M  V30 4690 C 421.299 1.06743 3.60947 0
M  V30 4691 C 420.446 1.41507 2.38477 0
M  V30 4692 H 423.397 1.17594 1.06571 0
M  V30 4693 H 423.418 0.686955 3.74247 0
M  V30 4694 H 422.93 2.38115 3.06468 0
M  V30 4695 H 421.031 0.00572162 3.726 0
M  V30 4696 H 421.144 1.73936 4.46411 0
M  V30 4697 H 419.508 0.833852 2.40664 0
M  V30 4698 H 420.291 2.50424 2.34824 0
M  V30 4699 N 422.737 -1.36956 0.779787 0
M  V30 4700 C 423.967 -2.03459 0.358877 0
M  V30 4701 C 424.375 -1.58939 -1.02641 0
M  V30 4702 O 423.718 -0.769777 -1.66794 0
M  V30 4703 C 423.78 -3.5796 0.332393 0
M  V30 4704 C 423.444 -4.25644 1.66362 0
M  V30 4705 C 424.441 -4.49205 2.61746 0
M  V30 4706 C 422.126 -4.63313 1.94027 0
M  V30 4707 C 424.12 -5.09503 3.82996 0
M  V30 4708 C 421.807 -5.2333 3.15546 0
M  V30 4709 C 422.805 -5.46363 4.0985 0
M  V30 4710 O 422.493 -6.05122 5.29228 0
M  V30 4711 H 422.225 -0.659767 0.147254 0
M  V30 4712 H 424.779 -1.76111 1.05708 0
M  V30 4713 H 423.009 -3.84388 -0.422237 0
M  V30 4714 H 424.698 -4.05852 -0.0625389 0
M  V30 4715 H 425.464 -4.20508 2.41657 0
M  V30 4716 H 421.343 -4.44715 1.21448 0
M  V30 4717 H 424.887 -5.27397 4.56617 0
M  V30 4718 H 420.784 -5.51451 3.35517 0
M  V30 4719 H 421.552 -6.23595 5.30161 0
M  V30 4720 N 424.215 -0.530993 -1.48385 0
M  V30 4721 C 425.462 0.0027373 -2.025 0
M  V30 4722 C 425.79 1.34186 -1.40799 0
M  V30 4723 O 425.045 1.88 -0.543544 0
M  V30 4724 C 425.344 0.172742 -3.56982 0
M  V30 4725 C 425.01 -1.09215 -4.37473 0
M  V30 4726 C 423.672 -1.43881 -4.59186 0
M  V30 4727 C 426.024 -1.93153 -4.84088 0
M  V30 4728 C 423.352 -2.62381 -5.2476 0
M  V30 4729 C 425.704 -3.10833 -5.50968 0
M  V30 4730 C 424.368 -3.45843 -5.70919 0
M  V30 4731 H 423.638 0.00100165 -0.740999 0
M  V30 4732 H 426.285 -0.697219 -1.78357 0
M  V30 4733 H 424.59 0.955473 -3.79971 0
M  V30 4734 H 426.287 0.600642 -3.96476 0
M  V30 4735 H 422.877 -0.812177 -4.20834 0
M  V30 4736 H 427.061 -1.67683 -4.67115 0
M  V30 4737 H 422.317 -2.89707 -5.38405 0
M  V30 4738 H 426.491 -3.7618 -5.86056 0
M  V30 4739 H 424.118 -4.37764 -6.21503 0
M  V30 4740 N 425.693 1.55336 -0.266172 0
M  V30 4741 C 426.603 2.2583 0.635458 0
M  V30 4742 C 427.619 1.28106 1.17749 0
M  V30 4743 O 428.795 1.61024 1.20968 0
M  V30 4744 C 425.86 2.95879 1.80712 0
M  V30 4745 C 424.921 4.09059 1.30265 0
M  V30 4746 C 424.154 4.75759 2.41846 0
M  V30 4747 O 424.377 4.41622 3.61007 0
M  V30 4748 O 423.311 5.63888 2.1051 0
M  V30 4749 H 427.137 3.03631 0.0646693 0
M  V30 4750 H 424.722 1.49361 -0.0339177 0
M  V30 4751 H 426.604 3.39932 2.49047 0
M  V30 4752 H 425.279 2.21002 2.36516 0
M  V30 4753 H 424.186 3.69482 0.586019 0
M  V30 4754 H 425.519 4.85811 0.790458 0
M  V30 4755 N 427.171 -0.0066808 1.57599 0
M  V30 4756 C 428.119 -1.01851 2.09115 0
M  V30 4757 C 429.113 -1.36021 1.00969 0
M  V30 4758 O 430.319 -1.34663 1.19439 0
M  V30 4759 H 426.694 -0.346083 0.667631 0
M  V30 4760 H 428.665 -0.558394 2.93129 0
M  V30 4761 C 427.414 -2.30374 2.60429 0
M  V30 4762 H 426.737 -2.04947 3.43273 0
M  V30 4763 H 428.177 -2.99466 3.00161 0
M  V30 4764 C 426.636 -3.00893 1.51542 0
M  V30 4765 O 427.166 -3.91614 0.894484 0
M  V30 4766 N 425.372 -2.62603 1.2445 0
M  V30 4767 H 424.919 -1.88911 1.75129 0
M  V30 4768 H 424.877 -3.10101 0.518137 0
M  V30 4769 N 428.649 -1.55105 -0.279332 0
M  V30 4770 C 429.898 -1.74618 -1.00952 0
M  V30 4771 C 430.211 -0.551096 -1.87676 0
M  V30 4772 O 431.417 -0.628507 -2.64125 0
M  V30 4773 C 429.873 -3.09025 -1.84476 0
M  V30 4774 C 429.481 -4.36081 -1.0265 0
M  V30 4775 C 431.225 -3.37891 -2.56963 0
M  V30 4776 C 429.132 -5.6153 -1.85576 0
M  V30 4777 H 428.062 -0.650868 -0.38064 0
M  V30 4778 H 430.713 -1.81569 -0.265475 0
M  V30 4779 H 429.095 -2.96095 -2.62952 0
M  V30 4780 H 430.269 -4.59909 -0.286354 0
M  V30 4781 H 428.584 -4.14312 -0.416464 0
M  V30 4782 H 431.181 -4.28822 -3.19399 0
M  V30 4783 H 431.524 -2.57737 -3.26921 0
M  V30 4784 H 432.057 -3.5189 -1.85522 0
M  V30 4785 H 428.796 -6.44413 -1.2005 0
M  V30 4786 H 428.316 -5.41854 -2.57204 0
M  V30 4787 H 429.995 -5.99594 -2.43096 0
M  V30 4788 N 430.127 0.543554 -1.4793 0
M  V30 4789 C 431.543 0.870806 -1.3375 0
M  V30 4790 C 431.743 1.9864 -0.338261 0
M  V30 4791 O 430.799 2.51305 0.245371 0
M  V30 4792 C 432.112 1.25114 -2.73435 0
M  V30 4793 C 433.66 1.3618 -2.81823 0
M  V30 4794 C 434.135 1.77563 -4.22179 0
M  V30 4795 N 435.626 1.8469 -4.24787 0
M  V30 4796 C 436.361 2.18067 -5.30315 0
M  V30 4797 N 435.857 2.49963 -6.46135 0
M  V30 4798 N 437.65 2.18958 -5.17701 0
M  V30 4799 H 429.801 -0.19275 -2.11524 0
M  V30 4800 H 432.064 -0.0235777 -0.947707 0
M  V30 4801 H 431.77 0.50514 -3.48053 0
M  V30 4802 H 431.644 2.20431 -3.06088 0
M  V30 4803 H 434.031 2.09859 -2.07468 0
M  V30 4804 H 434.112 0.390169 -2.52807 0
M  V30 4805 H 433.756 1.04449 -4.97044 0
M  V30 4806 H 433.686 2.75753 -4.48629 0
M  V30 4807 H 436.177 1.62372 -3.41239 0
M  V30 4808 H 436.49 2.74497 -7.22406 0
M  V30 4809 H 434.835 2.47513 -6.49432 0
M  V30 4810 H 438.026 1.93488 -4.2624 0
M  V30 4811 H 438.199 2.44639 -6.00047 0
M  V30 4812 N 431.605 1.3629 0.791371 0
M  V30 4813 C 432.515 1.32606 1.93527 0
M  V30 4814 C 433.531 0.228541 1.72493 0
M  V30 4815 O 434.707 0.460571 1.96063 0
M  V30 4816 C 431.772 1.11271 3.28359 0
M  V30 4817 C 430.833 2.3048 3.62185 0
M  V30 4818 C 430.066 2.10154 4.90583 0
M  V30 4819 O 430.289 1.07572 5.60165 0
M  V30 4820 O 429.223 2.97884 5.23019 0
M  V30 4821 H 433.049 2.28909 1.99585 0
M  V30 4822 H 430.634 1.16818 0.931344 0
M  V30 4823 H 432.516 1.01283 4.09047 0
M  V30 4824 H 431.191 0.180292 3.23198 0
M  V30 4825 H 430.098 2.46036 2.81811 0
M  V30 4826 H 431.431 3.22221 3.72068 0
M  V30 4827 N 433.083 -1.0153 1.20538 0
M  V30 4828 C 434.332 -1.74558 1.01057 0
M  V30 4829 C 434.645 -1.90168 -0.457756 0
M  V30 4830 O 435.851 -2.60301 -0.771722 0
M  V30 4831 C 434.307 -3.13963 1.75941 0
M  V30 4832 C 433.915 -3.06361 3.26875 0
M  V30 4833 C 435.659 -3.91191 1.64832 0
M  V30 4834 C 433.566 -4.40782 3.94291 0
M  V30 4835 H 432.496 -0.654417 0.374505 0
M  V30 4836 H 435.147 -1.13521 1.44171 0
M  V30 4837 H 433.529 -3.75549 1.25614 0
M  V30 4838 H 434.703 -2.54074 3.84425 0
M  V30 4839 H 433.018 -2.42625 3.38411 0
M  V30 4840 H 435.615 -4.90644 2.12539 0
M  V30 4841 H 435.958 -4.11884 0.604745 0
M  V30 4842 H 436.491 -3.36236 2.12579 0
M  V30 4843 H 433.23 -4.25292 4.98805 0
M  V30 4844 H 432.75 -4.9307 3.41529 0
M  V30 4845 H 434.429 -5.09621 3.98617 0
M  V30 4846 N 434.561 -1.01147 -1.20859 0
M  V30 4847 C 435.471 -0.58686 -2.27141 0
M  V30 4848 C 436.487 0.373198 -1.69951 0
M  V30 4849 O 437.663 0.235423 -2.00019 0
M  V30 4850 C 434.728 0.0733602 -3.46622 0
M  V30 4851 C 433.789 -0.931995 -4.19061 0
M  V30 4852 C 433.022 -0.303186 -5.32838 0
M  V30 4853 O 433.245 0.898395 -5.63281 0
M  V30 4854 O 432.179 -1.01735 -5.9324 0
M  V30 4855 H 436.005 -1.47155 -2.65667 0
M  V30 4856 H 433.59 -0.780689 -1.2738 0
M  V30 4857 H 435.472 0.442333 -4.19072 0
M  V30 4858 H 434.147 0.932329 -3.09983 0
M  V30 4859 H 433.054 -1.35224 -3.48805 0
M  V30 4860 H 434.387 -1.76076 -4.59628 0
M  V30 4861 N 436.039 1.36541 -0.78704 0
M  V30 4862 C 437.316 1.9355 -0.282424 0
M  V30 4863 C 437.696 1.71919 1.22503 0
M  V30 4864 O 437.044 1.07677 2.01539 0
M  V30 4865 C 437.254 3.4246 -0.672462 0
M  V30 4866 C 438.602 4.19582 -0.650863 0
M  V30 4867 O 439.626 3.50889 -0.612789 0
M  V30 4868 O 438.485 5.42106 -0.691623 0
M  V30 4869 H 435.579 0.824091 -0.0693 0
M  V30 4870 H 438.125 1.45736 -0.869423 0
M  V30 4871 H 436.897 3.51851 -1.71221 0
M  V30 4872 H 436.52 3.97556 -0.0592211 0
M  V30 4873 N 437.518 0.538854 1.48102 0
M  V30 4874 C 438.448 -0.207654 2.32575 0
M  V30 4875 C 439.429 -0.926559 1.4265 0
M  V30 4876 O 440.614 -0.91061 1.71527 0
M  V30 4877 C 437.744 -1.24957 3.24042 0
M  V30 4878 C 436.698 -0.648263 4.23062 0
M  V30 4879 C 436.024 -1.79348 5.03725 0
M  V30 4880 C 437.324 0.385897 5.20872 0
M  V30 4881 H 439.018 0.497534 2.95237 0
M  V30 4882 H 436.564 0.240715 1.41974 0
M  V30 4883 H 438.517 -1.77983 3.81969 0
M  V30 4884 H 437.241 -1.98446 2.59397 0
M  V30 4885 H 435.9 -0.139452 3.66335 0
M  V30 4886 H 435.548 -2.51696 4.35498 0
M  V30 4887 H 435.248 -1.39702 5.70751 0
M  V30 4888 H 436.772 -2.32735 5.64506 0
M  V30 4889 H 438.186 -0.057607 5.73271 0
M  V30 4890 H 436.583 0.700227 5.96001 0
M  V30 4891 H 437.653 1.28848 4.67468 0
M  V30 4892 N 438.996 -1.55193 0.274407 0
M  V30 4893 C 439.959 -2.212 -0.600279 0
M  V30 4894 C 440.959 -1.18963 -1.08187 0
M  V30 4895 O 442.149 -1.43873 -0.982158 0
M  V30 4896 C 439.281 -2.87739 -1.82809 0
M  V30 4897 H 440.474 -2.9989 -0.0239682 0
M  V30 4898 H 438.027 -1.5628 0.0250192 0
M  V30 4899 H 438.762 -2.13058 -2.44493 0
M  V30 4900 H 438.547 -3.62658 -1.49069 0
M  V30 4901 H 440.037 -3.38171 -2.45011 0
M  V30 4902 N 440.474 -0.00167713 -1.576 0
M  V30 4903 C 441.421 0.989195 -2.08527 0
M  V30 4904 C 442.391 1.34031 -0.981065 0
M  V30 4905 O 443.576 1.43839 -1.2536 0
M  V30 4906 C 440.716 2.27537 -2.59463 0
M  V30 4907 C 439.829 1.98314 -3.83791 0
M  V30 4908 C 438.964 3.21025 -4.23222 0
M  V30 4909 C 438.003 2.87495 -5.40382 0
M  V30 4910 N 437.14 4.02749 -5.75098 0
M  V30 4911 H 441.98 0.547973 -2.92919 0
M  V30 4912 H 439.517 0.258917 -1.44803 0
M  V30 4913 H 441.475 3.02729 -2.87073 0
M  V30 4914 H 440.105 2.69325 -1.77943 0
M  V30 4915 H 439.157 1.13482 -3.63078 0
M  V30 4916 H 440.469 1.69601 -4.69081 0
M  V30 4917 H 439.623 4.04561 -4.52123 0
M  V30 4918 H 438.362 3.52877 -3.36644 0
M  V30 4919 H 437.367 2.02367 -5.11202 0
M  V30 4920 H 438.592 2.56889 -6.28637 0
M  V30 4921 H 436.538 4.34494 -4.91478 0
M  V30 4922 H 436.455 3.77566 -6.54966 0
M  V30 4923 H 437.723 4.87068 -6.08592 0
M  V30 4924 N 441.952 1.55251 0.271103 0
M  V30 4925 C 442.862 1.9136 1.35714 0
M  V30 4926 C 443.878 0.811075 1.5394 0
M  V30 4927 O 445.054 1.11031 1.6803 0
M  V30 4928 C 442.119 2.1798 2.69603 0
M  V30 4929 C 441.18 3.4153 2.60107 0
M  V30 4930 C 440.413 3.66871 3.8761 0
M  V30 4931 O 440.636 2.94689 4.8838 0
M  V30 4932 O 439.57 4.60405 3.87699 0
M  V30 4933 H 443.396 2.83815 1.08088 0
M  V30 4934 H 440.981 1.41821 0.469792 0
M  V30 4935 H 442.863 2.36518 3.48765 0
M  V30 4936 H 441.538 1.28708 2.97012 0
M  V30 4937 H 440.445 3.28325 1.79314 0
M  V30 4938 H 441.778 4.31027 2.37647 0
M  V30 4939 N 443.43 -0.535701 1.48216 0
M  V30 4940 C 444.38 -1.63688 1.58714 0
M  V30 4941 C 445.364 -1.54635 0.444615 0
M  V30 4942 O 446.556 -1.62753 0.695742 0
M  V30 4943 C 443.685 -3.02423 1.62466 0
M  V30 4944 C 442.771 -3.16601 2.82178 0
M  V30 4945 N 443.162 -3.00771 4.06658 0
M  V30 4946 C 441.46 -3.47645 2.79391 0
M  V30 4947 C 442.161 -3.18213 4.86945 0
M  V30 4948 N 441.137 -3.45528 4.19656 0
M  V30 4949 H 444.939 -1.5005 2.5271 0
M  V30 4950 H 442.453 -0.741018 1.44508 0
M  V30 4951 H 444.45 -3.81517 1.6808 0
M  V30 4952 H 443.11 -3.17157 0.695826 0
M  V30 4953 H 444.121 -2.77652 4.37184 0
M  V30 4954 H 440.798 -3.68771 1.95739 0
M  V30 4955 H 442.188 -3.1076 5.95716 0
M  V30 4956 N 444.908 -1.36708 -0.784132 0
M  V30 4957 C 445.856 -1.31533 -1.91838 0
M  V30 4958 C 446.85 -0.206205 -1.6814 0
M  V30 4959 O 448.056 -0.373519 -1.76082 0
M  V30 4960 H 444.431 -0.409613 -0.630651 0
M  V30 4961 H 446.402 -2.2731 -1.9332 0
M  V30 4962 C 445.151 -1.12679 -3.28936 0
M  V30 4963 H 444.474 -1.97274 -3.4774 0
M  V30 4964 H 445.914 -1.13106 -4.08636 0
M  V30 4965 C 444.373 0.168281 -3.36479 0
M  V30 4966 O 444.903 1.15625 -3.84699 0
M  V30 4967 N 443.109 0.214762 -2.89805 0
M  V30 4968 H 442.656 -0.589852 -2.50756 0
M  V30 4969 H 442.614 1.08094 -2.95234 0
M  V30 4970 N 446.386 1.0089 -1.21074 0
M  V30 4971 C 447.333 2.09588 -0.966512 0
M  V30 4972 C 448.303 1.65761 0.106089 0
M  V30 4973 O 449.488 1.90758 -0.0402287 0
M  V30 4974 C 446.628 3.40958 -0.533058 0
M  V30 4975 C 445.741 3.9822 -1.67467 0
M  V30 4976 C 444.876 5.17682 -1.19076 0
M  V30 4977 C 443.915 5.67043 -2.30496 0
M  V30 4978 N 443.052 6.77759 -1.83267 0
M  V30 4979 H 447.892 2.29815 -1.89708 0
M  V30 4980 H 445.429 1.12689 -0.945489 0
M  V30 4981 H 447.387 4.1637 -0.263019 0
M  V30 4982 H 446.017 3.20781 0.360505 0
M  V30 4983 H 445.069 3.1983 -2.05944 0
M  V30 4984 H 446.381 4.3085 -2.51336 0
M  V30 4985 H 445.535 6.00326 -0.877151 0
M  V30 4986 H 444.274 4.86635 -0.322066 0
M  V30 4987 H 443.279 4.82999 -2.62664 0
M  V30 4988 H 444.504 6.00121 -3.17855 0
M  V30 4989 H 442.45 6.48527 -0.987356 0
M  V30 4990 H 442.367 7.09624 -2.60711 0
M  V30 4991 H 443.635 7.63949 -1.54928 0
M  V30 4992 N 447.864 1.01787 1.20321 0
M  V30 4993 C 449.275 0.739307 1.71438 0
M  V30 4994 C 449.626 -0.742041 1.81627 0
M  V30 4995 O 448.751 -1.57903 1.47971 0
M  V30 4996 C 449.346 1.33538 3.11373 0
M  V30 4997 C 447.905 1.10566 3.59795 0
M  V30 4998 C 447.052 1.44028 2.36962 0
M  V30 4999 H 450.003 1.18718 1.05317 0
M  V30 5000 H 450.024 0.726611 3.73498 0
M  V30 5001 H 449.536 2.41352 3.03926 0
M  V30 5002 H 447.637 0.0452405 3.72573 0
M  V30 5003 H 447.75 1.78661 4.44542 0
M  V30 5004 H 446.114 0.85933 2.39766 0
M  V30 5005 H 446.897 2.52901 2.32155 0
M  V30 5006 N 449.342 -1.36122 0.79427 0
M  V30 5007 C 450.57 -2.03362 0.380989 0
M  V30 5008 C 450.985 -1.59881 -1.00416 0
M  V30 5009 O 450.342 -0.790515 -1.6449 0
M  V30 5010 C 450.393 -3.58804 0.440649 0
M  V30 5011 O 450.114 -4.007 1.77118 0
M  V30 5012 C 451.615 -4.43296 0.0186117 0
M  V30 5013 H 448.835 -0.652526 0.156367 0
M  V30 5014 H 451.379 -1.73998 1.07447 0
M  V30 5015 H 449.534 -3.8686 -0.204458 0
M  V30 5016 H 449.948 -4.95309 1.72538 0
M  V30 5017 H 451.422 -5.51887 0.111488 0
M  V30 5018 H 451.899 -4.2684 -1.03461 0
M  V30 5019 H 452.505 -4.20512 0.636395 0
M  V30 5020 N 450.82 -0.546701 -1.47814 0
M  V30 5021 C 452.236 -0.205717 -1.58269 0
M  V30 5022 C 452.436 1.29153 -1.54667 0
M  V30 5023 O 451.492 2.07098 -1.44453 0
M  V30 5024 C 452.805 -0.823065 -2.89216 0
M  V30 5025 C 454.353 -0.793328 -3.02779 0
M  V30 5026 C 454.828 -1.38955 -4.36412 0
M  V30 5027 N 456.319 -1.35227 -4.43021 0
M  V30 5028 C 457.054 -1.78333 -5.44963 0
M  V30 5029 N 456.55 -2.29246 -6.53772 0
M  V30 5030 N 458.343 -1.69467 -5.35945 0
M  V30 5031 H 450.494 -1.5196 -1.48398 0
M  V30 5032 H 452.757 -0.633078 -0.705632 0
M  V30 5033 H 452.463 -1.8749 -2.97558 0
M  V30 5034 H 452.337 -0.309915 -3.75925 0
M  V30 5035 H 454.724 0.249784 -2.94041 0
M  V30 5036 H 454.805 -1.34412 -2.17639 0
M  V30 5037 H 454.449 -2.43168 -4.45906 0
M  V30 5038 H 454.379 -0.814291 -5.20266 0
M  V30 5039 H 456.87 -0.979739 -3.64979 0
M  V30 5040 H 457.183 -2.60089 -7.27718 0
M  V30 5041 H 455.528 -2.3325 -6.5469 0
M  V30 5042 H 458.719 -1.29477 -4.49837 0
M  V30 5043 H 458.892 -2.03381 -6.15256 0
M  V30 5044 N 452.299 1.55045 -0.282633 0
M  V30 5045 C 453.246 2.22822 0.601566 0
M  V30 5046 C 454.216 1.20431 1.14392 0
M  V30 5047 O 455.401 1.48996 1.19184 0
M  V30 5048 C 452.541 2.95873 1.77632 0
M  V30 5049 C 451.654 4.12999 1.26711 0
M  V30 5050 C 450.789 4.73676 2.40426 0
M  V30 5051 C 449.828 5.82981 1.86545 0
M  V30 5052 N 448.965 6.3769 2.93762 0
M  V30 5053 H 453.805 2.97995 0.0169528 0
M  V30 5054 H 451.342 1.471 -0.00339964 0
M  V30 5055 H 453.3 3.36447 2.46697 0
M  V30 5056 H 451.93 2.2311 2.33285 0
M  V30 5057 H 450.982 3.77494 0.469314 0
M  V30 5058 H 452.294 4.91803 0.832518 0
M  V30 5059 H 451.448 5.17008 3.17471 0
M  V30 5060 H 450.187 3.94164 2.87203 0
M  V30 5061 H 449.192 5.39092 1.07983 0
M  V30 5062 H 450.417 6.64366 1.40694 0
M  V30 5063 H 448.363 5.61069 3.39908 0
M  V30 5064 H 448.28 7.11788 2.54744 0
M  V30 5065 H 449.548 6.8568 3.7076 0
M  V30 5066 N 453.777 0.010035 1.57597 0
M  V30 5067 C 455.005 -0.683413 1.95287 0
M  V30 5068 C 455.42 -1.66747 0.885481 0
M  V30 5069 O 454.777 -1.82003 -0.134629 0
M  V30 5070 C 454.828 -1.40652 3.33015 0
M  V30 5071 O 454.549 -0.461916 4.35658 0
M  V30 5072 C 456.05 -2.19356 3.85225 0
M  V30 5073 H 453.27 -0.189708 0.643624 0
M  V30 5074 H 455.814 0.0641359 2.04399 0
M  V30 5075 H 453.969 -2.10562 3.2518 0
M  V30 5076 H 454.383 -0.973215 5.15392 0
M  V30 5077 H 455.857 -2.65433 4.83993 0
M  V30 5078 H 456.334 -3.02457 3.18459 0
M  V30 5079 H 456.94 -1.54442 3.96267 0
M  V30 5080 N 455.255 -1.55392 -0.262866 0
M  V30 5081 C 456.185 -1.91978 -1.32917 0
M  V30 5082 C 457.166 -0.7828 -1.51017 0
M  V30 5083 O 458.351 -1.04178 -1.63892 0
M  V30 5084 C 455.481 -2.20055 -2.68687 0
M  V30 5085 C 454.435 -3.35854 -2.65304 0
M  V30 5086 C 453.761 -3.49435 -4.04721 0
M  V30 5087 C 455.061 -4.71977 -2.23685 0
M  V30 5088 H 456.755 -2.81292 -1.02544 0
M  V30 5089 H 454.301 -1.3534 -0.491846 0
M  V30 5090 H 456.254 -2.44237 -3.43404 0
M  V30 5091 H 454.978 -1.27551 -3.00663 0
M  V30 5092 H 453.637 -3.11655 -1.93045 0
M  V30 5093 H 453.285 -2.54379 -4.33936 0
M  V30 5094 H 452.985 -4.27297 -4.0335 0
M  V30 5095 H 454.509 -3.7592 -4.81161 0
M  V30 5096 H 455.923 -4.95637 -2.88127 0
M  V30 5097 H 454.32 -5.52828 -2.33456 0
M  V30 5098 H 455.39 -4.70115 -1.18827 0
M  V30 5099 N 456.733 0.527833 -1.48498 0
M  V30 5100 C 458.149 0.856571 -1.34666 0
M  V30 5101 C 458.349 1.98271 -0.35931 0
M  V30 5102 O 457.405 2.51551 0.218703 0
M  V30 5103 C 458.718 1.22207 -2.74747 0
M  V30 5104 C 460.266 1.33183 -2.83251 0
M  V30 5105 C 460.741 1.73075 -4.24039 0
M  V30 5106 N 462.232 1.80174 -4.26722 0
M  V30 5107 C 462.967 2.1243 -5.32598 0
M  V30 5108 N 462.463 2.43096 -6.4875 0
M  V30 5109 N 464.256 2.13454 -5.19994 0
M  V30 5110 H 456.407 -0.215174 -2.11307 0
M  V30 5111 H 458.67 -0.0336281 -0.947403 0
M  V30 5112 H 458.376 0.468195 -3.4857 0
M  V30 5113 H 458.25 2.17173 -3.08409 0
M  V30 5114 H 460.637 2.07647 -2.09683 0
M  V30 5115 H 460.718 0.363333 -2.53206 0
M  V30 5116 H 460.362 0.991712 -4.98124 0
M  V30 5117 H 460.292 2.70979 -4.51529 0
M  V30 5118 H 462.783 1.58744 -3.42942 0
M  V30 5119 H 463.096 2.6682 -7.25277 0
M  V30 5120 H 461.441 2.40611 -6.52021 0
M  V30 5121 H 464.632 1.88956 -4.28268 0
M  V30 5122 H 464.805 2.38261 -6.02608 0
M  V30 5123 N 458.211 1.37122 0.776871 0
M  V30 5124 C 459.158 1.3247 1.88998 0
M  V30 5125 C 460.128 0.191143 1.64997 0
M  V30 5126 O 461.313 0.379683 1.86984 0
M  V30 5127 C 458.453 1.13241 3.25992 0
M  V30 5128 C 457.566 2.35782 3.61982 0
M  V30 5129 C 456.701 2.09465 4.88158 0
M  V30 5130 C 455.74 3.279 5.16864 0
M  V30 5131 N 454.877 3.01167 6.34226 0
M  V30 5132 H 459.717 2.27642 1.9231 0
M  V30 5133 H 457.254 1.13125 0.94027 0
M  V30 5134 H 459.212 1.00115 4.0501 0
M  V30 5135 H 457.842 0.217186 3.22069 0
M  V30 5136 H 456.894 2.59666 2.77989 0
M  V30 5137 H 458.206 3.24125 3.79137 0
M  V30 5138 H 457.36 1.93341 5.75069 0
M  V30 5139 H 456.099 1.18452 4.73097 0
M  V30 5140 H 455.104 3.44569 4.2843 0
M  V30 5141 H 456.329 4.19757 5.33836 0
M  V30 5142 H 454.275 2.12779 6.20533 0
M  V30 5143 H 454.192 3.83052 6.51772 0
M  V30 5144 H 455.46 2.88649 7.24087 0
M  V30 5145 N 459.689 -1.00246 1.21608 0
M  V30 5146 C 460.914 -1.78167 1.06167 0
M  V30 5147 C 461.339 -1.84138 -0.384035 0
M  V30 5148 O 460.697 -1.28683 -1.27712 0
M  V30 5149 C 460.745 -3.19786 1.66642 0
M  V30 5150 O 459.849 -4.02153 0.913613 0
M  V30 5151 H 459.19 -0.549 0.37349 0
M  V30 5152 H 461.72 -1.25994 1.61204 0
M  V30 5153 H 461.73 -3.70451 1.70969 0
M  V30 5154 H 460.405 -3.14754 2.7185 0
M  V30 5155 H 458.982 -3.60711 0.945635 0
M  V30 5156 N 461.167 -1.02423 -1.1978 0
M  V30 5157 C 462.583 -0.740459 -1.41384 0
M  V30 5158 C 462.783 0.676827 -1.89793 0
M  V30 5159 O 461.839 1.4435 -2.0717 0
M  V30 5160 C 463.152 -1.77264 -2.42895 0
M  V30 5161 C 464.7 -1.79165 -2.56649 0
M  V30 5162 C 465.175 -2.8133 -3.6141 0
M  V30 5163 N 466.666 -2.80118 -3.68901 0
M  V30 5164 C 467.401 -3.55824 -4.49641 0
M  V30 5165 N 466.897 -4.41231 -5.34123 0
M  V30 5166 N 468.69 -3.44387 -4.44246 0
M  V30 5167 H 460.841 -1.9391 -0.866764 0
M  V30 5168 H 463.104 -0.838074 -0.443098 0
M  V30 5169 H 462.81 -2.7884 -2.14339 0
M  V30 5170 H 462.684 -1.59108 -3.42001 0
M  V30 5171 H 465.071 -0.782702 -2.84531 0
M  V30 5172 H 465.152 -2.01396 -1.57713 0
M  V30 5173 H 464.796 -3.82394 -3.34271 0
M  V30 5174 H 464.726 -2.56359 -4.59986 0
M  V30 5175 H 467.217 -2.1817 -3.08562 0
M  V30 5176 H 467.53 -4.95747 -5.92836 0
M  V30 5177 H 465.875 -4.45306 -5.33599 0
M  V30 5178 H 469.066 -2.7708 -3.77285 0
M  V30 5179 H 469.239 -4.0364 -5.06931 0
M  V30 5180 N 462.645 1.35699 -0.801477 0
M  V30 5181 C 463.592 2.29876 -0.206294 0
M  V30 5182 C 464.562 1.52565 0.656752 0
M  V30 5183 O 465.747 1.81024 0.602906 0
M  V30 5184 C 462.887 3.39052 0.643272 0
M  V30 5185 C 462 4.31335 -0.239644 0
M  V30 5186 C 461.135 5.27599 0.61744 0
M  V30 5187 C 460.174 6.11521 -0.26619 0
M  V30 5188 N 459.311 6.99938 0.550571 0
M  V30 5189 H 464.151 2.80187 -1.01484 0
M  V30 5190 H 461.688 1.37902 -0.511997 0
M  V30 5191 H 463.646 4.0101 1.15094 0
M  V30 5192 H 462.276 2.9003 1.41713 0
M  V30 5193 H 461.328 3.70426 -0.865381 0
M  V30 5194 H 462.64 4.90243 -0.919985 0
M  V30 5195 H 461.794 5.94906 1.19045 0
M  V30 5196 H 460.533 4.69176 1.33137 0
M  V30 5197 H 459.538 5.43166 -0.851507 0
M  V30 5198 H 460.763 6.72022 -0.9779 0
M  V30 5199 H 458.709 6.44008 1.24856 0
M  V30 5200 H 458.626 7.55966 -0.071832 0
M  V30 5201 H 459.894 7.71599 1.10702 0
M  V30 5202 N 464.123 0.554532 1.47522 0
M  V30 5203 C 465.073 -0.215008 2.26984 0
M  V30 5204 C 466.057 -0.88774 1.34194 0
M  V30 5205 O 467.249 -0.786489 1.58567 0
M  V30 5206 C 464.378 -1.24604 3.19889 0
M  V30 5207 C 463.464 -0.576857 4.20159 0
M  V30 5208 N 463.855 0.351541 5.04577 0
M  V30 5209 C 462.153 -0.831104 4.38188 0
M  V30 5210 C 462.854 0.739995 5.76974 0
M  V30 5211 N 461.83 0.0954407 5.43516 0
M  V30 5212 H 465.632 0.498843 2.89636 0
M  V30 5213 H 463.146 0.374279 1.58028 0
M  V30 5214 H 465.143 -1.81128 3.75498 0
M  V30 5215 H 463.803 -1.96101 2.58794 0
M  V30 5216 H 464.814 0.725556 5.12792 0
M  V30 5217 H 461.491 -1.53479 3.88266 0
M  V30 5218 H 462.881 1.50271 6.5488 0
M  V30 5219 N 465.601 -1.54893 0.290851 0
M  V30 5220 C 466.551 -2.19838 -0.604599 0
M  V30 5221 C 467.535 -1.16805 -1.10659 0
M  V30 5222 O 468.727 -1.42562 -1.04905 0
M  V30 5223 C 465.856 -2.93497 -1.78086 0
M  V30 5224 C 464.942 -4.03835 -1.29531 0
M  V30 5225 N 465.333 -5.03047 -0.527024 0
M  V30 5226 C 463.631 -4.17192 -1.57693 0
M  V30 5227 C 464.332 -5.81074 -0.269728 0
M  V30 5228 N 463.308 -5.36966 -0.846651 0
M  V30 5229 H 467.11 -2.93898 -0.00995032 0
M  V30 5230 H 464.624 -1.62121 0.0951353 0
M  V30 5231 H 466.621 -3.38484 -2.43381 0
M  V30 5232 H 465.281 -2.2095 -2.37931 0
M  V30 5233 H 466.292 -5.17611 -0.172872 0
M  V30 5234 H 462.969 -3.55845 -2.18359 0
M  V30 5235 H 464.359 -6.71005 0.346643 0
M  V30 5236 N 467.08 -0.0183926 -1.57589 0
M  V30 5237 C 468.32 0.666846 -1.93216 0
M  V30 5238 C 468.684 1.69905 -0.894215 0
M  V30 5239 O 469.885 2.436 -1.13633 0
M  V30 5240 C 468.156 1.27684 -3.33814 0
M  V30 5241 S 469.715 1.98464 -3.91353 0
M  V30 5242 H 466.533 0.219826 -0.676164 0
M  V30 5243 H 469.135 -0.0794893 -1.95338 0
M  V30 5244 H 467.839 0.513006 -4.07181 0
M  V30 5245 H 467.37 2.06071 -3.3511 0
M  V30 5246 H 469.385 3.26189 -3.73918 0
M  V30 5247 N 468.558 1.5553 0.254621 0
M  V30 5248 C 469.805 1.77 0.983736 0
M  V30 5249 C 470.133 0.58133 1.85609 0
M  V30 5250 O 469.388 -0.435621 1.9079 0
M  V30 5251 C 469.687 3.03891 1.88109 0
M  V30 5252 C 469.353 4.35597 1.16472 0
M  V30 5253 C 468.015 4.7139 0.966714 0
M  V30 5254 C 470.367 5.1705 0.656387 0
M  V30 5255 C 467.695 5.86176 0.247942 0
M  V30 5256 C 470.047 6.32581 -0.0488807 0
M  V30 5257 C 468.711 6.67 -0.258438 0
M  V30 5258 H 467.981 0.647688 0.359974 0
M  V30 5259 H 470.628 1.89802 0.254463 0
M  V30 5260 H 468.933 2.86068 2.67717 0
M  V30 5261 H 470.63 3.17701 2.44677 0
M  V30 5262 H 467.22 4.07475 1.32899 0
M  V30 5263 H 471.404 4.8986 0.796933 0
M  V30 5264 H 466.66 6.11354 0.075035 0
M  V30 5265 H 470.834 6.94942 -0.450444 0
M  V30 5266 H 468.461 7.55793 -0.817358 0
M  V30 5267 N 470.036 -0.519951 1.48776 0
M  V30 5268 C 471.264 -1.29971 1.60982 0
M  V30 5269 C 471.679 -1.86803 0.273885 0
M  V30 5270 O 471.036 -1.66904 -0.738193 0
M  V30 5271 C 471.087 -2.44346 2.66415 0
M  V30 5272 O 470.808 -1.89855 3.94825 0
M  V30 5273 C 472.309 -3.36014 2.89153 0
M  V30 5274 H 469.529 -0.394891 0.542496 0
M  V30 5275 H 472.073 -0.626214 1.94676 0
M  V30 5276 H 470.228 -3.07562 2.35552 0
M  V30 5277 H 470.642 -2.64798 4.5275 0
M  V30 5278 H 472.116 -4.12593 3.66703 0
M  V30 5279 H 472.593 -3.91859 1.98351 0
M  V30 5280 H 473.199 -2.78582 3.21359 0
M  V30 5281 N 471.514 -1.37532 -0.769588 0
M  V30 5282 C 472.424 -1.35668 -1.91393 0
M  V30 5283 C 473.44 -0.255954 -1.72107 0
M  V30 5284 O 474.616 -0.491704 -1.95305 0
M  V30 5285 C 471.681 -1.16481 -3.26547 0
M  V30 5286 C 470.742 -2.36212 -3.58472 0
M  V30 5287 C 469.975 -2.17932 -4.87177 0
M  V30 5288 O 470.198 -1.1647 -5.58382 0
M  V30 5289 O 469.132 -3.06167 -5.18214 0
M  V30 5290 H 472.958 -2.32055 -1.95918 0
M  V30 5291 H 470.543 -1.18284 -0.912641 0
M  V30 5292 H 472.425 -1.07778 -4.07384 0
M  V30 5293 H 471.1 -0.231687 -3.2287 0
M  V30 5294 H 470.007 -2.50488 -2.77861 0
M  V30 5295 H 471.34 -3.281 -3.66894 0
M  V30 5296 N 472.992 0.995999 -1.22138 0
M  V30 5297 C 474.22 1.77066 -1.07029 0
M  V30 5298 C 474.635 1.8495 0.379357 0
M  V30 5299 O 473.992 1.3174 1.26297 0
M  V30 5300 C 474.043 3.20533 -1.67155 0
M  V30 5301 O 473.764 3.13082 -3.06449 0
M  V30 5302 C 475.265 4.14461 -1.5728 0
M  V30 5303 H 472.485 0.556179 -0.375374 0
M  V30 5304 H 475.029 1.25238 -1.61666 0
M  V30 5305 H 473.184 3.6944 -1.16589 0
M  V30 5306 H 473.598 4.03283 -3.35355 0
M  V30 5307 H 475.072 5.1289 -2.04078 0
M  V30 5308 H 475.549 4.36005 -0.528795 0
M  V30 5309 H 476.155 3.71449 -2.07136 0
M  V30 5310 N 474.47 1.03057 1.19235 0
M  V30 5311 C 475.695 0.74757 1.93458 0
M  V30 5312 C 476.12 -0.687648 1.7508 0
M  V30 5313 O 475.478 -1.47499 1.05422 0
M  V30 5314 C 475.526 1.10604 3.43219 0
M  V30 5315 O 474.63 0.225671 4.11782 0
M  V30 5316 H 473.971 0.276047 0.603899 0
M  V30 5317 H 476.501 1.3777 1.51263 0
M  V30 5318 H 476.511 1.06366 3.93891 0
M  V30 5319 H 475.186 2.15165 3.55917 0
M  V30 5320 H 473.763 0.326795 3.71465 0
M  V30 5321 N 475.948 -1.35272 0.808662 0
M  V30 5322 C 476.895 -2.29764 0.218482 0
M  V30 5323 C 477.865 -1.52911 -0.648652 0
M  V30 5324 O 479.05 -1.81341 -0.593297 0
M  V30 5325 C 476.19 -3.39388 -0.625282 0
M  V30 5326 C 475.303 -4.31202 0.262516 0
M  V30 5327 C 474.438 -5.27919 -0.589451 0
M  V30 5328 C 473.477 -6.11371 0.298617 0
M  V30 5329 N 472.614 -7.0022 -0.513443 0
M  V30 5330 H 477.454 -2.79645 1.02968 0
M  V30 5331 H 474.991 -1.37629 0.519303 0
M  V30 5332 H 476.949 -4.01615 -1.12966 0
M  V30 5333 H 475.579 -2.90777 -1.40173 0
M  V30 5334 H 474.631 -3.69962 0.885013 0
M  V30 5335 H 475.943 -4.89748 0.945971 0
M  V30 5336 H 475.097 -5.95529 -1.15888 0
M  V30 5337 H 473.836 -4.69875 -1.30647 0
M  V30 5338 H 472.841 -5.42707 0.880301 0
M  V30 5339 H 474.066 -6.71494 1.01352 0
M  V30 5340 H 472.012 -6.44662 -1.21439 0
M  V30 5341 H 471.929 -7.55917 0.111922 0
M  V30 5342 H 473.197 -7.72175 -1.06608 0
M  V30 5343 N 477.426 -0.562348 -1.47226 0
M  V30 5344 C 478.356 0.170627 -2.32876 0
M  V30 5345 C 479.337 0.903748 -1.44106 0
M  V30 5346 O 480.522 0.883206 -1.72954 0
M  V30 5347 C 477.652 1.19786 -3.25989 0
M  V30 5348 C 476.606 0.580875 -4.2404 0
M  V30 5349 C 475.932 1.71311 -5.06514 0
M  V30 5350 C 477.232 -0.468714 -5.20193 0
M  V30 5351 H 478.926 -0.544441 -2.94408 0
M  V30 5352 H 476.472 -0.263271 -1.41573 0
M  V30 5353 H 478.425 1.71884 -3.84752 0
M  V30 5354 H 477.149 1.94294 -2.62521 0
M  V30 5355 H 475.808 0.0811538 -3.6651 0
M  V30 5356 H 475.456 2.44736 -4.39447 0
M  V30 5357 H 475.156 1.30604 -5.72902 0
M  V30 5358 H 476.68 2.23725 -5.68137 0
M  V30 5359 H 478.094 -0.0336028 -5.7329 0
M  V30 5360 H 476.491 -0.794957 -5.94811 0
M  V30 5361 H 477.561 -1.36269 -4.65359 0
M  V30 5362 N 478.904 1.54736 -0.299062 0
M  V30 5363 C 479.836 2.20891 0.61153 0
M  V30 5364 C 480.849 1.20104 1.09904 0
M  V30 5365 O 482.038 1.46707 1.01683 0
M  V30 5366 C 479.138 2.84018 1.84897 0
M  V30 5367 C 478.311 4.10719 1.50428 0
M  V30 5368 C 477.37 4.57667 2.59667 0
M  V30 5369 O 476.396 5.2291 2.24842 0
M  V30 5370 N 477.598 4.29821 3.90172 0
M  V30 5371 H 480.363 2.99666 0.0452001 0
M  V30 5372 H 477.924 1.61446 -0.121178 0
M  V30 5373 H 479.916 3.1236 2.5732 0
M  V30 5374 H 478.486 2.09095 2.32375 0
M  V30 5375 H 477.706 3.89408 0.612781 0
M  V30 5376 H 478.994 4.93223 1.24934 0
M  V30 5377 H 478.392 3.77549 4.21276 0
M  V30 5378 H 476.949 4.62877 4.58899 0
M  V30 5379 N 480.382 0.0267497 1.57577 0
M  V30 5380 C 481.612 -0.6617 1.95717 0
M  V30 5381 C 482.02 -1.66331 0.901706 0
M  V30 5382 O 481.363 -1.83273 -0.125241 0
M  V30 5383 C 481.425 -1.42649 3.29987 0
M  V30 5384 C 481.089 -0.583482 4.5326 0
M  V30 5385 C 482.086 0.140221 5.19711 0
M  V30 5386 C 479.771 -0.521581 4.99585 0
M  V30 5387 C 481.765 0.914523 6.30805 0
M  V30 5388 C 479.452 0.256428 6.10562 0
M  V30 5389 C 480.45 0.973189 6.76031 0
M  V30 5390 O 480.138 1.73845 7.84878 0
M  V30 5391 H 479.87 -0.187483 0.649481 0
M  V30 5392 H 482.424 0.0820847 2.05236 0
M  V30 5393 H 480.654 -2.21536 3.16952 0
M  V30 5394 H 482.343 -2.00282 3.53047 0
M  V30 5395 H 483.109 0.101716 4.84893 0
M  V30 5396 H 478.988 -1.06904 4.48433 0
M  V30 5397 H 482.532 1.4745 6.81839 0
M  V30 5398 H 478.429 0.296657 6.44818 0
M  V30 5399 H 479.197 1.65797 8.01532 0
M  V30 5400 N 481.861 -1.55662 -0.24637 0
M  V30 5401 C 482.791 -1.93377 -1.30873 0
M  V30 5402 C 483.772 -0.798773 -1.50179 0
M  V30 5403 O 484.957 -1.0591 -1.62778 0
M  V30 5404 C 482.087 -2.22893 -2.66338 0
M  V30 5405 C 481.041 -3.38649 -2.61727 0
M  V30 5406 C 480.367 -3.53708 -4.00992 0
M  V30 5407 C 481.667 -4.74323 -2.18666 0
M  V30 5408 H 483.361 -2.82363 -0.995552 0
M  V30 5409 H 480.907 -1.35854 -0.477464 0
M  V30 5410 H 482.86 -2.47866 -3.40794 0
M  V30 5411 H 481.584 -1.30733 -2.99293 0
M  V30 5412 H 480.243 -3.13685 -1.89729 0
M  V30 5413 H 479.891 -2.58967 -4.31214 0
M  V30 5414 H 479.591 -4.31551 -3.98795 0
M  V30 5415 H 481.115 -3.81003 -4.77147 0
M  V30 5416 H 482.529 -4.98665 -2.82854 0
M  V30 5417 H 480.926 -5.55273 -2.27579 0
M  V30 5418 H 481.996 -4.71349 -1.13834 0
M  V30 5419 N 483.339 0.512053 -1.4905 0
M  V30 5420 C 484.75 1.09376 -1.51307 0
M  V30 5421 C 485.101 1.94 -0.292971 0
M  V30 5422 O 484.226 2.07965 0.598277 0
M  V30 5423 C 484.821 1.99031 -2.74176 0
M  V30 5424 C 483.38 2.52385 -2.79247 0
M  V30 5425 C 482.527 1.29749 -2.45073 0
M  V30 5426 H 485.478 0.296467 -1.55906 0
M  V30 5427 H 485.499 2.83569 -2.53711 0
M  V30 5428 H 485.011 1.37412 -3.62959 0
M  V30 5429 H 483.112 3.17673 -1.94716 0
M  V30 5430 H 483.225 2.90293 -3.81139 0
M  V30 5431 H 481.589 1.61912 -1.96612 0
M  V30 5432 H 482.372 0.698555 -3.36118 0
M  V30 5433 N 484.817 1.37938 0.762283 0
M  V30 5434 C 485.749 1.30349 1.88525 0
M  V30 5435 C 486.762 0.217402 1.61342 0
M  V30 5436 O 487.951 0.474291 1.72084 0
M  V30 5437 C 485.051 0.994844 3.23969 0
M  V30 5438 C 484.224 2.18829 3.78725 0
M  V30 5439 C 483.283 1.84844 4.92665 0
M  V30 5440 O 482.309 2.57244 5.07754 0
M  V30 5441 N 483.511 0.798201 5.74986 0
M  V30 5442 H 486.276 2.27114 1.95549 0
M  V30 5443 H 483.837 1.31686 0.941825 0
M  V30 5444 H 485.829 0.748168 3.97724 0
M  V30 5445 H 484.399 0.115446 3.12387 0
M  V30 5446 H 483.619 2.59615 2.96637 0
M  V30 5447 H 484.907 2.98497 4.1204 0
M  V30 5448 H 484.305 0.197611 5.65355 0
M  V30 5449 H 482.862 0.611396 6.48926 0
M  V30 5450 N 486.295 -0.989507 1.22664 0
M  V30 5451 C 487.225 -2.09847 1.02404 0
M  V30 5452 C 488.206 -1.70007 -0.0561303 0
M  V30 5453 O 489.391 -1.93906 0.106748 0
M  V30 5454 C 486.521 -3.41996 0.604663 0
M  V30 5455 C 485.475 -3.95699 1.63115 0
M  V30 5456 C 484.801 -5.23936 1.0675 0
M  V30 5457 C 486.101 -4.25999 3.02196 0
M  V30 5458 H 487.795 -2.27054 1.95158 0
M  V30 5459 H 485.341 -1.09111 0.939727 0
M  V30 5460 H 487.294 -4.1899 0.45002 0
M  V30 5461 H 486.018 -3.24626 -0.35855 0
M  V30 5462 H 484.677 -3.2084 1.77362 0
M  V30 5463 H 484.325 -5.02909 0.0955422 0
M  V30 5464 H 484.025 -5.60833 1.75328 0
M  V30 5465 H 485.549 -6.0356 0.924516 0
M  V30 5466 H 486.963 -4.93777 2.91303 0
M  V30 5467 H 485.36 -4.74076 3.67929 0
M  V30 5468 H 486.43 -3.33636 3.51873 0
M  V30 5469 N 487.773 -1.03688 -1.18687 0
M  V30 5470 C 489.001 -0.757918 -1.92518 0
M  V30 5471 C 489.416 0.684398 -1.75959 0
M  V30 5472 O 488.773 1.46617 -1.08673 0
M  V30 5473 C 488.824 -1.10985 -3.44042 0
M  V30 5474 O 488.545 -2.49554 -3.60076 0
M  V30 5475 C 490.046 -0.854844 -4.3498 0
M  V30 5476 H 487.266 -0.276699 -0.611293 0
M  V30 5477 H 489.81 -1.38352 -1.50595 0
M  V30 5478 H 487.965 -0.529279 -3.83767 0
M  V30 5479 H 488.379 -2.6291 -4.53849 0
M  V30 5480 H 489.853 -1.15098 -5.39867 0
M  V30 5481 H 490.33 0.210507 -4.38695 0
M  V30 5482 H 490.936 -1.41853 -4.00946 0
M  V30 5483 N 489.251 1.34841 -0.815825 0
M  V30 5484 C 490.499 1.98107 -0.399744 0
M  V30 5485 C 490.82 1.65019 1.03894 0
M  V30 5486 O 490.09 0.937311 1.72021 0
M  V30 5487 H 488.67 0.732827 -0.144823 0
M  V30 5488 H 491.332 1.64599 -1.0437 0
M  V30 5489 H 490.428 3.07856 -0.512965 0
M  V30 5490 N 490.729 0.570148 1.46925 0
M  V30 5491 C 491.954 0.0542592 2.07329 0
M  V30 5492 C 492.379 -1.23582 1.41806 0
M  V30 5493 O 491.737 -1.74341 0.497479 0
M  V30 5494 C 491.785 -0.111175 3.60429 0
M  V30 5495 O 490.889 -1.17071 3.95434 0
M  V30 5496 H 490.23 0.0571425 0.661537 0
M  V30 5497 H 492.76 0.789516 1.88753 0
M  V30 5498 H 492.77 -0.321315 4.06733 0
M  V30 5499 H 491.445 0.831012 4.07513 0
M  V30 5500 H 490.022 -0.940029 3.60857 0
M  V30 5501 N 492.207 -1.54576 0.307264 0
M  V30 5502 C 493.432 -2.05139 -0.305379 0
M  V30 5503 C 493.857 -1.18278 -1.46259 0
M  V30 5504 O 493.215 -0.188243 -1.8032 0
M  V30 5505 C 493.263 -3.53066 -0.733283 0
M  V30 5506 O 492.367 -3.69206 -1.83741 0
M  V30 5507 H 491.708 -0.661444 -0.0582105 0
M  V30 5508 H 494.238 -1.99569 0.450931 0
M  V30 5509 H 494.248 -3.95034 -1.02039 0
M  V30 5510 H 492.923 -4.15746 0.113198 0
M  V30 5511 H 491.5 -3.39143 -1.55037 0
M  V30 5512 N 493.685 -0.035106 -1.57561 0
M  V30 5513 C 494.934 0.641604 -1.91223 0
M  V30 5514 C 495.247 1.72944 -0.913761 0
M  V30 5515 O 496.453 2.46321 -1.14185 0
M  V30 5516 C 494.909 1.19249 -3.3957 0
M  V30 5517 C 494.517 0.137616 -4.47789 0
M  V30 5518 C 496.261 1.84537 -3.82291 0
M  V30 5519 C 494.168 0.700478 -5.87237 0
M  V30 5520 H 493.098 0.243417 -0.713627 0
M  V30 5521 H 495.749 -0.101382 -1.8322 0
M  V30 5522 H 494.131 1.98728 -3.42525 0
M  V30 5523 H 495.305 -0.635153 -4.56402 0
M  V30 5524 H 493.62 -0.416855 -4.14308 0
M  V30 5525 H 496.217 2.27616 -4.83834 0
M  V30 5526 H 496.56 2.69054 -3.17672 0
M  V30 5527 H 497.093 1.11739 -3.81784 0
M  V30 5528 H 493.832 -0.106693 -6.55413 0
M  V30 5529 H 493.352 1.4416 -5.82218 0
M  V30 5530 H 495.031 1.18837 -6.35993 0
M  V30 5531 N 495.163 1.55791 0.238111 0
M  V30 5532 C 496.093 1.94068 1.29846 0
M  V30 5533 C 497.074 0.806726 1.49753 0
M  V30 5534 O 498.259 1.06772 1.62214 0
M  V30 5535 C 495.389 2.24302 2.65153 0
M  V30 5536 C 494.343 3.40032 2.59927 0
M  V30 5537 C 493.669 3.55829 3.99111 0
M  V30 5538 C 494.969 4.75476 2.16148 0
M  V30 5539 H 496.663 2.82887 0.980563 0
M  V30 5540 H 494.209 1.36105 0.470253 0
M  V30 5541 H 496.162 2.4967 3.39475 0
M  V30 5542 H 494.886 1.32318 2.98596 0
M  V30 5543 H 493.545 3.14687 1.88063 0
M  V30 5544 H 493.193 2.6125 4.29834 0
M  V30 5545 H 492.893 4.3366 3.96501 0
M  V30 5546 H 494.417 3.83528 4.7512 0
M  V30 5547 H 495.831 5.00158 2.80205 0
M  V30 5548 H 494.228 5.56472 2.24631 0
M  V30 5549 H 495.298 4.71946 1.11333 0
M  V30 5550 N 496.642 -0.504142 1.49319 0
M  V30 5551 C 498.053 -1.08572 1.51885 0
M  V30 5552 C 498.404 -1.93842 0.303255 0
M  V30 5553 O 497.529 -2.0828 -0.58724 0
M  V30 5554 C 498.124 -1.97574 2.75227 0
M  V30 5555 C 496.683 -2.509 2.80581 0
M  V30 5556 C 495.83 -1.28447 2.45757 0
M  V30 5557 H 498.781 -0.288194 1.56061 0
M  V30 5558 H 498.802 -2.82219 2.55211 0
M  V30 5559 H 498.314 -1.35486 3.63683 0
M  V30 5560 H 496.415 -3.16636 1.96398 0
M  V30 5561 H 496.528 -2.88268 3.82673 0
M  V30 5562 H 494.892 -1.60868 1.97468 0
M  V30 5563 H 495.675 -0.68072 3.36483 0
M  V30 5564 N 498.12 -1.38341 -0.754957 0
M  V30 5565 C 499.083 -1.35262 -1.85032 0
M  V30 5566 C 500.083 -0.253393 -1.58791 0
M  V30 5567 O 501.273 -0.510205 -1.66561 0
M  V30 5568 C 498.405 -1.10544 -3.22479 0
M  V30 5569 H 499.598 -2.32712 -1.8917 0
M  V30 5570 H 497.151 -1.23614 -0.956515 0
M  V30 5571 H 497.886 -0.136952 -3.24011 0
M  V30 5572 H 497.671 -1.90127 -3.4292 0
M  V30 5573 H 499.161 -1.11082 -4.02555 0
M  V30 5574 N 499.598 0.982988 -1.23187 0
M  V30 5575 C 500.528 2.09301 -1.03515 0
M  V30 5576 C 501.509 1.70035 0.0471136 0
M  V30 5577 O 502.694 1.93847 -0.117029 0
M  V30 5578 C 499.824 3.4167 -0.622791 0
M  V30 5579 C 498.778 3.94828 -1.65211 0
M  V30 5580 C 498.104 5.23362 -1.09527 0
M  V30 5581 C 499.404 4.2439 -3.04451 0
M  V30 5582 H 501.098 2.26016 -1.96359 0
M  V30 5583 H 498.644 1.08611 -0.945501 0
M  V30 5584 H 500.597 4.18746 -0.472233 0
M  V30 5585 H 499.321 3.24811 0.341329 0
M  V30 5586 H 497.98 3.19895 -1.79061 0
M  V30 5587 H 497.628 5.02852 -0.122211 0
M  V30 5588 H 497.328 5.59895 -1.783 0
M  V30 5589 H 498.852 6.03062 -0.956511 0
M  V30 5590 H 500.266 4.92225 -2.93917 0
M  V30 5591 H 498.663 4.72118 -3.70438 0
M  V30 5592 H 499.733 3.31765 -3.53638 0
M  V30 5593 N 501.076 1.04316 1.18135 0
M  V30 5594 C 502.353 0.662166 1.84051 0
M  V30 5595 C 502.733 -0.858169 1.9287 0
M  V30 5596 O 502.081 -1.76062 1.45652 0
M  V30 5597 C 502.291 1.3409 3.22212 0
M  V30 5598 C 503.639 1.4733 3.9822 0
M  V30 5599 O 504.663 1.29921 3.31661 0
M  V30 5600 O 503.522 1.75722 5.17479 0
M  V30 5601 H 500.616 0.232005 0.79379 0
M  V30 5602 H 503.162 1.1422 1.25506 0
M  V30 5603 H 501.934 2.37853 3.10711 0
M  V30 5604 H 501.557 0.849649 3.88416 0
M  V30 5605 N 502.554 -1.34406 0.822964 0
M  V30 5606 C 503.502 -2.31428 0.233165 0
M  V30 5607 C 504.496 -1.57404 -0.626118 0
M  V30 5608 O 505.702 -1.72402 -0.517453 0
M  V30 5609 H 502.077 -0.749863 0.0566557 0
M  V30 5610 H 504.048 -2.78699 1.06628 0
M  V30 5611 C 502.797 -3.42653 -0.590264 0
M  V30 5612 H 502.12 -3.99753 0.0616129 0
M  V30 5613 H 503.56 -4.12778 -0.969054 0
M  V30 5614 C 502.019 -2.87112 -1.76262 0
M  V30 5615 O 502.549 -2.81995 -2.8608 0
M  V30 5616 N 500.755 -2.43934 -1.57938 0
M  V30 5617 H 500.302 -2.48296 -0.686078 0
M  V30 5618 H 500.26 -2.07123 -2.36532 0
M  V30 5619 N 504.032 -0.577932 -1.46621 0
M  V30 5620 C 504.979 0.158048 -2.30258 0
M  V30 5621 C 505.949 0.888669 -1.40328 0
M  V30 5622 O 507.134 0.880283 -1.6928 0
M  V30 5623 C 504.274 1.16884 -3.24703 0
M  V30 5624 C 503.387 0.442163 -4.29731 0
M  V30 5625 C 502.522 1.44007 -5.11308 0
M  V30 5626 C 501.561 0.69952 -6.0809 0
M  V30 5627 N 500.698 1.64525 -6.82551 0
M  V30 5628 H 505.538 -0.561242 -2.92667 0
M  V30 5629 H 503.075 -0.288591 -1.44241 0
M  V30 5630 H 505.033 1.7677 -3.779 0
M  V30 5631 H 503.663 1.85591 -2.64113 0
M  V30 5632 H 502.715 -0.271632 -3.79429 0
M  V30 5633 H 504.027 -0.136992 -4.98612 0
M  V30 5634 H 503.181 2.11186 -5.68758 0
M  V30 5635 H 501.92 2.05315 -4.42377 0
M  V30 5636 H 500.925 0.0139217 -5.49798 0
M  V30 5637 H 502.15 0.091894 -6.79038 0
M  V30 5638 H 500.096 2.24653 -6.16334 0
M  V30 5639 H 500.013 1.11878 -7.47676 0
M  V30 5640 H 501.281 2.30754 -7.44562 0
M  V30 5641 N 505.51 1.54411 -0.315457 0
M  V30 5642 C 506.457 2.24048 0.554166 0
M  V30 5643 C 507.427 1.2283 1.11812 0
M  V30 5644 O 508.612 1.51491 1.15997 0
M  V30 5645 C 505.752 2.99574 1.71316 0
M  V30 5646 C 504.865 4.15594 1.17922 0
M  V30 5647 C 504 4.78669 2.30324 0
M  V30 5648 C 503.039 5.86807 1.74137 0
M  V30 5649 N 502.176 6.43777 2.8017 0
M  V30 5650 H 507.016 2.97964 -0.0462602 0
M  V30 5651 H 504.553 1.47059 -0.0346009 0
M  V30 5652 H 506.511 3.41604 2.39505 0
M  V30 5653 H 505.141 2.28008 2.285 0
M  V30 5654 H 504.193 3.78404 0.389136 0
M  V30 5655 H 505.505 4.93459 0.728012 0
M  V30 5656 H 504.659 5.23626 3.06433 0
M  V30 5657 H 503.398 4.00168 2.78778 0
M  V30 5658 H 502.403 5.41261 0.965236 0
M  V30 5659 H 503.628 6.67201 1.2657 0
M  V30 5660 H 501.574 5.68153 3.2793 0
M  V30 5661 H 501.491 7.17031 2.39588 0
M  V30 5662 H 502.759 6.9339 3.56132 0
M  V30 5663 N 506.988 0.0434614 1.5754 0
M  V30 5664 C 508.218 -0.640905 1.96408 0
M  V30 5665 C 508.626 -1.65365 0.919297 0
M  V30 5666 O 507.969 -1.83395 -0.105795 0
M  V30 5667 C 508.031 -1.39141 3.31482 0
M  V30 5668 C 507.695 -0.535375 4.53853 0
M  V30 5669 C 508.692 0.195335 5.19533 0
M  V30 5670 C 506.377 -0.468564 5.0011 0
M  V30 5671 C 508.371 0.981377 6.298 0
M  V30 5672 C 506.058 0.321171 6.10255 0
M  V30 5673 C 507.056 1.04484 6.74961 0
M  V30 5674 O 506.744 1.8216 7.8299 0
M  V30 5675 H 506.476 -0.180584 0.651433 0
M  V30 5676 H 509.03 0.103848 2.05137 0
M  V30 5677 H 507.26 -2.18162 3.19284 0
M  V30 5678 H 508.949 -1.96526 3.55151 0
M  V30 5679 H 509.715 0.15314 4.84758 0
M  V30 5680 H 505.594 -1.02142 4.49542 0
M  V30 5681 H 509.138 1.54674 6.80237 0
M  V30 5682 H 505.035 0.365032 6.44467 0
M  V30 5683 H 505.803 1.74289 7.99728 0
M  V30 5684 N 508.466 -1.55915 -0.229846 0
M  V30 5685 C 509.696 -1.82352 -0.971152 0
M  V30 5686 C 510.104 -0.619231 -1.7878 0
M  V30 5687 O 509.447 0.421597 -1.78797 0
M  V30 5688 C 509.509 -3.02399 -1.9441 0
M  V30 5689 C 509.173 -4.37739 -1.31277 0
M  V30 5690 C 510.17 -5.15074 -0.706757 0
M  V30 5691 C 507.855 -4.84454 -1.32702 0
M  V30 5692 C 509.849 -6.37281 -0.123413 0
M  V30 5693 C 507.536 -6.06605 -0.739831 0
M  V30 5694 C 508.534 -6.82858 -0.139071 0
M  V30 5695 O 508.222 -8.027 0.439007 0
M  V30 5696 H 507.954 -0.61035 -0.290601 0
M  V30 5697 H 510.508 -2.03839 -0.252746 0
M  V30 5698 H 508.738 -2.76709 -2.70128 0
M  V30 5699 H 510.427 -3.15779 -2.55026 0
M  V30 5700 H 511.193 -4.80093 -0.688131 0
M  V30 5701 H 507.072 -4.25081 -1.78402 0
M  V30 5702 H 510.616 -6.96741 0.346124 0
M  V30 5703 H 506.513 -6.4106 -0.755841 0
M  V30 5704 H 507.281 -8.17824 0.332521 0
M  V30 5705 N 509.944 0.496216 -1.49584 0
M  V30 5706 C 511.184 1.26015 -1.60933 0
M  V30 5707 C 511.548 1.89772 -0.291646 0
M  V30 5708 O 512.749 2.67334 -0.280357 0
M  V30 5709 C 511.02 2.29506 -2.73974 0
M  V30 5710 S 512.579 3.15175 -3.05303 0
M  V30 5711 H 509.397 0.428194 -0.567601 0
M  V30 5712 H 511.999 0.561484 -1.87263 0
M  V30 5713 H 510.703 1.81205 -3.68229 0
M  V30 5714 H 510.234 3.04036 -2.49651 0
M  V30 5715 H 512.249 4.30244 -2.47193 0
M  V30 5716 N 511.423 1.38739 0.74761 0
M  V30 5717 C 512.7 1.25791 1.49786 0
M  V30 5718 C 513.08 -0.138075 2.10648 0
M  V30 5719 O 512.428 -1.14815 1.9756 0
M  V30 5720 C 512.638 2.37265 2.55942 0
M  V30 5721 C 513.986 2.75978 3.22679 0
M  V30 5722 O 515.01 2.36621 2.6625 0
M  V30 5723 O 513.869 3.43867 4.24756 0
M  V30 5724 H 510.963 0.492251 0.664543 0
M  V30 5725 H 513.509 1.50582 0.782511 0
M  V30 5726 H 512.281 3.30644 2.0926 0
M  V30 5727 H 511.904 2.14071 3.35051 0
M  V30 5728 N 512.901 -0.976442 1.23707 0
M  V30 5729 C 514.129 -1.75341 1.09833 0
M  V30 5730 C 514.544 -1.8553 -0.349885 0
M  V30 5731 O 513.901 -1.33732 -1.24185 0
M  V30 5732 C 513.952 -3.17833 1.72233 0
M  V30 5733 O 513.673 -3.08167 3.11391 0
M  V30 5734 C 515.174 -4.11906 1.63853 0
M  V30 5735 H 512.394 -0.550137 0.384175 0
M  V30 5736 H 514.938 -1.2265 1.63638 0
M  V30 5737 H 513.093 -3.67538 1.22452 0
M  V30 5738 H 513.507 -3.97897 3.41729 0
M  V30 5739 H 514.981 -5.09579 2.12211 0
M  V30 5740 H 515.458 -4.35109 0.598092 0
M  V30 5741 H 516.064 -3.68107 2.13019 0
M  V30 5742 N 514.379 -1.04941 -1.1758 0
M  V30 5743 C 515.326 -0.648155 -2.21512 0
M  V30 5744 C 516.296 0.348431 -1.62404 0
M  V30 5745 O 517.481 0.240419 -1.89279 0
M  V30 5746 C 514.621 -0.0264291 -3.4509 0
M  V30 5747 C 513.734 -1.07154 -4.185 0
M  V30 5748 C 512.869 -0.417403 -5.29558 0
M  V30 5749 C 511.908 -1.447 -5.94751 0
M  V30 5750 N 511.045 -0.817203 -6.97328 0
M  V30 5751 H 515.885 -1.53891 -2.55189 0
M  V30 5752 H 513.422 -0.769699 -1.25356 0
M  V30 5753 H 515.38 0.351456 -4.15717 0
M  V30 5754 H 514.01 0.827802 -3.12005 0
M  V30 5755 H 513.062 -1.56728 -3.46613 0
M  V30 5756 H 514.374 -1.8532 -4.63096 0
M  V30 5757 H 513.528 0.0142061 -6.06698 0
M  V30 5758 H 512.267 0.396265 -4.86087 0
M  V30 5759 H 511.272 -1.88865 -5.16343 0
M  V30 5760 H 512.497 -2.26252 -6.40302 0
M  V30 5761 H 510.443 -0.0239995 -6.55996 0
M  V30 5762 H 510.36 -1.53644 -7.40223 0
M  V30 5763 H 511.628 -0.410283 -7.7842 0
M  V30 5764 N 515.857 1.33968 -0.830081 0
M  V30 5765 C 516.804 2.29387 -0.255008 0
M  V30 5766 C 517.774 1.53923 0.624243 0
M  V30 5767 O 518.959 1.82262 0.564372 0
M  V30 5768 C 516.099 3.4034 0.571209 0
M  V30 5769 C 515.212 4.30729 -0.331083 0
M  V30 5770 C 514.347 5.2879 0.505389 0
M  V30 5771 C 513.386 6.10819 -0.395843 0
M  V30 5772 N 512.523 7.00948 0.401979 0
M  V30 5773 H 517.363 2.77972 -1.07404 0
M  V30 5774 H 514.9 1.36785 -0.541133 0
M  V30 5775 H 516.858 4.03361 1.06562 0
M  V30 5776 H 515.488 2.9297 1.35529 0
M  V30 5777 H 514.54 3.68507 -0.943759 0
M  V30 5778 H 515.852 4.88181 -1.02377 0
M  V30 5779 H 515.006 5.97297 1.06399 0
M  V30 5780 H 513.745 4.71894 1.23155 0
M  V30 5781 H 512.75 5.41238 -0.966529 0
M  V30 5782 H 513.975 6.69797 -1.12023 0
M  V30 5783 H 511.921 6.46512 1.11168 0
M  V30 5784 H 511.838 7.55643 -0.232167 0
M  V30 5785 H 513.106 7.73774 0.943102 0
M  V30 5786 N 517.335 0.585699 1.46312 0
M  V30 5787 C 518.265 -0.133556 2.33118 0
M  V30 5788 C 519.246 -0.880707 1.45525 0
M  V30 5789 O 520.431 -0.855579 1.74337 0
M  V30 5790 C 517.561 -1.14585 3.27853 0
M  V30 5791 C 516.515 -0.513341 4.2491 0
M  V30 5792 C 515.841 -1.63231 5.09175 0
M  V30 5793 C 517.141 0.551413 5.19381 0
M  V30 5794 H 518.835 0.59121 2.93505 0
M  V30 5795 H 516.381 0.285761 1.41136 0
M  V30 5796 H 518.334 -1.65741 3.87438 0
M  V30 5797 H 517.058 -1.90093 2.65579 0
M  V30 5798 H 515.717 -0.0228349 3.66593 0
M  V30 5799 H 515.365 -2.37713 4.43285 0
M  V30 5800 H 515.065 -1.21473 5.74907 0
M  V30 5801 H 516.589 -2.14658 5.71624 0
M  V30 5802 H 518.003 0.124804 5.73164 0
M  V30 5803 H 516.4 0.889486 5.93471 0
M  V30 5804 H 517.47 1.43655 4.63132 0
M  V30 5805 N 518.813 -1.54241 0.323641 0
M  V30 5806 C 519.761 -2.25813 -0.557804 0
M  V30 5807 C 520.755 -1.27225 -1.11849 0
M  V30 5808 O 521.961 -1.45001 -1.06652 0
M  V30 5809 H 518.336 -0.72532 -0.198532 0
M  V30 5810 H 520.307 -2.98322 0.0681112 0
M  V30 5811 C 519.056 -3.02913 -1.70701 0
M  V30 5812 H 518.379 -3.78593 -1.28482 0
M  V30 5813 H 519.819 -3.56238 -2.29935 0
M  V30 5814 C 518.278 -2.11217 -2.62467 0
M  V30 5815 O 518.808 -1.69508 -3.64184 0
M  V30 5816 N 517.014 -1.76704 -2.30703 0
M  V30 5817 H 516.561 -2.1082 -1.48029 0
M  V30 5818 H 516.519 -1.15631 -2.92364 0
M  V30 5819 N 520.291 -0.0518155 -1.57515 0
M  V30 5820 C 521.521 0.63048 -1.96745 0
M  V30 5821 C 521.929 1.64875 -0.928054 0
M  V30 5822 O 521.272 1.83449 0.0960678 0
M  V30 5823 C 521.334 1.37381 -3.32215 0
M  V30 5824 C 520.998 0.511298 -4.54131 0
M  V30 5825 C 521.995 -0.222884 -5.19422 0
M  V30 5826 C 519.68 0.442035 -5.00351 0
M  V30 5827 C 521.674 -1.01476 -6.2927 0
M  V30 5828 C 519.361 -0.35353 -6.10077 0
M  V30 5829 C 520.359 -1.08062 -6.74397 0
M  V30 5830 O 520.047 -1.8631 -7.82013 0
M  V30 5831 H 519.779 0.177126 -0.652382 0
M  V30 5832 H 522.333 -0.114726 -2.05079 0
M  V30 5833 H 520.563 2.16466 -3.20436 0
M  V30 5834 H 522.252 1.9464 -3.56188 0
M  V30 5835 H 523.018 -0.178846 -4.8467 0
M  V30 5836 H 518.897 0.997562 -4.50077 0
M  V30 5837 H 522.441 -1.58279 -6.79407 0
M  V30 5838 H 518.338 -0.399205 -6.44264 0
M  V30 5839 H 519.106 -1.78528 -7.98793 0
M  V30 5840 N 521.769 1.56035 0.221574 0
M  V30 5841 C 523.185 1.49026 0.571271 0
M  V30 5842 C 523.385 0.746912 1.87146 0
M  V30 5843 O 522.441 0.286566 2.50869 0
M  V30 5844 C 523.754 2.93579 0.650522 0
M  V30 5845 C 525.302 3.04099 0.741151 0
M  V30 5846 C 525.777 4.5001 0.851747 0
M  V30 5847 N 527.268 4.54053 0.915968 0
M  V30 5848 C 528.003 5.64232 1.02125 0
M  V30 5849 N 527.499 6.84164 1.09049 0
M  V30 5850 N 529.292 5.52084 1.05639 0
M  V30 5851 H 521.443 2.02791 -0.63162 0
M  V30 5852 H 523.706 0.921736 -0.221602 0
M  V30 5853 H 523.412 3.50912 -0.235253 0
M  V30 5854 H 523.286 3.45476 1.51413 0
M  V30 5855 H 525.673 2.4683 1.61737 0
M  V30 5856 H 525.754 2.55371 -0.148128 0
M  V30 5857 H 525.398 5.07896 -0.0200117 0
M  V30 5858 H 525.328 4.96444 1.75644 0
M  V30 5859 H 527.819 3.67683 0.872782 0
M  V30 5860 H 528.132 7.63883 1.1706 0
M  V30 5861 H 526.477 6.86875 1.05962 0
M  V30 5862 H 529.668 4.57317 0.998953 0
M  V30 5863 H 529.841 6.37983 1.13498 0
M  V30 5864 N 523.247 -0.488276 1.49845 0
M  V30 5865 C 524.494 -1.24157 1.59973 0
M  V30 5866 C 524.822 -1.92293 0.292182 0
M  V30 5867 O 524.077 -1.81942 -0.720813 0
M  V30 5868 C 524.376 -2.32152 2.71735 0
M  V30 5869 C 524.042 -1.81387 4.12807 0
M  V30 5870 C 522.704 -1.67262 4.51195 0
M  V30 5871 C 525.056 -1.43537 5.01045 0
M  V30 5872 C 522.384 -1.13685 5.7558 0
M  V30 5873 C 524.736 -0.914081 6.25961 0
M  V30 5874 C 523.4 -0.759327 6.63167 0
M  V30 5875 H 522.67 -0.454322 0.585383 0
M  V30 5876 H 525.317 -0.540261 1.83721 0
M  V30 5877 H 523.622 -3.08122 2.42008 0
M  V30 5878 H 525.319 -2.90164 2.76778 0
M  V30 5879 H 521.909 -1.93344 3.82513 0
M  V30 5880 H 526.093 -1.53292 4.72033 0
M  V30 5881 H 521.349 -1.00426 6.03096 0
M  V30 5882 H 525.523 -0.612066 6.93705 0
M  V30 5883 H 523.15 -0.342002 7.5943 0
M  V30 5884 N 524.725 -1.39134 -0.740242 0
M  V30 5885 C 526.136 -1.32208 -1.31825 0
M  V30 5886 C 526.487 0.0159919 -1.96193 0
M  V30 5887 O 525.612 0.918111 -1.95958 0
M  V30 5888 C 526.207 -2.39436 -2.39699 0
M  V30 5889 C 524.766 -2.36048 -2.93187 0
M  V30 5890 C 523.913 -2.21599 -1.66701 0
M  V30 5891 H 526.864 -1.49298 -0.538133 0
M  V30 5892 H 526.885 -2.05922 -3.19963 0
M  V30 5893 H 526.397 -3.36811 -1.92821 0
M  V30 5894 H 524.498 -1.42295 -3.44359 0
M  V30 5895 H 524.611 -3.30704 -3.46658 0
M  V30 5896 H 522.975 -1.68681 -1.90837 0
M  V30 5897 H 523.758 -3.20936 -1.21882 0
M  V30 5898 N 526.204 0.969867 -1.24223 0
M  V30 5899 C 527.152 2.08535 -1.03034 0
M  V30 5900 C 528.146 1.69366 0.0340379 0
M  V30 5901 O 529.352 1.79597 -0.12034 0
M  V30 5902 H 525.727 0.682313 -0.316154 0
M  V30 5903 H 527.698 2.23569 -1.97635 0
M  V30 5904 C 526.447 3.4158 -0.649509 0
M  V30 5905 H 525.77 3.72177 -1.46028 0
M  V30 5906 H 527.21 4.20536 -0.540841 0
M  V30 5907 C 525.669 3.30703 0.643194 0
M  V30 5908 O 526.199 3.64443 1.68951 0
M  V30 5909 N 524.405 2.83841 0.623095 0
M  V30 5910 H 523.952 2.56583 -0.228719 0
M  V30 5911 H 523.91 2.76946 1.48823 0
M  V30 5912 N 527.682 1.05563 1.17022 0
M  V30 5913 C 528.931 0.763036 1.8671 0
M  V30 5914 C 529.244 -0.712857 1.82147 0
M  V30 5915 O 530.45 -1.11955 2.47343 0
M  V30 5916 C 528.906 1.31474 3.35026 0
M  V30 5917 C 528.514 2.82034 3.48081 0
M  V30 5918 C 530.258 1.09935 4.10018 0
M  V30 5919 C 528.165 3.30486 4.90442 0
M  V30 5920 H 527.095 0.281747 0.699382 0
M  V30 5921 H 529.746 1.2734 1.32124 0
M  V30 5922 H 528.128 0.732171 3.89173 0
M  V30 5923 H 529.302 3.46178 3.04133 0
M  V30 5924 H 527.617 3.02156 2.86515 0
M  V30 5925 H 530.214 1.43632 5.15048 0
M  V30 5926 H 530.557 0.0373072 4.16283 0
M  V30 5927 H 531.09 1.64732 3.62089 0
M  V30 5928 H 527.829 4.36137 4.89352 0
M  V30 5929 H 527.349 2.71086 5.35044 0
M  V30 5930 H 529.028 3.25382 5.59227 0
M  V30 5931 O 529.199 -1.28981 0.971914 0
M  V30 5932 H 529.89 -1.83759 0.612547 0
M  V30 END ATOM
M  V30 BEGIN BOND
M  V30 END BOND
M  V30 END CTAB
M  END
$$$$
