drugbank_target|Q00653 Nuclear factor NF-kappa-B p100 subunit (DB01296; DB05212; DB05451; DB05464; DB05471; DB05487; DB05767)
 OpenBabel12092120133D

  0  0  0     0  0            999 V3000
M  V30 BEGIN CTAB
M  V30 COUNTS 13517 13665 0 0 0
M  V30 BEGIN ATOM
M  V30 1 H -0.908 1.98254 -0.117106 0
M  V30 2 N 0 1.576 0 0
M  V30 3 C 0.933 2.03868 1.02534 0
M  V30 4 C 1.911 0.928543 1.3348 0
M  V30 5 O 3.095 1.19667 1.45644 0
M  V30 6 C 0.222 2.43627 2.35294 0
M  V30 7 C -0.732 3.65373 2.2001 0
M  V30 8 S 0.101 5.13292 1.52614 0
M  V30 9 C 1.257 5.56322 2.86805 0
M  V30 10 H 1.49 2.90518 0.631377 0
M  V30 11 H -0.977 1.52953 0.210867 0
M  V30 12 H 0.981 2.67203 3.11629 0
M  V30 13 H -0.358 1.57376 2.7183 0
M  V30 14 H -1.165 3.90944 3.18086 0
M  V30 15 H -1.563 3.418 1.51819 0
M  V30 16 H 0.729 5.58782 3.83104 0
M  V30 17 H 1.672 6.56266 2.65933 0
M  V30 18 H 2.08 4.83886 2.90714 0
M  V30 19 N 1.4781 -0.272755 1.55222 0
M  V30 20 C 2.3881 -1.35918 1.91216 0
M  V30 21 C 3.4041 -1.54026 0.809436 0
M  V30 22 O 4.5801 -1.68148 1.10852 0
M  V30 23 C 1.6451 -2.69834 2.17693 0
M  V30 24 C 0.7061 -2.6047 3.41253 0
M  V30 25 C -0.0609 -3.88 3.66458 0
M  V30 26 O 0.1621 -4.88693 2.94169 0
M  V30 27 O -0.9039 -3.88189 4.59992 0
M  V30 28 H 2.9221 -1.0839 2.83699 0
M  V30 29 H 0.5071 -0.471301 1.41771 0
M  V30 30 H 2.3891 -3.49017 2.36147 0
M  V30 31 H 1.0641 -2.97148 1.28392 0
M  V30 32 H -0.0289 -1.79663 3.28134 0
M  V30 33 H 1.3041 -2.38106 4.30774 0
M  V30 34 N 2.9562 -1.48159 -0.537278 0
M  V30 35 C 4.1812 -1.59707 -1.32319 0
M  V30 36 C 4.6062 -0.254859 -1.86365 0
M  V30 37 O 3.9642 0.772378 -1.64024 0
M  V30 38 C 4.0122 -2.6412 -2.45505 0
M  V30 39 O 3.1162 -2.20774 -3.48328 0
M  V30 40 H 2.4572 -0.535791 -0.392204 0
M  V30 41 H 4.9872 -1.94092 -0.647268 0
M  V30 42 H 4.9972 -2.85166 -2.91795 0
M  V30 43 H 3.6722 -3.61567 -2.05528 0
M  V30 44 H 2.2492 -2.09911 -3.08207 0
M  V30 45 N 4.4343 0.785586 -1.36625 0
M  V30 46 C 5.6743 1.55678 -1.32453 0
M  V30 47 C 6.0383 1.91769 0.0941089 0
M  V30 48 O 7.2393 2.67536 0.26042 0
M  V30 49 C 5.5103 2.79701 -2.22491 0
M  V30 50 S 7.0693 3.69907 -2.36038 0
M  V30 51 H 3.8873 0.533141 -0.470405 0
M  V30 52 H 6.4893 0.924953 -1.72235 0
M  V30 53 H 5.1933 2.51244 -3.24507 0
M  V30 54 H 4.7243 3.47854 -1.83742 0
M  V30 55 H 6.7393 4.71016 -1.56072 0
M  V30 56 N 5.9124 1.20967 1.01018 0
M  V30 57 C 7.1424 1.04803 1.78044 0
M  V30 58 C 7.5504 -0.405462 1.84804 0
M  V30 59 O 6.8934 -1.2932 1.30468 0
M  V30 60 C 6.9554 1.56377 3.23707 0
M  V30 61 C 6.6194 3.04767 3.40538 0
M  V30 62 C 7.6164 4.02366 3.29239 0
M  V30 63 C 5.3014 3.43862 3.66147 0
M  V30 64 C 7.2954 5.37049 3.43304 0
M  V30 65 C 4.9824 4.78699 3.79855 0
M  V30 66 C 5.9804 5.75101 3.68439 0
M  V30 67 O 5.6684 7.07493 3.81719 0
M  V30 68 H 5.4004 0.368778 0.56655 0
M  V30 69 H 7.9544 1.60642 1.27997 0
M  V30 70 H 6.1844 0.949297 3.74867 0
M  V30 71 H 7.8734 1.36136 3.8239 0
M  V30 72 H 8.6394 3.73506 3.09384 0
M  V30 73 H 4.5184 2.69364 3.74118 0
M  V30 74 H 8.0624 6.12277 3.34309 0
M  V30 75 H 3.9594 5.07247 3.99213 0
M  V30 76 H 4.7274 7.1483 3.98697 0
M  V30 77 N 7.3905 -1.2043 1.01659 0
M  V30 78 C 8.3385 -2.25249 0.580143 0
M  V30 79 C 9.3325 -1.65057 -0.381115 0
M  V30 80 O 10.5385 -1.78241 -0.251039 0
M  V30 81 H 6.9135 -0.732695 0.169299 0
M  V30 82 H 8.8845 -2.59389 1.47512 0
M  V30 83 C 7.6335 -3.47638 -0.065788 0
M  V30 84 H 6.9565 -3.94233 0.664874 0
M  V30 85 H 8.3965 -4.2268 -0.334282 0
M  V30 86 C 6.8555 -3.10447 -1.3086 0
M  V30 87 O 7.3855 -3.21981 -2.4019 0
M  V30 88 N 5.5915 -2.64996 -1.1927 0
M  V30 89 H 5.1385 -2.55811 -0.303064 0
M  V30 90 H 5.0965 -2.40482 -2.02523 0
M  V30 91 N 8.8686 -0.792821 -1.36206 0
M  V30 92 C 10.2796 -0.429513 -1.81692 0
M  V30 93 C 10.6306 1.04695 -1.65932 0
M  V30 94 O 9.7556 1.81256 -1.18218 0
M  V30 95 C 10.3506 -0.772831 -3.29868 0
M  V30 96 C 8.9096 -0.462307 -3.7355 0
M  V30 97 C 8.0566 -1.00569 -2.5842 0
M  V30 98 H 11.0076 -0.985672 -1.24379 0
M  V30 99 H 11.0286 -0.0651928 -3.80444 0
M  V30 100 H 10.5406 -1.84747 -3.41307 0
M  V30 101 H 8.6416 0.604158 -3.67669 0
M  V30 102 H 8.7546 -0.985299 -4.68859 0
M  V30 103 H 7.1186 -0.428734 -2.51066 0
M  V30 104 H 7.9016 -2.08616 -2.72643 0
M  V30 105 N 10.3467 1.47872 -0.545128 0
M  V30 106 C 11.5947 2.02093 -0.016553 0
M  V30 107 C 11.9157 1.42305 1.3332 0
M  V30 108 O 11.1857 0.593853 1.86682 0
M  V30 109 H 9.7657 0.746993 -0.00313038 0
M  V30 110 H 12.4277 1.81414 -0.712397 0
M  V30 111 H 11.5237 3.11996 0.0805422 0
M  V30 112 N 11.8248 0.280983 1.55075 0
M  V30 113 C 12.7548 -0.597469 2.25727 0
M  V30 114 C 13.7358 -1.15417 1.24952 0
M  V30 115 O 14.9208 -1.18722 1.53684 0
M  V30 116 C 12.0508 -1.7789 2.98283 0
M  V30 117 C 11.0048 -1.35347 4.06036 0
M  V30 118 C 10.3308 -2.61846 4.66198 0
M  V30 119 C 11.6308 -0.499354 5.19907 0
M  V30 120 H 13.3248 -0.00824265 2.99399 0
M  V30 121 H 10.8708 -0.0025244 1.44 0
M  V30 122 H 12.8238 -2.39937 3.46422 0
M  V30 123 H 11.5478 -2.39405 2.22155 0
M  V30 124 H 10.2068 -0.756156 3.58717 0
M  V30 125 H 9.8548 -3.21632 3.86732 0
M  V30 126 H 9.5548 -2.3409 5.38958 0
M  V30 127 H 11.0788 -3.24732 5.1709 0
M  V30 128 H 12.4928 -1.02498 5.64063 0
M  V30 129 H 10.8898 -0.316424 5.99265 0
M  V30 130 H 11.9598 0.480459 4.82514 0
M  V30 131 N 13.3029 -1.57598 0.00835791 0
M  V30 132 C 14.5799 -1.82172 -0.712235 0
M  V30 133 C 14.9599 -0.887873 -1.9152 0
M  V30 134 O 14.3079 0.06146 -2.28417 0
M  V30 135 C 14.5179 -3.30875 -1.11008 0
M  V30 136 C 15.8659 -3.96826 -1.51044 0
M  V30 137 O 16.8899 -3.35248 -1.20364 0
M  V30 138 O 15.7489 -5.05318 -2.08125 0
M  V30 139 H 12.8429 -0.750435 -0.347529 0
M  V30 140 H 15.3889 -1.69665 0.0344523 0
M  V30 141 H 14.1609 -3.90481 -0.252982 0
M  V30 142 H 13.7839 -3.48412 -1.9156 0
M  V30 143 N 14.781 0.264519 -1.55364 0
M  V30 144 C 16.029 0.993021 -1.76021 0
M  V30 145 C 16.35 1.86511 -0.569099 0
M  V30 146 O 15.62 1.91438 0.415735 0
M  V30 147 H 14.2 0.369639 -0.649135 0
M  V30 148 H 16.862 0.286707 -1.9278 0
M  V30 149 H 15.958 1.62502 -2.66457 0
M  V30 150 N 16.2591 1.48442 0.529413 0
M  V30 151 C 17.5081 1.55742 1.28169 0
M  V30 152 C 17.8211 0.236511 1.94165 0
M  V30 153 O 19.0271 0.187761 2.7085 0
M  V30 154 C 17.4831 2.74667 2.32564 0
M  V30 155 C 17.0911 4.13402 1.72636 0
M  V30 156 C 18.8351 2.9128 3.08798 0
M  V30 157 C 16.7421 5.23587 2.74975 0
M  V30 158 H 15.6721 0.579796 0.48203 0
M  V30 159 H 18.3231 1.74776 0.559056 0
M  V30 160 H 16.7051 2.49067 3.07866 0
M  V30 161 H 17.8791 4.49022 1.03519 0
M  V30 162 H 16.1941 4.0191 1.08892 0
M  V30 163 H 18.7911 3.70767 3.85274 0
M  V30 164 H 19.1341 2.00757 3.64695 0
M  V30 165 H 19.6671 3.16782 2.40611 0
M  V30 166 H 16.4061 6.16076 2.23897 0
M  V30 167 H 15.9261 4.92454 3.42417 0
M  V30 168 H 17.6051 5.51724 3.37949 0
M  V30 169 N 17.7372 -0.778329 1.37039 0
M  V30 170 C 18.9862 -1.53189 1.3121 0
M  V30 171 C 19.2992 -1.95328 -0.103095 0
M  V30 172 O 20.5052 -2.70012 -0.283826 0
M  V30 173 C 18.9612 -2.76591 2.30272 0
M  V30 174 C 18.5692 -2.41577 3.77286 0
M  V30 175 C 20.3132 -3.5455 2.33441 0
M  V30 176 C 18.2202 -3.61441 4.68096 0
M  V30 177 H 17.1502 -0.5751 0.487622 0
M  V30 178 H 19.8012 -0.853101 1.62464 0
M  V30 179 H 18.1832 -3.46326 1.92027 0
M  V30 180 H 19.3572 -1.79668 4.2433 0
M  V30 181 H 17.6722 -1.76806 3.76999 0
M  V30 182 H 20.2692 -4.43628 2.98493 0
M  V30 183 H 20.6122 -3.93936 1.34611 0
M  V30 184 H 21.1452 -2.91805 2.7036 0
M  V30 185 H 17.8842 -3.27142 5.6803 0
M  V30 186 H 17.4042 -4.22478 4.25761 0
M  V30 187 H 19.0832 -4.28335 4.8491 0
M  V30 188 N 19.2153 -1.21501 -1.00376 0
M  V30 189 C 20.1253 -0.991447 -2.12621 0
M  V30 190 C 21.1413 0.0568446 -1.73907 0
M  V30 191 O 22.3173 -0.13348 -2.00957 0
M  V30 192 C 19.3823 -0.560312 -3.42142 0
M  V30 193 C 18.4433 -1.68096 -3.95022 0
M  V30 194 C 17.6763 -1.2703 -5.18362 0
M  V30 195 O 17.8993 -0.144438 -5.70217 0
M  V30 196 O 16.8333 -2.08269 -5.64719 0
M  V30 197 H 20.6593 -1.93158 -2.34358 0
M  V30 198 H 18.2443 -0.999999 -1.10997 0
M  V30 199 H 20.1263 -0.329724 -4.20108 0
M  V30 200 H 18.8013 0.351089 -3.2179 0
M  V30 201 H 17.7083 -1.96597 -3.18278 0
M  V30 202 H 19.0413 -2.56983 -4.19786 0
M  V30 203 N 20.6934 1.19889 -1.02296 0
M  V30 204 C 21.9234 1.93109 -0.734332 0
M  V30 205 C 22.3314 1.75377 0.709889 0
M  V30 206 O 21.6744 1.06912 1.49384 0
M  V30 207 C 21.7364 3.45362 -0.99827 0
M  V30 208 C 21.4004 3.8686 -2.43287 0
M  V30 209 C 22.3974 3.92102 -3.41397 0
M  V30 210 C 20.0824 4.18668 -2.77529 0
M  V30 211 C 22.0764 4.28573 -4.71809 0
M  V30 212 C 19.7634 4.54813 -4.08153 0
M  V30 213 C 20.7614 4.59739 -5.05103 0
M  V30 214 O 20.4494 4.95051 -6.33388 0
M  V30 215 H 20.1814 0.620409 -0.268456 0
M  V30 216 H 22.7354 1.53144 -1.3688 0
M  V30 217 H 20.9654 3.85482 -0.306645 0
M  V30 218 H 22.6544 3.99814 -0.700234 0
M  V30 219 H 23.4204 3.67685 -3.1628 0
M  V30 220 H 19.2994 4.14021 -2.0275 0
M  V30 221 H 22.8434 4.32333 -5.4748 0
M  V30 222 H 18.7404 4.78687 -4.33047 0
M  V30 223 H 19.5084 5.1302 -6.37772 0
M  V30 224 N 22.1715 0.800033 1.35784 0
M  V30 225 C 23.4485 0.30088 1.93272 0
M  V30 226 C 23.8285 -1.20857 1.73081 0
M  V30 227 O 23.1765 -2.00502 1.09596 0
M  V30 228 C 23.3865 0.70511 3.41803 0
M  V30 229 C 24.7345 0.690871 4.18942 0
M  V30 230 O 25.7585 0.646244 3.50289 0
M  V30 231 O 24.6175 0.74332 5.41421 0
M  V30 232 H 21.7115 0.0771605 0.823393 0
M  V30 233 H 24.2575 0.88329 1.449 0
M  V30 234 H 23.0295 1.74571 3.50201 0
M  V30 235 H 22.6525 0.0971541 3.97481 0
M  V30 236 N 23.6496 -1.47581 0.552962 0
M  V30 237 C 24.9266 -1.95563 -0.0381515 0
M  V30 238 C 25.3066 -1.49552 -1.48988 0
M  V30 239 O 24.6546 -0.732414 -2.16444 0
M  V30 240 C 24.8646 -3.48848 0.102919 0
M  V30 241 C 26.2126 -4.24577 -0.0446082 0
M  V30 242 O 27.2366 -3.56187 0.0302548 0
M  V30 243 O 26.0956 -5.46116 -0.204923 0
M  V30 244 H 23.1896 -0.824321 -0.0665067 0
M  V30 245 H 25.7356 -1.58001 0.619186 0
M  V30 246 H 24.5076 -3.75129 1.11328 0
M  V30 247 H 24.1306 -3.93165 -0.592224 0
M  V30 248 N 25.1277 -0.289203 -1.54924 0
M  V30 249 C 26.3747 0.323519 -1.99899 0
M  V30 250 C 26.7027 1.54797 -1.17762 0
M  V30 251 O 25.9577 1.94237 -0.238835 0
M  V30 252 C 26.2567 0.736119 -3.49737 0
M  V30 253 C 25.9227 -0.385276 -4.49251 0
M  V30 254 C 24.5847 -0.693156 -4.76181 0
M  V30 255 C 26.9367 -1.14021 -5.08575 0
M  V30 256 C 24.2647 -1.7593 -5.59701 0
M  V30 257 C 26.6167 -2.19619 -5.93254 0
M  V30 258 C 25.2807 -2.51026 -6.185 0
M  V30 259 H 24.5507 0.118384 -0.731482 0
M  V30 260 H 27.1977 -0.405847 -1.8715 0
M  V30 261 H 25.5027 1.54539 -3.60035 0
M  V30 262 H 27.1997 1.22118 -3.81953 0
M  V30 263 H 23.7897 -0.135202 -4.28387 0
M  V30 264 H 27.9737 -0.915611 -4.87781 0
M  V30 265 H 23.2297 -2.0075 -5.77503 0
M  V30 266 H 27.4037 -2.78581 -6.38252 0
M  V30 267 H 25.0307 -3.33772 -6.83008 0
M  V30 268 N 26.6058 1.57591 -0.0167156 0
M  V30 269 C 27.5528 2.09462 0.969251 0
M  V30 270 C 28.5228 0.99381 1.33089 0
M  V30 271 O 29.7078 1.26726 1.42636 0
M  V30 272 C 26.8478 2.61622 2.25051 0
M  V30 273 C 25.9608 3.85666 1.94642 0
M  V30 274 C 25.0958 4.26266 3.16972 0
M  V30 275 C 24.1348 5.43101 2.82326 0
M  V30 276 N 23.2718 5.78915 3.97243 0
M  V30 277 H 28.1118 2.93428 0.519997 0
M  V30 278 H 25.6488 1.45044 0.245087 0
M  V30 279 H 27.6068 2.89949 2.99976 0
M  V30 280 H 26.2368 1.80505 2.67615 0
M  V30 281 H 25.2888 3.64145 1.10013 0
M  V30 282 H 26.6008 4.70678 1.65117 0
M  V30 283 H 25.7548 4.55963 4.00228 0
M  V30 284 H 24.4938 3.39996 3.49648 0
M  V30 285 H 23.4988 5.1311 1.97479 0
M  V30 286 H 24.7238 6.3106 2.50879 0
M  V30 287 H 22.6698 4.95602 4.29785 0
M  V30 288 H 22.5868 6.58539 3.71299 0
M  V30 289 H 23.8548 6.13212 4.81239 0
M  V30 290 N 28.0839 -0.256276 1.55502 0
M  V30 291 C 29.0139 -1.32102 1.92539 0
M  V30 292 C 29.9949 -1.50684 0.789194 0
M  V30 293 O 31.1799 -1.63449 1.04872 0
M  V30 294 C 28.3099 -2.67752 2.21192 0
M  V30 295 C 27.2639 -2.63878 3.36975 0
M  V30 296 C 26.5899 -4.03236 3.51147 0
M  V30 297 C 27.8899 -2.21682 4.72921 0
M  V30 298 H 29.5839 -1.01351 2.81724 0
M  V30 299 H 27.1299 -0.486105 1.35547 0
M  V30 300 H 29.0829 -3.42365 2.45691 0
M  V30 301 H 27.8069 -3.0012 1.28824 0
M  V30 302 H 26.4659 -1.91722 3.12471 0
M  V30 303 H 26.1139 -4.32854 2.56216 0
M  V30 304 H 25.8139 -4.01535 4.29003 0
M  V30 305 H 27.3379 -4.79563 3.77957 0
M  V30 306 H 28.7519 -2.86023 4.96854 0
M  V30 307 H 27.1489 -2.3111 5.53812 0
M  V30 308 H 28.2189 -1.16833 4.70615 0
M  V30 309 N 29.562 -1.4872 -0.521534 0
M  V30 310 C 30.51 -1.64328 -1.64618 0
M  V30 311 C 31.504 -0.50953 -1.61555 0
M  V30 312 O 32.71 -0.688525 -1.66311 0
M  V30 313 H 29.085 -0.517805 -0.545328 0
M  V30 314 H 31.056 -2.58767 -1.48601 0
M  V30 315 C 29.805 -1.70805 -3.02855 0
M  V30 316 H 29.128 -2.5741 -3.05909 0
M  V30 317 H 30.568 -1.85766 -3.81139 0
M  V30 318 C 29.027 -0.448479 -3.33902 0
M  V30 319 O 29.557 0.434928 -3.99339 0
M  V30 320 N 27.763 -0.317616 -2.88859 0
M  V30 321 H 27.31 -1.03748 -2.35784 0
M  V30 322 H 27.268 0.524113 -3.10001 0
M  V30 323 N 31.0401 0.771051 -1.3745 0
M  V30 324 C 32.2651 1.56529 -1.36065 0
M  V30 325 C 32.6901 1.88029 0.0515859 0
M  V30 326 O 32.0481 1.49282 1.02882 0
M  V30 327 C 32.0961 2.85187 -2.20683 0
M  V30 328 O 31.2001 3.79593 -1.61193 0
M  V30 329 H 30.5411 0.47411 -0.464883 0
M  V30 330 H 33.0711 0.954269 -1.80983 0
M  V30 331 H 33.0811 3.34283 -2.33921 0
M  V30 332 H 31.7561 2.61588 -3.23334 0
M  V30 333 H 30.3331 3.38239 -1.56999 0
M  V30 334 N 32.5182 1.22032 0.997298 0
M  V30 335 C 33.7432 1.06921 1.77715 0
M  V30 336 C 34.1682 -0.376226 1.84299 0
M  V30 337 O 33.5262 -1.27165 1.29223 0
M  V30 338 C 33.5742 1.67996 3.19076 0
M  V30 339 O 32.6782 0.930653 4.01762 0
M  V30 340 H 32.0192 0.375814 0.547412 0
M  V30 341 H 34.5492 1.61737 1.25309 0
M  V30 342 H 34.5592 1.72538 3.69723 0
M  V30 343 H 33.2342 2.73182 3.13599 0
M  V30 344 H 31.8112 0.960917 3.60307 0
M  V30 345 N 33.9963 -1.19345 1.0293 0
M  V30 346 C 35.2453 -1.88363 0.721256 0
M  V30 347 C 35.5583 -1.80514 -0.753254 0
M  V30 348 O 36.7643 -2.44788 -1.17436 0
M  V30 349 C 35.2203 -3.37872 1.23978 0
M  V30 350 C 34.8283 -3.54278 2.74211 0
M  V30 351 C 36.5723 -4.12365 1.00775 0
M  V30 352 C 34.4793 -4.97682 3.19479 0
M  V30 353 H 33.4093 -0.705484 0.266098 0
M  V30 354 H 36.0603 -1.34928 1.24365 0
M  V30 355 H 34.4423 -3.90707 0.6453 0
M  V30 356 H 35.6163 -3.11769 3.39318 0
M  V30 357 H 33.9313 -2.93174 2.95699 0
M  V30 358 H 36.5283 -5.18119 1.32123 0
M  V30 359 H 36.8713 -4.16263 -0.0554308 0
M  V30 360 H 37.4043 -3.65668 1.56625 0
M  V30 361 H 34.1433 -4.98945 4.25128 0
M  V30 362 H 33.6633 -5.4095 2.591 0
M  V30 363 H 35.3423 -5.66337 3.12845 0
M  V30 364 N 35.4744 -0.807222 -1.35358 0
M  V30 365 C 36.7204 -0.388463 -1.99045 0
M  V30 366 C 37.0534 1.04184 -1.63888 0
M  V30 367 O 36.3284 1.72292 -0.902535 0
M  V30 368 C 36.6114 -0.572783 -3.55515 0
M  V30 369 C 36.4644 -2.04807 -4.00468 0
M  V30 370 C 37.7834 0.00114064 -4.401 0
M  V30 371 H 34.9024 -0.142619 -0.723069 0
M  V30 372 H 37.5444 -1.01687 -1.60498 0
M  V30 373 H 35.6944 -0.0378425 -3.88482 0
M  V30 374 H 37.3664 -2.64544 -3.77908 0
M  V30 375 H 35.6094 -2.54427 -3.51353 0
M  V30 376 H 36.2804 -2.12792 -5.09337 0
M  V30 377 H 38.7564 -0.455716 -4.13597 0
M  V30 378 H 37.6324 -0.157737 -5.48673 0
M  V30 379 H 37.8934 1.09488 -4.28328 0
M  V30 380 N 36.9525 1.47285 -0.560781 0
M  V30 381 C 37.8625 2.33846 0.187954 0
M  V30 382 C 38.8785 1.48412 0.908293 0
M  V30 383 O 40.0545 1.81332 0.876388 0
M  V30 384 C 37.1195 3.25178 1.2025 0
M  V30 385 C 36.1805 4.26504 0.489208 0
M  V30 386 C 35.4135 5.13472 1.45542 0
M  V30 387 O 35.6365 5.02959 2.6905 0
M  V30 388 O 34.5705 5.93902 0.977963 0
M  V30 389 H 38.3965 2.99177 -0.522177 0
M  V30 390 H 35.9815 1.45903 -0.321364 0
M  V30 391 H 37.8635 3.81584 1.78805 0
M  V30 392 H 36.5385 2.6247 1.89449 0
M  V30 393 H 35.4455 3.73847 -0.137627 0
M  V30 394 H 36.7785 4.91935 -0.161399 0
M  V30 395 N 38.4306 0.297415 1.54768 0
M  V30 396 C 39.8416 -0.195947 1.85669 0
M  V30 397 C 40.1926 -1.53707 1.21937 0
M  V30 398 O 39.3176 -2.10164 0.515754 0
M  V30 399 C 39.9126 -0.362318 3.36857 0
M  V30 400 C 38.4716 -0.799901 3.67802 0
M  V30 401 C 37.6186 0.0938578 2.77141 0
M  V30 402 H 40.5696 0.518538 1.4999 0
M  V30 403 H 40.5906 -1.19745 3.61167 0
M  V30 404 H 40.1026 0.613921 3.83214 0
M  V30 405 H 38.2036 -1.78682 3.26961 0
M  V30 406 H 38.3166 -0.621773 4.75048 0
M  V30 407 H 36.6806 -0.426254 2.51108 0
M  V30 408 H 37.4636 1.06639 3.26318 0
M  V30 409 N 39.9087 -1.5758 0.0250728 0
M  V30 410 C 40.8557 -2.09973 -0.958129 0
M  V30 411 C 41.8257 -1.00085 -1.3256 0
M  V30 412 O 43.0107 -1.27481 -1.41962 0
M  V30 413 C 40.1507 -2.62812 -2.2366 0
M  V30 414 C 39.2637 -3.86693 -1.92594 0
M  V30 415 C 38.3987 -4.27941 -3.14707 0
M  V30 416 C 37.4377 -5.44591 -2.79442 0
M  V30 417 N 36.5747 -5.81014 -3.94167 0
M  V30 418 H 41.4147 -2.937 -0.504428 0
M  V30 419 H 38.9517 -1.45172 -0.237392 0
M  V30 420 H 40.9097 -2.91536 -2.98434 0
M  V30 421 H 39.5397 -1.81922 -2.66654 0
M  V30 422 H 38.5917 -3.64723 -1.0808 0
M  V30 423 H 39.9037 -4.71547 -1.62619 0
M  V30 424 H 39.0577 -4.58079 -3.97804 0
M  V30 425 H 37.7967 -3.41845 -3.4784 0
M  V30 426 H 36.8017 -5.1415 -1.94755 0
M  V30 427 H 38.0267 -6.32382 -2.47528 0
M  V30 428 H 35.9727 -4.97874 -4.2715 0
M  V30 429 H 35.8897 -6.60498 -3.67801 0
M  V30 430 H 37.1577 -6.15756 -4.7798 0
M  V30 431 N 41.3868 0.248026 -1.55636 0
M  V30 432 C 42.2968 1.32859 -1.93354 0
M  V30 433 C 43.3128 1.52719 -0.833838 0
M  V30 434 O 44.4888 1.66363 -1.13513 0
M  V30 435 C 41.5538 2.66337 -2.21958 0
M  V30 436 C 40.6148 2.55008 -3.45354 0
M  V30 437 C 39.8478 3.82121 -3.72584 0
M  V30 438 O 40.0708 4.83951 -3.01907 0
M  V30 439 O 39.0048 3.80822 -4.6611 0
M  V30 440 H 42.8308 1.03862 -2.85388 0
M  V30 441 H 40.4158 0.448686 -1.42503 0
M  V30 442 H 42.2978 3.45216 -2.4167 0
M  V30 443 H 40.9728 2.95068 -1.33103 0
M  V30 444 H 39.8798 1.7442 -3.30951 0
M  V30 445 H 41.2128 2.31222 -4.34508 0
M  V30 446 N 42.8649 1.48995 0.513639 0
M  V30 447 C 44.2759 1.5119 1.09537 0
M  V30 448 C 44.6269 0.290906 1.94031 0
M  V30 449 O 43.7519 -0.60049 2.07902 0
M  V30 450 C 44.3469 2.73964 1.99322 0
M  V30 451 C 42.9059 2.78978 2.52682 0
M  V30 452 C 42.0529 2.44934 1.30009 0
M  V30 453 H 45.0039 1.55875 0.298125 0
M  V30 454 H 45.0249 2.53409 2.83838 0
M  V30 455 H 44.5369 3.62813 1.37799 0
M  V30 456 H 42.6379 1.94378 3.1788 0
M  V30 457 H 42.7509 3.8083 2.90698 0
M  V30 458 H 41.1149 1.9644 1.62122 0
M  V30 459 H 41.8979 3.36043 0.702131 0
M  V30 460 N 44.343 -0.763751 1.37857 0
M  V30 461 C 45.306 -1.85889 1.34081 0
M  V30 462 C 46.306 -1.58949 0.243277 0
M  V30 463 O 47.496 -1.66882 0.499589 0
M  V30 464 C 44.628 -3.23176 1.08489 0
M  V30 465 H 45.821 -1.90648 2.31502 0
M  V30 466 H 43.374 -0.964367 1.23003 0
M  V30 467 H 44.109 -3.24091 0.116318 0
M  V30 468 H 43.894 -3.44124 1.8794 0
M  V30 469 H 45.384 -4.03254 1.08517 0
M  V30 470 N 45.8211 -1.22559 -0.990812 0
M  V30 471 C 47.2321 -1.04791 -1.54518 0
M  V30 472 C 47.5831 0.387998 -1.92325 0
M  V30 473 O 46.7081 1.27328 -1.74976 0
M  V30 474 C 47.3031 -1.896 -2.80779 0
M  V30 475 C 45.8621 -1.76124 -3.32652 0
M  V30 476 C 45.0091 -1.8594 -2.05722 0
M  V30 477 H 47.9601 -1.36374 -0.811662 0
M  V30 478 H 47.9811 -1.41464 -3.53225 0
M  V30 479 H 47.4931 -2.94101 -2.53231 0
M  V30 480 H 45.5941 -0.743643 -3.65104 0
M  V30 481 H 45.7071 -2.58913 -4.03114 0
M  V30 482 H 44.0711 -1.29403 -2.19379 0
M  V30 483 H 44.8541 -2.91976 -1.80568 0
M  V30 484 N 47.2992 1.18797 -1.03562 0
M  V30 485 C 48.2092 2.25913 -0.632505 0
M  V30 486 C 49.2252 1.70668 0.338882 0
M  V30 487 O 50.4012 2.00453 0.195076 0
M  V30 488 C 47.4662 3.467 0.00350942 0
M  V30 489 C 46.5272 4.17098 -1.01624 0
M  V30 490 C 45.7602 5.32119 -0.410478 0
M  V30 491 O 45.9832 5.64976 0.784725 0
M  V30 492 O 44.9172 5.9107 -1.13667 0
M  V30 493 H 48.7432 2.62648 -1.52478 0
M  V30 494 H 46.3282 1.25781 -0.806195 0
M  V30 495 H 48.2102 4.19878 0.35781 0
M  V30 496 H 46.8852 3.11798 0.869686 0
M  V30 497 H 45.7922 3.4601 -1.42224 0
M  V30 498 H 47.1252 4.55987 -1.85301 0
M  V30 499 N 48.7773 0.814389 1.34928 0
M  V30 500 C 50.0053 0.411136 2.02774 0
M  V30 501 C 50.4203 -0.980316 1.61354 0
M  V30 502 O 49.7773 -1.63299 0.814847 0
M  V30 503 C 49.8283 0.493865 3.58111 0
M  V30 504 O 49.5493 1.83047 3.98027 0
M  V30 505 C 51.0503 0.0844174 4.4322 0
M  V30 506 H 48.2703 0.166037 0.650133 0
M  V30 507 H 50.8143 1.10018 1.72384 0
M  V30 508 H 48.9693 -0.147006 3.87121 0
M  V30 509 H 49.3833 1.79872 4.92693 0
M  V30 510 H 50.8573 0.193404 5.51661 0
M  V30 511 H 51.3343 -0.97113 4.28329 0
M  V30 512 H 51.9403 0.69875 4.19521 0
M  V30 513 N 50.2554 -1.46986 0.568584 0
M  V30 514 C 51.2184 -2.28624 -0.162366 0
M  V30 515 C 52.2184 -1.37596 -0.832103 0
M  V30 516 O 53.4084 -1.60115 -0.68622 0
M  V30 517 C 50.5404 -3.17596 -1.23878 0
M  V30 518 H 51.7334 -2.94722 0.554899 0
M  V30 519 H 49.2864 -1.52863 0.325976 0
M  V30 520 H 50.0214 -2.56214 -1.98808 0
M  V30 521 H 49.8064 -3.846 -0.763219 0
M  V30 522 H 51.2964 -3.79078 -1.75185 0
M  V30 523 N 51.7335 -0.305618 -1.54608 0
M  V30 524 C 53.0105 0.355652 -1.92339 0
M  V30 525 C 53.3905 1.71324 -1.23335 0
M  V30 526 O 52.7385 2.25473 -0.370702 0
M  V30 527 C 52.9485 0.46572 -3.45879 0
M  V30 528 C 54.2965 0.734426 -4.182 0
M  V30 529 O 55.3205 0.54935 -3.51938 0
M  V30 530 O 54.1795 1.09024 -5.35515 0
M  V30 531 H 51.2735 0.199666 -0.802535 0
M  V30 532 H 53.8195 -0.354017 -1.65966 0
M  V30 533 H 52.5915 -0.488461 -3.88239 0
M  V30 534 H 52.2145 1.22367 -3.78301 0
M  V30 535 N 53.2116 1.57565 -0.0334293 0
M  V30 536 C 54.4596 1.91598 0.642999 0
M  V30 537 C 54.7806 0.910847 1.7242 0
M  V30 538 O 54.0506 -0.0469931 1.95844 0
M  V30 539 H 52.6306 0.707228 0.240496 0
M  V30 540 H 55.2926 1.94726 -0.0822488 0
M  V30 541 H 54.3886 2.92336 1.09298 0
M  V30 542 N 54.6897 -0.239769 1.55765 0
M  V30 543 C 56.1007 -0.808263 1.68297 0
M  V30 544 C 56.4517 -1.85736 0.632181 0
M  V30 545 O 55.5767 -2.15277 -0.220204 0
M  V30 546 C 56.1717 -1.47284 3.05111 0
M  V30 547 C 54.7307 -1.98895 3.19559 0
M  V30 548 C 53.8777 -0.842575 2.64189 0
M  V30 549 H 56.8287 -0.0154422 1.58692 0
M  V30 550 H 56.8497 -2.34111 2.99954 0
M  V30 551 H 56.3617 -0.709053 3.81568 0
M  V30 552 H 54.4627 -2.78132 2.47938 0
M  V30 553 H 54.5757 -2.18143 4.26556 0
M  V30 554 H 52.9397 -1.24501 2.22197 0
M  V30 555 H 53.7227 -0.0917552 3.43177 0
M  V30 556 N 56.1678 -1.49265 -0.50573 0
M  V30 557 C 57.3978 -1.61979 -1.28243 0
M  V30 558 C 57.8058 -0.288576 -1.86986 0
M  V30 559 O 57.1488 0.735408 -1.68337 0
M  V30 560 C 57.2108 -2.62632 -2.45489 0
M  V30 561 C 56.8748 -4.071 -2.07651 0
M  V30 562 C 57.8718 -4.94049 -1.61901 0
M  V30 563 C 55.5568 -4.52801 -2.17431 0
M  V30 564 C 57.5508 -6.24736 -1.26428 0
M  V30 565 C 55.2378 -5.83503 -1.8157 0
M  V30 566 C 56.2358 -6.69294 -1.36142 0
M  V30 567 O 55.9238 -7.9756 -1.00764 0
M  V30 568 H 55.6558 -0.54834 -0.395347 0
M  V30 569 H 58.2098 -1.96002 -0.614204 0
M  V30 570 H 56.4398 -2.2378 -3.15372 0
M  V30 571 H 58.1288 -2.64925 -3.07522 0
M  V30 572 H 58.8948 -4.5997 -1.53795 0
M  V30 573 H 54.7738 -3.86196 -2.51742 0
M  V30 574 H 58.3178 -6.91652 -0.908992 0
M  V30 575 H 54.2148 -6.17112 -1.89324 0
M  V30 576 H 54.9828 -8.10529 -1.13952 0
M  V30 577 N 57.6459 0.756429 -1.3826 0
M  V30 578 C 58.5759 1.88374 -1.37976 0
M  V30 579 C 59.5569 1.68311 -0.246082 0
M  V30 580 O 60.7419 1.88944 -0.44874 0
M  V30 581 C 57.8719 3.25864 -1.20125 0
M  V30 582 C 56.8259 3.60523 -2.30666 0
M  V30 583 C 56.1519 4.9672 -1.97923 0
M  V30 584 C 57.4519 3.65692 -3.72916 0
M  V30 585 H 59.1459 1.88869 -2.32312 0
M  V30 586 H 56.6919 0.907272 -1.11824 0
M  V30 587 H 58.6449 4.0438 -1.18552 0
M  V30 588 H 57.3689 3.25841 -0.222498 0
M  V30 589 H 56.0279 2.84324 -2.3142 0
M  V30 590 H 55.6759 4.93253 -0.985393 0
M  V30 591 H 55.3759 5.20878 -2.71955 0
M  V30 592 H 56.8999 5.77618 -1.97964 0
M  V30 593 H 58.3139 4.34328 -3.74208 0
M  V30 594 H 56.7109 4.01358 -4.4613 0
M  V30 595 H 57.7809 2.65987 -4.05436 0
M  V30 596 N 59.124 1.23083 0.984299 0
M  V30 597 C 60.37 1.06214 1.72761 0
M  V30 598 C 60.703 -0.400584 1.90024 0
M  V30 599 O 59.978 -1.29672 1.44967 0
M  V30 600 C 60.261 1.78375 3.12817 0
M  V30 601 C 60.114 3.32296 3.03149 0
M  V30 602 C 61.433 1.54309 4.12161 0
M  V30 603 H 58.552 0.387251 0.627061 0
M  V30 604 H 61.194 1.51536 1.14616 0
M  V30 605 H 59.344 1.39848 3.62457 0
M  V30 606 H 61.016 3.8032 2.61064 0
M  V30 607 H 59.259 3.6153 2.39747 0
M  V30 608 H 59.93 3.77972 4.02295 0
M  V30 609 H 62.406 1.87791 3.71314 0
M  V30 610 H 61.282 2.07281 5.08258 0
M  V30 611 H 61.543 0.477572 4.39513 0
M  V30 612 N 60.6021 -1.18246 1.0419 0
M  V30 613 C 61.8511 -1.87588 0.741194 0
M  V30 614 C 62.1641 -1.81303 -0.734066 0
M  V30 615 O 63.3701 -2.46019 -1.14834 0
M  V30 616 C 61.8261 -3.36538 1.27555 0
M  V30 617 C 61.4341 -3.51349 2.77953 0
M  V30 618 C 63.1781 -4.11273 1.05143 0
M  V30 619 C 61.0851 -4.94265 3.2474 0
M  V30 620 H 60.0151 -0.702622 0.273565 0
M  V30 621 H 62.6661 -1.33601 1.25789 0
M  V30 622 H 61.0481 -3.9 0.686703 0
M  V30 623 H 62.2221 -3.08153 3.42605 0
M  V30 624 H 60.5371 -2.90022 2.98791 0
M  V30 625 H 63.1341 -5.16689 1.37611 0
M  V30 626 H 63.4771 -4.16298 -0.0112774 0
M  V30 627 H 64.0101 -3.63987 1.60495 0
M  V30 628 H 60.7491 -4.94408 4.30396 0
M  V30 629 H 60.2691 -5.38172 2.64823 0
M  V30 630 H 61.9481 -5.62987 3.18834 0
M  V30 631 N 62.0802 -0.821533 -1.34494 0
M  V30 632 C 63.3262 -0.409552 -1.98622 0
M  V30 633 C 63.6592 1.0244 -1.64984 0
M  V30 634 O 62.9342 1.71325 -0.920758 0
M  V30 635 C 63.2172 -0.610458 -3.54888 0
M  V30 636 C 63.0702 -2.09043 -3.98273 0
M  V30 637 C 64.3892 -0.0455379 -4.40076 0
M  V30 638 H 61.5082 -0.15028 -0.721516 0
M  V30 639 H 64.1502 -1.03384 -1.59411 0
M  V30 640 H 62.3002 -0.079044 -3.8842 0
M  V30 641 H 63.9722 -2.68537 -3.75081 0
M  V30 642 H 62.2152 -2.58139 -3.48635 0
M  V30 643 H 62.8862 -2.18182 -5.07051 0
M  V30 644 H 65.3622 -0.499557 -4.1309 0
M  V30 645 H 64.2382 -0.215922 -5.48475 0
M  V30 646 H 64.4992 1.04939 -4.29465 0
M  V30 647 N 63.5583 1.46682 -0.576371 0
M  V30 648 C 64.4683 2.34032 0.163141 0
M  V30 649 C 65.4843 1.49367 0.892501 0
M  V30 650 O 66.6603 1.82252 0.857106 0
M  V30 651 C 63.7253 3.26435 1.16795 0
M  V30 652 C 62.7863 4.26998 0.443944 0
M  V30 653 C 62.0193 5.14986 1.40088 0
M  V30 654 O 62.2423 5.05785 2.637 0
M  V30 655 O 61.1763 5.94906 0.914917 0
M  V30 656 H 65.0023 2.98607 -0.55388 0
M  V30 657 H 62.5873 1.45554 -0.336821 0
M  V30 658 H 64.4693 3.83459 1.74748 0
M  V30 659 H 63.1443 2.64465 1.86655 0
M  V30 660 H 62.0513 3.7368 -0.177271 0
M  V30 661 H 63.3843 4.91736 -0.213566 0
M  V30 662 N 65.0364 0.313813 1.54444 0
M  V30 663 C 65.9684 -0.590425 2.21465 0
M  V30 664 C 66.9814 -1.08753 1.21147 0
M  V30 665 O 68.1704 -1.00278 1.4767 0
M  V30 666 C 65.2704 -1.82179 2.85769 0
M  V30 667 C 64.4434 -1.46502 4.12136 0
M  V30 668 C 63.5024 -2.55288 4.60124 0
M  V30 669 O 62.5284 -2.19842 5.25032 0
M  V30 670 N 63.7304 -3.86053 4.33525 0
M  V30 671 H 66.4954 -0.0166033 2.99695 0
M  V30 672 H 64.0564 0.136578 1.61323 0
M  V30 673 H 66.0484 -2.54328 3.14801 0
M  V30 674 H 64.6184 -2.30369 2.11303 0
M  V30 675 H 63.8384 -0.575595 3.89975 0
M  V30 676 H 65.1264 -1.20221 4.94393 0
M  V30 677 H 64.5244 -4.17654 3.81552 0
M  V30 678 H 63.0814 -4.54461 4.67235 0
M  V30 679 N 66.5145 -1.57545 0.0417849 0
M  V30 680 C 67.9255 -1.80011 -0.495259 0
M  V30 681 C 68.2765 -0.953199 -1.71489 0
M  V30 682 O 67.4015 -0.167138 -2.15754 0
M  V30 683 C 67.9965 -3.26482 -0.905265 0
M  V30 684 C 66.5555 -3.499 -1.38734 0
M  V30 685 C 65.7025 -2.74979 -0.358056 0
M  V30 686 H 68.6535 -1.56425 0.267736 0
M  V30 687 H 68.6745 -3.36887 -1.76882 0
M  V30 688 H 68.1865 -3.88096 -0.017401 0
M  V30 689 H 66.2875 -2.93553 -2.29471 0
M  V30 690 H 66.4005 -4.58615 -1.38598 0
M  V30 691 H 64.7645 -2.40834 -0.828912 0
M  V30 692 H 65.5475 -3.39315 0.521561 0
M  V30 693 N 67.9926 0.231505 -1.5589 0
M  V30 694 C 68.9396 1.28682 -1.91598 0
M  V30 695 C 69.9096 1.47071 -0.771974 0
M  V30 696 O 71.0946 1.60802 -1.027 0
M  V30 697 C 68.2346 2.6342 -2.22944 0
M  V30 698 C 67.3476 2.52912 -3.50228 0
M  V30 699 C 66.4826 3.80106 -3.7107 0
M  V30 700 C 65.5216 3.64279 -4.91902 0
M  V30 701 N 64.6586 4.834 -5.09184 0
M  V30 702 H 69.4986 0.975305 -2.81588 0
M  V30 703 H 67.0356 0.470299 -1.39379 0
M  V30 704 H 68.9936 3.41869 -2.39126 0
M  V30 705 H 67.6236 2.92687 -1.36139 0
M  V30 706 H 66.6756 1.6595 -3.42294 0
M  V30 707 H 67.9876 2.37133 -4.38827 0
M  V30 708 H 67.1416 4.66999 -3.87295 0
M  V30 709 H 65.8806 3.98799 -2.80733 0
M  V30 710 H 64.8856 2.7577 -4.75637 0
M  V30 711 H 66.1106 3.47067 -5.83714 0
M  V30 712 H 64.0566 5.02425 -4.21788 0
M  V30 713 H 63.9736 4.70311 -5.91898 0
M  V30 714 H 65.2416 5.71747 -5.29835 0
M  V30 715 N 69.4707 1.49531 0.497807 0
M  V30 716 C 70.4027 1.62559 1.61578 0
M  V30 717 C 71.4157 0.508134 1.54667 0
M  V30 718 O 72.6047 0.780309 1.60541 0
M  V30 719 C 69.7047 1.56925 3.00379 0
M  V30 720 C 68.8777 2.84257 3.3244 0
M  V30 721 C 67.9367 2.71632 4.50669 0
M  V30 722 O 66.9627 3.4557 4.52294 0
M  V30 723 N 68.1647 1.83391 5.5077 0
M  V30 724 H 70.9297 2.58981 1.50828 0
M  V30 725 H 68.4907 1.4666 0.685743 0
M  V30 726 H 70.4827 1.46129 3.77397 0
M  V30 727 H 69.0527 0.683483 3.05037 0
M  V30 728 H 68.2727 3.09381 2.44289 0
M  V30 729 H 69.5607 3.68666 3.5066 0
M  V30 730 H 68.9587 1.22583 5.52259 0
M  V30 731 H 67.5157 1.78515 6.26878 0
M  V30 732 N 70.9488 -0.749086 1.3866 0
M  V30 733 C 72.3648 -1.05276 1.19955 0
M  V30 734 C 72.5648 -2.01435 0.05134 0
M  V30 735 O 71.6208 -2.45232 -0.60147 0
M  V30 736 C 72.9338 -1.62853 2.52783 0
M  V30 737 C 74.4818 -1.75002 2.59506 0
M  V30 738 C 74.9568 -2.35991 3.92521 0
M  V30 739 N 76.4478 -2.43416 3.94085 0
M  V30 740 C 77.1828 -2.91511 4.9377 0
M  V30 741 N 76.6788 -3.39608 6.03853 0
M  V30 742 N 78.4718 -2.90592 4.81157 0
M  V30 743 H 70.6228 -0.111066 2.12109 0
M  V30 744 H 72.8858 -0.111901 0.941373 0
M  V30 745 H 72.5918 -0.99664 3.37283 0
M  V30 746 H 72.4658 -2.61854 2.715 0
M  V30 747 H 74.8528 -2.37317 1.75398 0
M  V30 748 H 74.9338 -0.74693 2.44652 0
M  V30 749 H 74.5778 -1.74308 4.77053 0
M  V30 750 H 74.5078 -3.3695 4.04688 0
M  V30 751 H 76.9988 -2.09405 3.14576 0
M  V30 752 H 77.3118 -3.74775 6.75843 0
M  V30 753 H 75.6568 -3.37653 6.07466 0
M  V30 754 H 78.8478 -2.52332 3.94267 0
M  V30 755 H 79.0208 -3.27762 5.58996 0
M  V30 756 N 72.4269 -1.23603 -0.977757 0
M  V30 757 C 73.6749 -1.06759 -1.71601 0
M  V30 758 C 73.9959 0.395929 -1.90938 0
M  V30 759 O 73.2659 1.28356 -1.47992 0
M  V30 760 H 71.8459 -0.392062 -0.635843 0
M  V30 761 H 74.5079 -1.55362 -1.1768 0
M  V30 762 H 73.6039 -1.55763 -2.70452 0
M  V30 763 N 73.905 1.17692 -1.04816 0
M  V30 764 C 75.152 1.87859 -0.75599 0
M  V30 765 C 75.48 1.80812 0.716752 0
M  V30 766 O 74.735 1.20819 1.53952 0
M  V30 767 C 75.034 3.37462 -1.17703 0
M  V30 768 C 74.7 3.64713 -2.65133 0
M  V30 769 C 73.362 3.71859 -3.05408 0
M  V30 770 C 75.714 3.76492 -3.60421 0
M  V30 771 C 73.042 3.88271 -4.39843 0
M  V30 772 C 75.394 3.94421 -4.94585 0
M  V30 773 C 74.058 3.99806 -5.3452 0
M  V30 774 H 73.328 0.687425 -0.276636 0
M  V30 775 H 75.975 1.39255 -1.31455 0
M  V30 776 H 74.28 3.88097 -0.537395 0
M  V30 777 H 75.977 3.90109 -0.928218 0
M  V30 778 H 72.567 3.59772 -2.32942 0
M  V30 779 H 76.751 3.70295 -3.30447 0
M  V30 780 H 72.007 3.90687 -4.70291 0
M  V30 781 H 76.181 4.02477 -5.68318 0
M  V30 782 H 73.808 4.12276 -6.38696 0
M  V30 783 N 75.3831 0.828654 1.34056 0
M  V30 784 C 76.7991 0.515135 1.51058 0
M  V30 785 C 76.9991 -0.959581 1.77184 0
M  V30 786 O 76.0551 -1.74382 1.82612 0
M  V30 787 C 77.3681 1.37963 2.67183 0
M  V30 788 C 78.9161 1.37735 2.81066 0
M  V30 789 C 79.3911 2.22645 4.00241 0
M  V30 790 N 80.8821 2.203 4.07458 0
M  V30 791 C 81.6171 2.82744 4.98842 0
M  V30 792 N 81.1131 3.54201 5.9541 0
M  V30 793 N 82.9061 2.72268 4.91759 0
M  V30 794 H 75.0571 1.78343 1.15358 0
M  V30 795 H 77.3201 0.760304 0.566252 0
M  V30 796 H 77.0261 2.42714 2.54525 0
M  V30 797 H 76.9001 1.0484 3.62338 0
M  V30 798 H 79.2871 0.337593 2.93163 0
M  V30 799 H 79.3681 1.74859 1.86703 0
M  V30 800 H 79.0121 3.26674 3.88905 0
M  V30 801 H 78.9421 1.82869 4.93829 0
M  V30 802 H 81.4331 1.68327 3.38341 0
M  V30 803 H 81.7461 3.9908 6.61782 0
M  V30 804 H 80.0911 3.58308 5.95517 0
M  V30 805 H 83.2821 2.16014 4.15278 0
M  V30 806 H 83.4551 3.21219 5.62781 0
M  V30 807 N 76.8612 -1.46375 0.584142 0
M  V30 808 C 78.1082 -2.02378 0.0702675 0
M  V30 809 C 78.4362 -1.45545 -1.29023 0
M  V30 810 O 77.6912 -0.610967 -1.85918 0
M  V30 811 C 77.9902 -3.57373 -0.0439342 0
M  V30 812 C 77.6562 -4.33252 1.24915 0
M  V30 813 C 76.3182 -4.53701 1.60341 0
M  V30 814 C 78.6702 -4.7681 2.1048 0
M  V30 815 C 75.9982 -5.1496 2.81128 0
M  V30 816 C 78.3502 -5.39404 3.30494 0
M  V30 817 C 77.0142 -5.5808 3.66201 0
M  V30 818 H 76.2842 -0.740554 0.0257127 0
M  V30 819 H 78.9312 -1.75727 0.761065 0
M  V30 820 H 77.2362 -3.83169 -0.817869 0
M  V30 821 H 78.9332 -3.98384 -0.457318 0
M  V30 822 H 75.5232 -4.17633 0.963364 0
M  V30 823 H 79.7072 -4.60766 1.84414 0
M  V30 824 H 74.9632 -5.27611 3.08928 0
M  V30 825 H 79.1372 -5.72114 3.97063 0
M  V30 826 H 76.7642 -6.05318 4.59885 0
M  V30 827 N 78.3393 -0.321999 -1.54275 0
M  V30 828 C 79.7553 0.0306999 -1.5957 0
M  V30 829 C 79.9553 1.50614 -1.33857 0
M  V30 830 O 79.0113 2.2619 -1.12223 0
M  V30 831 C 80.3243 -0.386122 -2.98211 0
M  V30 832 C 81.8723 -0.336647 -3.11184 0
M  V30 833 C 82.3473 -0.728607 -4.52167 0
M  V30 834 N 83.8383 -0.681952 -4.58152 0
M  V30 835 C 84.5733 -0.957449 -5.6535 0
M  V30 836 N 84.0693 -1.3 -6.80494 0
M  V30 837 N 85.8623 -0.883113 -5.55119 0
M  V30 838 H 78.0133 -1.28332 -1.69247 0
M  V30 839 H 80.2763 -0.521716 -0.791528 0
M  V30 840 H 79.9823 -1.41404 -3.22022 0
M  V30 841 H 79.8563 0.249662 -3.76373 0
M  V30 842 H 82.2433 0.682058 -2.8711 0
M  V30 843 H 82.3243 -1.00734 -2.3513 0
M  V30 844 H 81.9683 -1.74522 -4.76974 0
M  V30 845 H 81.8983 -0.0356152 -5.26588 0
M  V30 846 H 84.3893 -0.428985 -3.75457 0
M  V30 847 H 84.7023 -1.49563 -7.58189 0
M  V30 848 H 83.0473 -1.33824 -6.81994 0
M  V30 849 H 86.2383 -0.615001 -4.64042 0
M  V30 850 H 86.4113 -1.10118 -6.38575 0
M  V30 851 N 79.8174 1.5752 -0.0501392 0
M  V30 852 C 81.0474 1.96678 0.632573 0
M  V30 853 C 81.4554 0.926298 1.64974 0
M  V30 854 O 80.7984 -0.09802 1.83438 0
M  V30 855 C 80.8604 3.32068 1.37735 0
M  V30 856 C 80.5244 4.54076 0.516131 0
M  V30 857 C 81.5214 5.19445 -0.217357 0
M  V30 858 C 79.2064 5.00304 0.44736 0
M  V30 859 C 81.2004 6.29378 -1.00807 0
M  V30 860 C 78.8874 6.10114 -0.347038 0
M  V30 861 C 79.8854 6.74512 -1.07344 0
M  V30 862 O 79.5734 7.82211 -1.85477 0
M  V30 863 H 79.3054 0.652193 0.177821 0
M  V30 864 H 81.8594 2.05091 -0.112543 0
M  V30 865 H 80.0894 3.20206 2.16807 0
M  V30 866 H 81.7784 3.55981 1.95019 0
M  V30 867 H 82.5444 4.84689 -0.173688 0
M  V30 868 H 78.4234 4.49971 1.00235 0
M  V30 869 H 81.9674 6.79575 -1.57556 0
M  V30 870 H 77.8644 6.44307 -0.392349 0
M  V30 871 H 78.6324 7.98982 -1.77678 0
M  V30 872 N 81.2955 -0.223234 1.56011 0
M  V30 873 C 82.5435 -0.946003 1.78592 0
M  V30 874 C 82.8645 -1.84936 0.618349 0
M  V30 875 O 82.1345 -1.92473 -0.364833 0
M  V30 876 H 80.7145 -0.352298 0.658707 0
M  V30 877 H 83.3765 -0.235494 1.93472 0
M  V30 878 H 82.4725 -1.55381 2.70672 0
M  V30 879 N 82.7736 -1.49793 -0.48987 0
M  V30 880 C 84.0136 -1.61466 -1.25332 0
M  V30 881 C 84.3776 -0.299688 -1.89647 0
M  V30 882 O 85.5786 -0.291687 -2.67213 0
M  V30 883 C 83.8496 -2.74944 -2.28343 0
M  V30 884 S 85.4086 -3.06637 -3.13878 0
M  V30 885 H 82.2266 -0.569411 -0.425784 0
M  V30 886 H 84.8286 -1.875 -0.553541 0
M  V30 887 H 83.5326 -3.68994 -1.79643 0
M  V30 888 H 83.0636 -2.50938 -3.02975 0
M  V30 889 H 85.0786 -2.49015 -4.29192 0
M  V30 890 N 84.2517 0.741722 -1.39055 0
M  V30 891 C 85.1617 1.88621 -1.39496 0
M  V30 892 C 86.1777 1.71557 -0.290578 0
M  V30 893 O 87.3537 1.94275 -0.530954 0
M  V30 894 C 84.4187 3.24134 -1.23037 0
M  V30 895 C 83.4797 3.5364 -2.43387 0
M  V30 896 C 82.7127 4.82687 -2.27703 0
M  V30 897 O 82.9357 5.55922 -1.27696 0
M  V30 898 O 81.8697 5.1194 -3.16545 0
M  V30 899 H 85.6957 1.91203 -2.35956 0
M  V30 900 H 83.2807 0.888625 -1.20099 0
M  V30 901 H 85.1627 4.0513 -1.15964 0
M  V30 902 H 83.8377 3.22337 -0.296691 0
M  V30 903 H 82.7447 2.72758 -2.56035 0
M  V30 904 H 84.0777 3.60209 -3.35425 0
M  V30 905 N 85.7298 1.2412 0.971189 0
M  V30 906 C 86.9778 1.07668 1.71032 0
M  V30 907 C 87.2988 -0.385797 1.91146 0
M  V30 908 O 86.5688 -1.27569 1.4867 0
M  V30 909 H 85.1488 0.395429 0.633755 0
M  V30 910 H 87.8108 1.55984 1.16855 0
M  V30 911 H 86.9068 1.57195 2.69622 0
M  V30 912 N 87.2079 -1.17134 1.05439 0
M  V30 913 C 88.6189 -1.69084 0.791676 0
M  V30 914 C 88.9699 -1.83822 -0.685839 0
M  V30 915 O 88.0949 -1.52757 -1.53278 0
M  V30 916 C 88.6899 -3.07119 1.4305 0
M  V30 917 C 87.2489 -3.56225 1.21577 0
M  V30 918 C 86.3959 -2.32421 1.51247 0
M  V30 919 H 89.3469 -1.01617 1.219 0
M  V30 920 H 89.3679 -3.71087 0.84112 0
M  V30 921 H 88.8799 -2.9636 2.50584 0
M  V30 922 H 86.9809 -3.72257 0.159787 0
M  V30 923 H 87.0939 -4.38837 1.92246 0
M  V30 924 H 85.4579 -2.3701 0.932653 0
M  V30 925 H 86.2409 -2.24268 2.5992 0
M  V30 926 N 88.686 -0.835752 -1.33615 0
M  V30 927 C 89.911 -0.442389 -2.02627 0
M  V30 928 C 90.336 0.947735 -1.62479 0
M  V30 929 O 89.694 1.61907 -0.815826 0
M  V30 930 C 89.742 -0.567216 -3.56111 0
M  V30 931 O 88.846 0.407799 -4.10379 0
M  V30 932 H 88.187 -0.180278 -0.639059 0
M  V30 933 H 90.717 -1.12972 -1.70583 0
M  V30 934 H 90.727 -0.447708 -4.05536 0
M  V30 935 H 89.402 -1.58103 -3.84677 0
M  V30 936 H 87.979 0.246107 -3.72087 0
M  V30 937 N 90.1641 1.46063 -0.591896 0
M  V30 938 C 91.1141 2.27458 0.157172 0
M  V30 939 C 92.0981 1.3641 0.853301 0
M  V30 940 O 93.2901 1.60517 0.74588 0
M  V30 941 C 90.4191 3.22956 1.16423 0
M  V30 942 C 89.5051 4.2149 0.469742 0
M  V30 943 N 89.8961 5.03519 -0.479839 0
M  V30 944 C 88.1941 4.40161 0.719319 0
M  V30 945 C 88.8951 5.74904 -0.886591 0
M  V30 946 N 87.8711 5.43097 -0.233731 0
M  V30 947 H 91.6731 2.88272 -0.572392 0
M  V30 948 H 89.1871 1.57024 -0.414375 0
M  V30 949 H 91.1841 3.79986 1.71513 0
M  V30 950 H 89.8441 2.63701 1.89451 0
M  V30 951 H 90.8551 5.1078 -0.855823 0
M  V30 952 H 87.5321 3.92046 1.43548 0
M  V30 953 H 88.9221 6.50844 -1.66888 0
M  V30 954 N 91.6422 0.330177 1.54103 0
M  V30 955 C 92.8902 -0.269871 2.0029 0
M  V30 956 C 93.2112 -1.52133 1.21986 0
M  V30 957 O 92.4812 -1.93212 0.323438 0
M  V30 958 H 91.0612 -0.10271 0.739905 0
M  V30 959 H 93.7232 0.448249 1.89675 0
M  V30 960 H 92.8192 -0.52166 3.07709 0
M  V30 961 N 93.1203 -1.57491 0.0584922 0
M  V30 962 C 94.3683 -1.92597 -0.612436 0
M  V30 963 C 94.6893 -0.938162 -1.70949 0
M  V30 964 O 93.9593 0.0158301 -1.95894 0
M  V30 965 H 92.5393 -0.710964 -0.229214 0
M  V30 966 H 95.2013 -1.94571 0.113218 0
M  V30 967 H 94.2973 -2.94038 -1.04633 0
M  V30 968 N 94.5984 0.214957 -1.56127 0
M  V30 969 C 95.5284 1.2695 -1.95974 0
M  V30 970 C 96.5094 1.48539 -0.828868 0
M  V30 971 O 97.6944 1.60611 -1.09168 0
M  V30 972 C 94.8244 2.61794 -2.28214 0
M  V30 973 C 93.7784 2.54851 -3.43853 0
M  V30 974 C 93.1044 3.93785 -3.61715 0
M  V30 975 C 94.4044 2.09065 -4.78632 0
M  V30 976 H 96.0984 0.93846 -2.84312 0
M  V30 977 H 93.6444 0.449996 -1.36788 0
M  V30 978 H 95.5974 3.35731 -2.54682 0
M  V30 979 H 94.3214 2.96599 -1.36736 0
M  V30 980 H 92.9804 1.8337 -3.17444 0
M  V30 981 H 92.6284 4.25908 -2.67602 0
M  V30 982 H 92.3284 3.90019 -4.39498 0
M  V30 983 H 93.8524 4.69374 -3.90539 0
M  V30 984 H 95.2664 2.7275 -5.04262 0
M  V30 985 H 93.6634 2.16346 -5.59745 0
M  V30 986 H 94.7334 1.04315 -4.73547 0
M  V30 987 N 96.0765 1.50051 0.48192 0
M  V30 988 C 97.4875 1.5348 1.06305 0
M  V30 989 C 97.8385 0.331997 1.93371 0
M  V30 990 O 96.9635 -0.556256 2.09129 0
M  V30 991 C 97.5585 2.7813 1.93466 0
M  V30 992 C 96.1175 2.84275 2.46707 0
M  V30 993 C 95.2645 2.47637 1.24785 0
M  V30 994 H 98.2155 1.56472 0.264995 0
M  V30 995 H 98.2365 2.59372 2.78399 0
M  V30 996 H 97.7485 3.65654 1.30072 0
M  V30 997 H 95.8495 2.01077 3.13686 0
M  V30 998 H 95.9625 3.8691 2.82555 0
M  V30 999 H 94.3265 1.99835 1.57918 0
M  V30 1000 H 95.1095 3.37457 0.630694 0
M  V30 1001 N 97.5546 -0.734337 1.39446 0
M  V30 1002 C 98.8026 -1.49096 1.36436 0
M  V30 1003 C 99.1236 -1.94961 -0.0388255 0
M  V30 1004 O 98.3936 -1.69033 -0.990191 0
M  V30 1005 H 96.9736 -0.5531 0.502085 0
M  V30 1006 H 99.6356 -0.871725 1.74319 0
M  V30 1007 H 98.7316 -2.37276 2.02747 0
M  V30 1008 N 99.0327 -1.24633 -0.964593 0
M  V30 1009 C 99.9957 -1.0424 -2.04124 0
M  V30 1010 C 100.996 0.00137563 -1.608 0
M  V30 1011 O 102.186 -0.239883 -1.7254 0
M  V30 1012 C 99.3177 -0.580588 -3.3592 0
M  V30 1013 H 100.511 -1.99803 -2.23649 0
M  V30 1014 H 98.0637 -1.06899 -1.14027 0
M  V30 1015 H 98.7987 0.3781 -3.22088 0
M  V30 1016 H 98.5837 -1.33398 -3.6871 0
M  V30 1017 H 100.074 -0.459034 -4.15069 0
M  V30 1018 N 100.511 1.16574 -1.06058 0
M  V30 1019 C 101.736 1.91493 -0.796562 0
M  V30 1020 C 102.161 1.76773 0.642868 0
M  V30 1021 O 101.519 1.09142 1.44768 0
M  V30 1022 C 101.567 3.40293 -1.19303 0
M  V30 1023 O 100.671 4.11074 -0.330394 0
M  V30 1024 H 100.012 0.596678 -0.291326 0
M  V30 1025 H 102.542 1.47708 -1.41575 0
M  V30 1026 H 102.552 3.91057 -1.16356 0
M  V30 1027 H 101.227 3.50326 -2.24153 0
M  V30 1028 H 99.8038 3.70513 -0.421225 0
M  V30 1029 N 101.989 0.842826 1.3317 0
M  V30 1030 C 103.214 0.453129 2.02389 0
M  V30 1031 C 103.639 -0.939105 1.6298 0
M  V30 1032 O 102.997 -1.61472 0.8244 0
M  V30 1033 C 103.045 0.586094 3.55805 0
M  V30 1034 O 102.149 -0.386029 4.10589 0
M  V30 1035 H 101.49 0.183664 0.638094 0
M  V30 1036 H 104.02 1.13875 1.69981 0
M  V30 1037 H 104.03 0.469209 4.05293 0
M  V30 1038 H 102.705 1.6014 3.83833 0
M  V30 1039 H 101.282 -0.226371 3.72212 0
M  V30 1040 N 103.467 -1.45747 0.599634 0
M  V30 1041 C 104.377 -2.34262 -0.125888 0
M  V30 1042 C 105.393 -1.50768 -0.868625 0
M  V30 1043 O 106.569 -1.83592 -0.828003 0
M  V30 1044 C 103.634 -3.28252 -1.11587 0
M  V30 1045 C 102.695 -4.27651 -0.375956 0
M  V30 1046 C 101.928 -5.1715 -1.31877 0
M  V30 1047 O 102.151 -5.09916 -2.55621 0
M  V30 1048 O 101.085 -5.96286 -0.820157 0
M  V30 1049 H 104.911 -2.97688 0.601315 0
M  V30 1050 H 102.496 -1.44999 0.359934 0
M  V30 1051 H 104.378 -3.86191 -1.68626 0
M  V30 1052 H 103.053 -2.67401 -1.82424 0
M  V30 1053 H 101.96 -3.7335 0.236698 0
M  V30 1054 H 103.293 -4.91334 0.29177 0
M  V30 1055 N 104.945 -0.338344 -1.53925 0
M  V30 1056 C 105.892 0.520845 -2.24846 0
M  V30 1057 C 106.862 1.09976 -1.24477 0
M  V30 1058 O 108.047 1.13735 -1.53196 0
M  V30 1059 C 105.187 1.6685 -3.02084 0
M  V30 1060 C 104.3 1.11739 -4.17299 0
M  V30 1061 C 103.435 2.23193 -4.82036 0
M  V30 1062 C 102.474 1.65407 -5.89328 0
M  V30 1063 N 101.611 2.70582 -6.47866 0
M  V30 1064 H 106.451 -0.0904881 -2.97863 0
M  V30 1065 H 103.988 -0.0564282 -1.46992 0
M  V30 1066 H 105.946 2.34407 -3.45122 0
M  V30 1067 H 104.576 2.2509 -2.31375 0
M  V30 1068 H 103.628 0.332919 -3.7894 0
M  V30 1069 H 104.94 0.654677 -4.94485 0
M  V30 1070 H 104.094 2.98626 -5.28117 0
M  V30 1071 H 102.833 2.72807 -4.04262 0
M  V30 1072 H 101.838 0.884779 -5.42634 0
M  V30 1073 H 103.063 1.16652 -6.69006 0
M  V30 1074 H 101.009 3.1946 -5.72959 0
M  V30 1075 H 100.926 2.28917 -7.20509 0
M  V30 1076 H 102.194 3.45799 -6.98601 0
M  V30 1077 N 106.423 1.57458 -0.0668435 0
M  V30 1078 C 107.671 1.92919 0.602214 0
M  V30 1079 C 107.992 0.947215 1.70449 0
M  V30 1080 O 107.262 -0.00544117 1.95899 0
M  V30 1081 H 105.842 0.71217 0.22544 0
M  V30 1082 H 108.504 1.94508 -0.123535 0
M  V30 1083 H 107.6 2.94589 1.03073 0
M  V30 1084 N 107.901 -0.206675 1.56239 0
M  V30 1085 C 109.317 -0.557025 1.49564 0
M  V30 1086 C 109.517 -1.86424 0.764735 0
M  V30 1087 O 108.573 -2.50584 0.310491 0
M  V30 1088 C 109.886 -0.622478 2.94186 0
M  V30 1089 C 111.434 -0.712099 3.04792 0
M  V30 1090 C 111.909 -0.808767 4.50803 0
M  V30 1091 N 113.4 -0.8726 4.54907 0
M  V30 1092 C 114.135 -0.967365 5.65181 0
M  V30 1093 N 113.631 -1.02515 6.85173 0
M  V30 1094 N 115.424 -1.00366 5.53067 0
M  V30 1095 H 107.575 0.650943 2.02179 0
M  V30 1096 H 109.838 0.230387 0.919579 0
M  V30 1097 H 109.544 0.268727 3.50672 0
M  V30 1098 H 109.418 -1.4811 3.46905 0
M  V30 1099 H 111.805 -1.59374 2.48363 0
M  V30 1100 H 111.886 0.172489 2.55218 0
M  V30 1101 H 111.53 0.0684754 5.07854 0
M  V30 1102 H 111.46 -1.70899 4.98098 0
M  V30 1103 H 113.951 -0.837657 3.68499 0
M  V30 1104 H 114.264 -1.09765 7.64965 0
M  V30 1105 H 112.609 -0.994026 6.87855 0
M  V30 1106 H 115.8 -0.95527 4.58249 0
M  V30 1107 H 115.973 -1.07405 6.39037 0
M  V30 1108 N 109.379 -1.50304 -0.473955 0
M  V30 1109 C 110.326 -1.68959 -1.57231 0
M  V30 1110 C 111.296 -0.530899 -1.57387 0
M  V30 1111 O 112.481 -0.761133 -1.74961 0
M  V30 1112 C 109.621 -1.7871 -2.95223 0
M  V30 1113 C 108.734 -3.06061 -3.04878 0
M  V30 1114 C 107.869 -3.06626 -4.33767 0
M  V30 1115 C 106.908 -4.28443 -4.37154 0
M  V30 1116 N 106.045 -4.26763 -5.5751 0
M  V30 1117 H 110.885 -2.6273 -1.40631 0
M  V30 1118 H 108.422 -1.30241 -0.683789 0
M  V30 1119 H 110.38 -1.82344 -3.75242 0
M  V30 1120 H 109.01 -0.883806 -3.10465 0
M  V30 1121 H 108.062 -3.11911 -2.17751 0
M  V30 1122 H 109.374 -3.96039 -3.0324 0
M  V30 1123 H 108.528 -3.08973 -5.22131 0
M  V30 1124 H 107.267 -2.14473 -4.3801 0
M  V30 1125 H 106.272 -4.2631 -3.47188 0
M  V30 1126 H 107.497 -5.2182 -4.34605 0
M  V30 1127 H 105.443 -3.37462 -5.62544 0
M  V30 1128 H 105.36 -5.10507 -5.57601 0
M  V30 1129 H 106.628 -4.33253 -6.48006 0
M  V30 1130 N 110.857 0.726932 -1.39834 0
M  V30 1131 C 112.085 1.51613 -1.40787 0
M  V30 1132 C 112.5 1.88799 -0.00451505 0
M  V30 1133 O 111.857 1.54662 0.968809 0
M  V30 1134 C 111.908 2.79863 -2.28821 0
M  V30 1135 O 111.629 2.44253 -3.63692 0
M  V30 1136 C 113.13 3.73837 -2.38245 0
M  V30 1137 H 110.35 0.468264 -0.480593 0
M  V30 1138 H 112.894 0.897607 -1.83748 0
M  V30 1139 H 111.049 3.38027 -1.89252 0
M  V30 1140 H 111.463 3.26695 -4.1033 0
M  V30 1141 H 112.937 4.60699 -3.04073 0
M  V30 1142 H 113.414 4.16153 -1.40403 0
M  V30 1143 H 114.02 3.21589 -2.78317 0
M  V30 1144 N 112.336 1.25143 0.95797 0
M  V30 1145 C 113.566 1.12261 1.73439 0
M  V30 1146 C 113.974 -0.326715 1.86358 0
M  V30 1147 O 113.317 -1.2367 1.35836 0
M  V30 1148 C 113.379 1.69966 3.16784 0
M  V30 1149 C 113.043 3.18936 3.27305 0
M  V30 1150 C 114.04 4.15968 3.11877 0
M  V30 1151 C 111.725 3.59083 3.51234 0
M  V30 1152 C 113.719 5.51126 3.20217 0
M  V30 1153 C 111.406 4.9438 3.5921 0
M  V30 1154 C 112.404 5.90211 3.43716 0
M  V30 1155 O 112.092 7.23046 3.51368 0
M  V30 1156 H 111.824 0.392476 0.550399 0
M  V30 1157 H 114.378 1.65927 1.21068 0
M  V30 1158 H 112.608 1.10744 3.70503 0
M  V30 1159 H 114.297 1.52232 3.76272 0
M  V30 1160 H 115.063 3.86292 2.93264 0
M  V30 1161 H 110.942 2.84989 3.62356 0
M  V30 1162 H 114.486 6.25905 3.0804 0
M  V30 1163 H 110.383 5.23723 3.77339 0
M  V30 1164 H 111.151 7.31097 3.6802 0
M  V30 1165 N 113.814 -1.1601 1.06675 0
M  V30 1166 C 115.225 -1.68235 0.809565 0
M  V30 1167 C 115.576 -1.8454 -0.666303 0
M  V30 1168 O 114.701 -1.54374 -1.5165 0
M  V30 1169 C 115.296 -3.05585 1.46299 0
M  V30 1170 C 113.855 -3.54915 1.25349 0
M  V30 1171 C 113.002 -2.30804 1.53703 0
M  V30 1172 H 115.953 -1.00318 1.22971 0
M  V30 1173 H 115.974 -3.70174 0.880431 0
M  V30 1174 H 115.486 -2.93686 2.53713 0
M  V30 1175 H 113.587 -3.72067 0.199261 0
M  V30 1176 H 113.7 -4.36774 1.9689 0
M  V30 1177 H 112.064 -2.36007 0.957739 0
M  V30 1178 H 112.847 -2.21499 2.62284 0
M  V30 1179 N 115.292 -0.849877 -1.32721 0
M  V30 1180 C 116.52 -0.464754 -2.01613 0
M  V30 1181 C 116.935 0.937191 -1.63897 0
M  V30 1182 O 116.292 1.61081 -0.857856 0
M  V30 1183 C 116.343 -0.588638 -3.56675 0
M  V30 1184 O 116.064 -1.93535 -3.93034 0
M  V30 1185 C 117.565 -0.2019 -4.4284 0
M  V30 1186 H 114.785 -0.183215 -0.645502 0
M  V30 1187 H 117.329 -1.1455 -1.69407 0
M  V30 1188 H 115.484 0.0443159 -3.87375 0
M  V30 1189 H 115.898 -1.92871 -4.87751 0
M  V30 1190 H 117.372 -0.339599 -5.50954 0
M  V30 1191 H 117.849 0.857224 -4.30753 0
M  V30 1192 H 118.455 -0.809733 -4.17521 0
M  V30 1193 N 116.77 1.45427 -0.607355 0
M  V30 1194 C 118.016 2.0254 -0.102607 0
M  V30 1195 C 118.349 1.47478 1.26348 0
M  V30 1196 O 117.624 0.64939 1.83339 0
M  V30 1197 C 117.907 3.60044 -0.0634347 0
M  V30 1198 C 117.76 4.2544 -1.46017 0
M  V30 1199 C 119.079 4.35646 0.624514 0
M  V30 1200 H 116.198 0.73598 -0.0387607 0
M  V30 1201 H 118.84 1.73284 -0.779282 0
M  V30 1202 H 116.99 3.85101 0.512808 0
M  V30 1203 H 118.662 4.11569 -2.08347 0
M  V30 1204 H 116.905 3.83849 -2.02094 0
M  V30 1205 H 117.576 5.34342 -1.385 0
M  V30 1206 H 120.052 4.15882 0.134723 0
M  V30 1207 H 118.928 5.45376 0.621028 0
M  V30 1208 H 119.189 4.08501 1.69055 0
M  V30 1209 N 118.248 0.346503 1.53744 0
M  V30 1210 C 119.195 -0.508914 2.25119 0
M  V30 1211 C 120.165 -1.09315 1.25058 0
M  V30 1212 O 121.35 -1.12921 1.53797 0
M  V30 1213 C 118.49 -1.65246 3.02965 0
M  V30 1214 C 117.603 -1.09525 4.17886 0
M  V30 1215 C 116.738 -2.20634 4.83212 0
M  V30 1216 C 115.777 -1.62279 5.90196 0
M  V30 1217 N 114.914 -2.67143 6.49291 0
M  V30 1218 H 119.754 0.106283 2.9781 0
M  V30 1219 H 117.291 0.0642227 1.4696 0
M  V30 1220 H 119.249 -2.32574 3.4636 0
M  V30 1221 H 117.879 -2.2386 2.32565 0
M  V30 1222 H 116.931 -0.312818 3.79112 0
M  V30 1223 H 118.243 -0.628444 4.94825 0
M  V30 1224 H 117.397 -2.95821 5.29693 0
M  V30 1225 H 116.136 -2.70659 4.05703 0
M  V30 1226 H 115.141 -0.855989 5.43096 0
M  V30 1227 H 116.366 -1.13102 6.69615 0
M  V30 1228 H 114.312 -3.16417 5.74645 0
M  V30 1229 H 114.229 -2.25093 7.21713 0
M  V30 1230 H 115.497 -3.4209 7.00425 0
M  V30 1231 N 119.726 -1.57421 0.075193 0
M  V30 1232 C 120.975 -1.92794 -0.592731 0
M  V30 1233 C 121.288 -0.957478 -1.70563 0
M  V30 1234 O 122.494 -1.20417 -2.43335 0
M  V30 1235 C 120.95 -3.42495 -1.10569 0
M  V30 1236 C 120.558 -4.47994 -0.0236121 0
M  V30 1237 C 122.302 -3.86864 -1.74748 0
M  V30 1238 C 120.209 -5.88829 -0.550803 0
M  V30 1239 H 119.139 -0.719591 -0.225177 0
M  V30 1240 H 121.79 -1.82902 0.147978 0
M  V30 1241 H 120.172 -3.47471 -1.89947 0
M  V30 1242 H 121.346 -4.54637 0.751099 0
M  V30 1243 H 119.661 -4.13113 0.522159 0
M  V30 1244 H 122.258 -4.8947 -2.15229 0
M  V30 1245 H 122.601 -3.24417 -2.60882 0
M  V30 1246 H 123.134 -3.84504 -1.01986 0
M  V30 1247 H 119.873 -6.54929 0.273457 0
M  V30 1248 H 119.393 -5.85698 -1.29296 0
M  V30 1249 H 121.072 -6.38811 -1.02613 0
M  V30 1250 N 121.204 0.198386 -1.56346 0
M  V30 1251 C 122.444 0.92609 -1.82217 0
M  V30 1252 C 122.808 1.80584 -0.652195 0
M  V30 1253 O 124.009 2.56907 -0.790716 0
M  V30 1254 C 122.28 1.72354 -3.13096 0
M  V30 1255 S 123.839 2.50371 -3.6036 0
M  V30 1256 H 120.657 0.310677 -0.639532 0
M  V30 1257 H 123.259 0.189755 -1.94577 0
M  V30 1258 H 121.963 1.0678 -3.96265 0
M  V30 1259 H 121.494 2.50175 -3.03605 0
M  V30 1260 H 123.509 3.74488 -3.25535 0
M  V30 1261 N 122.682 1.50554 0.465978 0
M  V30 1262 C 123.63 1.70324 1.58406 0
M  V30 1263 C 124.624 0.569139 1.59553 0
M  V30 1264 O 125.83 0.749776 1.63641 0
M  V30 1265 H 122.205 0.537688 0.525734 0
M  V30 1266 H 124.176 2.64104 1.38894 0
M  V30 1267 C 122.925 1.81928 2.96307 0
M  V30 1268 H 122.248 2.68586 2.96144 0
M  V30 1269 H 123.688 1.99784 3.73982 0
M  V30 1270 C 122.147 0.572095 3.32007 0
M  V30 1271 O 122.677 -0.286416 4.00678 0
M  V30 1272 N 120.883 0.424606 2.87481 0
M  V30 1273 H 120.43 1.12427 2.31771 0
M  V30 1274 H 120.388 -0.408697 3.11732 0
M  V30 1275 N 124.16 -0.719506 1.40217 0
M  V30 1276 C 125.39 -1.50646 1.41384 0
M  V30 1277 C 125.798 -1.89197 0.0107743 0
M  V30 1278 O 125.141 -1.55709 -0.974708 0
M  V30 1279 C 125.203 -2.81405 2.23722 0
M  V30 1280 C 124.867 -2.65199 3.72181 0
M  V30 1281 C 125.864 -2.32717 4.64907 0
M  V30 1282 C 123.549 -2.81586 4.1595 0
M  V30 1283 C 125.543 -2.16827 5.99387 0
M  V30 1284 C 123.23 -2.65313 5.50502 0
M  V30 1285 C 124.228 -2.32981 6.42035 0
M  V30 1286 O 123.916 -2.16827 7.74107 0
M  V30 1287 H 123.648 -0.471606 0.484318 0
M  V30 1288 H 126.202 -0.895456 1.84853 0
M  V30 1289 H 124.432 -3.44823 1.75026 0
M  V30 1290 H 126.121 -3.43102 2.16878 0
M  V30 1291 H 126.887 -2.19694 4.32388 0
M  V30 1292 H 122.766 -3.0574 3.45027 0
M  V30 1293 H 126.31 -1.91513 6.70797 0
M  V30 1294 H 122.207 -2.7792 5.82607 0
M  V30 1295 H 122.975 -2.31778 7.84998 0
M  V30 1296 N 125.638 -1.25649 -0.95132 0
M  V30 1297 C 126.548 -1.08073 -2.08224 0
M  V30 1298 C 127.564 -0.0169666 -1.73992 0
M  V30 1299 O 128.74 -0.218593 -2.0021 0
M  V30 1300 C 125.805 -0.704922 -3.39458 0
M  V30 1301 C 124.866 -1.84699 -3.87537 0
M  V30 1302 C 124.099 -1.48902 -5.12508 0
M  V30 1303 O 124.322 -0.386156 -5.69091 0
M  V30 1304 O 123.256 -2.32033 -5.55378 0
M  V30 1305 H 127.082 -2.02924 -2.25954 0
M  V30 1306 H 124.667 -1.04618 -1.06656 0
M  V30 1307 H 126.549 -0.507609 -4.18332 0
M  V30 1308 H 125.224 0.214291 -3.2299 0
M  V30 1309 H 124.131 -2.09919 -3.09653 0
M  V30 1310 H 125.464 -2.74557 -4.08509 0
M  V30 1311 N 127.117 1.15442 -1.07289 0
M  V30 1312 C 128.365 1.85845 -0.794096 0
M  V30 1313 C 128.686 1.82692 0.681809 0
M  V30 1314 O 127.956 1.26741 1.49377 0
M  V30 1315 H 126.536 0.688089 -0.290763 0
M  V30 1316 H 129.198 1.39947 -1.3565 0
M  V30 1317 H 128.294 2.91001 -1.12804 0
M  V30 1318 N 128.595 0.856903 1.32268 0
M  V30 1319 C 130.006 0.515711 1.79436 0
M  V30 1320 C 130.357 -0.966586 1.70738 0
M  V30 1321 O 129.482 -1.75409 1.26731 0
M  V30 1322 C 130.077 0.929335 3.25805 0
M  V30 1323 C 128.636 0.640006 3.70919 0
M  V30 1324 C 127.783 1.12784 2.53328 0
M  V30 1325 H 130.734 1.04389 1.19535 0
M  V30 1326 H 130.755 0.246633 3.797 0
M  V30 1327 H 130.267 2.00821 3.32103 0
M  V30 1328 H 128.368 -0.428051 3.70133 0
M  V30 1329 H 128.481 1.20788 4.63624 0
M  V30 1330 H 126.845 0.548033 2.48734 0
M  V30 1331 H 127.628 2.21387 2.62379 0
M  V30 1332 N 130.073 -1.45103 0.615059 0
M  V30 1333 C 131.036 -2.29025 -0.0895485 0
M  V30 1334 C 132.036 -1.40174 -0.787906 0
M  V30 1335 O 133.226 -1.62217 -0.634933 0
M  V30 1336 C 130.358 -3.21376 -1.13711 0
M  V30 1337 H 131.551 -2.92807 0.648382 0
M  V30 1338 H 129.104 -1.51749 0.374444 0
M  V30 1339 H 129.839 -2.6241 -1.90556 0
M  V30 1340 H 129.624 -3.86834 -0.640475 0
M  V30 1341 H 131.114 -3.84459 -1.63036 0
M  V30 1342 N 131.551 -0.354651 -1.53558 0
M  V30 1343 C 132.498 0.496968 -2.25386 0
M  V30 1344 C 133.468 1.0865 -1.25636 0
M  V30 1345 O 134.653 1.12104 -1.54394 0
M  V30 1346 C 131.793 1.63637 -3.03837 0
M  V30 1347 C 130.906 1.07307 -4.18461 0
M  V30 1348 C 130.041 2.18068 -4.84376 0
M  V30 1349 C 129.08 1.59147 -5.91049 0
M  V30 1350 N 128.217 2.63695 -6.50699 0
M  V30 1351 H 133.057 -0.122075 -2.9775 0
M  V30 1352 H 130.594 -0.0720154 -1.46924 0
M  V30 1353 H 132.552 2.30734 -3.47589 0
M  V30 1354 H 131.182 2.22623 -2.33749 0
M  V30 1355 H 130.234 0.292708 -3.79272 0
M  V30 1356 H 131.546 0.602193 -4.95152 0
M  V30 1357 H 130.7 2.93007 -5.31255 0
M  V30 1358 H 129.439 2.68504 -4.07133 0
M  V30 1359 H 128.444 0.827175 -5.43542 0
M  V30 1360 H 129.669 1.09549 -6.70206 0
M  V30 1361 H 127.615 3.13365 -5.76315 0
M  V30 1362 H 127.532 2.21263 -7.22896 0
M  V30 1363 H 128.8 3.3837 -7.02229 0
M  V30 1364 N 133.029 1.57378 -0.0835403 0
M  V30 1365 C 134.278 1.93106 0.582498 0
M  V30 1366 C 134.591 0.96651 1.70053 0
M  V30 1367 O 135.797 1.21705 2.42693 0
M  V30 1368 C 134.253 3.43076 1.08751 0
M  V30 1369 C 133.861 4.48 -0.000146404 0
M  V30 1370 C 135.605 3.87785 1.72694 0
M  V30 1371 C 133.512 5.89113 0.519568 0
M  V30 1372 H 132.442 0.720775 0.221358 0
M  V30 1373 H 135.093 1.82821 -0.157675 0
M  V30 1374 H 133.475 3.48474 1.88101 0
M  V30 1375 H 134.649 4.54233 -0.775199 0
M  V30 1376 H 132.964 4.1283 -0.54406 0
M  V30 1377 H 135.561 4.90604 2.1263 0
M  V30 1378 H 135.904 3.25796 2.59158 0
M  V30 1379 H 136.437 3.8504 0.999457 0
M  V30 1380 H 133.176 6.54775 -0.308186 0
M  V30 1381 H 132.696 5.86376 1.26188 0
M  V30 1382 H 134.375 6.39346 0.992237 0
M  V30 1383 N 134.507 -0.190092 1.56449 0
M  V30 1384 C 135.417 -1.25591 1.98152 0
M  V30 1385 C 136.433 -1.49519 0.889944 0
M  V30 1386 O 137.609 -1.62036 1.19609 0
M  V30 1387 C 134.674 -2.57916 2.3169 0
M  V30 1388 C 133.735 -2.42015 3.5458 0
M  V30 1389 C 132.968 -3.6803 3.8651 0
M  V30 1390 O 133.191 -4.72413 3.1966 0
M  V30 1391 O 132.125 -3.6326 4.79923 0
M  V30 1392 H 135.951 -0.931988 2.89046 0
M  V30 1393 H 133.536 -0.395488 1.4407 0
M  V30 1394 H 135.418 -3.36008 2.54316 0
M  V30 1395 H 134.093 -2.89925 1.43963 0
M  V30 1396 H 133 -1.62017 3.37196 0
M  V30 1397 H 134.333 -2.14937 4.4279 0
M  V30 1398 N 135.985 -1.50799 -0.457987 0
M  V30 1399 C 137.231 -1.62683 -1.21088 0
M  V30 1400 C 137.564 -0.332268 -1.91336 0
M  V30 1401 O 136.839 0.667043 -1.82704 0
M  V30 1402 C 137.122 -2.81615 -2.24422 0
M  V30 1403 C 136.975 -4.20989 -1.58392 0
M  V30 1404 C 138.294 -2.96085 -3.2561 0
M  V30 1405 H 135.413 -0.592087 -0.438864 0
M  V30 1406 H 138.055 -1.83225 -0.50286 0
M  V30 1407 H 136.205 -2.64231 -2.84806 0
M  V30 1408 H 137.877 -4.49994 -1.01504 0
M  V30 1409 H 136.12 -4.24641 -0.886704 0
M  V30 1410 H 136.791 -5.0016 -2.33547 0
M  V30 1411 H 139.267 -3.12042 -2.75262 0
M  V30 1412 H 138.143 -3.80902 -3.95228 0
M  V30 1413 H 138.404 -2.0726 -3.90507 0
M  V30 1414 N 137.463 0.71206 -1.40597 0
M  V30 1415 C 138.74 1.46536 -1.29563 0
M  V30 1416 C 139.12 2.10931 0.0844217 0
M  V30 1417 O 138.468 2.00418 1.0975 0
M  V30 1418 C 138.678 2.49821 -2.43701 0
M  V30 1419 C 140.026 3.15551 -2.841 0
M  V30 1420 O 141.05 2.60142 -2.4332 0
M  V30 1421 O 139.909 4.15867 -3.54566 0
M  V30 1422 H 137.003 0.651801 -0.509004 0
M  V30 1423 H 139.549 0.743935 -1.52524 0
M  V30 1424 H 138.321 2.00778 -3.35863 0
M  V30 1425 H 137.944 3.29495 -2.22528 0
M  V30 1426 N 138.941 1.26152 0.944643 0
M  V30 1427 C 139.871 1.09902 2.06019 0
M  V30 1428 C 140.852 0.00519538 1.70099 0
M  V30 1429 O 142.037 0.176583 1.93396 0
M  V30 1430 C 139.167 0.727562 3.39594 0
M  V30 1431 C 138.121 1.77274 3.89561 0
M  V30 1432 C 137.447 1.25569 5.19747 0
M  V30 1433 C 138.747 3.17357 4.14827 0
M  V30 1434 H 140.441 2.03217 2.19871 0
M  V30 1435 H 137.987 0.978452 1.05652 0
M  V30 1436 H 139.94 0.600777 4.17095 0
M  V30 1437 H 138.664 -0.241287 3.25707 0
M  V30 1438 H 137.323 1.88814 3.14237 0
M  V30 1439 H 136.971 0.276783 5.02238 0
M  V30 1440 H 136.671 1.95433 5.54148 0
M  V30 1441 H 138.195 1.1415 5.99835 0
M  V30 1442 H 139.609 3.08914 4.82954 0
M  V30 1443 H 138.006 3.84781 4.60504 0
M  V30 1444 H 139.076 3.63673 3.20734 0
M  V30 1445 N 140.419 -1.14872 1.07899 0
M  V30 1446 C 141.665 -1.86064 0.806725 0
M  V30 1447 C 141.998 -1.82434 -0.665706 0
M  V30 1448 O 141.273 -1.25138 -1.48899 0
M  V30 1449 C 141.556 -3.34929 1.32267 0
M  V30 1450 C 141.409 -3.47161 2.86006 0
M  V30 1451 C 142.728 -4.29863 0.943717 0
M  V30 1452 H 139.847 -0.675591 0.294526 0
M  V30 1453 H 142.489 -1.34925 1.33773 0
M  V30 1454 H 140.639 -3.78611 0.870974 0
M  V30 1455 H 142.311 -3.12302 3.39507 0
M  V30 1456 H 140.554 -2.88539 3.23925 0
M  V30 1457 H 141.225 -4.51777 3.17177 0
M  V30 1458 H 143.701 -3.9417 1.33302 0
M  V30 1459 H 142.577 -5.32494 1.33198 0
M  V30 1460 H 142.838 -4.41846 -0.149796 0
M  V30 1461 N 141.898 -0.863906 -1.31812 0
M  V30 1462 C 143.126 -0.486111 -2.01108 0
M  V30 1463 C 143.541 0.919755 -1.64882 0
M  V30 1464 O 142.898 1.60162 -0.874893 0
M  V30 1465 C 142.949 -0.626435 -3.56031 0
M  V30 1466 O 142.67 -1.97693 -3.90959 0
M  V30 1467 C 144.171 -0.248857 -4.42601 0
M  V30 1468 H 141.391 -0.190052 -0.643523 0
M  V30 1469 H 143.935 -1.1634 -1.68182 0
M  V30 1470 H 142.09 0.00322717 -3.874 0
M  V30 1471 H 142.504 -1.98034 -4.85678 0
M  V30 1472 H 143.978 -0.398016 -5.50563 0
M  V30 1473 H 144.455 0.811489 -4.31638 0
M  V30 1474 H 145.061 -0.853971 -4.16638 0
M  V30 1475 N 143.376 1.44774 -0.622745 0
M  V30 1476 C 144.326 2.2774 0.108889 0
M  V30 1477 C 145.31 1.38189 0.824175 0
M  V30 1478 O 146.502 1.62063 0.711664 0
M  V30 1479 C 143.631 3.25353 1.09546 0
M  V30 1480 C 142.717 4.22392 0.380232 0
M  V30 1481 N 143.108 5.02388 -0.586535 0
M  V30 1482 C 141.406 4.41588 0.625792 0
M  V30 1483 C 142.107 5.72894 -1.00834 0
M  V30 1484 N 141.083 5.42479 -0.348878 0
M  V30 1485 H 144.885 2.86993 -0.63341 0
M  V30 1486 H 142.399 1.5611 -0.447589 0
M  V30 1487 H 144.396 3.83538 1.63414 0
M  V30 1488 H 143.056 2.6766 1.83815 0
M  V30 1489 H 144.067 5.0885 -0.963975 0
M  V30 1490 H 140.744 3.95003 1.352 0
M  V30 1491 H 142.134 6.47158 -1.80656 0
M  V30 1492 N 144.854 0.36279 1.53368 0
M  V30 1493 C 146.079 -0.231226 2.06107 0
M  V30 1494 C 146.504 -1.419 1.23474 0
M  V30 1495 O 145.862 -1.79524 0.253128 0
M  V30 1496 C 145.91 -0.605523 3.5548 0
M  V30 1497 O 145.014 -1.70312 3.7559 0
M  V30 1498 H 144.355 -0.034327 0.663112 0
M  V30 1499 H 146.885 0.522584 1.97814 0
M  V30 1500 H 146.895 -0.877314 3.98456 0
M  V30 1501 H 145.57 0.263004 4.15068 0
M  V30 1502 H 144.147 -1.4271 3.44512 0
M  V30 1503 N 146.332 -1.57332 0.0918853 0
M  V30 1504 C 147.609 -1.85691 -0.614668 0
M  V30 1505 C 147.989 -0.988146 -1.86545 0
M  V30 1506 O 147.337 -0.0597055 -2.28422 0
M  V30 1507 C 147.547 -3.36294 -0.933126 0
M  V30 1508 C 148.895 -4.04275 -1.29796 0
M  V30 1509 O 149.919 -3.41157 -1.02424 0
M  V30 1510 O 148.778 -5.1564 -1.81047 0
M  V30 1511 H 145.872 -0.767802 -0.307261 0
M  V30 1512 H 148.418 -1.69244 0.12434 0
M  V30 1513 H 147.19 -3.91273 -0.0456404 0
M  V30 1514 H 146.813 -3.58076 -1.72822 0
M  V30 1515 N 147.81 0.181792 -1.56548 0
M  V30 1516 C 149.221 0.745244 -1.71181 0
M  V30 1517 C 149.572 1.83262 -0.70068 0
M  V30 1518 O 148.697 2.15946 0.140154 0
M  V30 1519 C 149.292 1.35859 -3.10367 0
M  V30 1520 C 147.851 1.86898 -3.2672 0
M  V30 1521 C 146.998 0.743942 -2.67134 0
M  V30 1522 H 149.949 -0.0434661 -1.5864 0
M  V30 1523 H 149.97 2.22817 -3.08436 0
M  V30 1524 H 149.482 0.566948 -3.83937 0
M  V30 1525 H 147.583 2.68738 -2.5809 0
M  V30 1526 H 147.696 2.02162 -4.34359 0
M  V30 1527 H 146.06 1.16169 -2.26665 0
M  V30 1528 H 146.843 -0.035676 -3.43281 0
M  V30 1529 N 149.288 1.51039 0.449983 0
M  V30 1530 C 150.699 1.557 1.03026 0
M  V30 1531 C 151.05 0.372939 1.92623 0
M  V30 1532 O 150.175 -0.511771 2.10261 0
M  V30 1533 C 150.77 2.82171 1.87523 0
M  V30 1534 C 149.329 2.89444 2.40622 0
M  V30 1535 C 148.476 2.50228 1.19504 0
M  V30 1536 H 151.427 1.56999 0.231745 0
M  V30 1537 H 151.448 2.65219 2.72835 0
M  V30 1538 H 150.96 3.68331 1.22286 0
M  V30 1539 H 149.061 2.07685 3.0935 0
M  V30 1540 H 149.174 3.92816 2.74285 0
M  V30 1541 H 147.538 2.03139 1.53644 0
M  V30 1542 H 148.321 3.38719 0.558972 0
M  V30 1543 N 150.766 -0.704594 1.40972 0
M  V30 1544 C 152.182 -1.01406 1.23244 0
M  V30 1545 C 152.382 -2.01169 0.115399 0
M  V30 1546 O 151.438 -2.47021 -0.523147 0
M  V30 1547 C 152.751 -1.54728 2.57836 0
M  V30 1548 C 154.299 -1.66658 2.64942 0
M  V30 1549 C 154.774 -2.23383 3.9983 0
M  V30 1550 N 156.265 -2.30756 4.01629 0
M  V30 1551 C 157 -2.75655 5.02794 0
M  V30 1552 N 156.496 -3.20225 6.14352 0
M  V30 1553 N 158.289 -2.75138 4.90159 0
M  V30 1554 H 150.44 -0.0435285 2.12355 0
M  V30 1555 H 152.703 -0.0818951 0.944456 0
M  V30 1556 H 152.409 -0.888832 3.40283 0
M  V30 1557 H 152.283 -2.53084 2.79693 0
M  V30 1558 H 154.67 -2.31617 1.8286 0
M  V30 1559 H 154.751 -0.668717 2.46904 0
M  V30 1560 H 154.395 -1.59043 4.82357 0
M  V30 1561 H 154.325 -3.23904 4.15203 0
M  V30 1562 H 156.816 -1.99291 3.21079 0
M  V30 1563 H 157.129 -3.53084 6.87424 0
M  V30 1564 H 155.474 -3.18156 6.17901 0
M  V30 1565 H 158.665 -2.39661 4.02095 0
M  V30 1566 H 158.838 -3.09812 5.6914 0
M  V30 1567 N 152.244 -1.26651 -0.937939 0
M  V30 1568 C 153.207 -1.08546 -2.01867 0
M  V30 1569 C 154.207 -0.0327327 -1.60767 0
M  V30 1570 O 155.397 -0.276427 -1.71993 0
M  V30 1571 C 152.529 -0.651711 -3.34613 0
M  V30 1572 H 153.722 -2.04502 -2.1936 0
M  V30 1573 H 151.275 -1.09294 -1.11734 0
M  V30 1574 H 152.01 0.309696 -3.22818 0
M  V30 1575 H 151.795 -1.41189 -3.65798 0
M  V30 1576 H 153.285 -0.546973 -4.14002 0
M  V30 1577 N 153.722 1.14298 -1.08507 0
M  V30 1578 C 154.672 2.17449 -0.685569 0
M  V30 1579 C 155.656 1.58167 0.295315 0
M  V30 1580 O 156.848 1.76675 0.107172 0
M  V30 1581 C 153.977 3.43161 -0.0975318 0
M  V30 1582 C 153.063 4.09471 -1.10426 0
M  V30 1583 N 153.454 4.51089 -2.28806 0
M  V30 1584 C 151.752 4.35976 -0.940258 0
M  V30 1585 C 152.453 5.02654 -2.9277 0
M  V30 1586 N 151.429 4.96927 -2.20374 0
M  V30 1587 H 155.231 2.47369 -1.587 0
M  V30 1588 H 152.745 1.30992 -0.959936 0
M  V30 1589 H 154.742 4.16388 0.20664 0
M  V30 1590 H 153.402 3.14719 0.798872 0
M  V30 1591 H 154.413 4.44097 -2.66455 0
M  V30 1592 H 151.09 4.17386 -0.0977441 0
M  V30 1593 H 152.48 5.44723 -3.93352 0
M  V30 1594 N 155.201 0.870884 1.31352 0
M  V30 1595 C 156.164 0.332243 2.26779 0
M  V30 1596 C 157.164 -0.517302 1.52252 0
M  V30 1597 O 158.354 -0.326477 1.71113 0
M  V30 1598 C 155.486 -0.528066 3.36785 0
M  V30 1599 H 156.679 1.17469 2.75937 0
M  V30 1600 H 154.232 0.64655 1.423 0
M  V30 1601 H 154.967 -1.39167 2.92922 0
M  V30 1602 H 154.752 0.0802582 3.92018 0
M  V30 1603 H 156.242 -0.897179 4.07849 0
M  V30 1604 N 156.679 -1.44442 0.630414 0
M  V30 1605 C 157.629 -2.27794 -0.0968103 0
M  V30 1606 C 158.613 -1.38624 -0.816834 0
M  V30 1607 O 159.805 -1.62438 -0.70306 0
M  V30 1608 C 156.934 -3.25929 -1.07819 0
M  V30 1609 C 156.02 -4.22588 -0.357826 0
M  V30 1610 N 156.411 -5.0207 0.613169 0
M  V30 1611 C 154.709 -4.41914 -0.602365 0
M  V30 1612 C 155.41 -5.72351 1.03871 0
M  V30 1613 N 154.386 -5.42287 0.377642 0
M  V30 1614 H 158.188 -2.86653 0.648621 0
M  V30 1615 H 155.702 -1.55871 0.455862 0
M  V30 1616 H 157.699 -3.84399 -1.61378 0
M  V30 1617 H 156.359 -2.68631 -1.82393 0
M  V30 1618 H 157.37 -5.08331 0.990947 0
M  V30 1619 H 154.047 -3.95714 -1.33103 0
M  V30 1620 H 155.437 -6.4619 1.84086 0
M  V30 1621 N 158.157 -0.370918 -1.53173 0
M  V30 1622 C 159.382 0.220293 -2.06227 0
M  V30 1623 C 159.807 1.41243 -1.24225 0
M  V30 1624 O 159.165 1.79387 -0.262645 0
M  V30 1625 C 159.213 0.586663 -3.55796 0
M  V30 1626 O 158.317 1.68317 -3.76488 0
M  V30 1627 H 157.658 0.0308099 -0.663285 0
M  V30 1628 H 160.188 -0.533068 -1.97534 0
M  V30 1629 H 160.198 0.85617 -3.98916 0
M  V30 1630 H 158.873 -0.285013 -4.14922 0
M  V30 1631 H 157.45 1.40881 -3.45264 0
M  V30 1632 N 159.635 1.57281 -0.100228 0
M  V30 1633 C 160.565 2.17328 0.853857 0
M  V30 1634 C 161.546 1.10804 1.2906 0
M  V30 1635 O 162.731 1.38963 1.35657 0
M  V30 1636 C 159.861 2.75772 2.11109 0
M  V30 1637 C 158.815 3.87713 1.81279 0
M  V30 1638 C 158.141 4.32882 3.13874 0
M  V30 1639 C 159.441 5.10677 1.09574 0
M  V30 1640 H 161.135 2.97305 0.353545 0
M  V30 1641 H 158.681 1.43009 0.168612 0
M  V30 1642 H 160.634 3.16433 2.78296 0
M  V30 1643 H 159.358 1.93057 2.63432 0
M  V30 1644 H 158.017 3.476 1.16489 0
M  V30 1645 H 157.665 3.47051 3.64095 0
M  V30 1646 H 157.365 5.08358 2.94696 0
M  V30 1647 H 158.889 4.7618 3.82211 0
M  V30 1648 H 160.303 5.48474 1.66879 0
M  V30 1649 H 158.7 5.91615 1.00557 0
M  V30 1650 H 159.77 4.84835 0.0793299 0
M  V30 1651 N 161.113 -0.173488 1.56642 0
M  V30 1652 C 162.359 -0.891784 1.8214 0
M  V30 1653 C 162.692 -1.8199 0.677736 0
M  V30 1654 O 161.967 -1.91842 -0.320446 0
M  V30 1655 C 162.25 -1.68933 3.18015 0
M  V30 1656 C 162.103 -0.784487 4.42906 0
M  V30 1657 C 163.422 -2.65748 3.50808 0
M  V30 1658 H 160.541 -0.322761 0.662567 0
M  V30 1659 H 163.183 -0.158095 1.89341 0
M  V30 1660 H 161.333 -2.31482 3.12007 0
M  V30 1661 H 163.005 -0.172046 4.60979 0
M  V30 1662 H 161.248 -0.0924117 4.33702 0
M  V30 1663 H 161.919 -1.37799 5.34524 0
M  V30 1664 H 164.395 -2.13327 3.57255 0
M  V30 1665 H 163.271 -3.18619 4.4696 0
M  V30 1666 H 163.532 -3.45842 2.75401 0
M  V30 1667 N 162.591 -1.51276 -0.441967 0
M  V30 1668 C 163.839 -1.63392 -1.18943 0
M  V30 1669 C 164.16 -0.350159 -1.9183 0
M  V30 1670 O 163.43 0.633784 -1.85364 0
M  V30 1671 H 162.01 -0.602164 -0.442049 0
M  V30 1672 H 164.672 -1.88186 -0.507165 0
M  V30 1673 H 163.768 -2.45934 -1.92154 0
M  V30 1674 N 164.069 0.697108 -1.41344 0
M  V30 1675 C 165.016 1.81106 -1.43071 0
M  V30 1676 C 165.986 1.63632 -0.285275 0
M  V30 1677 O 167.171 1.84504 -0.486091 0
M  V30 1678 C 164.311 3.18975 -1.31715 0
M  V30 1679 C 163.424 3.47892 -2.56115 0
M  V30 1680 C 162.559 4.75367 -2.37064 0
M  V30 1681 C 161.598 4.97247 -3.56948 0
M  V30 1682 N 160.735 6.15947 -3.36977 0
M  V30 1683 H 165.575 1.78965 -2.38276 0
M  V30 1684 H 163.112 0.873975 -1.18322 0
M  V30 1685 H 165.07 3.98615 -1.23133 0
M  V30 1686 H 163.7 3.20297 -0.401183 0
M  V30 1687 H 162.752 2.62669 -2.75153 0
M  V30 1688 H 164.064 3.59962 -3.45295 0
M  V30 1689 H 163.218 5.63059 -2.25941 0
M  V30 1690 H 161.957 4.65541 -1.45338 0
M  V30 1691 H 160.962 4.08004 -3.68527 0
M  V30 1692 H 162.187 5.08934 -4.49626 0
M  V30 1693 H 160.133 6.07336 -2.47949 0
M  V30 1694 H 160.05 6.28777 -4.19732 0
M  V30 1695 H 161.318 7.06377 -3.29623 0
M  V30 1696 N 165.547 1.27147 0.931209 0
M  V30 1697 C 166.479 1.05364 2.03546 0
M  V30 1698 C 167.492 0.0108438 1.62796 0
M  V30 1699 O 168.681 0.25202 1.76712 0
M  V30 1700 C 165.781 0.575566 3.33977 0
M  V30 1701 C 164.954 1.68985 4.03439 0
M  V30 1702 C 164.013 1.20813 5.12143 0
M  V30 1703 O 163.039 1.90712 5.363 0
M  V30 1704 N 164.241 0.0618851 5.80467 0
M  V30 1705 H 167.006 2.00454 2.22796 0
M  V30 1706 H 164.567 1.18666 1.10136 0
M  V30 1707 H 166.559 0.237264 4.04004 0
M  V30 1708 H 165.129 -0.282016 3.11325 0
M  V30 1709 H 164.349 2.19861 3.27192 0
M  V30 1710 H 165.637 2.4378 4.46597 0
M  V30 1711 H 165.035 -0.521621 5.6329 0
M  V30 1712 H 163.592 -0.217264 6.51438 0
M  V30 1713 N 167.025 -1.13721 1.09112 0
M  V30 1714 C 168.265 -1.86576 0.834801 0
M  V30 1715 C 168.629 -1.81435 -0.628122 0
M  V30 1716 O 169.83 -2.49497 -1.00024 0
M  V30 1717 C 168.101 -3.30872 1.35124 0
M  V30 1718 S 169.66 -4.21257 1.22832 0
M  V30 1719 H 166.478 -0.643666 0.302017 0
M  V30 1720 H 169.08 -1.37085 1.39385 0
M  V30 1721 H 167.784 -3.32166 2.41027 0
M  V30 1722 H 167.315 -3.85423 0.788185 0
M  V30 1723 H 169.33 -4.95884 0.177191 0
M  V30 1724 N 168.503 -0.877838 -1.30888 0
M  V30 1725 C 169.728 -0.506629 -2.01117 0
M  V30 1726 C 170.153 0.895564 -1.65412 0
M  V30 1727 O 169.511 1.5923 -0.866922 0
M  V30 1728 C 169.559 -0.680223 -3.54126 0
M  V30 1729 O 168.663 0.277033 -4.11468 0
M  V30 1730 H 168.004 -0.200518 -0.633 0
M  V30 1731 H 170.534 -1.18342 -1.66902 0
M  V30 1732 H 170.544 -0.5765 -4.03907 0
M  V30 1733 H 169.219 -1.70261 -3.79452 0
M  V30 1734 H 167.796 0.127606 -3.72682 0
M  V30 1735 N 169.982 1.44106 -0.638065 0
M  V30 1736 C 170.892 2.34513 0.0637334 0
M  V30 1737 C 171.908 1.53018 0.828346 0
M  V30 1738 O 173.084 1.85723 0.779036 0
M  V30 1739 C 170.149 3.31095 1.02844 0
M  V30 1740 C 169.21 4.28497 0.26244 0
M  V30 1741 C 168.443 5.20465 1.1812 0
M  V30 1742 O 168.666 5.16514 2.42011 0
M  V30 1743 O 167.6 5.98251 0.661774 0
M  V30 1744 H 171.426 2.95989 -0.68003 0
M  V30 1745 H 169.011 1.43994 -0.398252 0
M  V30 1746 H 170.893 3.90526 1.58327 0
M  V30 1747 H 169.568 2.72144 1.7527 0
M  V30 1748 H 168.475 3.72592 -0.335602 0
M  V30 1749 H 169.808 4.90388 -0.421936 0
M  V30 1750 N 171.46 0.379036 1.52974 0
M  V30 1751 C 172.39 -0.452706 2.29069 0
M  V30 1752 C 173.371 -1.07237 1.32039 0
M  V30 1753 O 174.556 -1.08708 1.60923 0
M  V30 1754 C 171.686 -1.5856 3.08992 0
M  V30 1755 C 170.64 -1.0925 4.13822 0
M  V30 1756 C 169.966 -2.31668 4.81907 0
M  V30 1757 C 171.266 -0.167702 5.22031 0
M  V30 1758 H 172.96 0.182181 2.98845 0
M  V30 1759 H 170.506 0.0890592 1.43724 0
M  V30 1760 H 172.459 -2.1742 3.6098 0
M  V30 1761 H 171.183 -2.24792 2.36931 0
M  V30 1762 H 169.842 -0.526494 3.628 0
M  V30 1763 H 169.49 -2.96386 4.06404 0
M  V30 1764 H 169.19 -1.9934 5.52754 0
M  V30 1765 H 170.714 -2.91189 5.36695 0
M  V30 1766 H 172.128 -0.664186 5.6944 0
M  V30 1767 H 170.525 0.0653265 6.00064 0
M  V30 1768 H 171.595 0.786347 4.78482 0
M  V30 1769 N 172.938 -1.57226 0.108567 0
M  V30 1770 C 174.186 -1.94448 -0.550853 0
M  V30 1771 C 174.507 -0.992074 -1.67878 0
M  V30 1772 O 173.777 -0.0465 -1.95845 0
M  V30 1773 H 172.357 -0.717897 -0.206479 0
M  V30 1774 H 175.019 -1.94112 0.175062 0
M  V30 1775 H 174.115 -2.97218 -0.952259 0
M  V30 1776 N 174.416 0.165178 -1.56732 0
M  V30 1777 C 175.665 0.879143 -1.81532 0
M  V30 1778 C 175.978 1.83144 -0.686842 0
M  V30 1779 O 177.184 2.58823 -0.819944 0
M  V30 1780 C 175.64 1.61388 -3.21686 0
M  V30 1781 C 175.248 0.704904 -4.4242 0
M  V30 1782 C 176.992 2.3157 -3.55774 0
M  V30 1783 C 174.899 1.44022 -5.73595 0
M  V30 1784 H 173.829 0.332033 -0.676957 0
M  V30 1785 H 176.48 0.132008 -1.83025 0
M  V30 1786 H 174.862 2.40599 -3.14529 0
M  V30 1787 H 176.036 -0.0506815 -4.60772 0
M  V30 1788 H 174.351 0.112419 -4.16248 0
M  V30 1789 H 176.948 2.8719 -4.51028 0
M  V30 1790 H 177.291 3.07201 -2.8095 0
M  V30 1791 H 177.824 1.59297 -3.64513 0
M  V30 1792 H 174.563 0.72612 -6.51466 0
M  V30 1793 H 174.083 2.16898 -5.5921 0
M  V30 1794 H 175.762 1.98606 -6.15764 0
M  V30 1795 N 175.894 1.51508 0.433938 0
M  V30 1796 C 177.134 1.66006 1.19253 0
M  V30 1797 C 177.498 0.369868 1.88404 0
M  V30 1798 O 178.699 0.39066 2.65946 0
M  V30 1799 C 176.97 2.83229 2.17981 0
M  V30 1800 S 178.529 3.18075 3.02281 0
M  V30 1801 H 175.347 0.584821 0.404358 0
M  V30 1802 H 177.949 1.89425 0.48357 0
M  V30 1803 H 176.653 3.75407 1.65824 0
M  V30 1804 H 176.184 2.6201 2.93453 0
M  V30 1805 H 178.199 2.64772 4.19655 0
M  V30 1806 N 177.372 -0.689602 1.41712 0
M  V30 1807 C 178.335 -1.78521 1.43746 0
M  V30 1808 C 179.335 -1.57436 0.327191 0
M  V30 1809 O 180.525 -1.64 0.587348 0
M  V30 1810 C 177.657 -3.16971 1.25467 0
M  V30 1811 H 178.85 -1.78108 2.41283 0
M  V30 1812 H 176.403 -0.89781 1.27942 0
M  V30 1813 H 177.138 -3.23019 0.287948 0
M  V30 1814 H 176.923 -3.33678 2.05917 0
M  V30 1815 H 178.413 -3.96935 1.2974 0
M  V30 1816 N 178.85 -1.27639 -0.924453 0
M  V30 1817 C 180.096 -1.14336 -1.67497 0
M  V30 1818 C 180.429 0.309465 -1.91718 0
M  V30 1819 O 179.704 1.22608 -1.50989 0
M  V30 1820 C 179.987 -1.93096 -3.0395 0
M  V30 1821 C 179.84 -3.46381 -2.8695 0
M  V30 1822 C 181.159 -1.73798 -4.0433 0
M  V30 1823 H 178.278 -0.416728 -0.607871 0
M  V30 1824 H 180.92 -1.56832 -1.07256 0
M  V30 1825 H 179.07 -1.56982 -3.55372 0
M  V30 1826 H 180.742 -3.92343 -2.42621 0
M  V30 1827 H 178.985 -3.72557 -2.22225 0
M  V30 1828 H 179.656 -3.96735 -3.83804 0
M  V30 1829 H 182.132 -2.05293 -3.61931 0
M  V30 1830 H 181.008 -2.31294 -4.97789 0
M  V30 1831 H 181.269 -0.686725 -4.36734 0
M  V30 1832 N 180.328 1.1314 -1.09713 0
M  V30 1833 C 181.553 1.88862 -0.857081 0
M  V30 1834 C 181.978 1.78729 0.586304 0
M  V30 1835 O 181.336 1.13692 1.41222 0
M  V30 1836 C 181.384 3.36325 -1.30069 0
M  V30 1837 O 180.488 4.09815 -0.461007 0
M  V30 1838 H 179.829 0.587108 -0.310162 0
M  V30 1839 H 182.359 1.43129 -1.46203 0
M  V30 1840 H 182.369 3.87157 -1.28738 0
M  V30 1841 H 181.044 3.43017 -2.35185 0
M  V30 1842 H 179.621 3.68986 -0.538888 0
M  V30 1843 N 181.806 0.884767 1.30421 0
M  V30 1844 C 183.052 0.503851 1.96441 0
M  V30 1845 C 183.385 -0.944518 1.69684 0
M  V30 1846 O 182.66 -1.66737 1.00145 0
M  V30 1847 C 182.943 0.779085 3.51571 0
M  V30 1848 C 182.796 2.27807 3.87846 0
M  V30 1849 C 184.115 0.255452 4.39358 0
M  V30 1850 H 181.234 0.184533 0.713524 0
M  V30 1851 H 183.876 1.10872 1.54297 0
M  V30 1852 H 182.026 0.264274 3.876 0
M  V30 1853 H 183.698 2.86127 3.61841 0
M  V30 1854 H 181.941 2.74479 3.35922 0
M  V30 1855 H 182.612 2.42125 4.96064 0
M  V30 1856 H 185.088 0.696079 4.10236 0
M  V30 1857 H 183.964 0.477361 5.4682 0
M  V30 1858 H 184.225 -0.843293 4.33983 0
M  V30 1859 N 183.284 -1.43765 0.645699 0
M  V30 1860 C 184.532 -2.01499 0.155731 0
M  V30 1861 C 184.853 -1.51151 -1.232 0
M  V30 1862 O 184.123 -0.721044 -1.82148 0
M  V30 1863 H 182.703 -0.745003 0.0545817 0
M  V30 1864 H 185.365 -1.76075 0.835677 0
M  V30 1865 H 184.461 -3.1181 0.134577 0
M  V30 1866 N 184.763 -0.387143 -1.52771 0
M  V30 1867 C 186.174 0.0873634 -1.86495 0
M  V30 1868 C 186.525 1.46336 -1.30691 0
M  V30 1869 O 185.65 2.068 -0.637409 0
M  V30 1870 C 186.245 0.165305 -3.38396 0
M  V30 1871 C 184.804 0.584101 -3.7184 0
M  V30 1872 C 183.951 -0.255279 -2.76122 0
M  V30 1873 H 186.902 -0.605104 -1.46711 0
M  V30 1874 H 186.923 0.984848 -3.67534 0
M  V30 1875 H 186.435 -0.836301 -3.78982 0
M  V30 1876 H 184.536 1.59315 -3.36823 0
M  V30 1877 H 184.649 0.343749 -4.77865 0
M  V30 1878 H 183.013 0.279126 -2.53166 0
M  V30 1879 H 183.796 -1.25482 -3.19545 0
M  V30 1880 N 186.241 1.57166 -0.116904 0
M  V30 1881 C 187.188 2.15202 0.83408 0
M  V30 1882 C 188.158 1.07644 1.26499 0
M  V30 1883 O 189.343 1.35541 1.34288 0
M  V30 1884 C 186.483 2.75405 2.07957 0
M  V30 1885 C 185.596 3.97264 1.69721 0
M  V30 1886 C 184.731 4.45561 2.89221 0
M  V30 1887 C 183.77 5.59956 2.47215 0
M  V30 1888 N 182.907 6.03006 3.59622 0
M  V30 1889 H 187.747 2.96141 0.332335 0
M  V30 1890 H 185.284 1.46309 0.152349 0
M  V30 1891 H 187.242 3.08439 2.80929 0
M  V30 1892 H 185.872 1.97159 2.55594 0
M  V30 1893 H 184.924 3.70404 0.866316 0
M  V30 1894 H 186.236 4.80226 1.34849 0
M  V30 1895 H 185.39 4.80493 3.7042 0
M  V30 1896 H 184.129 3.61544 3.27318 0
M  V30 1897 H 183.134 5.2463 1.64448 0
M  V30 1898 H 184.359 6.45738 2.10238 0
M  V30 1899 H 182.305 5.21931 3.97396 0
M  V30 1900 H 182.222 6.80819 3.28667 0
M  V30 1901 H 183.49 6.42576 4.41267 0
M  V30 1902 N 187.719 -0.156864 1.56817 0
M  V30 1903 C 188.996 -0.899244 1.73704 0
M  V30 1904 C 189.376 -1.99771 0.682254 0
M  V30 1905 O 188.724 -2.26515 -0.300522 0
M  V30 1906 C 188.934 -1.45075 3.17418 0
M  V30 1907 C 190.282 -1.91802 3.7881 0
M  V30 1908 O 191.306 -1.54838 3.20786 0
M  V30 1909 O 190.165 -2.5994 4.80722 0
M  V30 1910 H 187.259 -0.424267 0.709878 0
M  V30 1911 H 189.805 -0.143561 1.69092 0
M  V30 1912 H 188.577 -0.660846 3.85679 0
M  V30 1913 H 188.2 -2.27021 3.26416 0
M  V30 1914 N 189.197 -1.51736 -0.425897 0
M  V30 1915 C 190.13 -1.68574 -1.53812 0
M  V30 1916 C 191.108 -0.53328 -1.53606 0
M  V30 1917 O 192.292 -0.758555 -1.72564 0
M  V30 1918 C 189.419 -1.70977 -2.92377 0
M  V30 1919 C 188.465 -2.92324 -3.10563 0
M  V30 1920 S 189.298 -4.52952 -2.85648 0
M  V30 1921 C 190.454 -4.58117 -4.26474 0
M  V30 1922 H 190.687 -2.62647 -1.39298 0
M  V30 1923 H 188.22 -1.41564 -0.616361 0
M  V30 1924 H 190.178 -1.73047 -3.72243 0
M  V30 1925 H 188.839 -0.78061 -3.04245 0
M  V30 1926 H 188.032 -2.90439 -4.11899 0
M  V30 1927 H 187.634 -2.88055 -2.38538 0
M  V30 1928 H 189.926 -4.34462 -5.19855 0
M  V30 1929 H 190.869 -5.59983 -4.33388 0
M  V30 1930 H 191.277 -3.8732 -4.10662 0
M  V30 1931 N 190.675 0.682077 -1.42076 0
M  V30 1932 C 191.903 1.47057 -1.4554 0
M  V30 1933 C 192.318 1.8869 -0.0645779 0
M  V30 1934 O 191.675 1.57666 0.919115 0
M  V30 1935 C 191.726 2.72442 -2.37609 0
M  V30 1936 O 191.447 2.32559 -3.71279 0
M  V30 1937 C 192.948 3.66069 -2.50017 0
M  V30 1938 H 190.168 0.452737 -0.495248 0
M  V30 1939 H 192.712 0.838695 -1.8651 0
M  V30 1940 H 190.867 3.31835 -1.9991 0
M  V30 1941 H 191.281 3.13475 -4.20516 0
M  V30 1942 H 192.755 4.50792 -3.18576 0
M  V30 1943 H 193.232 4.11476 -1.53572 0
M  V30 1944 H 193.838 3.12572 -2.88407 0
M  V30 1945 N 192.153 1.28127 0.917671 0
M  V30 1946 C 193.116 1.11744 2.00115 0
M  V30 1947 C 194.116 0.0583052 1.60694 0
M  V30 1948 O 195.306 0.303755 1.71531 0
M  V30 1949 C 192.438 0.704862 3.33533 0
M  V30 1950 H 193.631 2.07966 2.16079 0
M  V30 1951 H 191.184 1.11058 1.09981 0
M  V30 1952 H 191.919 -0.258299 3.2327 0
M  V30 1953 H 191.704 1.4699 3.63505 0
M  V30 1954 H 193.194 0.612768 4.1308 0
M  V30 1955 N 193.631 -1.12557 1.10312 0
M  V30 1956 C 194.563 -2.17971 0.708625 0
M  V30 1957 C 195.576 -1.60806 -0.254027 0
M  V30 1958 O 196.765 -1.78458 -0.0386891 0
M  V30 1959 C 193.865 -3.38891 0.0248198 0
M  V30 1960 C 193.038 -4.25548 1.01132 0
M  V30 1961 C 192.097 -5.24972 0.35924 0
M  V30 1962 O 191.123 -5.60174 1.00965 0
M  V30 1963 N 192.325 -5.73747 -0.882847 0
M  V30 1964 H 195.09 -2.52427 1.61557 0
M  V30 1965 H 192.651 -1.27967 0.991771 0
M  V30 1966 H 194.643 -4.02485 -0.422852 0
M  V30 1967 H 193.213 -3.02596 -0.784514 0
M  V30 1968 H 192.433 -3.58589 1.6373 0
M  V30 1969 H 193.721 -4.80294 1.67914 0
M  V30 1970 H 193.119 -5.4731 -1.43065 0
M  V30 1971 H 191.676 -6.39234 -1.27369 0
M  V30 1972 N 195.109 -0.891671 -1.2995 0
M  V30 1973 C 196.356 -0.513501 -1.95881 0
M  V30 1974 C 196.684 0.938655 -1.70351 0
M  V30 1975 O 195.939 1.67936 -1.00478 0
M  V30 1976 C 196.238 -0.742868 -3.49594 0
M  V30 1977 C 195.904 -2.17114 -3.95186 0
M  V30 1978 C 194.566 -2.56169 -4.07346 0
M  V30 1979 C 196.918 -3.10162 -4.18866 0
M  V30 1980 C 194.246 -3.87469 -4.4055 0
M  V30 1981 C 196.598 -4.41001 -4.53542 0
M  V30 1982 C 195.262 -4.79941 -4.63911 0
M  V30 1983 H 194.532 -0.187903 -0.71678 0
M  V30 1984 H 197.179 -1.1288 -1.54694 0
M  V30 1985 H 195.484 -0.044586 -3.91775 0
M  V30 1986 H 197.181 -0.429767 -3.9869 0
M  V30 1987 H 193.771 -1.85801 -3.86233 0
M  V30 1988 H 197.955 -2.81206 -4.08946 0
M  V30 1989 H 193.211 -4.17371 -4.46779 0
M  V30 1990 H 197.385 -5.13133 -4.70815 0
M  V30 1991 H 195.012 -5.81719 -4.89395 0
M  V30 1992 N 196.587 1.43421 -0.653314 0
M  V30 1993 C 197.535 2.32546 0.0501531 0
M  V30 1994 C 198.529 1.48617 0.812985 0
M  V30 1995 O 199.735 1.64825 0.723375 0
M  V30 1996 H 196.11 0.751185 0.0350032 0
M  V30 1997 H 198.081 2.89602 -0.719261 0
M  V30 1998 C 196.83 3.32925 1.00279 0
M  V30 1999 H 196.153 3.97532 0.425236 0
M  V30 2000 H 197.593 3.9792 1.46409 0
M  V30 2001 C 196.052 2.63532 2.09886 0
M  V30 2002 O 196.582 2.45092 3.18265 0
M  V30 2003 N 194.788 2.22905 1.86445 0
M  V30 2004 H 194.335 2.38103 0.98309 0
M  V30 2005 H 194.293 1.76805 2.59976 0
M  V30 2006 N 198.065 0.39524 1.52563 0
M  V30 2007 C 199.013 -0.451859 2.28169 0
M  V30 2008 C 200.007 -1.05792 1.32304 0
M  V30 2009 O 201.213 -0.997718 1.49818 0
M  V30 2010 H 197.588 -0.164481 0.733792 0
M  V30 2011 H 199.559 0.207199 2.9768 0
M  V30 2012 C 198.308 -1.56385 3.10546 0
M  V30 2013 H 197.631 -1.10682 3.84174 0
M  V30 2014 H 199.071 -2.13067 3.66577 0
M  V30 2015 C 197.53 -2.52328 2.23231 0
M  V30 2016 O 198.06 -3.5588 1.86312 0
M  V30 2017 N 196.266 -2.22209 1.87274 0
M  V30 2018 H 195.813 -1.38033 2.17496 0
M  V30 2019 H 195.771 -2.86652 1.29143 0
M  V30 2020 N 199.544 -1.57102 0.125237 0
M  V30 2021 C 200.474 -2.18659 -0.819174 0
M  V30 2022 C 201.455 -1.12843 -1.27281 0
M  V30 2023 O 202.64 -1.41104 -1.33429 0
M  V30 2024 C 199.77 -2.79096 -2.06695 0
M  V30 2025 C 198.724 -3.90548 -1.75088 0
M  V30 2026 C 198.05 -4.37821 -3.06948 0
M  V30 2027 C 199.35 -5.12356 -1.01435 0
M  V30 2028 H 201.044 -2.9783 -0.306202 0
M  V30 2029 H 198.59 -1.4326 -0.145839 0
M  V30 2030 H 200.543 -3.2082 -2.73226 0
M  V30 2031 H 199.267 -1.97223 -2.60328 0
M  V30 2032 H 197.926 -3.49409 -1.10944 0
M  V30 2033 H 197.574 -3.52799 -3.58527 0
M  V30 2034 H 197.274 -5.12982 -2.86571 0
M  V30 2035 H 198.798 -4.822 -3.74587 0
M  V30 2036 H 200.212 -5.5106 -1.58132 0
M  V30 2037 H 198.609 -5.9314 -0.911319 0
M  V30 2038 H 199.679 -4.849 -0.00218681 0
M  V30 2039 N 201.022 0.148545 -1.56898 0
M  V30 2040 C 202.27 0.859717 -1.82902 0
M  V30 2041 C 202.591 1.81775 -0.70588 0
M  V30 2042 O 201.861 1.93994 0.272586 0
M  V30 2043 H 200.441 0.320469 -0.674766 0
M  V30 2044 H 203.103 0.142918 -1.94375 0
M  V30 2045 H 202.199 1.4229 -2.77777 0
M  V30 2046 N 202.5 1.5196 0.417844 0
M  V30 2047 C 203.746 1.65836 1.16732 0
M  V30 2048 C 204.079 0.382881 1.90388 0
M  V30 2049 O 203.354 -0.618368 1.84408 0
M  V30 2050 C 203.637 2.87466 2.16876 0
M  V30 2051 C 203.49 4.25041 1.47174 0
M  V30 2052 C 204.809 3.04613 3.17646 0
M  V30 2053 H 201.928 0.603515 0.423011 0
M  V30 2054 H 204.57 1.84494 0.454105 0
M  V30 2055 H 202.72 2.71689 2.777 0
M  V30 2056 H 204.392 4.52527 0.895376 0
M  V30 2057 H 202.635 4.26843 0.773806 0
M  V30 2058 H 203.306 5.06176 2.20204 0
M  V30 2059 H 205.782 3.1923 2.66892 0
M  V30 2060 H 204.658 3.91247 3.8499 0
M  V30 2061 H 204.919 2.17541 3.84874 0
M  V30 2062 N 203.978 -0.674533 1.42435 0
M  V30 2063 C 204.908 -1.80009 1.48724 0
M  V30 2064 C 205.889 -1.6659 0.343793 0
M  V30 2065 O 207.074 -1.86007 0.558137 0
M  V30 2066 C 204.204 -3.18306 1.38919 0
M  V30 2067 C 203.158 -3.46461 2.51294 0
M  V30 2068 C 202.484 -4.84335 2.26547 0
M  V30 2069 C 203.784 -3.43328 3.93603 0
M  V30 2070 H 205.478 -1.75004 2.42928 0
M  V30 2071 H 203.024 -0.840533 1.16923 0
M  V30 2072 H 204.977 -3.9678 1.41927 0
M  V30 2073 H 203.701 -3.2399 0.412094 0
M  V30 2074 H 202.36 -2.70348 2.47604 0
M  V30 2075 H 202.008 -4.86669 1.2713 0
M  V30 2076 H 201.708 -5.04136 3.01861 0
M  V30 2077 H 203.232 -5.65094 2.31304 0
M  V30 2078 H 204.646 -4.11772 3.98894 0
M  V30 2079 H 203.043 -3.74664 4.68771 0
M  V30 2080 H 204.113 -2.41897 4.20255 0
M  V30 2081 N 205.456 -1.28612 -0.910864 0
M  V30 2082 C 206.406 -1.09423 -2.00026 0
M  V30 2083 C 207.39 -0.0170079 -1.60891 0
M  V30 2084 O 208.582 -0.237472 -1.754 0
M  V30 2085 C 205.711 -0.76114 -3.34756 0
M  V30 2086 C 204.797 -1.87735 -3.80285 0
M  V30 2087 N 205.188 -3.11938 -3.98156 0
M  V30 2088 C 203.486 -1.76786 -4.09467 0
M  V30 2089 C 204.187 -3.84687 -4.36338 0
M  V30 2090 N 203.163 -3.12555 -4.44759 0
M  V30 2091 H 206.965 -2.03658 -2.11898 0
M  V30 2092 H 204.479 -1.19573 -1.09891 0
M  V30 2093 H 206.476 -0.604743 -4.12491 0
M  V30 2094 H 205.136 0.173403 -3.24237 0
M  V30 2095 H 206.147 -3.47516 -3.83996 0
M  V30 2096 H 202.824 -0.905284 -4.07567 0
M  V30 2097 H 204.214 -4.91518 -4.58104 0
M  V30 2098 N 206.934 1.1197 -1.10907 0
M  V30 2099 C 208.18 1.8386 -0.855773 0
M  V30 2100 C 208.513 1.84134 0.617103 0
M  V30 2101 O 207.788 1.29041 1.45529 0
M  V30 2102 C 208.071 3.31305 -1.411 0
M  V30 2103 C 207.924 3.39456 -2.9511 0
M  V30 2104 C 209.243 4.2721 -1.05736 0
M  V30 2105 H 206.362 0.667545 -0.312334 0
M  V30 2106 H 209.004 1.31331 -1.37303 0
M  V30 2107 H 207.154 3.76169 -0.97105 0
M  V30 2108 H 208.826 3.03191 -3.47668 0
M  V30 2109 H 207.069 2.79849 -3.31462 0
M  V30 2110 H 207.74 4.43209 -3.29044 0
M  V30 2111 H 210.216 3.90497 -1.43706 0
M  V30 2112 H 209.092 5.28775 -1.47269 0
M  V30 2113 H 209.353 4.42088 0.0325958 0
M  V30 2114 N 208.412 0.89855 1.29475 0
M  V30 2115 C 209.64 0.539261 1.99749 0
M  V30 2116 C 210.055 -0.875716 1.67262 0
M  V30 2117 O 209.412 -1.57786 0.917049 0
M  V30 2118 C 209.463 0.72061 3.54245 0
M  V30 2119 O 209.184 2.07989 3.8558 0
M  V30 2120 C 210.685 0.366118 4.41786 0
M  V30 2121 H 207.905 0.207047 0.638258 0
M  V30 2122 H 210.449 1.20758 1.65039 0
M  V30 2123 H 208.604 0.0994862 3.87272 0
M  V30 2124 H 209.018 2.10841 4.80257 0
M  V30 2125 H 210.492 0.543848 5.49314 0
M  V30 2126 H 210.969 -0.696763 4.33638 0
M  V30 2127 H 211.575 0.964135 4.14228 0
M  V30 2128 N 209.89 -1.43072 0.660911 0
M  V30 2129 C 210.837 -2.30785 -0.0259884 0
M  V30 2130 C 211.807 -1.45184 -0.806888 0
M  V30 2131 O 212.992 -1.74041 -0.781943 0
M  V30 2132 C 210.132 -3.30861 -0.981067 0
M  V30 2133 C 209.245 -4.31558 -0.195458 0
M  V30 2134 C 208.38 -5.18712 -1.14503 0
M  V30 2135 C 207.419 -6.11097 -0.350299 0
M  V30 2136 N 206.556 -6.90849 -1.25186 0
M  V30 2137 H 211.396 -2.88975 0.727846 0
M  V30 2138 H 208.933 -1.42353 0.370682 0
M  V30 2139 H 210.891 -3.87399 -1.54849 0
M  V30 2140 H 209.521 -2.74304 -1.70169 0
M  V30 2141 H 208.573 -3.77252 0.488374 0
M  V30 2142 H 209.885 -4.9701 0.422176 0
M  V30 2143 H 209.039 -5.79914 -1.78284 0
M  V30 2144 H 207.778 -4.53404 -1.79656 0
M  V30 2145 H 206.783 -5.48976 0.300808 0
M  V30 2146 H 208.008 -6.7845 0.296941 0
M  V30 2147 H 205.954 -6.28182 -1.89005 0
M  V30 2148 H 205.871 -7.52854 -0.688971 0
M  V30 2149 H 207.139 -7.5655 -1.87757 0
M  V30 2150 N 211.368 -0.403325 -1.52352 0
M  V30 2151 C 212.315 0.425011 -2.26853 0
M  V30 2152 C 213.285 1.04598 -1.29029 0
M  V30 2153 O 214.47 1.07135 -1.57882 0
M  V30 2154 C 211.61 1.53888 -3.08889 0
M  V30 2155 C 210.723 0.939396 -4.21663 0
M  V30 2156 C 209.858 2.02547 -4.91068 0
M  V30 2157 C 208.897 1.40263 -5.95813 0
M  V30 2158 N 208.034 2.4286 -6.58759 0
M  V30 2159 H 212.874 -0.21674 -2.97211 0
M  V30 2160 H 210.411 -0.118722 -1.4662 0
M  V30 2161 H 212.369 2.19558 -3.54753 0
M  V30 2162 H 210.999 2.15074 -2.40714 0
M  V30 2163 H 210.051 0.171898 -3.80011 0
M  V30 2164 H 211.363 0.44436 -4.96817 0
M  V30 2165 H 210.517 2.75958 -5.40308 0
M  V30 2166 H 209.256 2.55415 -4.15469 0
M  V30 2167 H 208.261 0.653833 -5.45898 0
M  V30 2168 H 209.486 0.881719 -6.73352 0
M  V30 2169 H 207.432 2.94871 -5.85992 0
M  V30 2170 H 207.349 1.98152 -7.2957 0
M  V30 2171 H 208.617 3.15858 -7.12639 0
M  V30 2172 N 212.846 1.57033 -0.133567 0
M  V30 2173 C 213.794 2.17348 0.828412 0
M  V30 2174 C 214.788 1.12671 1.26498 0
M  V30 2175 O 215.994 1.30947 1.23502 0
M  V30 2176 H 212.369 0.695775 0.285309 0
M  V30 2177 H 214.34 2.96935 0.295372 0
M  V30 2178 C 213.089 2.79893 2.06289 0
M  V30 2179 H 212.412 3.60147 1.73592 0
M  V30 2180 H 213.852 3.25615 2.71572 0
M  V30 2181 C 212.311 1.77713 2.86216 0
M  V30 2182 O 212.841 1.23937 3.82103 0
M  V30 2183 N 211.047 1.47321 2.50489 0
M  V30 2184 H 210.594 1.91243 1.7258 0
M  V30 2185 H 210.552 0.79199 3.04261 0
M  V30 2186 N 214.325 -0.140222 1.56975 0
M  V30 2187 C 215.258 -1.20266 1.93936 0
M  V30 2188 C 216.236 -1.41212 0.806099 0
M  V30 2189 O 217.42 -1.55713 1.06234 0
M  V30 2190 C 214.547 -2.56037 2.21726 0
M  V30 2191 C 213.593 -2.51646 3.44349 0
M  V30 2192 S 214.426 -1.97678 4.97678 0
M  V30 2193 C 215.582 -3.35165 5.28597 0
M  V30 2194 H 215.815 -0.887358 2.83749 0
M  V30 2195 H 213.348 -0.346119 1.50471 0
M  V30 2196 H 215.306 -3.34167 2.38416 0
M  V30 2197 H 213.967 -2.84755 1.32566 0
M  V30 2198 H 213.16 -3.51608 3.61092 0
M  V30 2199 H 212.762 -1.81628 3.26936 0
M  V30 2200 H 215.054 -4.31302 5.2248 0
M  V30 2201 H 215.997 -3.23269 6.30002 0
M  V30 2202 H 216.405 -3.32614 4.56101 0
M  V30 2203 N 215.803 -1.52179 -0.40978 0
M  V30 2204 C 216.736 -1.70196 -1.52015 0
M  V30 2205 C 217.714 -0.549542 -1.53032 0
M  V30 2206 O 218.898 -0.776815 -1.71749 0
M  V30 2207 C 216.025 -1.74069 -2.90547 0
M  V30 2208 C 215.071 -2.95601 -3.07445 0
M  V30 2209 S 215.904 -4.55956 -2.80827 0
M  V30 2210 C 217.06 -4.62614 -4.21591 0
M  V30 2211 H 217.293 -2.64109 -1.36504 0
M  V30 2212 H 214.826 -1.4221 -0.601312 0
M  V30 2213 H 216.784 -1.76985 -3.70387 0
M  V30 2214 H 215.445 -0.812835 -3.034 0
M  V30 2215 H 214.638 -2.94791 -4.08796 0
M  V30 2216 H 214.24 -2.90569 -2.35469 0
M  V30 2217 H 216.532 -4.39951 -5.15218 0
M  V30 2218 H 217.475 -5.64548 -4.27424 0
M  V30 2219 H 217.883 -3.91654 -4.06531 0
M  V30 2220 N 217.281 0.66697 -1.42791 0
M  V30 2221 C 218.529 1.42417 -1.43394 0
M  V30 2222 C 218.85 1.94925 -0.0542373 0
M  V30 2223 O 218.12 1.73564 0.908415 0
M  V30 2224 H 216.7 0.528515 -0.527902 0
M  V30 2225 H 219.362 0.787562 -1.78279 0
M  V30 2226 H 218.458 2.27333 -2.13837 0
M  V30 2227 N 218.759 1.29093 0.90403 0
M  V30 2228 C 219.987 1.19689 1.68766 0
M  V30 2229 C 220.402 -0.243113 1.87228 0
M  V30 2230 O 219.759 -1.16326 1.40621 0
M  V30 2231 C 219.81 1.90144 3.07453 0
M  V30 2232 O 219.531 3.2852 2.89838 0
M  V30 2233 C 221.032 1.87162 4.01852 0
M  V30 2234 H 218.252 0.415035 0.527244 0
M  V30 2235 H 220.796 1.7039 1.13082 0
M  V30 2236 H 218.951 1.43289 3.59926 0
M  V30 2237 H 219.365 3.63944 3.77684 0
M  V30 2238 H 220.839 2.41032 4.96596 0
M  V30 2239 H 221.316 0.84617 4.30972 0
M  V30 2240 H 221.922 2.33741 3.5531 0
M  V30 2241 N 220.237 -1.11381 1.11499 0
M  V30 2242 C 221.17 -2.16621 0.71769 0
M  V30 2243 C 222.148 -1.60058 -0.286413 0
M  V30 2244 O 223.332 -1.87613 -0.182689 0
M  V30 2245 C 220.459 -3.38646 0.0607265 0
M  V30 2246 C 219.505 -4.13874 1.03008 0
M  V30 2247 S 220.338 -4.70731 2.55289 0
M  V30 2248 C 221.494 -5.96079 1.90895 0
M  V30 2249 H 221.727 -2.49987 1.60915 0
M  V30 2250 H 219.26 -1.23015 0.933092 0
M  V30 2251 H 221.218 -4.09313 -0.311965 0
M  V30 2252 H 219.879 -3.03537 -0.807702 0
M  V30 2253 H 219.072 -5.01333 0.517853 0
M  V30 2254 H 218.674 -3.4897 1.34522 0
M  V30 2255 H 220.966 -6.65948 1.24577 0
M  V30 2256 H 221.909 -6.51946 2.76354 0
M  V30 2257 H 222.317 -5.47652 1.36885 0
M  V30 2258 N 221.715 -0.905404 -1.28997 0
M  V30 2259 C 222.964 -0.530191 -1.94607 0
M  V30 2260 C 223.277 0.929185 -1.72121 0
M  V30 2261 O 224.483 1.41218 -2.31883 0
M  V30 2262 C 222.939 -0.897333 -3.48534 0
M  V30 2263 C 222.547 -2.37587 -3.79811 0
M  V30 2264 C 224.291 -0.592304 -4.20347 0
M  V30 2265 C 222.198 -2.68357 -5.27009 0
M  V30 2266 H 221.128 -0.194558 -0.728466 0
M  V30 2267 H 223.779 -1.10318 -1.46636 0
M  V30 2268 H 222.161 -0.253214 -3.9519 0
M  V30 2269 H 223.335 -3.06602 -3.43994 0
M  V30 2270 H 221.65 -2.6505 -3.2115 0
M  V30 2271 H 224.247 -0.798975 -5.28697 0
M  V30 2272 H 224.59 0.469474 -4.13644 0
M  V30 2273 H 225.123 -1.19452 -3.79442 0
M  V30 2274 H 221.862 -3.73355 -5.38782 0
M  V30 2275 H 221.382 -2.03971 -5.64053 0
M  V30 2276 H 223.061 -2.54922 -5.94663 0
M  V30 2277 N 223.193 1.4272 -0.668489 0
M  V30 2278 C 224.125 2.2914 0.052613 0
M  V30 2279 C 225.138 1.43339 0.771857 0
M  V30 2280 O 226.327 1.67123 0.627067 0
M  V30 2281 C 223.427 3.20618 1.09804 0
M  V30 2282 C 222.6 4.35039 0.45389 0
M  V30 2283 C 221.659 5.07282 1.39825 0
M  V30 2284 O 220.685 5.62024 0.900978 0
M  V30 2285 N 221.887 5.12206 2.73176 0
M  V30 2286 H 224.652 2.91668 -0.689209 0
M  V30 2287 H 222.213 1.53577 -0.512422 0
M  V30 2288 H 224.205 3.65815 1.73094 0
M  V30 2289 H 222.775 2.59585 1.74167 0
M  V30 2290 H 221.995 3.92567 -0.358396 0
M  V30 2291 H 223.283 5.088 0.00486972 0
M  V30 2292 H 222.681 4.6913 3.16122 0
M  V30 2293 H 221.238 5.61069 3.31729 0
M  V30 2294 N 224.671 0.411399 1.52136 0
M  V30 2295 C 225.618 -0.412975 2.27075 0
M  V30 2296 C 226.588 -1.03912 1.29582 0
M  V30 2297 O 227.773 -1.06296 1.58448 0
M  V30 2298 C 224.913 -1.52247 3.09701 0
M  V30 2299 C 224.026 -0.917021 4.22155 0
M  V30 2300 C 223.161 -1.9994 4.92135 0
M  V30 2301 C 222.2 -1.37101 5.96548 0
M  V30 2302 N 221.337 -2.39364 6.60038 0
M  V30 2303 H 226.177 0.232499 2.97092 0
M  V30 2304 H 223.714 0.126496 1.46555 0
M  V30 2305 H 225.672 -2.17674 3.55913 0
M  V30 2306 H 224.302 -2.13794 2.41851 0
M  V30 2307 H 223.354 -0.151742 3.80097 0
M  V30 2308 H 224.666 -0.418006 4.97045 0
M  V30 2309 H 223.82 -2.73088 5.41763 0
M  V30 2310 H 222.559 -2.53208 4.16818 0
M  V30 2311 H 221.564 -0.624873 5.46237 0
M  V30 2312 H 222.789 -0.845998 6.7381 0
M  V30 2313 H 220.735 -2.91759 5.87548 0
M  V30 2314 H 220.652 -1.9428 7.3061 0
M  V30 2315 H 221.92 -3.12074 7.14304 0
M  V30 2316 N 226.149 -1.5696 0.141893 0
M  V30 2317 C 227.079 -2.19516 -0.795936 0
M  V30 2318 C 228.06 -1.14187 -1.26077 0
M  V30 2319 O 229.245 -1.42511 -1.31925 0
M  V30 2320 C 226.375 -2.81272 -2.03723 0
M  V30 2321 C 225.329 -3.92384 -1.70936 0
M  V30 2322 C 224.655 -4.41052 -3.02287 0
M  V30 2323 C 225.955 -5.13403 -0.959954 0
M  V30 2324 H 227.649 -2.98138 -0.274596 0
M  V30 2325 H 225.195 -1.43406 -0.130636 0
M  V30 2326 H 227.148 -3.237 -2.69808 0
M  V30 2327 H 225.872 -1.99973 -2.58221 0
M  V30 2328 H 224.531 -3.50566 -1.07232 0
M  V30 2329 H 224.179 -3.56582 -3.54765 0
M  V30 2330 H 223.879 -5.15993 -2.81114 0
M  V30 2331 H 225.403 -4.86146 -3.69451 0
M  V30 2332 H 226.817 -5.52706 -1.52279 0
M  V30 2333 H 225.214 -5.94073 -0.848357 0
M  V30 2334 H 226.284 -4.84875 0.0492434 0
M  V30 2335 N 227.627 0.131896 -1.57047 0
M  V30 2336 C 228.559 1.1878 -1.9602 0
M  V30 2337 C 229.572 1.38363 -0.857875 0
M  V30 2338 O 230.761 1.37666 -1.13623 0
M  V30 2339 C 227.861 2.55008 -2.23213 0
M  V30 2340 C 227.034 2.56201 -3.54513 0
M  V30 2341 C 226.093 3.7408 -3.70069 0
M  V30 2342 O 225.119 3.58258 -4.42312 0
M  V30 2343 N 226.321 4.92137 -3.07866 0
M  V30 2344 H 229.086 0.85639 -2.87204 0
M  V30 2345 H 226.647 0.321309 -1.5868 0
M  V30 2346 H 228.639 3.32404 -2.30846 0
M  V30 2347 H 227.209 2.80382 -1.3822 0
M  V30 2348 H 226.429 1.64613 -3.58185 0
M  V30 2349 H 227.717 2.54043 -4.4084 0
M  V30 2350 H 227.115 5.07895 -2.49116 0
M  V30 2351 H 225.672 5.67254 -3.21039 0
M  V30 2352 N 229.106 1.52395 0.401703 0
M  V30 2353 C 230.522 1.41363 0.740864 0
M  V30 2354 C 230.722 0.523982 1.94568 0
M  V30 2355 O 229.778 -0.00741204 2.52499 0
M  V30 2356 C 231.091 2.84011 0.987847 0
M  V30 2357 C 232.639 2.93404 1.09011 0
M  V30 2358 C 233.114 4.37036 1.3698 0
M  V30 2359 N 234.605 4.40304 1.43829 0
M  V30 2360 C 235.34 5.48508 1.67112 0
M  V30 2361 N 234.836 6.66819 1.87949 0
M  V30 2362 N 236.629 5.36034 1.69187 0
M  V30 2363 H 228.78 2.08765 -0.391262 0
M  V30 2364 H 231.043 0.941265 -0.112798 0
M  V30 2365 H 230.749 3.51265 0.174835 0
M  V30 2366 H 230.623 3.25502 1.906 0
M  V30 2367 H 233.01 2.26325 1.8937 0
M  V30 2368 H 233.091 2.55359 0.15015 0
M  V30 2369 H 232.735 5.04676 0.571353 0
M  V30 2370 H 232.665 4.72623 2.3224 0
M  V30 2371 H 235.156 3.55024 1.29486 0
M  V30 2372 H 235.469 7.45063 2.05185 0
M  V30 2373 H 233.814 6.6987 1.85199 0
M  V30 2374 H 237.005 4.42579 1.52451 0
M  V30 2375 H 237.178 6.20434 1.86993 0
M  V30 2376 N 230.584 -0.659388 1.43143 0
M  V30 2377 C 231.516 -1.7849 1.43784 0
M  V30 2378 C 232.529 -1.5932 0.334787 0
M  V30 2379 O 233.718 -1.68155 0.598842 0
M  V30 2380 C 230.818 -3.15828 1.22906 0
M  V30 2381 C 229.991 -3.61711 2.45934 0
M  V30 2382 C 229.05 -4.77831 2.20371 0
M  V30 2383 O 228.076 -4.87586 2.93681 0
M  V30 2384 N 229.278 -5.67611 1.21647 0
M  V30 2385 H 232.043 -1.7842 2.40803 0
M  V30 2386 H 229.604 -0.84302 1.3822 0
M  V30 2387 H 231.596 -3.91189 1.03697 0
M  V30 2388 H 230.166 -3.10707 0.343542 0
M  V30 2389 H 229.386 -2.76861 2.80609 0
M  V30 2390 H 230.674 -3.89112 3.27825 0
M  V30 2391 H 230.072 -5.62397 0.610449 0
M  V30 2392 H 228.629 -6.42719 1.08423 0
M  V30 2393 N 232.062 -1.29571 -0.897171 0
M  V30 2394 C 233.478 -1.07637 -1.17841 0
M  V30 2395 C 233.678 0.170713 -2.00776 0
M  V30 2396 O 232.734 0.867768 -2.3712 0
M  V30 2397 C 234.047 -2.3332 -1.8969 0
M  V30 2398 C 235.595 -2.38664 -2.02505 0
M  V30 2399 C 236.07 -3.64157 -2.77765 0
M  V30 2400 N 237.561 -3.64894 -2.85318 0
M  V30 2401 C 238.296 -4.58679 -3.44094 0
M  V30 2402 N 237.792 -5.62799 -4.04017 0
M  V30 2403 N 239.585 -4.46245 -3.41793 0
M  V30 2404 H 231.736 -2.09598 -0.343883 0
M  V30 2405 H 233.999 -0.923333 -0.214848 0
M  V30 2406 H 233.705 -3.24262 -1.36187 0
M  V30 2407 H 233.579 -2.41025 -2.9015 0
M  V30 2408 H 235.966 -1.48208 -2.55183 0
M  V30 2409 H 236.047 -2.34943 -1.01171 0
M  V30 2410 H 235.691 -4.54965 -2.25763 0
M  V30 2411 H 235.621 -3.65137 -3.7945 0
M  V30 2412 H 238.112 -2.89613 -2.42761 0
M  V30 2413 H 238.425 -6.3048 -4.46895 0
M  V30 2414 H 236.77 -5.66605 -4.02472 0
M  V30 2415 H 239.961 -3.64094 -2.94199 0
M  V30 2416 H 240.134 -5.19518 -3.87304 0
M  V30 2417 N 233.54 1.10788 -1.12088 0
M  V30 2418 C 234.47 2.19083 -0.807755 0
M  V30 2419 C 235.451 1.6858 0.226859 0
M  V30 2420 O 236.636 1.93997 0.0888475 0
M  V30 2421 C 233.766 3.46344 -0.257576 0
M  V30 2422 C 232.72 4.101 -1.22483 0
M  V30 2423 C 232.046 5.32016 -0.535052 0
M  V30 2424 C 233.346 4.54236 -2.57811 0
M  V30 2425 H 235.04 2.45534 -1.71328 0
M  V30 2426 H 232.586 1.1801 -0.825205 0
M  V30 2427 H 234.539 4.21392 -0.0262679 0
M  V30 2428 H 233.263 3.19373 0.683278 0
M  V30 2429 H 231.922 3.37054 -1.44189 0
M  V30 2430 H 231.57 5.01319 0.410827 0
M  V30 2431 H 231.27 5.75625 -1.18024 0
M  V30 2432 H 232.794 6.09799 -0.312695 0
M  V30 2433 H 234.208 5.20575 -2.40155 0
M  V30 2434 H 232.605 5.08682 -3.18375 0
M  V30 2435 H 233.675 3.6734 -3.16528 0
M  V30 2436 N 235.018 0.912232 1.28515 0
M  V30 2437 C 236.434 0.610159 1.47476 0
M  V30 2438 C 236.634 -0.844955 1.82928 0
M  V30 2439 O 235.69 -1.62416 1.93332 0
M  V30 2440 C 237.003 1.54675 2.57868 0
M  V30 2441 C 238.551 1.55331 2.71738 0
M  V30 2442 C 239.026 2.47649 3.85272 0
M  V30 2443 N 240.517 2.45767 3.92623 0
M  V30 2444 C 241.252 3.13896 4.79851 0
M  V30 2445 N 240.748 3.9135 5.71679 0
M  V30 2446 N 242.541 3.02991 4.73448 0
M  V30 2447 H 234.692 1.85318 1.03783 0
M  V30 2448 H 236.955 0.794777 0.516753 0
M  V30 2449 H 236.661 2.5841 2.38574 0
M  V30 2450 H 236.535 1.27671 3.54937 0
M  V30 2451 H 238.922 0.52335 2.90422 0
M  V30 2452 H 239.003 1.86378 1.75205 0
M  V30 2453 H 238.647 3.50745 3.67342 0
M  V30 2454 H 238.577 2.13904 4.81199 0
M  V30 2455 H 241.068 1.89503 3.26951 0
M  V30 2456 H 241.381 4.40359 6.35062 0
M  V30 2457 H 239.726 3.95455 5.71524 0
M  V30 2458 H 242.917 2.41987 4.007 0
M  V30 2459 H 243.09 3.5636 5.41213 0
M  V30 2460 N 236.496 -1.42363 0.676048 0
M  V30 2461 C 237.721 -2.06377 0.205705 0
M  V30 2462 C 238.146 -1.50463 -1.12883 0
M  V30 2463 O 237.504 -0.623619 -1.70237 0
M  V30 2464 C 237.552 -3.60277 0.152655 0
M  V30 2465 O 236.656 -4.02935 -0.87845 0
M  V30 2466 H 235.997 -0.655588 0.105359 0
M  V30 2467 H 238.527 -1.82475 0.925412 0
M  V30 2468 H 238.537 -4.07993 -0.0230675 0
M  V30 2469 H 237.212 -4.00346 1.12675 0
M  V30 2470 H 235.789 -3.66764 -0.673668 0
M  V30 2471 N 237.974 -0.419461 -1.51915 0
M  V30 2472 C 239.39 -0.0708431 -1.59443 0
M  V30 2473 C 239.59 1.41796 -1.43164 0
M  V30 2474 O 238.646 2.18596 -1.26381 0
M  V30 2475 C 239.959 -0.574991 -2.95151 0
M  V30 2476 C 241.507 -0.533867 -3.08413 0
M  V30 2477 C 241.982 -1.01469 -4.46618 0
M  V30 2478 N 243.473 -0.971939 -4.52888 0
M  V30 2479 C 244.208 -1.31505 -5.58116 0
M  V30 2480 N 243.704 -1.73014 -6.70849 0
M  V30 2481 N 245.497 -1.23436 -5.48379 0
M  V30 2482 H 237.648 -1.38836 -1.60743 0
M  V30 2483 H 239.911 -0.570998 -0.756747 0
M  V30 2484 H 239.617 -1.61597 -3.12377 0
M  V30 2485 H 239.491 0.00979777 -3.77199 0
M  V30 2486 H 241.878 0.498086 -2.90866 0
M  V30 2487 H 241.959 -1.15484 -2.28248 0
M  V30 2488 H 241.603 -2.04502 -4.6491 0
M  V30 2489 H 241.533 -0.370433 -5.25295 0
M  V30 2490 H 244.024 -0.666893 -3.71969 0
M  V30 2491 H 244.337 -1.97479 -7.47143 0
M  V30 2492 H 242.682 -1.76926 -6.72103 0
M  V30 2493 H 245.873 -0.908869 -4.59192 0
M  V30 2494 H 246.046 -1.50506 -6.30279 0
M  V30 2495 N 239.452 1.56882 -0.150215 0
M  V30 2496 C 240.863 1.82995 0.370076 0
M  V30 2497 C 241.214 1.06907 1.64515 0
M  V30 2498 O 240.339 0.315369 2.1409 0
M  V30 2499 C 240.934 3.31942 0.678208 0
M  V30 2500 C 239.493 3.58625 1.14301 0
M  V30 2501 C 238.64 2.76792 0.167778 0
M  V30 2502 H 241.591 1.54209 -0.374858 0
M  V30 2503 H 241.612 3.48272 1.53254 0
M  V30 2504 H 241.124 3.87294 -0.249991 0
M  V30 2505 H 239.225 3.08664 2.08704 0
M  V30 2506 H 239.338 4.67073 1.06676 0
M  V30 2507 H 237.702 2.45972 0.661037 0
M  V30 2508 H 238.485 3.34916 -0.754069 0
M  V30 2509 N 240.93 -0.123565 1.57115 0
M  V30 2510 C 241.862 -1.17739 1.96648 0
M  V30 2511 C 242.875 -1.37906 0.865201 0
M  V30 2512 O 244.064 -1.37062 1.14351 0
M  V30 2513 C 241.164 -2.53821 2.24562 0
M  V30 2514 C 240.337 -2.54317 3.55867 0
M  V30 2515 C 239.396 -3.72112 3.72047 0
M  V30 2516 O 238.422 -3.55907 4.44206 0
M  V30 2517 N 239.624 -4.90498 3.10471 0
M  V30 2518 H 242.389 -0.841147 2.87654 0
M  V30 2519 H 239.95 -0.31289 1.58848 0
M  V30 2520 H 241.942 -3.31175 2.32606 0
M  V30 2521 H 240.512 -2.79645 1.39705 0
M  V30 2522 H 239.732 -1.62711 3.59053 0
M  V30 2523 H 241.02 -2.51701 4.42181 0
M  V30 2524 H 240.418 -5.06567 2.51806 0
M  V30 2525 H 238.975 -5.65544 3.24043 0
M  V30 2526 N 242.408 -1.52605 -0.393616 0
M  V30 2527 C 243.656 -1.67093 -1.13685 0
M  V30 2528 C 243.977 -0.411011 -1.90619 0
M  V30 2529 O 243.247 0.574491 -1.87287 0
M  V30 2530 H 241.827 -0.615923 -0.422668 0
M  V30 2531 H 244.489 -1.89704 -0.447039 0
M  V30 2532 H 243.585 -2.51922 -1.84232 0
M  V30 2533 N 243.887 0.651787 -1.4349 0
M  V30 2534 C 244.817 1.77621 -1.51569 0
M  V30 2535 C 245.798 1.66022 -0.370253 0
M  V30 2536 O 246.983 1.85095 -0.587658 0
M  V30 2537 C 244.113 3.16056 -1.43966 0
M  V30 2538 C 243.067 3.4242 -2.56774 0
M  V30 2539 C 242.393 4.8067 -2.34223 0
M  V30 2540 C 243.693 3.37023 -3.99015 0
M  V30 2541 H 245.387 1.71117 -2.45681 0
M  V30 2542 H 242.933 0.821825 -1.18246 0
M  V30 2543 H 244.886 3.94472 -1.48221 0
M  V30 2544 H 243.61 3.23293 -0.463586 0
M  V30 2545 H 242.269 2.66375 -2.51873 0
M  V30 2546 H 241.917 4.84585 -1.34856 0
M  V30 2547 H 241.617 4.9927 -3.09844 0
M  V30 2548 H 243.141 5.61342 -2.40265 0
M  V30 2549 H 244.555 4.05374 -4.05395 0
M  V30 2550 H 242.952 3.67159 -4.74673 0
M  V30 2551 H 244.022 2.3518 -4.2405 0
M  V30 2552 N 245.365 1.30045 0.890287 0
M  V30 2553 C 246.593 1.21472 1.67487 0
M  V30 2554 C 247.008 -0.223241 1.87476 0
M  V30 2555 O 246.365 -1.14828 1.41847 0
M  V30 2556 C 246.416 1.93394 3.05419 0
M  V30 2557 O 246.137 3.31576 2.86337 0
M  V30 2558 C 247.638 1.91414 3.99844 0
M  V30 2559 H 244.858 0.420604 0.522813 0
M  V30 2560 H 247.402 1.7158 1.11268 0
M  V30 2561 H 245.557 1.47099 3.58386 0
M  V30 2562 H 245.971 3.67929 3.73802 0
M  V30 2563 H 247.445 2.46285 4.94012 0
M  V30 2564 H 247.922 0.891833 4.3005 0
M  V30 2565 H 248.528 2.37496 3.52811 0
M  V30 2566 N 246.843 -1.10192 1.12674 0
M  V30 2567 C 247.753 -2.20172 0.810026 0
M  V30 2568 C 248.769 -1.72821 -0.202188 0
M  V30 2569 O 249.945 -2.01369 -0.0351691 0
M  V30 2570 C 247.01 -3.45631 0.272007 0
M  V30 2571 C 246.071 -4.07704 1.34447 0
M  V30 2572 C 245.304 -5.27175 0.832029 0
M  V30 2573 O 245.527 -5.69425 -0.333284 0
M  V30 2574 O 244.461 -5.80168 1.60277 0
M  V30 2575 H 248.287 -2.49701 1.72867 0
M  V30 2576 H 245.872 -1.18977 0.903597 0
M  V30 2577 H 247.754 -4.21394 -0.0230219 0
M  V30 2578 H 246.429 -3.17723 -0.619164 0
M  V30 2579 H 245.336 -3.33614 1.6927 0
M  V30 2580 H 246.669 -4.3982 2.2095 0
M  V30 2581 N 248.321 -0.919034 -1.28029 0
M  V30 2582 C 249.284 -0.416182 -2.2539 0
M  V30 2583 C 250.284 0.460438 -1.54067 0
M  V30 2584 O 251.474 0.262744 -1.72207 0
M  V30 2585 C 248.606 0.402707 -3.38513 0
M  V30 2586 H 249.799 -1.27629 -2.71387 0
M  V30 2587 H 247.352 -0.698919 -1.39803 0
M  V30 2588 H 248.087 1.282 -2.97885 0
M  V30 2589 H 247.872 -0.225698 -3.9145 0
M  V30 2590 H 249.362 0.745191 -4.10897 0
M  V30 2591 N 249.799 1.42003 -0.683588 0
M  V30 2592 C 250.709 2.34597 -0.0109075 0
M  V30 2593 C 251.725 1.55576 0.779245 0
M  V30 2594 O 252.901 1.88107 0.719555 0
M  V30 2595 C 249.966 3.34199 0.922588 0
M  V30 2596 C 249.027 4.29115 0.125984 0
M  V30 2597 C 248.26 5.23959 1.01502 0
M  V30 2598 O 248.483 5.23952 2.25456 0
M  V30 2599 O 247.417 6.00053 0.47111 0
M  V30 2600 H 251.243 2.93675 -0.773853 0
M  V30 2601 H 248.828 1.42654 -0.443861 0
M  V30 2602 H 250.71 3.95365 1.45823 0
M  V30 2603 H 249.385 2.77582 1.66523 0
M  V30 2604 H 248.292 3.71335 -0.453969 0
M  V30 2605 H 249.625 4.88798 -0.577736 0
M  V30 2606 N 251.277 0.427512 1.51691 0
M  V30 2607 C 252.209 -0.424521 2.25234 0
M  V30 2608 C 253.222 -0.994671 1.2888 0
M  V30 2609 O 254.411 -0.890483 1.54702 0
M  V30 2610 C 251.511 -1.60479 2.98496 0
M  V30 2611 C 250.684 -1.15527 4.21868 0
M  V30 2612 C 249.743 -2.20454 4.77793 0
M  V30 2613 O 248.769 -1.8029 5.39893 0
M  V30 2614 N 249.971 -3.52831 4.60967 0
M  V30 2615 H 252.736 0.205749 2.98993 0
M  V30 2616 H 250.297 0.255867 1.59865 0
M  V30 2617 H 252.289 -2.30276 3.32799 0
M  V30 2618 H 250.859 -2.14061 2.27809 0
M  V30 2619 H 250.079 -0.284736 3.9317 0
M  V30 2620 H 251.367 -0.832173 5.01949 0
M  V30 2621 H 250.765 -3.88201 4.11481 0
M  V30 2622 H 249.322 -4.18551 4.99658 0
M  V30 2623 N 252.755 -1.56801 0.158532 0
M  V30 2624 C 254.171 -1.5837 -0.197774 0
M  V30 2625 C 254.371 -1.17334 -1.63814 0
M  V30 2626 O 253.427 -0.878988 -2.36707 0
M  V30 2627 C 254.74 -3.00615 0.0714459 0
M  V30 2628 C 256.288 -3.12999 0.00864533 0
M  V30 2629 C 256.763 -4.57313 0.250685 0
M  V30 2630 N 258.254 -4.62777 0.198014 0
M  V30 2631 C 258.989 -5.72271 0.359642 0
M  V30 2632 N 258.485 -6.90371 0.579625 0
M  V30 2633 N 260.278 -5.61318 0.296438 0
M  V30 2634 H 252.429 -1.81765 1.09887 0
M  V30 2635 H 254.692 -0.841849 0.435884 0
M  V30 2636 H 254.398 -3.35068 1.06874 0
M  V30 2637 H 254.272 -3.71683 -0.642757 0
M  V30 2638 H 256.659 -2.7838 -0.979217 0
M  V30 2639 H 256.74 -2.44393 0.755359 0
M  V30 2640 H 256.384 -4.92639 1.2357 0
M  V30 2641 H 256.314 -5.24061 -0.516489 0
M  V30 2642 H 258.805 -3.77885 0.0331115 0
M  V30 2643 H 259.118 -7.69689 0.69275 0
M  V30 2644 H 257.463 -6.92264 0.616087 0
M  V30 2645 H 260.654 -4.67932 0.125258 0
M  V30 2646 H 260.827 -6.46599 0.425831 0
M  V30 2647 N 254.233 0.115231 -1.57178 0
M  V30 2648 C 255.143 1.15994 -2.03918 0
M  V30 2649 C 256.159 1.45103 -0.960268 0
M  V30 2650 O 257.335 1.56144 -1.27204 0
M  V30 2651 C 254.4 2.46568 -2.43732 0
M  V30 2652 C 253.461 2.24822 -3.65723 0
M  V30 2653 C 252.694 3.4917 -4.03629 0
M  V30 2654 O 252.917 4.56623 -3.41835 0
M  V30 2655 O 251.851 3.39949 -4.96708 0
M  V30 2656 H 255.677 0.793019 -2.93164 0
M  V30 2657 H 253.262 0.3263 -1.45793 0
M  V30 2658 H 255.144 3.23492 -2.70057 0
M  V30 2659 H 253.819 2.82726 -1.57631 0
M  V30 2660 H 252.726 1.45744 -3.44542 0
M  V30 2661 H 254.059 1.93566 -4.52541 0
M  V30 2662 N 255.711 1.52812 0.385517 0
M  V30 2663 C 256.641 1.80808 1.47752 0
M  V30 2664 C 257.622 0.660318 1.5676 0
M  V30 2665 O 258.807 0.908246 1.71652 0
M  V30 2666 C 255.937 1.98008 2.85324 0
M  V30 2667 C 254.891 3.13709 2.91154 0
M  V30 2668 C 254.217 3.16169 4.31209 0
M  V30 2669 C 255.517 4.52709 2.60483 0
M  V30 2670 H 257.211 2.72253 1.24573 0
M  V30 2671 H 254.757 1.31003 0.597839 0
M  V30 2672 H 256.71 2.16176 3.61726 0
M  V30 2673 H 255.434 1.03255 3.09848 0
M  V30 2674 H 254.093 2.95329 2.17201 0
M  V30 2675 H 253.741 2.19092 4.52778 0
M  V30 2676 H 253.441 3.93894 4.36029 0
M  V30 2677 H 254.965 3.36496 5.09512 0
M  V30 2678 H 256.379 4.71173 3.26602 0
M  V30 2679 H 254.776 5.32528 2.76648 0
M  V30 2680 H 255.846 4.59186 1.55809 0
M  V30 2681 N 257.189 -0.644168 1.43834 0
M  V30 2682 C 258.099 -1.78563 1.52159 0
M  V30 2683 C 259.115 -1.69147 0.408069 0
M  V30 2684 O 260.291 -1.90156 0.663524 0
M  V30 2685 C 257.356 -3.14888 1.45073 0
M  V30 2686 C 256.417 -3.36034 2.6717 0
M  V30 2687 C 255.65 -4.65855 2.60413 0
M  V30 2688 O 255.873 -5.45805 1.65689 0
M  V30 2689 O 254.807 -4.88918 3.5106 0
M  V30 2690 H 258.633 -1.74494 2.48567 0
M  V30 2691 H 256.218 -0.80378 1.25935 0
M  V30 2692 H 258.1 -3.96179 1.43597 0
M  V30 2693 H 256.775 -3.19528 0.518037 0
M  V30 2694 H 255.682 -2.54472 2.74217 0
M  V30 2695 H 257.015 -3.36247 3.59442 0
M  V30 2696 N 258.668 -1.30515 -0.883378 0
M  V30 2697 C 259.6 -1.12846 -1.99496 0
M  V30 2698 C 260.613 -0.0712571 -1.62644 0
M  V30 2699 O 261.802 -0.317432 -1.75655 0
M  V30 2700 C 258.902 -0.699123 -3.3161 0
M  V30 2701 C 258.075 -1.83842 -3.96889 0
M  V30 2702 C 257.134 -1.39737 -5.07307 0
M  V30 2703 O 256.16 -2.10485 -5.28852 0
M  V30 2704 N 257.362 -0.277279 -5.79837 0
M  V30 2705 H 260.127 -2.08585 -2.15203 0
M  V30 2706 H 257.688 -1.22672 -1.05656 0
M  V30 2707 H 259.68 -0.387044 -4.02845 0
M  V30 2708 H 258.25 0.166276 -3.12157 0
M  V30 2709 H 257.47 -2.31853 -3.18807 0
M  V30 2710 H 258.758 -2.60187 -4.37241 0
M  V30 2711 H 258.156 0.3122 -5.64838 0
M  V30 2712 H 256.713 -0.0246623 -6.51795 0
M  V30 2713 N 260.146 1.09593 -1.13257 0
M  V30 2714 C 261.056 2.19739 -0.821691 0
M  V30 2715 C 262.072 1.72926 0.19302 0
M  V30 2716 O 263.248 2.01385 0.0244895 0
M  V30 2717 C 260.313 3.45482 -0.290333 0
M  V30 2718 C 259.374 4.06985 -1.36607 0
M  V30 2719 C 258.607 5.26726 -0.859975 0
M  V30 2720 O 258.83 5.69594 0.303082 0
M  V30 2721 O 257.764 5.7931 -1.63351 0
M  V30 2722 H 261.59 2.48781 -1.74189 0
M  V30 2723 H 259.175 1.18496 -0.909894 0
M  V30 2724 H 261.057 4.214 0.000674022 0
M  V30 2725 H 259.732 3.18047 0.602306 0
M  V30 2726 H 258.639 3.32712 -1.71037 0
M  V30 2727 H 259.972 4.38643 -2.23279 0
M  V30 2728 N 261.624 0.925811 1.2754 0
M  V30 2729 C 262.587 0.428129 2.25166 0
M  V30 2730 C 263.587 -0.452261 1.54309 0
M  V30 2731 O 264.777 -0.253608 1.72344 0
M  V30 2732 C 261.909 -0.384749 3.38722 0
M  V30 2733 H 263.102 1.29066 2.70706 0
M  V30 2734 H 260.655 0.706323 1.3943 0
M  V30 2735 H 261.39 -1.26618 2.98561 0
M  V30 2736 H 261.175 0.246454 3.91325 0
M  V30 2737 H 262.665 -0.723389 4.11287 0
M  V30 2738 N 263.102 -1.41638 0.69111 0
M  V30 2739 C 264.049 -2.30789 0.0229705 0
M  V30 2740 C 265.019 -1.46863 -0.775911 0
M  V30 2741 O 266.204 -1.75661 -0.74485 0
M  V30 2742 C 263.344 -3.32868 -0.910666 0
M  V30 2743 C 262.457 -4.31875 -0.103874 0
M  V30 2744 C 261.592 -5.21024 -1.03475 0
M  V30 2745 C 260.631 -6.11702 -0.220598 0
M  V30 2746 N 259.768 -6.93349 -1.10504 0
M  V30 2747 H 264.608 -2.87366 0.788978 0
M  V30 2748 H 262.145 -1.41535 0.400794 0
M  V30 2749 H 264.103 -3.90596 -1.46597 0
M  V30 2750 H 262.733 -2.77851 -1.64312 0
M  V30 2751 H 261.785 -3.76131 0.568285 0
M  V30 2752 H 263.097 -4.96003 0.527504 0
M  V30 2753 H 262.251 -5.83565 -1.65943 0
M  V30 2754 H 260.99 -4.57112 -1.69999 0
M  V30 2755 H 259.995 -5.48215 0.417187 0
M  V30 2756 H 261.22 -6.77668 0.440784 0
M  V30 2757 H 259.166 -6.3205 -1.75638 0
M  V30 2758 H 259.083 -7.54146 -0.529125 0
M  V30 2759 H 260.351 -7.60362 -1.71667 0
M  V30 2760 N 264.58 -0.43555 -1.51462 0
M  V30 2761 C 265.49 0.383001 -2.31453 0
M  V30 2762 C 266.506 1.02931 -1.4029 0
M  V30 2763 O 267.682 1.02507 -1.73362 0
M  V30 2764 C 264.747 1.47043 -3.13973 0
M  V30 2765 C 263.808 0.844433 -4.20913 0
M  V30 2766 C 263.041 1.88004 -4.9949 0
M  V30 2767 O 263.264 3.10199 -4.78678 0
M  V30 2768 O 262.198 1.47157 -5.83634 0
M  V30 2769 H 266.024 -0.269964 -3.02498 0
M  V30 2770 H 263.609 -0.19813 -1.4808 0
M  V30 2771 H 265.491 2.10113 -3.65281 0
M  V30 2772 H 264.166 2.10751 -2.45695 0
M  V30 2773 H 263.073 0.175729 -3.73687 0
M  V30 2774 H 264.406 0.250869 -4.9156 0
M  V30 2775 N 266.058 1.56714 -0.166846 0
M  V30 2776 C 266.988 2.20754 0.760913 0
M  V30 2777 C 267.969 1.16178 1.24244 0
M  V30 2778 O 269.154 1.44592 1.29641 0
M  V30 2779 C 266.284 2.84478 1.99223 0
M  V30 2780 C 265.238 3.95053 1.64672 0
M  V30 2781 C 264.564 4.45805 2.95232 0
M  V30 2782 C 265.864 5.14865 0.878155 0
M  V30 2783 H 267.558 2.98537 0.22713 0
M  V30 2784 H 265.104 1.43596 0.107805 0
M  V30 2785 H 267.057 3.27951 2.64624 0
M  V30 2786 H 265.781 2.04056 2.55007 0
M  V30 2787 H 264.44 3.52228 1.01641 0
M  V30 2788 H 264.088 3.62181 3.49047 0
M  V30 2789 H 263.788 5.204 2.7287 0
M  V30 2790 H 265.312 4.91962 3.6167 0
M  V30 2791 H 266.726 5.55059 1.43466 0
M  V30 2792 H 265.123 5.95348 0.753738 0
M  V30 2793 H 266.193 4.84735 -0.126377 0
M  V30 2794 N 267.536 -0.106894 1.57237 0
M  V30 2795 C 268.483 -1.13049 2.01217 0
M  V30 2796 C 269.453 -1.40471 0.886403 0
M  V30 2797 O 270.638 -1.52133 1.15153 0
M  V30 2798 C 267.778 -2.4487 2.43172 0
M  V30 2799 C 266.891 -2.24281 3.69218 0
M  V30 2800 C 266.026 -3.49417 4.00101 0
M  V30 2801 C 265.065 -3.24038 5.19294 0
M  V30 2802 N 264.202 -4.41409 5.45988 0
M  V30 2803 H 269.042 -0.748456 2.88448 0
M  V30 2804 H 266.579 -0.358054 1.42676 0
M  V30 2805 H 268.537 -3.21786 2.65537 0
M  V30 2806 H 267.167 -2.80944 1.58967 0
M  V30 2807 H 266.219 -1.38224 3.54398 0
M  V30 2808 H 267.531 -2.01512 4.56283 0
M  V30 2809 H 266.685 -4.34746 4.2318 0
M  V30 2810 H 265.424 -3.75229 3.11535 0
M  V30 2811 H 264.429 -2.37102 4.96047 0
M  V30 2812 H 265.654 -2.99584 6.09447 0
M  V30 2813 H 263.6 -4.67319 4.60379 0
M  V30 2814 H 263.517 -4.21788 6.274 0
M  V30 2815 H 264.785 -5.27836 5.73593 0
M  V30 2816 N 269.014 -1.53014 -0.377408 0
M  V30 2817 C 269.961 -1.78616 -1.46168 0
M  V30 2818 C 270.931 -0.629917 -1.53692 0
M  V30 2819 O 272.116 -0.870861 -1.69766 0
M  V30 2820 C 269.256 -1.97123 -2.8326 0
M  V30 2821 C 268.369 -3.24831 -2.84796 0
M  V30 2822 C 267.504 -3.33591 -4.13389 0
M  V30 2823 C 266.543 -4.55377 -4.09021 0
M  V30 2824 N 265.68 -4.61355 -5.29241 0
M  V30 2825 H 270.52 -2.71142 -1.23637 0
M  V30 2826 H 268.057 -1.34326 -0.599577 0
M  V30 2827 H 270.015 -2.05839 -3.62886 0
M  V30 2828 H 268.645 -1.07946 -3.04216 0
M  V30 2829 H 267.697 -3.25128 -1.97474 0
M  V30 2830 H 269.009 -4.14523 -2.77439 0
M  V30 2831 H 268.163 -3.41554 -5.01424 0
M  V30 2832 H 266.902 -2.41894 -4.23484 0
M  V30 2833 H 265.907 -4.47527 -3.19373 0
M  V30 2834 H 267.132 -5.48402 -4.00539 0
M  V30 2835 H 265.078 -3.72554 -5.39944 0
M  V30 2836 H 264.995 -5.44935 -5.24006 0
M  V30 2837 H 266.263 -4.73586 -6.19141 0
M  V30 2838 N 270.492 0.636531 -1.44174 0
M  V30 2839 C 271.738 1.39826 -1.4689 0
M  V30 2840 C 272.071 1.93947 -0.0990585 0
M  V30 2841 O 271.346 1.73325 0.882544 0
M  V30 2842 C 271.629 2.56751 -2.5249 0
M  V30 2843 C 271.482 2.08014 -3.98811 0
M  V30 2844 C 272.801 3.58946 -2.54649 0
M  V30 2845 H 269.92 0.507075 -0.53483 0
M  V30 2846 H 272.562 0.720188 -1.75822 0
M  V30 2847 H 270.712 3.14597 -2.2795 0
M  V30 2848 H 272.384 1.5504 -4.34466 0
M  V30 2849 H 270.627 1.39242 -4.10846 0
M  V30 2850 H 271.298 2.92169 -4.68339 0
M  V30 2851 H 273.774 3.1089 -2.76563 0
M  V30 2852 H 272.65 4.38286 -3.3045 0
M  V30 2853 H 272.911 4.12655 -1.58646 0
M  V30 2854 N 271.97 1.30982 0.876444 0
M  V30 2855 C 272.903 1.12414 1.98591 0
M  V30 2856 C 273.881 0.0294078 1.62573 0
M  V30 2857 O 275.065 0.184598 1.87594 0
M  V30 2858 C 272.192 0.716276 3.3104 0
M  V30 2859 C 271.238 1.81311 3.86042 0
M  V30 2860 S 272.071 3.41727 4.1229 0
M  V30 2861 C 273.227 3.02863 5.47745 0
M  V30 2862 H 273.46 2.06338 2.14037 0
M  V30 2863 H 270.993 1.15393 1.02586 0
M  V30 2864 H 272.951 0.487697 4.07593 0
M  V30 2865 H 271.612 -0.203749 3.13438 0
M  V30 2866 H 270.805 1.48021 4.81774 0
M  V30 2867 H 270.407 1.99641 3.16259 0
M  V30 2868 H 272.699 2.51353 6.29148 0
M  V30 2869 H 273.642 3.97533 5.8598 0
M  V30 2870 H 274.05 2.40487 5.10711 0
M  V30 2871 N 273.449 -1.08991 1.13837 0
M  V30 2872 C 274.726 -1.77863 0.813876 0
M  V30 2873 C 275.106 -1.99375 -0.693746 0
M  V30 2874 O 274.454 -1.59875 -1.63255 0
M  V30 2875 C 274.664 -3.0986 1.60586 0
M  V30 2876 C 276.012 -3.84493 1.8014 0
M  V30 2877 O 277.036 -3.19624 1.57222 0
M  V30 2878 O 275.895 -5.00957 2.18413 0
M  V30 2879 H 272.989 -0.771589 0.297624 0
M  V30 2880 H 275.535 -1.15507 1.24323 0
M  V30 2881 H 274.307 -2.89715 2.63022 0
M  V30 2882 H 273.93 -3.79942 1.17173 0
M  V30 2883 N 274.927 -0.932562 -1.27047 0
M  V30 2884 C 275.857 -0.452902 -2.29066 0
M  V30 2885 C 276.838 0.489338 -1.62909 0
M  V30 2886 O 278.023 0.393046 -1.90181 0
M  V30 2887 C 275.153 0.290698 -3.46081 0
M  V30 2888 C 274.107 -0.564168 -4.24265 0
M  V30 2889 C 273.433 0.308886 -5.33807 0
M  V30 2890 C 274.733 -1.83112 -4.89149 0
M  V30 2891 H 276.427 -1.30552 -2.69437 0
M  V30 2892 H 273.973 -0.629201 -1.29526 0
M  V30 2893 H 275.926 0.637233 -4.16554 0
M  V30 2894 H 274.65 1.17738 -3.0464 0
M  V30 2895 H 273.309 -0.893477 -3.55545 0
M  V30 2896 H 272.957 1.19467 -4.88607 0
M  V30 2897 H 272.657 -0.259633 -5.87026 0
M  V30 2898 H 274.181 0.650884 -6.07121 0
M  V30 2899 H 275.595 -1.55236 -5.51883 0
M  V30 2900 H 273.992 -2.34353 -5.52448 0
M  V30 2901 H 275.062 -2.54772 -4.12576 0
M  V30 2902 N 276.405 1.4127 -0.698611 0
M  V30 2903 C 277.63 2.06024 -0.238512 0
M  V30 2904 C 278.055 1.5224 1.10475 0
M  V30 2905 O 277.413 0.650623 1.69223 0
M  V30 2906 C 277.461 3.59988 -0.209952 0
M  V30 2907 O 276.565 4.04282 0.814235 0
M  V30 2908 H 275.906 0.653829 -0.115775 0
M  V30 2909 H 278.436 1.8098 -0.954326 0
M  V30 2910 H 278.446 4.07979 -0.0418436 0
M  V30 2911 H 277.121 3.98503 -1.1903 0
M  V30 2912 H 275.698 3.6779 0.615234 0
M  V30 2913 N 277.883 0.443576 1.51229 0
M  V30 2914 C 279.132 -0.122332 2.01329 0
M  V30 2915 C 279.445 -1.43237 1.33201 0
M  V30 2916 O 280.651 -2.0816 1.74304 0
M  V30 2917 C 279.107 -0.268551 3.58897 0
M  V30 2918 C 278.715 1.03142 4.35965 0
M  V30 2919 C 280.459 -0.787894 4.17124 0
M  V30 2920 C 278.366 0.850504 5.85252 0
M  V30 2921 H 277.296 -0.0494929 0.752374 0
M  V30 2922 H 279.947 0.574289 1.74282 0
M  V30 2923 H 278.329 -1.02832 3.82415 0
M  V30 2924 H 279.503 1.80001 4.24189 0
M  V30 2925 H 277.818 1.47977 3.89219 0
M  V30 2926 H 280.415 -0.939841 5.26375 0
M  V30 2927 H 280.758 -1.77201 3.76703 0
M  V30 2928 H 281.291 -0.0862669 3.97706 0
M  V30 2929 H 278.03 1.80718 6.30096 0
M  V30 2930 H 277.55 0.121825 5.99676 0
M  V30 2931 H 279.229 0.506163 6.45017 0
M  V30 2932 N 279.361 -1.56624 0.175154 0
M  V30 2933 C 280.607 -1.9729 -0.469506 0
M  V30 2934 C 280.94 -1.06128 -1.62636 0
M  V30 2935 O 280.215 -0.109183 -1.94193 0
M  V30 2936 C 280.498 -3.47375 -0.948804 0
M  V30 2937 C 280.351 -4.49317 0.208491 0
M  V30 2938 C 281.67 -4.00652 -1.82116 0
M  V30 2939 H 278.789 -0.717317 -0.16919 0
M  V30 2940 H 281.431 -1.88184 0.262062 0
M  V30 2941 H 279.581 -3.55267 -1.57219 0
M  V30 2942 H 281.253 -4.53482 0.845682 0
M  V30 2943 H 279.496 -4.25121 0.863395 0
M  V30 2944 H 280.167 -5.51741 -0.169059 0
M  V30 2945 H 282.643 -3.95416 -1.2956 0
M  V30 2946 H 281.519 -5.06075 -2.12554 0
M  V30 2947 H 281.78 -3.44699 -2.7683 0
M  V30 2948 N 280.839 0.0985539 -1.57292 0
M  V30 2949 C 282.255 0.45267 -1.53046 0
M  V30 2950 C 282.455 1.80713 -0.891342 0
M  V30 2951 O 281.511 2.4785 -0.482375 0
M  V30 2952 C 282.824 0.418341 -2.97776 0
M  V30 2953 C 284.372 0.500443 -3.08973 0
M  V30 2954 C 284.847 0.496297 -4.55303 0
M  V30 2955 N 286.338 0.557151 -4.59837 0
M  V30 2956 C 287.073 0.575726 -5.70502 0
M  V30 2957 N 286.569 0.550714 -6.90608 0
M  V30 2958 N 288.362 0.620277 -5.58667 0
M  V30 2959 H 280.513 -0.788673 -1.97215 0
M  V30 2960 H 282.776 -0.293188 -0.901524 0
M  V30 2961 H 282.482 -0.509659 -3.47988 0
M  V30 2962 H 282.356 1.2386 -3.56284 0
M  V30 2963 H 284.743 1.41886 -2.58751 0
M  V30 2964 H 284.824 -0.347894 -2.53423 0
M  V30 2965 H 284.468 -0.418162 -5.06176 0
M  V30 2966 H 284.398 1.3618 -5.08687 0
M  V30 2967 H 286.889 0.581816 -3.73394 0
M  V30 2968 H 287.202 0.568075 -7.70709 0
M  V30 2969 H 285.547 0.517816 -6.93068 0
M  V30 2970 H 288.738 0.637322 -4.63741 0
M  V30 2971 H 288.911 0.631283 -6.44918 0
M  V30 2972 N 282.317 1.53212 0.369288 0
M  V30 2973 C 283.247 1.82365 1.45826 0
M  V30 2974 C 284.228 0.676907 1.56051 0
M  V30 2975 O 285.413 0.926401 1.70679 0
M  V30 2976 C 282.543 2.01023 2.83208 0
M  V30 2977 C 281.497 3.1678 2.8781 0
M  V30 2978 C 280.823 3.20724 4.27832 0
M  V30 2979 C 282.123 4.55447 2.55667 0
M  V30 2980 H 283.817 2.73559 1.21678 0
M  V30 2981 H 281.363 1.3163 0.583911 0
M  V30 2982 H 283.316 2.20001 3.59413 0
M  V30 2983 H 282.04 1.06536 3.08736 0
M  V30 2984 H 280.699 2.97616 2.14056 0
M  V30 2985 H 280.347 2.23882 4.50429 0
M  V30 2986 H 280.047 3.98496 4.31827 0
M  V30 2987 H 281.571 3.41881 5.05915 0
M  V30 2988 H 282.985 4.74611 3.21586 0
M  V30 2989 H 281.382 5.35432 2.70984 0
M  V30 2990 H 282.452 4.60812 1.5093 0
M  V30 2991 N 283.795 -0.628877 1.44509 0
M  V30 2992 C 285.211 -0.947305 1.28446 0
M  V30 2993 C 285.411 -2.00275 0.221872 0
M  V30 2994 O 284.467 -2.49447 -0.391471 0
M  V30 2995 C 285.78 -1.40843 2.65676 0
M  V30 2996 C 287.328 -1.52379 2.73404 0
M  V30 2997 C 287.803 -2.01875 4.11109 0
M  V30 2998 N 289.294 -2.09142 4.13296 0
M  V30 2999 C 290.029 -2.48615 5.16699 0
M  V30 3000 N 289.525 -2.87209 6.30462 0
M  V30 3001 N 291.318 -2.48768 5.04054 0
M  V30 3002 H 283.469 0.0690977 2.12288 0
M  V30 3003 H 285.732 -0.0317164 0.947469 0
M  V30 3004 H 285.438 -0.707206 3.44516 0
M  V30 3005 H 285.312 -2.37902 2.92716 0
M  V30 3006 H 287.699 -2.21598 1.9488 0
M  V30 3007 H 287.78 -0.536898 2.50102 0
M  V30 3008 H 287.424 -1.3325 4.90109 0
M  V30 3009 H 287.354 -3.0144 4.31789 0
M  V30 3010 H 289.845 -1.81991 3.31191 0
M  V30 3011 H 290.158 -3.16149 7.05174 0
M  V30 3012 H 288.503 -2.84955 6.33897 0
M  V30 3013 H 291.694 -2.18009 4.14234 0
M  V30 3014 H 291.867 -2.79207 5.84763 0
M  V30 3015 N 285.273 -1.31445 -0.869486 0
M  V30 3016 C 286.52 -1.21158 -1.62256 0
M  V30 3017 C 286.848 0.230155 -1.93133 0
M  V30 3018 O 286.103 1.17906 -1.56194 0
M  V30 3019 C 286.402 -2.00145 -2.96102 0
M  V30 3020 C 286.068 -3.4964 -2.84715 0
M  V30 3021 C 284.73 -3.90403 -2.81317 0
M  V30 3022 C 287.082 -4.44769 -2.71716 0
M  V30 3023 C 284.41 -5.24561 -2.62778 0
M  V30 3024 C 286.762 -5.79054 -2.54714 0
M  V30 3025 C 285.426 -6.19037 -2.49699 0
M  V30 3026 H 284.696 -0.443348 -0.593737 0
M  V30 3027 H 287.343 -1.62715 -1.00976 0
M  V30 3028 H 285.648 -1.5127 -3.6142 0
M  V30 3029 H 287.345 -1.89566 -3.53363 0
M  V30 3030 H 283.935 -3.17256 -2.88178 0
M  V30 3031 H 288.119 -4.14208 -2.73397 0
M  V30 3032 H 283.375 -5.54613 -2.57321 0
M  V30 3033 H 287.549 -6.52393 -2.43632 0
M  V30 3034 H 285.176 -7.22935 -2.35093 0
M  V30 3035 N 286.751 1.08385 -1.14413 0
M  V30 3036 C 287.976 1.85057 -0.936413 0
M  V30 3037 C 288.401 1.81055 0.509971 0
M  V30 3038 O 287.759 1.1958 1.36273 0
M  V30 3039 C 287.807 3.30505 -1.44217 0
M  V30 3040 O 286.911 4.07491 -0.634409 0
M  V30 3041 H 286.252 0.573425 -0.334784 0
M  V30 3042 H 288.782 1.36799 -1.52142 0
M  V30 3043 H 288.792 3.81348 -1.45043 0
M  V30 3044 H 287.467 3.32734 -2.49522 0
M  V30 3045 H 286.044 3.66368 -0.694902 0
M  V30 3046 N 288.23 0.939286 1.26551 0
M  V30 3047 C 289.193 0.451987 2.24699 0
M  V30 3048 C 290.193 -0.435869 1.5478 0
M  V30 3049 O 291.383 -0.235314 1.72603 0
M  V30 3050 C 288.515 -0.348801 3.39111 0
M  V30 3051 H 289.708 1.3193 2.69322 0
M  V30 3052 H 287.261 0.721072 1.38673 0
M  V30 3053 H 287.996 -1.23444 2.99887 0
M  V30 3054 H 287.781 0.287945 3.91041 0
M  V30 3055 H 289.271 -0.679726 4.12031 0
M  V30 3056 N 289.708 -1.40897 0.706093 0
M  V30 3057 C 290.955 -2.01054 0.241531 0
M  V30 3058 C 291.283 -1.55956 -1.16223 0
M  V30 3059 O 290.538 -0.766336 -1.80072 0
M  V30 3060 C 290.837 -3.5646 0.259099 0
M  V30 3061 C 290.503 -4.21106 1.61184 0
M  V30 3062 C 289.165 -4.38479 1.98216 0
M  V30 3063 C 291.517 -4.57256 2.50132 0
M  V30 3064 C 288.845 -4.89282 3.2376 0
M  V30 3065 C 291.197 -5.09454 3.7502 0
M  V30 3066 C 289.861 -5.25037 4.12181 0
M  V30 3067 H 289.131 -0.73571 0.0883825 0
M  V30 3068 H 291.778 -1.68645 0.907257 0
M  V30 3069 H 290.083 -3.88721 -0.490189 0
M  V30 3070 H 291.78 -4.00826 -0.11804 0
M  V30 3071 H 288.37 -4.07966 1.31384 0
M  V30 3072 H 292.554 -4.43479 2.228 0
M  V30 3073 H 287.81 -4.99531 3.52532 0
M  V30 3074 H 291.984 -5.36404 4.44121 0
M  V30 3075 H 289.611 -5.64164 5.09532 0
M  V30 3076 N 291.186 -0.45159 -1.50991 0
M  V30 3077 C 292.116 0.342898 -2.30969 0
M  V30 3078 C 293.097 1.00815 -1.37005 0
M  V30 3079 O 294.282 1.00907 -1.65926 0
M  V30 3080 C 291.412 1.43637 -3.16205 0
M  V30 3081 C 290.366 0.893818 -4.18563 0
M  V30 3082 C 289.692 2.08411 -4.92411 0
M  V30 3083 C 290.992 -0.0815568 -5.22236 0
M  V30 3084 H 292.686 -0.324556 -2.97636 0
M  V30 3085 H 290.232 -0.157531 -1.43136 0
M  V30 3086 H 292.185 1.9995 -3.70942 0
M  V30 3087 H 290.909 2.13232 -2.47386 0
M  V30 3088 H 289.568 0.352798 -3.64898 0
M  V30 3089 H 289.216 2.76658 -4.20082 0
M  V30 3090 H 288.916 1.72741 -5.61636 0
M  V30 3091 H 290.44 2.65251 -5.49976 0
M  V30 3092 H 291.854 0.391742 -5.7196 0
M  V30 3093 H 290.251 -0.351551 -5.99069 0
M  V30 3094 H 291.321 -1.01374 -4.74185 0
M  V30 3095 N 292.664 1.56529 -0.183458 0
M  V30 3096 C 294.08 1.58664 0.172554 0
M  V30 3097 C 294.28 1.19925 1.61926 0
M  V30 3098 O 293.336 0.916534 2.35278 0
M  V30 3099 C 294.649 3.00463 -0.119262 0
M  V30 3100 C 296.197 3.12945 -0.0584396 0
M  V30 3101 C 296.672 4.56857 -0.323408 0
M  V30 3102 N 298.163 4.62403 -0.271612 0
M  V30 3103 C 298.898 5.71626 -0.450639 0
M  V30 3104 N 298.394 6.89362 -0.689384 0
M  V30 3105 N 300.187 5.60775 -0.385701 0
M  V30 3106 H 292.338 1.79994 -1.12765 0
M  V30 3107 H 294.601 0.834808 -0.449222 0
M  V30 3108 H 294.307 3.33326 -1.12192 0
M  V30 3109 H 294.181 3.72659 0.583544 0
M  V30 3110 H 296.568 2.79902 0.934805 0
M  V30 3111 H 296.649 2.4316 -0.794144 0
M  V30 3112 H 296.293 4.9061 -1.31392 0
M  V30 3113 H 296.223 5.24816 0.43305 0
M  V30 3114 H 298.714 3.77785 -0.0932256 0
M  V30 3115 H 299.027 7.68489 -0.815113 0
M  V30 3116 H 297.372 6.91196 -0.726142 0
M  V30 3117 H 300.563 4.67674 -0.199687 0
M  V30 3118 H 300.736 6.4584 -0.528646 0
M  V30 3119 N 294.142 -0.090211 1.57342 0
M  V30 3120 C 295.105 -1.09335 2.01441 0
M  V30 3121 C 296.105 -1.32666 0.908641 0
M  V30 3122 O 297.295 -1.28697 1.174 0
M  V30 3123 C 294.427 -2.44136 2.3793 0
M  V30 3124 H 295.62 -0.713662 2.91285 0
M  V30 3125 H 293.173 -0.335404 1.52659 0
M  V30 3126 H 293.908 -2.86972 1.51055 0
M  V30 3127 H 293.693 -2.28548 3.18603 0
M  V30 3128 H 295.183 -3.16277 2.72688 0
M  V30 3129 N 295.62 -1.53406 -0.361157 0
M  V30 3130 C 296.845 -1.74024 -1.12829 0
M  V30 3131 C 297.27 -0.470069 -1.82132 0
M  V30 3132 O 296.628 0.57619 -1.719 0
M  V30 3133 C 296.676 -2.90903 -2.13091 0
M  V30 3134 O 295.78 -2.59821 -3.20261 0
M  V30 3135 H 295.121 -0.577804 -0.327168 0
M  V30 3136 H 297.651 -2.00307 -0.41693 0
M  V30 3137 H 297.661 -3.17194 -2.56616 0
M  V30 3138 H 296.336 -3.83034 -1.62042 0
M  V30 3139 H 294.913 -2.44362 -2.81677 0
M  V30 3140 N 297.098 0.621204 -1.44841 0
M  V30 3141 C 298.375 1.38 -1.38619 0
M  V30 3142 C 298.755 2.11041 -0.0498935 0
M  V30 3143 O 298.103 2.06992 0.967816 0
M  V30 3144 C 298.313 2.33817 -2.59096 0
M  V30 3145 C 299.661 2.96844 -3.03593 0
M  V30 3146 O 300.685 2.44141 -2.59371 0
M  V30 3147 O 299.544 3.92476 -3.80296 0
M  V30 3148 H 296.638 0.61811 -0.549426 0
M  V30 3149 H 299.184 0.645429 -1.56947 0
M  V30 3150 H 297.956 1.79012 -3.47952 0
M  V30 3151 H 297.579 3.14676 -2.43032 0
M  V30 3152 N 298.576 1.31904 0.862503 0
M  V30 3153 C 299.824 1.21776 1.61292 0
M  V30 3154 C 300.145 -0.222413 1.93727 0
M  V30 3155 O 299.415 -1.1451 1.58947 0
M  V30 3156 H 297.995 0.447717 0.597962 0
M  V30 3157 H 300.657 1.65326 1.03215 0
M  V30 3158 H 299.753 1.7948 2.5533 0
M  V30 3159 N 300.054 -1.07777 1.14986 0
M  V30 3160 C 301.279 -1.84558 0.946213 0
M  V30 3161 C 301.704 -1.81323 -0.500362 0
M  V30 3162 O 301.062 -1.20301 -1.35637 0
M  V30 3163 C 301.11 -3.29736 1.45968 0
M  V30 3164 O 300.214 -4.07149 0.65601 0
M  V30 3165 H 299.555 -0.571641 0.33782 0
M  V30 3166 H 302.085 -1.35991 1.52865 0
M  V30 3167 H 302.095 -3.80574 1.47063 0
M  V30 3168 H 300.77 -3.31406 2.51283 0
M  V30 3169 H 299.347 -3.65994 0.714322 0
M  V30 3170 N 301.532 -0.945985 -1.26051 0
M  V30 3171 C 302.779 -0.596118 -1.93527 0
M  V30 3172 C 303.107 0.865559 -1.74179 0
M  V30 3173 O 302.362 1.63524 -1.0751 0
M  V30 3174 C 302.661 -0.890475 -3.46129 0
M  V30 3175 C 302.327 -2.3368 -3.85622 0
M  V30 3176 C 300.989 -2.73216 -3.96114 0
M  V30 3177 C 303.341 -3.27648 -4.05334 0
M  V30 3178 C 300.669 -4.05806 -4.2372 0
M  V30 3179 C 303.021 -4.59841 -4.3443 0
M  V30 3180 C 301.685 -4.99185 -4.43137 0
M  V30 3181 H 300.955 -0.218135 -0.708165 0
M  V30 3182 H 303.602 -1.1934 -1.49768 0
M  V30 3183 H 301.907 -0.210711 -3.91233 0
M  V30 3184 H 303.604 -0.598478 -3.96509 0
M  V30 3185 H 300.194 -2.02015 -3.78005 0
M  V30 3186 H 304.378 -2.98298 -3.96651 0
M  V30 3187 H 299.634 -4.35945 -4.28675 0
M  V30 3188 H 303.808 -5.32641 -4.48628 0
M  V30 3189 H 301.435 -6.01952 -4.64282 0
M  V30 3190 N 303.011 1.40521 -0.713556 0
M  V30 3191 C 304.236 2.05759 -0.26035 0
M  V30 3192 C 304.661 1.53403 1.08854 0
M  V30 3193 O 304.019 0.668535 1.68524 0
M  V30 3194 C 304.067 3.59745 -0.248122 0
M  V30 3195 O 303.171 4.05123 0.77131 0
M  V30 3196 H 302.512 0.652564 -0.122703 0
M  V30 3197 H 305.042 1.79958 -0.973467 0
M  V30 3198 H 305.052 4.07911 -0.0851129 0
M  V30 3199 H 303.727 3.97218 -1.2325 0
M  V30 3200 H 302.304 3.68422 0.57619 0
M  V30 3201 N 304.489 0.459591 1.5075 0
M  V30 3202 C 305.419 -0.330644 2.31147 0
M  V30 3203 C 306.4 -1.00087 1.37538 0
M  V30 3204 O 307.585 -1.00025 1.66459 0
M  V30 3205 C 304.715 -1.41958 3.16962 0
M  V30 3206 C 303.669 -0.871608 4.19031 0
M  V30 3207 C 302.995 -2.05797 4.9351 0
M  V30 3208 C 304.295 0.109251 5.22186 0
M  V30 3209 H 305.989 0.340336 2.97459 0
M  V30 3210 H 303.535 0.165119 1.4305 0
M  V30 3211 H 305.488 -1.9798 3.71997 0
M  V30 3212 H 304.212 -2.11917 2.48513 0
M  V30 3213 H 302.871 -0.333442 3.6508 0
M  V30 3214 H 302.519 -2.74427 4.21544 0
M  V30 3215 H 302.219 -1.6976 5.62544 0
M  V30 3216 H 303.743 -2.62331 5.51375 0
M  V30 3217 H 305.157 -0.361405 5.7216 0
M  V30 3218 H 303.554 0.383316 5.98875 0
M  V30 3219 H 304.624 1.03887 4.73641 0
M  V30 3220 N 305.967 -1.56429 0.191757 0
M  V30 3221 C 307.378 -1.83912 -0.321428 0
M  V30 3222 C 307.729 -1.11231 -1.61623 0
M  V30 3223 O 306.854 -0.37202 -2.13178 0
M  V30 3224 C 307.449 -3.33624 -0.589961 0
M  V30 3225 C 306.008 -3.6153 -1.04753 0
M  V30 3226 C 305.155 -2.7714 -0.0943327 0
M  V30 3227 H 308.106 -1.53161 0.415612 0
M  V30 3228 H 308.127 -3.52213 -1.43966 0
M  V30 3229 H 307.639 -3.86495 0.352588 0
M  V30 3230 H 305.74 -3.14089 -2.00447 0
M  V30 3231 H 305.853 -4.69737 -0.942549 0
M  V30 3232 H 304.217 -2.47638 -0.595589 0
M  V30 3233 H 305 -3.32799 0.842601 0
M  V30 3234 N 307.445 0.0818655 -1.57387 0
M  V30 3235 C 308.375 1.09885 -2.06028 0
M  V30 3236 C 309.356 1.4098 -0.951774 0
M  V30 3237 O 310.541 1.50781 -1.22387 0
M  V30 3238 C 307.671 2.4151 -2.4958 0
M  V30 3239 C 306.625 2.24792 -3.64215 0
M  V30 3240 C 305.951 3.61712 -3.93787 0
M  V30 3241 C 307.251 1.67749 -4.94629 0
M  V30 3242 H 308.945 0.694128 -2.91243 0
M  V30 3243 H 306.491 0.332448 -1.4011 0
M  V30 3244 H 308.444 3.12939 -2.82219 0
M  V30 3245 H 307.168 2.83943 -1.61381 0
M  V30 3246 H 305.827 1.55807 -3.31843 0
M  V30 3247 H 305.475 4.01697 -3.02735 0
M  V30 3248 H 305.175 3.51368 -4.70971 0
M  V30 3249 H 306.699 4.34587 -4.28913 0
M  V30 3250 H 308.113 2.29032 -5.25564 0
M  V30 3251 H 306.51 1.68128 -5.76067 0
M  V30 3252 H 307.58 0.638059 -4.80684 0
M  V30 3253 N 308.923 1.53595 0.353017 0
M  V30 3254 C 309.87 1.80919 1.43308 0
M  V30 3255 C 310.84 0.654288 1.5267 0
M  V30 3256 O 312.025 0.897759 1.6836 0
M  V30 3257 C 309.165 2.01605 2.80089 0
M  V30 3258 C 308.278 3.29321 2.79593 0
M  V30 3259 C 307.413 3.40125 4.0803 0
M  V30 3260 C 306.452 4.61826 4.01725 0
M  V30 3261 N 305.589 4.69716 5.21834 0
M  V30 3262 H 310.429 2.73074 1.19308 0
M  V30 3263 H 307.966 1.35263 0.578131 0
M  V30 3264 H 309.924 2.11586 3.59565 0
M  V30 3265 H 308.554 1.12772 3.0246 0
M  V30 3266 H 307.606 3.28229 1.92276 0
M  V30 3267 H 308.918 4.18884 2.70809 0
M  V30 3268 H 308.072 3.49488 4.95927 0
M  V30 3269 H 306.811 2.48601 4.19582 0
M  V30 3270 H 305.816 4.52552 3.12213 0
M  V30 3271 H 307.041 5.54705 3.91764 0
M  V30 3272 H 304.987 3.81097 5.33948 0
M  V30 3273 H 304.904 5.53202 5.1527 0
M  V30 3274 H 306.172 4.83376 6.11529 0
M  V30 3275 N 310.401 -0.613514 1.45168 0
M  V30 3276 C 311.812 -1.19539 1.43413 0
M  V30 3277 C 312.163 -1.95558 0.158632 0
M  V30 3278 O 311.288 -2.0335 -0.740119 0
M  V30 3279 C 311.883 -2.17445 2.59813 0
M  V30 3280 C 310.442 -2.71022 2.61197 0
M  V30 3281 C 309.589 -1.46323 2.35552 0
M  V30 3282 H 312.54 -0.403163 1.53494 0
M  V30 3283 H 312.561 -3.00373 2.33574 0
M  V30 3284 H 312.073 -1.62089 3.52631 0
M  V30 3285 H 310.174 -3.30332 1.7237 0
M  V30 3286 H 310.287 -3.15859 3.60236 0
M  V30 3287 H 308.651 -1.75072 1.84992 0
M  V30 3288 H 309.434 -0.92844 3.30507 0
M  V30 3289 N 311.879 -1.3236 -0.855495 0
M  V30 3290 C 313.125 -1.23054 -1.612 0
M  V30 3291 C 313.458 0.207404 -1.93089 0
M  V30 3292 O 312.733 1.14432 -1.57275 0
M  V30 3293 C 313.016 -2.08937 -2.93287 0
M  V30 3294 C 312.869 -3.61105 -2.68185 0
M  V30 3295 C 314.188 -1.94986 -3.94549 0
M  V30 3296 H 311.307 -0.448364 -0.584926 0
M  V30 3297 H 313.949 -1.62297 -0.987917 0
M  V30 3298 H 312.099 -1.75599 -3.46551 0
M  V30 3299 H 313.771 -4.04652 -2.21483 0
M  V30 3300 H 312.014 -3.83813 -2.02164 0
M  V30 3301 H 312.685 -4.16522 -3.62234 0
M  V30 3302 H 315.161 -2.24189 -3.5054 0
M  V30 3303 H 314.037 -2.57356 -4.84829 0
M  V30 3304 H 314.298 -0.917263 -4.3248 0
M  V30 3305 N 313.357 1.07166 -1.15556 0
M  V30 3306 C 314.606 1.79181 -0.926132 0
M  V30 3307 C 314.919 1.87768 0.547967 0
M  V30 3308 O 316.125 2.56323 0.895036 0
M  V30 3309 C 314.581 3.22 -1.60761 0
M  V30 3310 C 314.189 3.21607 -3.11886 0
M  V30 3311 C 315.933 3.9861 -1.4598 0
M  V30 3312 C 313.84 4.59092 -3.72812 0
M  V30 3313 H 312.77 0.67154 -0.342856 0
M  V30 3314 H 315.421 1.2027 -1.3859 0
M  V30 3315 H 313.803 3.81115 -1.07553 0
M  V30 3316 H 314.977 2.72127 -3.71865 0
M  V30 3317 H 313.292 2.58495 -3.2645 0
M  V30 3318 H 315.889 5.00225 -1.88888 0
M  V30 3319 H 316.232 4.143 -0.407541 0
M  V30 3320 H 316.765 3.45996 -1.96295 0
M  V30 3321 H 313.504 4.48606 -4.77946 0
M  V30 3322 H 313.024 5.08803 -3.17616 0
M  V30 3323 H 314.703 5.28059 -3.73848 0
M  V30 3324 N 314.835 0.952656 1.25548 0
M  V30 3325 C 316.06 0.623025 1.97821 0
M  V30 3326 C 316.485 -0.7976 1.70352 0
M  V30 3327 O 315.843 -1.53905 0.958283 0
M  V30 3328 C 315.891 0.885532 3.49558 0
M  V30 3329 O 314.995 -0.0366641 4.12384 0
M  V30 3330 H 314.336 0.237082 0.620232 0
M  V30 3331 H 316.866 1.27871 1.59719 0
M  V30 3332 H 316.876 0.811009 3.99858 0
M  V30 3333 H 315.551 1.92094 3.6888 0
M  V30 3334 H 314.128 0.0898954 3.72792 0
M  V30 3335 N 316.313 -1.40141 0.720998 0
M  V30 3336 C 317.245 -2.29177 0.0324669 0
M  V30 3337 C 318.258 -1.46105 -0.718126 0
M  V30 3338 O 319.447 -1.69335 -0.564608 0
M  V30 3339 C 316.547 -3.24473 -0.978292 0
M  V30 3340 C 315.72 -4.36423 -0.292115 0
M  V30 3341 C 314.779 -5.12122 -1.20901 0
M  V30 3342 O 313.805 -5.64981 -0.691766 0
M  V30 3343 N 315.007 -5.21992 -2.53978 0
M  V30 3344 H 317.772 -2.88909 0.796984 0
M  V30 3345 H 315.333 -1.51569 0.569068 0
M  V30 3346 H 317.325 -3.71987 -1.59398 0
M  V30 3347 H 315.895 -2.65871 -1.64413 0
M  V30 3348 H 315.115 -3.90967 0.503847 0
M  V30 3349 H 316.403 -5.08467 0.183971 0
M  V30 3350 H 315.801 -4.8054 -2.98493 0
M  V30 3351 H 314.358 -5.72995 -3.10677 0
M  V30 3352 N 317.792 -0.46758 -1.50504 0
M  V30 3353 C 319.203 -0.0116166 -1.86696 0
M  V30 3354 C 319.554 1.39202 -1.38265 0
M  V30 3355 O 318.679 2.0313 -0.746132 0
M  V30 3356 C 319.274 -0.0143044 -3.38797 0
M  V30 3357 C 317.833 0.386175 -3.74414 0
M  V30 3358 C 316.98 -0.401287 -2.74381 0
M  V30 3359 H 319.931 -0.682022 -1.43297 0
M  V30 3360 H 319.952 0.788641 -3.72237 0
M  V30 3361 H 319.464 -1.03602 -3.74016 0
M  V30 3362 H 317.565 1.41237 -3.44794 0
M  V30 3363 H 317.678 0.0899596 -4.79016 0
M  V30 3364 H 316.042 0.144536 -2.5429 0
M  V30 3365 H 316.825 -1.42244 -3.12444 0
M  V30 3366 N 319.27 1.56325 -0.20005 0
M  V30 3367 C 320.519 1.96895 0.437652 0
M  V30 3368 C 320.832 1.08999 1.62415 0
M  V30 3369 O 322.038 1.39372 2.32997 0
M  V30 3370 C 320.494 3.50198 0.830025 0
M  V30 3371 C 320.102 4.46765 -0.332461 0
M  V30 3372 C 321.846 3.99526 1.43453 0
M  V30 3373 C 319.753 5.91344 0.0811468 0
M  V30 3374 H 318.683 0.735209 0.167282 0
M  V30 3375 H 321.334 1.81148 -0.292853 0
M  V30 3376 H 319.716 3.61467 1.61734 0
M  V30 3377 H 320.89 4.47231 -1.11 0
M  V30 3378 H 319.205 4.07657 -0.848789 0
M  V30 3379 H 321.802 5.05025 1.75652 0
M  V30 3380 H 322.145 3.44122 2.34277 0
M  V30 3381 H 322.678 3.91393 0.71109 0
M  V30 3382 H 319.417 6.50685 -0.793033 0
M  V30 3383 H 318.937 5.94121 0.823445 0
M  V30 3384 H 320.616 6.44945 0.515252 0
M  V30 3385 N 320.748 -0.0735177 1.57428 0
M  V30 3386 C 321.698 -1.09442 2.00016 0
M  V30 3387 C 322.682 -1.34575 0.881947 0
M  V30 3388 O 323.874 -1.34905 1.14585 0
M  V30 3389 C 321.003 -2.40865 2.4462 0
M  V30 3390 C 320.089 -2.19014 3.63172 0
M  V30 3391 N 320.48 -1.67087 4.77405 0
M  V30 3392 C 318.778 -2.49494 3.69688 0
M  V30 3393 C 319.479 -1.6001 5.5926 0
M  V30 3394 N 318.455 -2.05999 5.03056 0
M  V30 3395 H 322.257 -0.686227 2.85776 0
M  V30 3396 H 319.771 -0.280617 1.59957 0
M  V30 3397 H 321.768 -3.14763 2.73368 0
M  V30 3398 H 320.428 -2.82403 1.60246 0
M  V30 3399 H 321.439 -1.35975 4.99731 0
M  V30 3400 H 318.116 -2.94409 2.96023 0
M  V30 3401 H 319.506 -1.2073 6.60964 0
M  V30 3402 N 322.226 -1.5378 -0.344866 0
M  V30 3403 C 323.503 -1.61589 -1.10219 0
M  V30 3404 C 323.883 -0.436316 -2.06542 0
M  V30 3405 O 323.231 0.571543 -2.21237 0
M  V30 3406 C 323.441 -2.97602 -1.82301 0
M  V30 3407 C 324.789 -3.5291 -2.36093 0
M  V30 3408 O 325.813 -2.99768 -1.924 0
M  V30 3409 O 324.672 -4.45859 -3.16026 0
M  V30 3410 H 321.766 -0.653522 -0.506792 0
M  V30 3411 H 324.312 -1.66126 -0.346465 0
M  V30 3412 H 323.084 -3.74893 -1.12121 0
M  V30 3413 H 322.707 -2.9665 -2.64735 0
M  V30 3414 N 323.704 0.605807 -1.45491 0
M  V30 3415 C 324.929 1.39625 -1.53361 0
M  V30 3416 C 325.354 1.87351 -0.167645 0
M  V30 3417 O 324.712 1.60243 0.848051 0
M  V30 3418 C 324.76 2.57559 -2.5238 0
M  V30 3419 O 323.864 3.58248 -2.04285 0
M  V30 3420 H 323.205 0.416771 -0.516912 0
M  V30 3421 H 325.735 0.737103 -1.90861 0
M  V30 3422 H 325.745 3.0478 -2.71244 0
M  V30 3423 H 324.42 2.22171 -3.51586 0
M  V30 3424 H 322.997 3.17664 -1.95305 0
M  V30 3425 N 325.182 1.32811 0.848464 0
M  V30 3426 C 326.129 1.22265 1.95755 0
M  V30 3427 C 327.099 0.103413 1.65778 0
M  V30 3428 O 328.284 0.280033 1.88734 0
M  V30 3429 C 325.424 0.958014 3.31536 0
M  V30 3430 C 324.537 2.16262 3.73971 0
M  V30 3431 C 323.672 1.83295 4.98575 0
M  V30 3432 C 322.711 3.00041 5.33518 0
M  V30 3433 N 321.848 2.67125 6.49299 0
M  V30 3434 H 326.688 2.17128 2.04107 0
M  V30 3435 H 324.225 1.07982 0.998913 0
M  V30 3436 H 326.183 0.785052 4.09747 0
M  V30 3437 H 324.813 0.046159 3.22767 0
M  V30 3438 H 323.865 2.44565 2.91362 0
M  V30 3439 H 325.177 3.03572 3.95785 0
M  V30 3440 H 324.331 1.62586 5.84509 0
M  V30 3441 H 323.07 0.932078 4.7871 0
M  V30 3442 H 322.075 3.21374 4.46093 0
M  V30 3443 H 323.3 3.90869 5.55336 0
M  V30 3444 H 321.246 1.79586 6.3094 0
M  V30 3445 H 321.163 3.47965 6.71161 0
M  V30 3446 H 322.431 2.49861 7.3837 0
M  V30 3447 N 326.66 -1.06551 1.16123 0
M  V30 3448 C 327.885 -1.83544 0.965735 0
M  V30 3449 C 328.31 -1.81843 -0.481102 0
M  V30 3450 O 327.668 -1.21732 -1.34354 0
M  V30 3451 C 327.716 -3.28169 1.49457 0
M  V30 3452 O 326.82 -4.0643 0.699157 0
M  V30 3453 H 326.161 -0.568026 0.343864 0
M  V30 3454 H 328.691 -1.34362 1.54299 0
M  V30 3455 H 328.701 -3.78992 1.51092 0
M  V30 3456 H 327.376 -3.28722 2.54784 0
M  V30 3457 H 325.953 -3.65216 0.7531 0
M  V30 3458 N 328.138 -0.959301 -1.25041 0
M  V30 3459 C 329.549 -0.65667 -1.74771 0
M  V30 3460 C 329.9 0.827852 -1.77879 0
M  V30 3461 O 329.025 1.64783 -1.40269 0
M  V30 3462 C 329.62 -1.1853 -3.1739 0
M  V30 3463 C 328.179 -0.932734 -3.6466 0
M  V30 3464 C 327.326 -1.32558 -2.43564 0
M  V30 3465 H 330.277 -1.13558 -1.10862 0
M  V30 3466 H 330.298 -0.547582 -3.76539 0
M  V30 3467 H 329.81 -2.26576 -3.15095 0
M  V30 3468 H 327.911 0.13257 -3.72364 0
M  V30 3469 H 328.024 -1.57248 -4.52559 0
M  V30 3470 H 326.388 -0.743956 -2.43593 0
M  V30 3471 H 327.171 -2.41537 -2.43957 0
M  V30 3472 N 329.616 1.39756 -0.72842 0
M  V30 3473 C 330.864 2.00248 -0.272946 0
M  V30 3474 C 331.185 1.58077 1.14178 0
M  V30 3475 O 330.455 0.826014 1.77634 0
M  V30 3476 H 329.035 0.740554 -0.0979247 0
M  V30 3477 H 331.697 1.70903 -0.936912 0
M  V30 3478 H 330.793 3.10495 -0.316142 0
M  V30 3479 N 331.094 0.475555 1.50254 0
M  V30 3480 C 332.057 -0.305016 2.27161 0
M  V30 3481 C 333.057 -0.916519 1.32123 0
M  V30 3482 O 334.247 -0.785003 1.5551 0
M  V30 3483 C 331.379 -1.43496 3.09227 0
M  V30 3484 H 332.572 0.369511 2.97615 0
M  V30 3485 H 330.125 0.229747 1.54602 0
M  V30 3486 H 330.86 -2.14441 2.43281 0
M  V30 3487 H 330.645 -1.00223 3.79075 0
M  V30 3488 H 332.135 -1.98548 3.67381 0
M  V30 3489 N 332.573 -1.56217 0.208337 0
M  V30 3490 C 333.798 -2.02782 -0.435222 0
M  V30 3491 C 334.223 -1.08738 -1.53485 0
M  V30 3492 O 333.581 -0.0731855 -1.81152 0
M  V30 3493 C 333.629 -3.47687 -0.956335 0
M  V30 3494 O 332.733 -3.56773 -2.06849 0
M  V30 3495 H 332.074 -0.656403 -0.100158 0
M  V30 3496 H 334.604 -2.02033 0.3231 0
M  V30 3497 H 334.614 -3.87745 -1.26955 0
M  V30 3498 H 333.289 -4.15624 -0.15143 0
M  V30 3499 H 331.866 -3.28597 -1.76292 0
M  V30 3500 N 334.051 0.0651679 -1.57465 0
M  V30 3501 C 334.999 1.09542 -2.05191 0
M  V30 3502 C 335.993 1.39675 -0.958509 0
M  V30 3503 O 337.199 1.39003 -1.14359 0
M  V30 3504 H 333.574 0.370623 -0.654326 0
M  V30 3505 H 335.545 0.666802 -2.90854 0
M  V30 3506 C 334.294 2.39881 -2.51699 0
M  V30 3507 H 333.617 2.17547 -3.3543 0
M  V30 3508 H 335.057 3.104 -2.88839 0
M  V30 3509 C 333.516 3.0631 -1.40271 0
M  V30 3510 O 334.046 3.94664 -0.748523 0
M  V30 3511 N 332.252 2.67041 -1.14618 0
M  V30 3512 H 331.799 1.95281 -1.67997 0
M  V30 3513 H 331.757 3.1181 -0.402688 0
M  V30 3514 N 335.529 1.53961 0.336706 0
M  V30 3515 C 336.459 1.85417 1.41925 0
M  V30 3516 C 337.44 0.709856 1.5458 0
M  V30 3517 O 338.625 0.962396 1.68676 0
M  V30 3518 C 335.755 2.06985 2.78881 0
M  V30 3519 C 334.709 3.22813 2.81026 0
M  V30 3520 C 334.035 3.29727 4.20932 0
M  V30 3521 C 335.335 4.60767 2.45949 0
M  V30 3522 H 337.029 2.76079 1.15848 0
M  V30 3523 H 334.575 1.32839 0.555859 0
M  V30 3524 H 336.528 2.27575 3.54665 0
M  V30 3525 H 335.252 1.13061 3.06406 0
M  V30 3526 H 333.911 3.0209 2.07695 0
M  V30 3527 H 333.559 2.33385 4.45579 0
M  V30 3528 H 333.259 4.07566 4.23277 0
M  V30 3529 H 334.783 3.52536 4.98549 0
M  V30 3530 H 336.197 4.81325 3.11446 0
M  V30 3531 H 334.594 5.4106 2.59566 0
M  V30 3532 H 335.664 4.6391 1.41122 0
M  V30 3533 N 337.007 -0.598083 1.45811 0
M  V30 3534 C 337.954 -1.7082 1.55207 0
M  V30 3535 C 338.924 -1.61278 0.39732 0
M  V30 3536 O 340.109 -1.80717 0.612038 0
M  V30 3537 C 337.249 -3.09144 1.53376 0
M  V30 3538 C 336.362 -3.29423 2.79472 0
M  V30 3539 C 335.497 -4.57907 2.69248 0
M  V30 3540 C 334.536 -4.71476 3.90354 0
M  V30 3541 N 333.673 -5.9127 3.78608 0
M  V30 3542 H 338.513 -1.62125 2.50039 0
M  V30 3543 H 336.05 -0.790389 1.24062 0
M  V30 3544 H 338.008 -3.89186 1.50301 0
M  V30 3545 H 336.638 -3.16773 0.620876 0
M  V30 3546 H 335.69 -2.43091 2.92594 0
M  V30 3547 H 337.002 -3.3532 3.69272 0
M  V30 3548 H 336.156 -5.46157 2.64192 0
M  V30 3549 H 334.895 -4.54423 1.77063 0
M  V30 3550 H 333.9 -3.81648 3.95759 0
M  V30 3551 H 335.125 -4.76751 4.83617 0
M  V30 3552 H 333.071 -5.88813 2.89199 0
M  V30 3553 H 332.988 -5.98369 4.6205 0
M  V30 3554 H 334.256 -6.81992 3.77501 0
M  V30 3555 N 338.485 -1.33259 -0.841409 0
M  V30 3556 C 339.734 -1.23921 -1.59143 0
M  V30 3557 C 340.047 0.1941 -1.94635 0
M  V30 3558 O 341.253 0.409474 -2.68394 0
M  V30 3559 C 339.709 -2.17119 -2.87032 0
M  V30 3560 C 339.317 -3.65606 -2.58914 0
M  V30 3561 C 341.061 -2.16648 -3.65053 0
M  V30 3562 C 338.968 -4.50726 -3.82884 0
M  V30 3563 H 337.898 -0.460264 -0.597221 0
M  V30 3564 H 340.549 -1.58307 -0.927959 0
M  V30 3565 H 338.931 -1.75663 -3.54906 0
M  V30 3566 H 340.105 -4.15487 -1.99267 0
M  V30 3567 H 338.42 -3.68341 -1.942 0
M  V30 3568 H 341.017 -2.77474 -4.57069 0
M  V30 3569 H 341.36 -1.16088 -3.99787 0
M  V30 3570 H 341.893 -2.56453 -3.041 0
M  V30 3571 H 338.632 -5.52151 -3.53283 0
M  V30 3572 H 338.152 -4.0559 -4.41879 0
M  V30 3573 H 339.831 -4.64401 -4.50489 0
M  V30 3574 N 339.963 1.05934 -1.16686 0
M  V30 3575 C 341.188 1.83029 -0.975455 0
M  V30 3576 C 341.613 1.82096 0.471452 0
M  V30 3577 O 340.971 1.22443 1.33706 0
M  V30 3578 C 341.019 3.27372 -1.51195 0
M  V30 3579 O 340.123 4.06054 -0.720701 0
M  V30 3580 H 339.464 0.566194 -0.346872 0
M  V30 3581 H 341.994 1.33541 -1.55009 0
M  V30 3582 H 342.004 3.78186 -1.53099 0
M  V30 3583 H 340.679 3.27366 -2.56523 0
M  V30 3584 H 339.256 3.64812 -0.772458 0
M  V30 3585 N 341.441 0.965919 1.2453 0
M  V30 3586 C 342.857 0.67216 1.44756 0
M  V30 3587 C 343.057 -0.766609 1.86347 0
M  V30 3588 O 342.113 -1.5407 2.00047 0
M  V30 3589 C 343.426 1.65473 2.51076 0
M  V30 3590 C 344.974 1.66716 2.64905 0
M  V30 3591 C 345.449 2.63766 3.74421 0
M  V30 3592 N 346.94 2.62198 3.81846 0
M  V30 3593 C 347.675 3.33966 4.66106 0
M  V30 3594 N 347.171 4.15245 5.54566 0
M  V30 3595 N 348.964 3.22799 4.60171 0
M  V30 3596 H 341.115 1.89553 0.958293 0
M  V30 3597 H 343.378 0.815979 0.482579 0
M  V30 3598 H 343.084 2.68296 2.27399 0
M  V30 3599 H 342.958 1.4261 3.49202 0
M  V30 3600 H 345.345 0.646057 2.87941 0
M  V30 3601 H 345.426 1.93642 1.67142 0
M  V30 3602 H 345.07 3.6601 3.52135 0
M  V30 3603 H 345 2.34121 4.71694 0
M  V30 3604 H 347.491 2.032 3.18619 0
M  V30 3605 H 347.804 4.66898 6.15814 0
M  V30 3606 H 346.149 4.1934 5.54237 0
M  V30 3607 H 349.34 2.58764 3.90075 0
M  V30 3608 H 349.513 3.78994 5.25612 0
M  V30 3609 N 342.919 -1.39368 0.735821 0
M  V30 3610 C 343.852 -2.28155 0.0451175 0
M  V30 3611 C 344.83 -1.44433 -0.746852 0
M  V30 3612 O 346.014 -1.73823 -0.729237 0
M  V30 3613 C 343.141 -3.253 -0.943266 0
M  V30 3614 C 342.187 -4.25826 -0.239685 0
M  V30 3615 S 343.02 -5.25166 1.04693 0
M  V30 3616 C 344.176 -6.2587 0.0611639 0
M  V30 3617 H 344.409 -2.86388 0.79807 0
M  V30 3618 H 341.942 -1.45104 0.527653 0
M  V30 3619 H 343.9 -3.81789 -1.50824 0
M  V30 3620 H 342.561 -2.66085 -1.66906 0
M  V30 3621 H 341.754 -4.94229 -0.987596 0
M  V30 3622 H 341.356 -3.73141 0.253274 0
M  V30 3623 H 343.648 -6.73007 -0.778941 0
M  V30 3624 H 344.591 -7.04508 0.712362 0
M  V30 3625 H 344.999 -5.63639 -0.311602 0
M  V30 3626 N 344.397 -0.483516 -1.5 0
M  V30 3627 C 345.674 0.129337 -1.95172 0
M  V30 3628 C 346.054 1.55802 -1.4244 0
M  V30 3629 O 345.402 2.19625 -0.630649 0
M  V30 3630 C 345.612 0.0599251 -3.48949 0
M  V30 3631 C 346.96 0.242617 -4.23906 0
M  V30 3632 O 347.984 0.135933 -3.55941 0
M  V30 3633 O 346.843 0.459454 -5.44565 0
M  V30 3634 H 343.937 0.104887 -0.820322 0
M  V30 3635 H 346.483 -0.544807 -1.60717 0
M  V30 3636 H 345.255 -0.937079 -3.79914 0
M  V30 3637 H 344.878 0.774984 -3.89974 0
M  V30 3638 N 345.875 1.56104 -0.216619 0
M  V30 3639 C 346.822 2.2007 0.695531 0
M  V30 3640 C 347.792 1.15471 1.19397 0
M  V30 3641 O 348.977 1.43807 1.25396 0
M  V30 3642 C 346.117 2.88073 1.90021 0
M  V30 3643 C 345.23 4.07253 1.44113 0
M  V30 3644 C 344.365 4.63052 2.603 0
M  V30 3645 C 343.404 5.74545 2.11103 0
M  V30 3646 N 342.541 6.24656 3.20545 0
M  V30 3647 H 347.381 2.97655 0.143327 0
M  V30 3648 H 344.918 1.46982 0.0589934 0
M  V30 3649 H 346.876 3.25681 2.60745 0
M  V30 3650 H 345.506 2.13015 2.42538 0
M  V30 3651 H 344.558 3.75164 0.628999 0
M  V30 3652 H 345.87 4.8783 1.04036 0
M  V30 3653 H 345.024 5.03078 3.39113 0
M  V30 3654 H 343.763 3.81628 3.03663 0
M  V30 3655 H 342.768 5.34027 1.3075 0
M  V30 3656 H 343.993 6.57801 1.68746 0
M  V30 3657 H 341.939 5.46148 3.63399 0
M  V30 3658 H 341.856 7.00343 2.84704 0
M  V30 3659 H 343.124 6.69338 3.99508 0
M  V30 3660 N 347.353 -0.0568162 1.57498 0
M  V30 3661 C 348.581 -0.765626 1.92213 0
M  V30 3662 C 348.996 -1.70353 0.813961 0
M  V30 3663 O 348.353 -1.81268 -0.211701 0
M  V30 3664 C 348.404 -1.5465 3.2675 0
M  V30 3665 O 348.125 -0.646278 4.33307 0
M  V30 3666 C 349.626 -2.35497 3.75574 0
M  V30 3667 H 346.846 -0.216835 0.634999 0
M  V30 3668 H 349.39 -0.0226146 2.04487 0
M  V30 3669 H 347.545 -2.24165 3.15957 0
M  V30 3670 H 347.959 -1.19093 5.108 0
M  V30 3671 H 349.433 -2.85722 4.72299 0
M  V30 3672 H 349.91 -3.15692 3.05344 0
M  V30 3673 H 350.516 -1.7111 3.8936 0
M  V30 3674 N 348.832 -1.54138 -0.328536 0
M  V30 3675 C 349.795 -1.82462 -1.38709 0
M  V30 3676 C 350.795 -0.696229 -1.44946 0
M  V30 3677 O 351.985 -0.964535 -1.4506 0
M  V30 3678 C 349.117 -1.98018 -2.77492 0
M  V30 3679 H 350.31 -2.77037 -1.14851 0
M  V30 3680 H 347.863 -1.45779 -0.563751 0
M  V30 3681 H 348.598 -1.05637 -3.06613 0
M  V30 3682 H 348.383 -2.80124 -2.74359 0
M  V30 3683 H 349.873 -2.21396 -3.54081 0
M  V30 3684 N 350.31 0.590341 -1.46126 0
M  V30 3685 C 351.558 1.34616 -1.50742 0
M  V30 3686 C 351.879 1.94363 -0.157486 0
M  V30 3687 O 351.149 1.78136 0.815136 0
M  V30 3688 H 349.729 0.499789 -0.555175 0
M  V30 3689 H 352.391 0.691953 -1.82203 0
M  V30 3690 H 351.487 2.15678 -2.25587 0
M  V30 3691 N 351.788 1.33704 0.83433 0
M  V30 3692 C 353.013 1.28615 1.62705 0
M  V30 3693 C 353.438 -0.139242 1.87584 0
M  V30 3694 O 352.796 -1.09734 1.4432 0
M  V30 3695 C 352.844 2.07139 2.95171 0
M  V30 3696 O 351.948 1.4331 3.86699 0
M  V30 3697 H 351.289 0.44226 0.49528 0
M  V30 3698 H 353.819 1.76335 1.03766 0
M  V30 3699 H 353.829 2.18073 3.44831 0
M  V30 3700 H 352.504 3.10779 2.76386 0
M  V30 3701 H 351.081 1.4105 3.45195 0
M  V30 3702 N 353.266 -1.05314 1.17247 0
M  V30 3703 C 354.512 -1.78557 0.961513 0
M  V30 3704 C 354.845 -1.87419 -0.508697 0
M  V30 3705 O 354.12 -1.37307 -1.37757 0
M  V30 3706 C 354.403 -3.22514 1.60176 0
M  V30 3707 C 354.256 -3.21673 3.14399 0
M  V30 3708 C 355.575 -4.20318 1.30463 0
M  V30 3709 H 352.694 -0.6482 0.350723 0
M  V30 3710 H 355.336 -1.23102 1.44727 0
M  V30 3711 H 353.486 -3.69867 1.18871 0
M  V30 3712 H 355.158 -2.82405 3.64753 0
M  V30 3713 H 353.401 -2.60048 3.47214 0
M  V30 3714 H 354.072 -4.23271 3.54324 0
M  V30 3715 H 356.548 -3.81454 1.66229 0
M  V30 3716 H 355.424 -5.19289 1.77848 0
M  V30 3717 H 355.685 -4.41526 0.22521 0
M  V30 3718 N 354.744 -0.972509 -1.24016 0
M  V30 3719 C 356.16 -0.679827 -1.44397 0
M  V30 3720 C 356.36 0.756716 -1.86751 0
M  V30 3721 O 355.416 1.53007 -2.00861 0
M  V30 3722 C 356.729 -1.66803 -2.50195 0
M  V30 3723 C 358.277 -1.68119 -2.64017 0
M  V30 3724 C 358.752 -2.65748 -3.73017 0
M  V30 3725 N 360.243 -2.64219 -3.8045 0
M  V30 3726 C 360.978 -3.36433 -4.64328 0
M  V30 3727 N 360.474 -4.1818 -5.52356 0
M  V30 3728 N 362.267 -3.25235 -4.58453 0
M  V30 3729 H 354.418 -1.90059 -0.948228 0
M  V30 3730 H 356.681 -0.818527 -0.478245 0
M  V30 3731 H 356.387 -2.69498 -2.25973 0
M  V30 3732 H 356.261 -1.4446 -3.48441 0
M  V30 3733 H 358.648 -0.661319 -2.87594 0
M  V30 3734 H 358.729 -1.94525 -1.66113 0
M  V30 3735 H 358.373 -3.67872 -3.50189 0
M  V30 3736 H 358.303 -2.36619 -4.70446 0
M  V30 3737 H 360.794 -2.04887 -3.17537 0
M  V30 3738 H 361.107 -4.70157 -6.13329 0
M  V30 3739 H 359.452 -4.22273 -5.52006 0
M  V30 3740 H 362.643 -2.60829 -3.88698 0
M  V30 3741 H 362.816 -3.81776 -5.23594 0
M  V30 3742 N 356.222 1.38976 -0.743202 0
M  V30 3743 C 357.47 1.99948 -0.29417 0
M  V30 3744 C 357.791 1.59279 1.12495 0
M  V30 3745 O 357.061 0.844808 1.76748 0
M  V30 3746 H 355.641 0.739473 -0.105774 0
M  V30 3747 H 358.303 1.699 -0.954986 0
M  V30 3748 H 357.399 3.10142 -0.349056 0
M  V30 3749 N 357.7 0.491464 1.49741 0
M  V30 3750 C 358.948 -0.0563141 2.02022 0
M  V30 3751 C 359.269 -1.38363 1.37407 0
M  V30 3752 O 358.539 -1.88702 0.526166 0
M  V30 3753 H 357.119 -0.0238014 0.746621 0
M  V30 3754 H 359.781 0.646533 1.83864 0
M  V30 3755 H 358.877 -0.192967 3.11503 0
M  V30 3756 N 359.178 -1.55987 0.224894 0
M  V30 3757 C 360.455 -1.90232 -0.455083 0
M  V30 3758 C 360.835 -1.14269 -1.77499 0
M  V30 3759 O 360.183 -0.253079 -2.27094 0
M  V30 3760 C 360.393 -3.42993 -0.644758 0
M  V30 3761 C 361.741 -4.13821 -0.950669 0
M  V30 3762 O 362.765 -3.4861 -0.731423 0
M  V30 3763 O 361.624 -5.29128 -1.36695 0
M  V30 3764 H 358.718 -0.79108 -0.241084 0
M  V30 3765 H 361.264 -1.67581 0.267327 0
M  V30 3766 H 360.036 -3.90252 0.28613 0
M  V30 3767 H 359.659 -3.71434 -1.41853 0
M  V30 3768 N 360.656 0.0484629 -1.57525 0
M  V30 3769 C 361.566 1.07241 -2.08654 0
M  V30 3770 C 362.582 1.409 -1.02095 0
M  V30 3771 O 363.758 1.50609 -1.33712 0
M  V30 3772 C 360.823 2.36008 -2.5397 0
M  V30 3773 C 359.884 2.09108 -3.7493 0
M  V30 3774 C 359.117 3.31736 -4.18075 0
M  V30 3775 O 359.34 4.41714 -3.60895 0
M  V30 3776 O 358.274 3.18576 -5.10679 0
M  V30 3777 H 362.1 0.667965 -2.96263 0
M  V30 3778 H 359.685 0.26417 -1.47046 0
M  V30 3779 H 361.567 3.11747 -2.83535 0
M  V30 3780 H 360.242 2.75786 -1.69481 0
M  V30 3781 H 359.149 1.31 -3.50414 0
M  V30 3782 H 360.482 1.74198 -4.60343 0
M  V30 3783 N 362.134 1.5431 0.320358 0
M  V30 3784 C 363.38 1.72924 1.05949 0
M  V30 3785 C 363.713 0.503185 1.87568 0
M  V30 3786 O 362.988 -0.499839 1.87968 0
M  V30 3787 C 363.271 3.00676 1.98156 0
M  V30 3788 C 363.124 4.3354 1.19845 0
M  V30 3789 C 364.443 3.24198 2.9763 0
M  V30 3790 H 361.562 0.629195 0.383774 0
M  V30 3791 H 364.204 1.87008 0.335854 0
M  V30 3792 H 362.354 2.888 2.59859 0
M  V30 3793 H 364.026 4.57305 0.605773 0
M  V30 3794 H 362.269 4.309 0.500784 0
M  V30 3795 H 362.94 5.19156 1.87567 0
M  V30 3796 H 365.416 3.35557 2.4605 0
M  V30 3797 H 364.292 4.14938 3.59329 0
M  V30 3798 H 364.553 2.41577 3.7026 0
M  V30 3799 N 363.613 -0.582584 1.46437 0
M  V30 3800 C 364.843 -1.36484 1.55099 0
M  V30 3801 C 365.251 -1.88233 0.191056 0
M  V30 3802 O 364.594 -1.6429 -0.821858 0
M  V30 3803 C 364.656 -2.588 2.49525 0
M  V30 3804 C 364.32 -2.28517 3.95764 0
M  V30 3805 C 365.317 -1.87346 4.84972 0
M  V30 3806 C 363.002 -2.40658 4.40896 0
M  V30 3807 C 364.996 -1.5871 6.17325 0
M  V30 3808 C 362.683 -2.11635 5.73284 0
M  V30 3809 C 363.681 -1.70725 6.61318 0
M  V30 3810 O 363.369 -1.42057 7.91249 0
M  V30 3811 H 363.101 -0.423297 0.527063 0
M  V30 3812 H 365.655 -0.715188 1.92547 0
M  V30 3813 H 363.885 -3.26571 2.07095 0
M  V30 3814 H 365.574 -3.20868 2.48593 0
M  V30 3815 H 366.34 -1.77481 4.5136 0
M  V30 3816 H 362.219 -2.71463 3.72598 0
M  V30 3817 H 365.763 -1.26704 6.85997 0
M  V30 3818 H 361.66 -2.21124 6.06444 0
M  V30 3819 H 362.428 -1.55901 8.03515 0
M  V30 3820 N 365.091 -1.34144 -0.827227 0
M  V30 3821 C 366.021 -1.28005 -1.95287 0
M  V30 3822 C 367.002 -0.158321 -1.69362 0
M  V30 3823 O 368.187 -0.349987 -1.9102 0
M  V30 3824 C 365.317 -1.03036 -3.31664 0
M  V30 3825 C 364.271 -2.11628 -3.72019 0
M  V30 3826 C 363.597 -1.71854 -5.0633 0
M  V30 3827 C 364.897 -3.53417 -3.8457 0
M  V30 3828 H 366.591 -2.22187 -2.00682 0
M  V30 3829 H 364.137 -1.0696 -0.964135 0
M  V30 3830 H 366.09 -0.973863 -4.09993 0
M  V30 3831 H 364.814 -0.0529391 -3.26557 0
M  V30 3832 H 363.473 -2.16339 -2.95961 0
M  V30 3833 H 363.121 -0.727841 -4.97706 0
M  V30 3834 H 362.821 -2.44531 -5.34302 0
M  V30 3835 H 364.345 -1.67692 -5.87122 0
M  V30 3836 H 365.759 -3.51142 -4.5318 0
M  V30 3837 H 364.156 -4.24679 -4.2399 0
M  V30 3838 H 365.226 -3.91072 -2.86689 0
M  V30 3839 N 366.569 1.04691 -1.17803 0
M  V30 3840 C 367.499 2.14494 -0.92275 0
M  V30 3841 C 368.48 1.69546 0.137179 0
M  V30 3842 O 369.665 1.94195 -0.0141108 0
M  V30 3843 C 366.795 3.44491 -0.440803 0
M  V30 3844 C 365.749 4.03031 -1.4405 0
M  V30 3845 C 365.075 5.28432 -0.81631 0
M  V30 3846 C 366.375 4.39932 -2.81527 0
M  V30 3847 H 368.069 2.36107 -1.84103 0
M  V30 3848 H 365.615 1.1347 -0.886599 0
M  V30 3849 H 367.568 4.2066 -0.249602 0
M  V30 3850 H 366.292 3.22546 0.513025 0
M  V30 3851 H 364.951 3.28937 -1.61853 0
M  V30 3852 H 364.599 5.02792 0.144511 0
M  V30 3853 H 364.299 5.68559 -1.48371 0
M  V30 3854 H 365.823 6.07284 -0.635496 0
M  V30 3855 H 367.237 5.07113 -2.67412 0
M  V30 3856 H 365.634 4.9109 -3.44892 0
M  V30 3857 H 366.704 3.50045 -3.35554 0
M  V30 3858 N 368.047 0.979072 1.23499 0
M  V30 3859 C 369.287 0.655228 1.93613 0
M  V30 3860 C 369.651 -0.796336 1.74707 0
M  V30 3861 O 370.852 -1.23094 2.38959 0
M  V30 3862 C 369.123 1.03337 3.42135 0
M  V30 3863 S 370.682 0.825793 4.3096 0
M  V30 3864 H 367.5 0.240004 0.669267 0
M  V30 3865 H 370.102 1.25843 1.49612 0
M  V30 3866 H 368.806 2.08646 3.53405 0
M  V30 3867 H 368.337 0.421397 3.91137 0
M  V30 3868 H 370.352 -0.290991 4.95346 0
M  V30 3869 N 369.525 -1.3858 0.750561 0
M  V30 3870 C 370.802 -1.94231 0.231009 0
M  V30 3871 C 371.182 -1.68611 -1.27018 0
M  V30 3872 O 370.53 -1.02296 -2.04323 0
M  V30 3873 C 370.74 -3.44123 0.581428 0
M  V30 3874 C 372.088 -4.2116 0.539389 0
M  V30 3875 O 373.112 -3.52391 0.519541 0
M  V30 3876 O 371.971 -5.43749 0.54765 0
M  V30 3877 H 369.065 -0.825639 0.0474263 0
M  V30 3878 H 371.611 -1.4799 0.830478 0
M  V30 3879 H 370.383 -3.56267 1.61833 0
M  V30 3880 H 370.006 -3.97573 -0.0462047 0
M  V30 3881 N 371.003 -0.499398 -1.49478 0
M  V30 3882 C 371.95 0.279881 -2.29097 0
M  V30 3883 C 372.92 0.961805 -1.3542 0
M  V30 3884 O 374.105 0.968777 -1.64376 0
M  V30 3885 C 371.245 1.33932 -3.18051 0
M  V30 3886 C 370.358 0.669333 -4.26783 0
M  V30 3887 C 369.493 1.70907 -5.02955 0
M  V30 3888 C 368.532 1.02087 -6.03527 0
M  V30 3889 N 367.669 2.00474 -6.7287 0
M  V30 3890 H 372.509 -0.405317 -2.95231 0
M  V30 3891 H 370.046 -0.211726 -1.45568 0
M  V30 3892 H 372.004 1.96553 -3.67998 0
M  V30 3893 H 370.634 1.9933 -2.53904 0
M  V30 3894 H 369.686 -0.0701234 -3.80335 0
M  V30 3895 H 370.998 0.127503 -4.98637 0
M  V30 3896 H 370.152 2.41037 -5.56764 0
M  V30 3897 H 368.891 2.28476 -4.30871 0
M  V30 3898 H 367.896 0.305338 -5.48951 0
M  V30 3899 H 369.121 0.451708 -6.77596 0
M  V30 3900 H 367.067 2.57007 -6.03559 0
M  V30 3901 H 366.984 1.51353 -7.40694 0
M  V30 3902 H 368.252 2.69897 -7.31284 0
M  V30 3903 N 372.481 1.55866 -0.233164 0
M  V30 3904 C 373.727 1.98897 0.395959 0
M  V30 3905 C 374.06 1.12091 1.58585 0
M  V30 3906 O 373.335 0.181182 1.93654 0
M  V30 3907 C 373.618 3.50658 0.819224 0
M  V30 3908 C 373.471 4.48233 -0.375109 0
M  V30 3909 C 374.79 4.07135 1.67121 0
M  V30 3910 H 371.909 0.723102 0.142451 0
M  V30 3911 H 374.551 1.87082 -0.331725 0
M  V30 3912 H 372.701 3.60857 1.43925 0
M  V30 3913 H 374.373 4.50031 -1.01341 0
M  V30 3914 H 372.616 4.21624 -1.02058 0
M  V30 3915 H 373.287 5.51988 -0.0358328 0
M  V30 3916 H 375.763 3.99952 1.14795 0
M  V30 3917 H 374.639 5.13615 1.93625 0
M  V30 3918 H 374.9 3.54736 2.63846 0
M  V30 3919 N 373.959 -0.0401083 1.57549 0
M  V30 3920 C 374.891 -1.07149 2.02612 0
M  V30 3921 C 375.904 -1.33126 0.937085 0
M  V30 3922 O 377.093 -1.30808 1.21456 0
M  V30 3923 C 374.193 -2.41561 2.37701 0
M  V30 3924 C 373.366 -2.35096 3.68848 0
M  V30 3925 C 372.425 -3.51867 3.91249 0
M  V30 3926 O 371.451 -3.3186 4.62447 0
M  V30 3927 N 372.653 -4.73351 3.36035 0
M  V30 3928 H 375.418 -0.687485 2.91708 0
M  V30 3929 H 372.979 -0.228248 1.60283 0
M  V30 3930 H 374.971 -3.18379 2.49833 0
M  V30 3931 H 373.541 -2.71846 1.54332 0
M  V30 3932 H 372.761 -1.4345 3.67173 0
M  V30 3933 H 374.049 -2.27908 4.54901 0
M  V30 3934 H 373.447 -4.92507 2.78304 0
M  V30 3935 H 372.004 -5.47572 3.53565 0
M  V30 3936 N 375.437 -1.54477 -0.31217 0
M  V30 3937 C 376.384 -1.84655 -1.38461 0
M  V30 3938 C 377.354 -0.694536 -1.50882 0
M  V30 3939 O 378.539 -0.942081 -1.6592 0
M  V30 3940 C 375.679 -2.0896 -2.74645 0
M  V30 3941 C 374.792 -3.36618 -2.70763 0
M  V30 3942 C 373.927 -3.50824 -3.98868 0
M  V30 3943 C 372.966 -4.72315 -3.89339 0
M  V30 3944 N 372.103 -4.83387 -5.09197 0
M  V30 3945 H 376.943 -2.76142 -1.12026 0
M  V30 3946 H 374.48 -1.36748 -0.542065 0
M  V30 3947 H 376.438 -2.21045 -3.53829 0
M  V30 3948 H 375.068 -1.20752 -2.99364 0
M  V30 3949 H 374.12 -3.33211 -1.83506 0
M  V30 3950 H 375.432 -4.25917 -2.59608 0
M  V30 3951 H 374.586 -3.62513 -4.86486 0
M  V30 3952 H 373.325 -2.59638 -4.12843 0
M  V30 3953 H 372.33 -4.6067 -3.00105 0
M  V30 3954 H 373.555 -5.64897 -3.76919 0
M  V30 3955 H 371.501 -3.9512 -5.23657 0
M  V30 3956 H 371.418 -5.66669 -5.00422 0
M  V30 3957 H 372.686 -4.9942 -5.98498 0
M  V30 3958 N 376.915 0.57481 -1.46744 0
M  V30 3959 C 378.192 1.3352 -1.4294 0
M  V30 3960 C 378.572 2.10775 -0.117009 0
M  V30 3961 O 377.92 2.09966 0.901474 0
M  V30 3962 C 378.13 2.25456 -2.66403 0
M  V30 3963 C 379.478 2.87035 -3.12883 0
M  V30 3964 O 380.502 2.35766 -2.67007 0
M  V30 3965 O 379.361 3.80179 -3.92589 0
M  V30 3966 H 376.455 0.600318 -0.568812 0
M  V30 3967 H 379.001 0.595171 -1.58921 0
M  V30 3968 H 377.773 1.67851 -3.53471 0
M  V30 3969 H 377.396 3.06785 -2.52921 0
M  V30 3970 N 378.394 1.34581 0.820102 0
M  V30 3971 C 379.671 1.17675 1.56244 0
M  V30 3972 C 380.051 -0.249541 2.0962 0
M  V30 3973 O 379.399 -1.25125 1.91196 0
M  V30 3974 C 379.609 2.23364 2.6816 0
M  V30 3975 C 380.957 2.58485 3.36854 0
M  V30 3976 O 381.981 2.22175 2.78418 0
M  V30 3977 O 380.84 3.20868 4.42386 0
M  V30 3978 H 377.934 0.456333 0.689702 0
M  V30 3979 H 380.48 1.46222 0.861231 0
M  V30 3980 H 379.252 3.19087 2.26493 0
M  V30 3981 H 378.875 1.96009 3.45928 0
M  V30 3982 N 379.872 -1.04064 1.18357 0
M  V30 3983 C 381.121 -1.76662 0.973313 0
M  V30 3984 C 381.434 -1.89154 -0.497991 0
M  V30 3985 O 382.64 -2.58606 -0.826762 0
M  V30 3986 C 381.096 -3.17624 1.69242 0
M  V30 3987 C 380.704 -3.13225 3.20303 0
M  V30 3988 C 382.448 -3.946 1.56497 0
M  V30 3989 C 380.355 -4.49046 3.84853 0
M  V30 3990 H 379.285 -0.662214 0.36054 0
M  V30 3991 H 381.936 -1.16553 1.41731 0
M  V30 3992 H 380.318 -3.78129 1.1762 0
M  V30 3993 H 381.492 -2.62172 3.78949 0
M  V30 3994 H 379.807 -2.49749 3.33189 0
M  V30 3995 H 382.404 -4.95042 2.02084 0
M  V30 3996 H 382.747 -4.13074 0.517243 0
M  V30 3997 H 383.28 -3.4067 2.05399 0
M  V30 3998 H 380.019 -4.35777 4.89672 0
M  V30 3999 H 379.539 -5.00203 3.30994 0
M  V30 4000 H 381.218 -5.17961 3.87718 0
M  V30 4001 N 381.35 -0.985608 -1.22978 0
M  V30 4002 C 382.26 -0.538548 -2.28335 0
M  V30 4003 C 383.276 0.409163 -1.69121 0
M  V30 4004 O 384.452 0.277797 -1.99475 0
M  V30 4005 C 381.517 0.146867 -3.46389 0
M  V30 4006 C 380.578 -0.842896 -4.20944 0
M  V30 4007 C 379.811 -0.190095 -5.33361 0
M  V30 4008 O 380.034 1.01767 -5.61248 0
M  V30 4009 O 378.968 -0.891289 -5.95264 0
M  V30 4010 H 382.794 -1.41487 -2.68729 0
M  V30 4011 H 380.379 -0.753495 -1.29007 0
M  V30 4012 H 382.261 0.531125 -4.1804 0
M  V30 4013 H 380.936 0.997871 -3.07935 0
M  V30 4014 H 379.843 -1.27795 -3.51595 0
M  V30 4015 H 381.176 -1.66287 -4.6326 0
M  V30 4016 N 382.828 1.3818 -0.7579 0
M  V30 4017 C 384.074 2.00316 -0.316453 0
M  V30 4018 C 384.407 1.60026 1.10025 0
M  V30 4019 O 383.682 0.839835 1.75434 0
M  V30 4020 C 383.965 3.57349 -0.444245 0
M  V30 4021 C 383.818 4.07591 -1.90236 0
M  V30 4022 C 385.137 4.3981 0.1598 0
M  V30 4023 H 382.256 0.727741 -0.116459 0
M  V30 4024 H 384.898 1.6406 -0.958352 0
M  V30 4025 H 383.048 3.88365 0.102233 0
M  V30 4026 H 384.72 3.87199 -2.50748 0
M  V30 4027 H 382.963 3.60297 -2.41595 0
M  V30 4028 H 383.634 5.16677 -1.94291 0
M  V30 4029 H 386.11 4.14971 -0.306314 0
M  V30 4030 H 384.986 5.48885 0.0401675 0
M  V30 4031 H 385.247 4.24102 1.24859 0
M  V30 4032 N 384.306 0.507319 1.49211 0
M  V30 4033 C 385.722 0.163682 1.58758 0
M  V30 4034 C 385.922 -1.33208 1.51188 0
M  V30 4035 O 384.978 -2.10855 1.38911 0
M  V30 4036 C 386.291 0.746095 2.91297 0
M  V30 4037 C 387.839 0.712773 3.04776 0
M  V30 4038 C 388.314 1.27336 4.39943 0
M  V30 4039 N 389.805 1.23433 4.46451 0
M  V30 4040 C 390.54 1.63821 5.495 0
M  V30 4041 N 390.036 2.11832 6.5962 0
M  V30 4042 N 391.829 1.55198 5.4025 0
M  V30 4043 H 383.98 1.47972 1.52375 0
M  V30 4044 H 386.243 0.614147 0.722168 0
M  V30 4045 H 385.949 1.79534 3.02424 0
M  V30 4046 H 385.823 0.210137 3.76614 0
M  V30 4047 H 388.21 -0.327656 2.93275 0
M  V30 4048 H 388.291 1.28595 2.21127 0
M  V30 4049 H 387.935 2.3126 4.52196 0
M  V30 4050 H 387.865 0.676066 5.22242 0
M  V30 4051 H 390.356 0.882627 3.67448 0
M  V30 4052 H 390.669 2.40703 7.34358 0
M  V30 4053 H 389.014 2.1581 6.60644 0
M  V30 4054 H 392.205 1.17505 4.53112 0
M  V30 4055 H 392.378 1.86997 6.20432 0
M  V30 4056 N 385.784 -1.5574 0.241426 0
M  V30 4057 C 387.031 -1.9881 -0.384836 0
M  V30 4058 C 387.359 -1.12947 -1.58346 0
M  V30 4059 O 386.614 -0.178993 -1.9488 0
M  V30 4060 C 386.913 -3.47308 -0.843317 0
M  V30 4061 C 386.579 -4.50223 0.246946 0
M  V30 4062 C 385.241 -4.78088 0.546399 0
M  V30 4063 C 387.593 -5.11841 0.983282 0
M  V30 4064 C 384.921 -5.64846 1.58636 0
M  V30 4065 C 387.273 -5.99727 2.01272 0
M  V30 4066 C 385.937 -6.25927 2.31888 0
M  V30 4067 H 385.207 -0.727496 -0.140821 0
M  V30 4068 H 387.854 -1.8831 0.348106 0
M  V30 4069 H 386.159 -3.55112 -1.65537 0
M  V30 4070 H 387.856 -3.78017 -1.33806 0
M  V30 4071 H 384.446 -4.286 0.00340639 0
M  V30 4072 H 388.63 -4.90366 0.765182 0
M  V30 4073 H 383.886 -5.83403 1.82896 0
M  V30 4074 H 388.06 -6.46517 2.58823 0
M  V30 4075 H 385.687 -6.92949 3.12611 0
M  V30 4076 N 387.262 0.0317525 -1.57568 0
M  V30 4077 C 388.492 0.733884 -1.93126 0
M  V30 4078 C 388.9 1.69563 -0.839352 0
M  V30 4079 O 388.243 1.82681 0.193175 0
M  V30 4080 C 388.305 1.54798 -3.24465 0
M  V30 4081 C 387.969 0.751304 -4.50782 0
M  V30 4082 C 388.966 0.0527632 -5.19873 0
M  V30 4083 C 386.651 0.706639 -4.97305 0
M  V30 4084 C 388.645 -0.679774 -6.33765 0
M  V30 4085 C 386.332 -0.0296449 -6.11093 0
M  V30 4086 C 387.33 -0.721614 -6.79177 0
M  V30 4087 O 387.018 -1.44595 -7.90789 0
M  V30 4088 H 386.75 0.211459 -0.642076 0
M  V30 4089 H 389.304 -0.00585615 -2.05399 0
M  V30 4090 H 387.534 2.33147 -3.08512 0
M  V30 4091 H 389.223 2.13247 -3.4537 0
M  V30 4092 H 389.989 0.0783188 -4.84937 0
M  V30 4093 H 385.868 1.23474 -4.44157 0
M  V30 4094 H 389.412 -1.22042 -6.86842 0
M  V30 4095 H 385.309 -0.0571331 -6.45475 0
M  V30 4096 H 386.077 -1.35935 -8.07133 0
M  V30 4097 N 388.74 1.54641 0.303973 0
M  V30 4098 C 389.65 1.88439 1.39743 0
M  V30 4099 C 390.666 0.778239 1.55626 0
M  V30 4100 O 391.842 1.07442 1.70347 0
M  V30 4101 C 388.907 2.12212 2.74166 0
M  V30 4102 C 387.968 3.35936 2.67293 0
M  V30 4103 C 387.201 3.58566 3.95305 0
M  V30 4104 O 387.424 2.84263 4.9452 0
M  V30 4105 O 386.358 4.52078 3.97378 0
M  V30 4106 H 390.184 2.81458 1.14083 0
M  V30 4107 H 387.769 1.40793 0.499768 0
M  V30 4108 H 389.651 2.29067 3.53704 0
M  V30 4109 H 388.326 1.22379 2.99675 0
M  V30 4110 H 387.233 3.24448 1.86237 0
M  V30 4111 H 388.566 4.2589 2.46736 0
M  V30 4112 N 390.218 -0.567019 1.47046 0
M  V30 4113 C 391.495 -1.3276 1.43646 0
M  V30 4114 C 391.875 -2.1071 0.128186 0
M  V30 4115 O 391.223 -2.10441 -0.890326 0
M  V30 4116 C 391.433 -2.2404 2.67595 0
M  V30 4117 C 392.781 -2.85372 3.14401 0
M  V30 4118 O 393.805 -2.34346 2.68254 0
M  V30 4119 O 392.664 -3.78091 3.946 0
M  V30 4120 H 389.758 -0.597293 0.571988 0
M  V30 4121 H 392.304 -0.586735 1.59234 0
M  V30 4122 H 391.076 -1.65975 3.54356 0
M  V30 4123 H 390.699 -3.05439 2.54544 0
M  V30 4124 N 391.696 -1.35014 -0.812953 0
M  V30 4125 C 392.973 -1.18502 -1.55617 0
M  V30 4126 C 393.353 0.238421 -2.09749 0
M  V30 4127 O 392.701 1.2411 -1.91857 0
M  V30 4128 C 392.911 -2.24783 -2.66971 0
M  V30 4129 C 394.259 -2.60268 -3.35478 0
M  V30 4130 O 395.283 -2.23648 -2.77236 0
M  V30 4131 O 394.142 -3.2321 -4.40678 0
M  V30 4132 H 391.236 -0.459984 -0.687272 0
M  V30 4133 H 393.782 -1.46677 -0.853464 0
M  V30 4134 H 392.554 -3.20284 -2.24798 0
M  V30 4135 H 392.177 -1.97841 -3.44884 0
M  V30 4136 N 393.175 1.03435 -1.18907 0
M  V30 4137 C 394.085 2.15075 -0.937015 0
M  V30 4138 C 395.101 1.73706 0.101085 0
M  V30 4139 O 396.277 2.01232 -0.0822948 0
M  V30 4140 C 393.342 3.43458 -0.473057 0
M  V30 4141 C 392.403 3.99172 -1.57989 0
M  V30 4142 C 391.636 5.21427 -1.13797 0
M  V30 4143 O 391.859 5.704 0.000725941 0
M  V30 4144 O 390.793 5.69837 -1.9383 0
M  V30 4145 H 394.619 2.39198 -1.87131 0
M  V30 4146 H 392.204 1.13506 -0.971427 0
M  V30 4147 H 394.086 4.20811 -0.222702 0
M  V30 4148 H 392.761 3.20793 0.432869 0
M  V30 4149 H 391.668 3.23178 -1.88433 0
M  V30 4150 H 393.001 4.2619 -2.46217 0
M  V30 4151 N 394.653 0.992116 1.22453 0
M  V30 4152 C 395.601 0.534644 2.26372 0
M  V30 4153 C 396.595 -0.414293 1.64256 0
M  V30 4154 O 397.801 -0.286899 1.77699 0
M  V30 4155 H 394.176 0.154502 0.735957 0
M  V30 4156 H 396.147 1.42256 2.62309 0
M  V30 4157 C 394.896 -0.135815 3.47435 0
M  V30 4158 H 394.219 0.585311 3.95492 0
M  V30 4159 H 395.659 -0.419374 4.21921 0
M  V30 4160 C 394.118 -1.37089 3.07747 0
M  V30 4161 O 394.648 -2.46629 3.17076 0
M  V30 4162 N 392.854 -1.24585 2.62539 0
M  V30 4163 H 392.401 -0.354542 2.55149 0
M  V30 4164 H 392.359 -2.07327 2.36353 0
M  V30 4165 N 396.131 -1.37776 0.765217 0
M  V30 4166 C 397.379 -1.99454 0.325943 0
M  V30 4167 C 397.7 -1.61049 -1.09947 0
M  V30 4168 O 396.97 -0.872821 -1.75381 0
M  V30 4169 H 395.55 -0.737697 0.117525 0
M  V30 4170 H 398.212 -1.68359 0.981895 0
M  V30 4171 H 397.308 -3.09547 0.398353 0
M  V30 4172 N 397.609 -0.515225 -1.4894 0
M  V30 4173 C 398.855 0.016187 -2.03394 0
M  V30 4174 C 399.21 1.33377 -1.38666 0
M  V30 4175 O 398.503 1.84461 -0.518141 0
M  V30 4176 C 398.697 0.210595 -3.56779 0
M  V30 4177 C 398.526 -1.08659 -4.36375 0
M  V30 4178 C 397.296 -1.64237 -4.77864 0
M  V30 4179 C 399.494 -1.9935 -4.74093 0
M  V30 4180 N 397.476 -2.88398 -5.41941 0
M  V30 4181 C 398.847 -3.08088 -5.38035 0
M  V30 4182 C 400.902 -1.99856 -4.56029 0
M  V30 4183 C 399.605 -4.17377 -5.85823 0
M  V30 4184 C 401.631 -3.08129 -5.04787 0
M  V30 4185 C 400.993 -4.15586 -5.68742 0
M  V30 4186 H 397.092 -0.0352107 -0.781207 0
M  V30 4187 H 399.676 -0.693237 -1.8194 0
M  V30 4188 H 397.847 0.889088 -3.78087 0
M  V30 4189 H 399.579 0.740287 -3.97872 0
M  V30 4190 H 396.334 -1.18566 -4.58518 0
M  V30 4191 H 396.758 -3.51572 -5.78555 0
M  V30 4192 H 401.4 -1.18079 -4.05977 0
M  V30 4193 H 399.118 -4.99943 -6.34888 0
M  V30 4194 H 402.704 -3.09557 -4.92611 0
M  V30 4195 H 401.584 -4.97987 -6.05787 0
M  V30 4196 N 399.087 1.5561 -0.249682 0
M  V30 4197 C 400.019 2.18834 0.681496 0
M  V30 4198 C 401.032 1.16546 1.1367 0
M  V30 4199 O 402.221 1.43397 1.06299 0
M  V30 4200 C 399.321 2.77992 1.9384 0
M  V30 4201 C 398.494 4.05725 1.63419 0
M  V30 4202 C 397.553 4.49174 2.74096 0
M  V30 4203 O 396.579 5.15492 2.41364 0
M  V30 4204 N 397.781 4.17191 4.03649 0
M  V30 4205 H 400.546 2.9937 0.140514 0
M  V30 4206 H 398.107 1.6175 -0.0697541 0
M  V30 4207 H 400.099 3.04015 2.67127 0
M  V30 4208 H 398.669 2.01596 2.38909 0
M  V30 4209 H 397.889 3.87261 0.736358 0
M  V30 4210 H 399.177 4.88999 1.40562 0
M  V30 4211 H 398.575 3.63955 4.33074 0
M  V30 4212 H 397.132 4.48043 4.73393 0
M  V30 4213 N 400.565 -0.0233959 1.57583 0
M  V30 4214 C 401.528 -1.00693 2.05897 0
M  V30 4215 C 402.528 -1.28693 0.964092 0
M  V30 4216 O 403.718 -1.23602 1.22753 0
M  V30 4217 C 400.85 -2.33825 2.4807 0
M  V30 4218 H 402.043 -0.589476 2.9405 0
M  V30 4219 H 399.596 -0.270354 1.53944 0
M  V30 4220 H 400.331 -2.80307 1.6309 0
M  V30 4221 H 400.116 -2.1483 3.2801 0
M  V30 4222 H 401.606 -3.04426 2.85857 0
M  V30 4223 N 402.043 -1.548 -0.295768 0
M  V30 4224 C 403.29 -1.74329 -1.03032 0
M  V30 4225 C 403.618 -0.531915 -1.87085 0
M  V30 4226 O 402.873 0.486052 -1.89568 0
M  V30 4227 C 403.172 -2.98797 -1.961 0
M  V30 4228 C 402.838 -4.32356 -1.2798 0
M  V30 4229 C 401.5 -4.68661 -1.09135 0
M  V30 4230 C 403.852 -5.15128 -0.793243 0
M  V30 4231 C 401.18 -5.85312 -0.403269 0
M  V30 4232 C 403.532 -6.32488 -0.118854 0
M  V30 4233 C 402.196 -6.6745 0.0815043 0
M  V30 4234 H 401.466 -0.637916 -0.37702 0
M  V30 4235 H 404.113 -1.8906 -0.304696 0
M  V30 4236 H 402.418 -2.78869 -2.75207 0
M  V30 4237 H 404.115 -3.11102 -2.53015 0
M  V30 4238 H 400.705 -4.03808 -1.43655 0
M  V30 4239 H 404.889 -4.87575 -0.92653 0
M  V30 4240 H 400.145 -6.1094 -0.237098 0
M  V30 4241 H 404.319 -6.95892 0.266035 0
M  V30 4242 H 401.946 -7.57695 0.616685 0
M  V30 4243 N 403.521 0.559213 -1.47345 0
M  V30 4244 C 404.769 1.31388 -1.53563 0
M  V30 4245 C 405.09 1.93985 -0.198678 0
M  V30 4246 O 404.36 1.79825 0.777167 0
M  V30 4247 H 402.94 0.487901 -0.565652 0
M  V30 4248 H 405.602 0.65315 -1.8363 0
M  V30 4249 H 404.698 2.10844 -2.30111 0
M  V30 4250 N 404.999 1.35443 0.805782 0
M  V30 4251 C 406.276 1.19325 1.54987 0
M  V30 4252 C 406.656 -0.227294 2.09873 0
M  V30 4253 O 406.004 -1.2309 1.92512 0
M  V30 4254 C 406.214 2.26196 2.65775 0
M  V30 4255 C 407.562 2.62043 3.34094 0
M  V30 4256 O 408.586 2.25115 2.76046 0
M  V30 4257 O 407.445 3.25542 4.38958 0
M  V30 4258 H 404.539 0.463623 0.684823 0
M  V30 4259 H 407.085 1.47127 0.845674 0
M  V30 4260 H 405.857 3.21471 2.23096 0
M  V30 4261 H 405.48 1.99667 3.43829 0
M  V30 4262 N 406.477 -1.02803 1.19454 0
M  V30 4263 C 407.724 -1.76217 0.997693 0
M  V30 4264 C 408.052 -1.887 -0.47144 0
M  V30 4265 O 407.307 -1.4011 -1.3663 0
M  V30 4266 C 407.606 -3.18941 1.6128 0
M  V30 4267 C 407.272 -3.26463 3.11019 0
M  V30 4268 C 405.934 -3.28223 3.51885 0
M  V30 4269 C 408.286 -3.25542 4.07028 0
M  V30 4270 C 405.614 -3.26719 4.8731 0
M  V30 4271 C 407.966 -3.25579 5.42385 0
M  V30 4272 C 406.63 -3.25637 5.82681 0
M  V30 4273 H 405.9 -0.644823 0.365082 0
M  V30 4274 H 408.547 -1.20655 1.4871 0
M  V30 4275 H 406.852 -3.77587 1.04572 0
M  V30 4276 H 408.549 -3.74415 1.43577 0
M  V30 4277 H 405.139 -3.25822 2.78457 0
M  V30 4278 H 409.323 -3.23362 3.76498 0
M  V30 4279 H 404.579 -3.25089 5.1781 0
M  V30 4280 H 408.753 -3.23817 6.16535 0
M  V30 4281 H 406.38 -3.24226 6.87591 0
M  V30 4282 N 407.956 -0.998596 -1.21925 0
M  V30 4283 C 409.181 -0.696015 -1.95372 0
M  V30 4284 C 409.606 0.733826 -1.73195 0
M  V30 4285 O 408.964 1.50242 -1.01474 0
M  V30 4286 C 409.012 -1.01466 -3.4603 0
M  V30 4287 O 408.116 -0.116415 -4.12236 0
M  V30 4288 H 407.457 -0.259938 -0.611006 0
M  V30 4289 H 409.987 -1.33711 -1.54863 0
M  V30 4290 H 409.997 -0.958855 -3.96573 0
M  V30 4291 H 408.672 -2.05653 -3.61497 0
M  V30 4292 H 407.249 -0.228193 -3.72201 0
M  V30 4293 N 409.434 1.37368 -0.772513 0
M  V30 4294 C 410.845 1.8231 -0.402493 0
M  V30 4295 C 411.196 1.6436 1.07146 0
M  V30 4296 O 410.321 1.15514 1.82991 0
M  V30 4297 C 410.916 3.30979 -0.723776 0
M  V30 4298 C 409.475 3.74195 -0.406802 0
M  V30 4299 C 408.622 2.59885 -0.967218 0
M  V30 4300 H 411.573 1.25829 -0.967099 0
M  V30 4301 H 411.594 3.80499 -0.00870832 0
M  V30 4302 H 411.106 3.44011 -1.7966 0
M  V30 4303 H 409.207 3.66732 0.658673 0
M  V30 4304 H 409.32 4.7027 -0.915588 0
M  V30 4305 H 407.684 2.51674 -0.391416 0
M  V30 4306 H 408.467 2.7571 -2.04546 0
M  V30 4307 N 410.912 0.523116 1.48665 0
M  V30 4308 C 412.14 -0.0096312 2.06898 0
M  V30 4309 C 412.555 -1.28784 1.38059 0
M  V30 4310 O 411.912 -1.76453 0.465893 0
M  V30 4311 C 411.963 -0.244386 3.60673 0
M  V30 4312 O 411.684 0.983172 4.26925 0
M  V30 4313 C 413.185 -0.818289 4.35682 0
M  V30 4314 H 410.405 0.0304161 0.67031 0
M  V30 4315 H 412.949 0.726799 1.91149 0
M  V30 4316 H 411.104 -0.930847 3.76051 0
M  V30 4317 H 411.518 0.759653 5.1897 0
M  V30 4318 H 412.992 -0.93201 5.44075 0
M  V30 4319 H 413.469 -1.82153 3.99646 0
M  V30 4320 H 414.075 -0.168609 4.24966 0
M  V30 4321 N 412.39 -1.55475 0.257931 0
M  V30 4322 C 413.667 -1.91155 -0.414629 0
M  V30 4323 C 414.047 -1.18008 -1.75035 0
M  V30 4324 O 413.395 -0.301193 -2.26506 0
M  V30 4325 C 413.605 -3.44283 -0.571859 0
M  V30 4326 C 414.953 -4.15744 -0.862678 0
M  V30 4327 O 415.977 -3.50083 -0.657314 0
M  V30 4328 O 414.836 -5.31909 -1.2544 0
M  V30 4329 H 411.93 -0.796016 -0.22425 0
M  V30 4330 H 414.476 -1.66976 0.302814 0
M  V30 4331 H 413.248 -3.89558 0.368844 0
M  V30 4332 H 412.871 -3.7436 -1.33943 0
M  V30 4333 N 413.868 0.0150385 -1.57593 0
M  V30 4334 C 415.114 0.704043 -1.90187 0
M  V30 4335 C 415.447 1.74249 -0.857366 0
M  V30 4336 O 414.722 1.94092 0.125843 0
M  V30 4337 C 415.005 1.36087 -3.33395 0
M  V30 4338 C 414.858 0.334981 -4.48551 0
M  V30 4339 C 416.177 2.29112 -3.7576 0
M  V30 4340 H 413.296 0.254475 -0.691673 0
M  V30 4341 H 415.938 -0.0331678 -1.89971 0
M  V30 4342 H 414.088 1.98922 -3.3371 0
M  V30 4343 H 415.76 -0.292534 -4.60372 0
M  V30 4344 H 414.003 -0.344325 -4.32431 0
M  V30 4345 H 414.674 0.833316 -5.45674 0
M  V30 4346 H 417.15 1.76308 -3.76902 0
M  V30 4347 H 416.026 2.72043 -4.76743 0
M  V30 4348 H 416.287 3.16385 -3.08793 0
M  V30 4349 N 415.346 1.54954 0.287554 0
M  V30 4350 C 416.296 1.8322 1.357 0
M  V30 4351 C 417.28 0.690152 1.45347 0
M  V30 4352 O 418.472 0.951137 1.49273 0
M  V30 4353 C 415.601 2.09481 2.71979 0
M  V30 4354 C 414.687 3.29906 2.66502 0
M  V30 4355 N 415.078 4.50154 2.30641 0
M  V30 4356 C 413.376 3.32203 2.97585 0
M  V30 4357 C 414.077 5.32209 2.34794 0
M  V30 4358 N 413.053 4.70258 2.72688 0
M  V30 4359 H 416.855 2.73746 1.0696 0
M  V30 4360 H 414.369 1.54635 0.496167 0
M  V30 4361 H 416.366 2.27882 3.49107 0
M  V30 4362 H 415.026 1.2023 3.0162 0
M  V30 4363 H 416.037 4.76515 2.02865 0
M  V30 4364 H 412.714 2.53101 3.32034 0
M  V30 4365 H 414.104 6.38321 2.09753 0
M  V30 4366 N 416.824 -0.551391 1.4764 0
M  V30 4367 C 417.771 -1.65796 1.60563 0
M  V30 4368 C 418.741 -1.59932 0.448428 0
M  V30 4369 O 419.926 -1.78679 0.669222 0
M  V30 4370 C 417.066 -3.04108 1.63133 0
M  V30 4371 C 416.179 -3.20365 2.89811 0
M  V30 4372 C 415.314 -4.49109 2.8368 0
M  V30 4373 C 414.353 -4.58819 4.05156 0
M  V30 4374 N 413.49 -5.78926 3.97227 0
M  V30 4375 H 418.33 -1.54088 2.5507 0
M  V30 4376 H 415.867 -0.75052 1.26513 0
M  V30 4377 H 417.825 -3.84207 1.62606 0
M  V30 4378 H 416.455 -3.14637 0.721341 0
M  V30 4379 H 415.507 -2.33659 3.00179 0
M  V30 4380 H 416.819 -3.23402 3.79753 0
M  V30 4381 H 415.973 -5.37475 2.81434 0
M  V30 4382 H 414.712 -4.4856 1.91431 0
M  V30 4383 H 413.717 -3.68864 4.077 0
M  V30 4384 H 414.942 -4.61124 4.98539 0
M  V30 4385 H 412.888 -5.79314 3.07785 0
M  V30 4386 H 412.805 -5.83367 4.80853 0
M  V30 4387 H 414.073 -6.69637 3.99007 0
M  V30 4388 N 418.302 -1.35869 -0.798587 0
M  V30 4389 C 419.234 -1.25305 -1.91915 0
M  V30 4390 C 420.247 -0.174548 -1.61862 0
M  V30 4391 O 421.436 -0.428499 -1.73281 0
M  V30 4392 C 418.536 -0.9086 -3.26493 0
M  V30 4393 C 417.709 -2.08711 -3.84394 0
M  V30 4394 C 416.768 -1.71717 -4.97393 0
M  V30 4395 O 415.794 -2.43692 -5.14396 0
M  V30 4396 N 416.996 -0.645473 -5.769 0
M  V30 4397 H 419.761 -2.21849 -2.01502 0
M  V30 4398 H 417.322 -1.29143 -0.976408 0
M  V30 4399 H 419.314 -0.642455 -3.99568 0
M  V30 4400 H 417.884 -0.0325815 -3.12583 0
M  V30 4401 H 417.104 -2.51659 -3.03416 0
M  V30 4402 H 418.392 -2.87468 -4.19809 0
M  V30 4403 H 417.79 -0.047648 -5.6568 0
M  V30 4404 H 416.347 -0.43913 -6.50319 0
M  V30 4405 N 419.78 1.02168 -1.19998 0
M  V30 4406 C 421.01 1.79036 -1.031 0
M  V30 4407 C 421.418 1.84409 0.423078 0
M  V30 4408 O 420.761 1.29228 1.30559 0
M  V30 4409 C 420.823 3.25185 -1.53281 0
M  V30 4410 C 420.487 3.43431 -3.01503 0
M  V30 4411 C 421.484 3.33063 -3.99206 0
M  V30 4412 C 419.169 3.69412 -3.40353 0
M  V30 4413 C 421.163 3.48413 -5.33748 0
M  V30 4414 C 418.85 3.84406 -4.75053 0
M  V30 4415 C 419.848 3.7391 -5.71559 0
M  V30 4416 O 419.536 3.88452 -7.03818 0
M  V30 4417 H 419.268 0.570043 -0.363355 0
M  V30 4418 H 421.822 1.29524 -1.59414 0
M  V30 4419 H 420.052 3.75756 -0.913483 0
M  V30 4420 H 421.741 3.83671 -1.32481 0
M  V30 4421 H 422.507 3.12934 -3.70537 0
M  V30 4422 H 418.386 3.76671 -2.65782 0
M  V30 4423 H 421.93 3.40137 -6.09059 0
M  V30 4424 H 417.827 4.04035 -5.03415 0
M  V30 4425 H 418.595 4.055 -7.10993 0
M  V30 4426 N 421.258 1.00505 1.21394 0
M  V30 4427 C 422.221 0.570459 2.21987 0
M  V30 4428 C 423.221 -0.353211 1.56873 0
M  V30 4429 O 424.411 -0.14349 1.73608 0
M  V30 4430 C 421.543 -0.168555 3.40483 0
M  V30 4431 H 422.736 1.46021 2.6195 0
M  V30 4432 H 420.289 0.793565 1.34656 0
M  V30 4433 H 421.024 -1.07374 3.06009 0
M  V30 4434 H 420.809 0.494823 3.88965 0
M  V30 4435 H 422.299 -0.460362 4.15055 0
M  V30 4436 N 422.737 -1.36956 0.779787 0
M  V30 4437 C 423.986 -1.98738 0.344405 0
M  V30 4438 C 424.299 -1.62596 -1.08728 0
M  V30 4439 O 425.505 -2.1754 -1.62445 0
M  V30 4440 C 423.961 -3.5544 0.564829 0
M  V30 4441 C 423.569 -4.00514 2.0073 0
M  V30 4442 C 425.313 -4.24059 0.193471 0
M  V30 4443 C 423.22 -5.49957 2.17489 0
M  V30 4444 H 422.15 -0.743561 0.12503 0
M  V30 4445 H 424.801 -1.56381 0.960057 0
M  V30 4446 H 423.183 -3.95817 -0.120397 0
M  V30 4447 H 424.357 -3.71362 2.72814 0
M  V30 4448 H 422.672 -3.44703 2.336 0
M  V30 4449 H 425.269 -5.33874 0.297097 0
M  V30 4450 H 425.612 -4.07378 -0.857263 0
M  V30 4451 H 426.145 -3.89012 0.831556 0
M  V30 4452 H 422.884 -5.71574 3.2091 0
M  V30 4453 H 422.404 -5.80767 1.49899 0
M  V30 4454 H 424.083 -6.16043 1.97738 0
M  V30 4455 N 424.215 -0.530993 -1.48385 0
M  V30 4456 C 425.461 0.00274135 -2.028 0
M  V30 4457 C 425.794 1.33838 -1.40716 0
M  V30 4458 O 425.069 1.86465 -0.553277 0
M  V30 4459 C 425.352 0.123676 -3.59888 0
M  V30 4460 C 425.205 -1.2372 -4.3245 0
M  V30 4461 C 426.524 0.849967 -4.31814 0
M  V30 4462 H 423.643 -0.000477758 -0.737 0
M  V30 4463 H 426.285 -0.688217 -1.77098 0
M  V30 4464 H 424.435 0.712157 -3.81917 0
M  V30 4465 H 426.107 -1.86687 -4.21836 0
M  V30 4466 H 424.35 -1.81882 -3.93829 0
M  V30 4467 H 425.021 -1.10557 -5.40815 0
M  V30 4468 H 427.497 0.350572 -4.14621 0
M  V30 4469 H 426.373 0.903486 -5.41413 0
M  V30 4470 H 426.634 1.90047 -3.99167 0
M  V30 4471 N 425.693 1.55336 -0.266172 0
M  V30 4472 C 426.94 1.99397 0.353158 0
M  V30 4473 C 427.268 1.15451 1.56529 0
M  V30 4474 O 426.523 0.209974 1.9457 0
M  V30 4475 C 426.822 3.48606 0.787957 0
M  V30 4476 C 426.488 4.49773 -0.318541 0
M  V30 4477 C 425.15 4.77158 -0.62239 0
M  V30 4478 C 427.502 5.10212 -1.06459 0
M  V30 4479 C 424.83 5.62251 -1.67602 0
M  V30 4480 C 427.182 5.96449 -2.10788 0
M  V30 4481 C 425.846 6.22158 -2.41817 0
M  V30 4482 H 425.116 0.729644 0.12923 0
M  V30 4483 H 427.763 1.87732 -0.37802 0
M  V30 4484 H 426.068 3.57701 1.59866 0
M  V30 4485 H 427.765 3.80098 1.27775 0
M  V30 4486 H 424.355 4.2854 -0.0715925 0
M  V30 4487 H 428.539 4.89086 -0.843098 0
M  V30 4488 H 423.795 5.80419 -1.92155 0
M  V30 4489 H 427.969 6.42317 -2.69076 0
M  V30 4490 H 425.596 6.87888 -3.23596 0
M  V30 4491 N 427.171 -0.0066808 1.57599 0
M  V30 4492 C 428.587 -0.36267 1.55425 0
M  V30 4493 C 428.787 -1.75209 0.995187 0
M  V30 4494 O 427.843 -2.44616 0.626058 0
M  V30 4495 C 429.156 -0.244017 2.99708 0
M  V30 4496 C 430.704 -0.319451 3.11366 0
M  V30 4497 C 431.179 -0.229998 4.57422 0
M  V30 4498 N 432.67 -0.288105 4.62303 0
M  V30 4499 C 433.405 -0.242127 5.72889 0
M  V30 4500 N 432.901 -0.147133 6.92644 0
M  V30 4501 N 434.694 -0.293502 5.61333 0
M  V30 4502 H 426.845 0.902314 1.92281 0
M  V30 4503 H 429.108 0.34525 0.882896 0
M  V30 4504 H 428.814 0.711678 3.44424 0
M  V30 4505 H 428.688 -1.02877 3.629 0
M  V30 4506 H 431.075 -1.26559 2.66584 0
M  V30 4507 H 431.156 0.495055 2.50964 0
M  V30 4508 H 430.8 0.712566 5.02877 0
M  V30 4509 H 430.73 -1.0629 5.15761 0
M  V30 4510 H 433.221 -0.363126 3.76151 0
M  V30 4511 H 433.534 -0.117763 7.7271 0
M  V30 4512 H 431.879 -0.112857 6.94908 0
M  V30 4513 H 435.07 -0.365864 4.66668 0
M  V30 4514 H 435.243 -0.254204 6.47501 0
M  V30 4515 N 428.649 -1.55105 -0.279332 0
M  V30 4516 C 429.877 -1.7943 -1.03017 0
M  V30 4517 C 430.292 -0.564456 -1.80165 0
M  V30 4518 O 429.649 0.466326 -1.76442 0
M  V30 4519 C 429.7 -3.0155 -1.99374 0
M  V30 4520 O 429.421 -4.19784 -1.25352 0
M  V30 4521 C 430.922 -3.3843 -2.86321 0
M  V30 4522 H 428.142 -0.597882 -0.304594 0
M  V30 4523 H 430.686 -2.02105 -0.312035 0
M  V30 4524 H 428.841 -2.81019 -2.66659 0
M  V30 4525 H 429.255 -4.88781 -1.90246 0
M  V30 4526 H 430.729 -4.27066 -3.49741 0
M  V30 4527 H 431.206 -2.57549 -3.5576 0
M  V30 4528 H 431.812 -3.61197 -2.24536 0
M  V30 4529 N 430.127 0.543554 -1.4793 0
M  V30 4530 C 431.538 1.12561 -1.48953 0
M  V30 4531 C 431.889 1.94578 -0.251754 0
M  V30 4532 O 431.014 2.0665 0.642255 0
M  V30 4533 C 431.609 2.04801 -2.69892 0
M  V30 4534 C 430.168 2.58251 -2.73831 0
M  V30 4535 C 429.315 1.34918 -2.42265 0
M  V30 4536 H 432.266 0.32947 -1.55242 0
M  V30 4537 H 432.287 2.88886 -2.47639 0
M  V30 4538 H 431.799 1.4508 -3.59963 0
M  V30 4539 H 429.9 3.21732 -1.87934 0
M  V30 4540 H 430.013 2.98312 -3.74895 0
M  V30 4541 H 428.377 1.66046 -1.93134 0
M  V30 4542 H 429.16 0.769693 -3.3456 0
M  V30 4543 N 431.605 1.3629 0.791371 0
M  V30 4544 C 433.016 1.27225 1.36641 0
M  V30 4545 C 433.367 -0.0887968 1.95999 0
M  V30 4546 O 432.492 -0.990207 1.92416 0
M  V30 4547 C 433.087 2.30375 2.48421 0
M  V30 4548 C 431.646 2.25004 3.01746 0
M  V30 4549 C 430.793 2.15259 1.7481 0
M  V30 4550 H 433.744 1.47198 0.593173 0
M  V30 4551 H 433.765 1.93905 3.27385 0
M  V30 4552 H 433.277 3.29422 2.05189 0
M  V30 4553 H 431.378 1.29417 3.49403 0
M  V30 4554 H 431.491 3.1761 3.58693 0
M  V30 4555 H 429.855 1.61482 1.96966 0
M  V30 4556 H 430.638 3.16191 1.33709 0
M  V30 4557 N 433.083 -1.0153 1.20538 0
M  V30 4558 C 434.313 -1.78487 1.04048 0
M  V30 4559 C 434.721 -1.84631 -0.413292 0
M  V30 4560 O 434.064 -1.29919 -1.29872 0
M  V30 4561 C 434.126 -3.24367 1.55003 0
M  V30 4562 C 433.79 -3.41827 3.0332 0
M  V30 4563 C 434.787 -3.30941 4.00966 0
M  V30 4564 C 432.472 -3.67602 3.42307 0
M  V30 4565 C 434.466 -3.45577 5.35589 0
M  V30 4566 C 432.153 -3.81881 4.77085 0
M  V30 4567 C 433.151 -3.70874 5.73534 0
M  V30 4568 O 432.839 -3.84714 7.05868 0
M  V30 4569 H 432.571 -0.568108 0.366373 0
M  V30 4570 H 435.125 -1.28677 1.60098 0
M  V30 4571 H 433.355 -3.75266 0.933397 0
M  V30 4572 H 435.044 -3.82963 1.34514 0
M  V30 4573 H 435.81 -3.10964 3.72191 0
M  V30 4574 H 431.689 -3.75256 2.67776 0
M  V30 4575 H 435.233 -3.36902 6.10854 0
M  V30 4576 H 431.13 -4.01359 5.0555 0
M  V30 4577 H 431.898 -4.01724 7.13134 0
M  V30 4578 N 434.561 -1.01147 -1.20859 0
M  V30 4579 C 435.511 -0.548247 -2.2131 0
M  V30 4580 C 436.495 0.393646 -1.5601 0
M  V30 4581 O 437.687 0.217445 -1.75659 0
M  V30 4582 C 434.816 0.117252 -3.431 0
M  V30 4583 C 433.902 -0.846043 -4.15575 0
M  V30 4584 N 434.293 -2.00149 -4.64515 0
M  V30 4585 C 432.591 -0.665783 -4.41003 0
M  V30 4586 C 433.292 -2.60764 -5.19978 0
M  V30 4587 N 432.268 -1.88868 -5.09735 0
M  V30 4588 H 436.07 -1.42921 -2.56809 0
M  V30 4589 H 433.584 -0.876142 -1.36739 0
M  V30 4590 H 435.581 0.46662 -4.1428 0
M  V30 4591 H 434.241 0.994115 -3.09107 0
M  V30 4592 H 435.252 -2.38162 -4.5989 0
M  V30 4593 H 431.929 0.163456 -4.1718 0
M  V30 4594 H 433.319 -3.58519 -5.68255 0
M  V30 4595 N 436.039 1.36541 -0.78704 0
M  V30 4596 C 436.986 2.30082 -0.181901 0
M  V30 4597 C 437.956 1.5186 0.672896 0
M  V30 4598 O 439.141 1.80374 0.622072 0
M  V30 4599 C 436.281 3.3835 0.679197 0
M  V30 4600 C 435.394 4.31565 -0.193882 0
M  V30 4601 C 434.529 5.26915 0.673364 0
M  V30 4602 C 433.568 6.11769 -0.201315 0
M  V30 4603 N 432.705 6.99315 0.624777 0
M  V30 4604 H 437.545 2.81248 -0.985064 0
M  V30 4605 H 435.082 1.38437 -0.497342 0
M  V30 4606 H 437.04 3.99767 1.19341 0
M  V30 4607 H 435.67 2.8851 1.44781 0
M  V30 4608 H 434.722 3.71323 -0.826044 0
M  V30 4609 H 436.034 4.91191 -0.867937 0
M  V30 4610 H 435.188 5.9361 1.25348 0
M  V30 4611 H 433.927 4.67737 1.38105 0
M  V30 4612 H 432.932 5.44039 -0.793849 0
M  V30 4613 H 434.157 6.73022 -0.906568 0
M  V30 4614 H 432.103 6.42648 1.3168 0
M  V30 4615 H 432.02 7.56 0.00835237 0
M  V30 4616 H 433.288 7.70382 1.18879 0
M  V30 4617 N 437.518 0.538854 1.48102 0
M  V30 4618 C 438.451 -0.266495 2.26639 0
M  V30 4619 C 439.429 -0.93687 1.32897 0
M  V30 4620 O 440.613 -0.959507 1.62252 0
M  V30 4621 C 437.74 -1.37814 3.09394 0
M  V30 4622 C 436.786 -0.818247 4.18577 0
M  V30 4623 S 437.619 0.320848 5.34538 0
M  V30 4624 C 438.775 -0.793059 6.20855 0
M  V30 4625 H 439.008 0.399994 2.94597 0
M  V30 4626 H 436.541 0.324808 1.50945 0
M  V30 4627 H 438.499 -2.01488 3.57649 0
M  V30 4628 H 437.16 -2.01639 2.40833 0
M  V30 4629 H 436.353 -1.65247 4.7614 0
M  V30 4630 H 435.955 -0.258036 3.73109 0
M  V30 4631 H 438.247 -1.68961 6.56093 0
M  V30 4632 H 439.19 -0.255204 7.0764 0
M  V30 4633 H 439.598 -1.07746 5.54122 0
M  V30 4634 N 438.996 -1.55193 0.274407 0
M  V30 4635 C 439.943 -2.225 -0.613374 0
M  V30 4636 C 440.913 -1.19823 -1.15029 0
M  V30 4637 O 442.098 -1.48362 -1.19973 0
M  V30 4638 C 439.238 -2.94927 -1.79199 0
M  V30 4639 C 438.351 -4.12322 -1.28899 0
M  V30 4640 C 437.486 -4.72394 -2.42934 0
M  V30 4641 C 436.525 -5.81984 -1.89634 0
M  V30 4642 N 435.662 -6.36123 -2.9714 0
M  V30 4643 H 440.502 -2.97982 -0.032756 0
M  V30 4644 H 438.039 -1.47099 -0.00440146 0
M  V30 4645 H 439.997 -3.35134 -2.48478 0
M  V30 4646 H 438.627 -2.2187 -2.34465 0
M  V30 4647 H 437.679 -3.7724 -0.489327 0
M  V30 4648 H 438.991 -4.91355 -0.858587 0
M  V30 4649 H 438.145 -5.15317 -3.20208 0
M  V30 4650 H 436.884 -3.92636 -2.8929 0
M  V30 4651 H 435.889 -5.38511 -1.1084 0
M  V30 4652 H 437.114 -6.6361 -1.44215 0
M  V30 4653 H 435.06 -5.59259 -3.42878 0
M  V30 4654 H 434.977 -7.10427 -2.58515 0
M  V30 4655 H 436.245 -6.83704 -3.74391 0
M  V30 4656 N 440.474 -0.00167713 -1.576 0
M  V30 4657 C 441.723 0.682021 -1.89819 0
M  V30 4658 C 442.036 1.74844 -0.876871 0
M  V30 4659 O 443.242 2.48688 -1.08934 0
M  V30 4660 C 441.698 1.26425 -3.36964 0
M  V30 4661 C 441.306 0.232568 -4.47396 0
M  V30 4662 C 443.05 1.92604 -3.78291 0
M  V30 4663 C 440.957 0.824882 -5.85619 0
M  V30 4664 H 439.887 0.258499 -0.708304 0
M  V30 4665 H 442.538 -0.0624957 -1.83394 0
M  V30 4666 H 440.92 2.05949 -3.38232 0
M  V30 4667 H 442.094 -0.5382 -4.57646 0
M  V30 4668 H 440.409 -0.32888 -4.15099 0
M  V30 4669 H 443.006 2.37827 -4.78897 0
M  V30 4670 H 443.349 2.75732 -3.11894 0
M  V30 4671 H 443.882 1.19812 -3.79328 0
M  V30 4672 H 440.621 0.0323542 -6.55492 0
M  V30 4673 H 440.141 1.56477 -5.79029 0
M  V30 4674 H 441.82 1.32301 -6.33329 0
M  V30 4675 N 441.952 1.55251 0.271103 0
M  V30 4676 C 442.862 1.9136 1.35714 0
M  V30 4677 C 443.878 0.811075 1.5394 0
M  V30 4678 O 445.054 1.11031 1.6803 0
M  V30 4679 C 442.119 2.1798 2.69603 0
M  V30 4680 C 441.18 3.4153 2.60107 0
M  V30 4681 C 440.413 3.66871 3.8761 0
M  V30 4682 O 440.636 2.94689 4.8838 0
M  V30 4683 O 439.57 4.60405 3.87699 0
M  V30 4684 H 443.396 2.83815 1.08088 0
M  V30 4685 H 440.981 1.41821 0.469792 0
M  V30 4686 H 442.863 2.36518 3.48765 0
M  V30 4687 H 441.538 1.28708 2.97012 0
M  V30 4688 H 440.445 3.28325 1.79314 0
M  V30 4689 H 441.778 4.31027 2.37647 0
M  V30 4690 N 443.43 -0.535701 1.48216 0
M  V30 4691 C 444.846 -0.863701 1.3421 0
M  V30 4692 C 445.046 -1.98458 0.34879 0
M  V30 4693 O 444.102 -2.51432 -0.23204 0
M  V30 4694 C 445.415 -1.23662 2.74095 0
M  V30 4695 C 446.963 -1.34683 2.82541 0
M  V30 4696 C 447.438 -1.75322 4.23115 0
M  V30 4697 N 448.929 -1.82434 4.2576 0
M  V30 4698 C 449.664 -2.15252 5.31464 0
M  V30 4699 N 449.16 -2.46533 6.47452 0
M  V30 4700 N 450.953 -2.16209 5.18855 0
M  V30 4701 H 443.104 0.203965 2.11418 0
M  V30 4702 H 445.367 0.0286033 0.947568 0
M  V30 4703 H 445.073 -0.486674 3.48316 0
M  V30 4704 H 444.947 -2.18805 3.07253 0
M  V30 4705 H 447.334 -2.08756 2.08579 0
M  V30 4706 H 447.415 -0.376756 2.5301 0
M  V30 4707 H 447.059 -1.01812 4.97591 0
M  V30 4708 H 446.989 -2.7337 4.50085 0
M  V30 4709 H 449.48 -1.6056 3.42095 0
M  V30 4710 H 449.793 -2.70662 7.23852 0
M  V30 4711 H 448.138 -2.44065 6.50736 0
M  V30 4712 H 451.329 -1.91224 4.2726 0
M  V30 4713 H 451.502 -2.41453 6.01335 0
M  V30 4714 N 444.908 -1.36708 -0.784132 0
M  V30 4715 C 446.319 -1.27947 -1.35965 0
M  V30 4716 C 446.67 0.0784013 -1.96043 0
M  V30 4717 O 445.795 0.979989 -1.92938 0
M  V30 4718 C 446.39 -2.31689 -2.47195 0
M  V30 4719 C 444.949 -2.26601 -3.00548 0
M  V30 4720 C 444.096 -2.16184 -1.73666 0
M  V30 4721 H 447.047 -1.4751 -0.585358 0
M  V30 4722 H 447.068 -1.95638 -3.26352 0
M  V30 4723 H 446.58 -3.30506 -2.03439 0
M  V30 4724 H 444.681 -1.31268 -3.48711 0
M  V30 4725 H 444.794 -3.19508 -3.57004 0
M  V30 4726 H 443.158 -1.62524 -1.96107 0
M  V30 4727 H 443.941 -3.16896 -1.32031 0
M  V30 4728 N 446.386 1.0089 -1.21074 0
M  V30 4729 C 447.632 1.74866 -1.02712 0
M  V30 4730 C 447.965 1.89178 0.438787 0
M  V30 4731 O 447.24 1.42325 1.32567 0
M  V30 4732 C 447.523 3.16347 -1.72036 0
M  V30 4733 C 447.376 3.09782 -3.26121 0
M  V30 4734 C 448.695 4.15187 -1.45973 0
M  V30 4735 H 445.814 0.634736 -0.374539 0
M  V30 4736 H 448.456 1.17646 -1.49196 0
M  V30 4737 H 446.606 3.65201 -1.32517 0
M  V30 4738 H 448.278 2.68673 -3.74983 0
M  V30 4739 H 446.521 2.46982 -3.56626 0
M  V30 4740 H 447.192 4.09829 -3.6979 0
M  V30 4741 H 449.668 3.75022 -1.80272 0
M  V30 4742 H 448.544 5.12331 -1.96999 0
M  V30 4743 H 448.805 4.40386 -0.388924 0
M  V30 4744 N 447.864 1.01787 1.20321 0
M  V30 4745 C 449.092 0.727194 1.937 0
M  V30 4746 C 449.507 -0.712305 1.74848 0
M  V30 4747 O 448.864 -1.48327 1.06327 0
M  V30 4748 C 448.915 1.05497 3.45764 0
M  V30 4749 O 448.636 2.43794 3.64 0
M  V30 4750 C 450.137 0.785534 4.36285 0
M  V30 4751 H 447.357 0.266939 0.615617 0
M  V30 4752 H 449.901 1.35939 1.52777 0
M  V30 4753 H 448.056 0.468158 3.84561 0
M  V30 4754 H 448.47 2.55656 4.57974 0
M  V30 4755 H 449.944 1.06495 5.4163 0
M  V30 4756 H 450.421 -0.280273 4.38305 0
M  V30 4757 H 451.027 1.35456 4.03152 0
M  V30 4758 N 449.342 -1.36122 0.79427 0
M  V30 4759 C 450.588 -1.99406 0.369452 0
M  V30 4760 C 450.921 -1.62886 -1.05743 0
M  V30 4761 O 450.196 -0.886053 -1.73145 0
M  V30 4762 C 450.479 -3.56046 0.538833 0
M  V30 4763 C 450.332 -4.02404 2.00976 0
M  V30 4764 C 451.651 -4.40079 -0.0431359 0
M  V30 4765 H 448.77 -0.724397 0.135712 0
M  V30 4766 H 451.412 -1.61461 1.00151 0
M  V30 4767 H 449.562 -3.885 0.000771004 0
M  V30 4768 H 451.234 -3.80415 2.60926 0
M  V30 4769 H 449.477 -3.53765 2.51063 0
M  V30 4770 H 450.148 -5.11344 2.07922 0
M  V30 4771 H 452.624 -4.14013 0.416228 0
M  V30 4772 H 451.5 -5.48799 0.105374 0
M  V30 4773 H 451.761 -4.27264 -1.13571 0
M  V30 4774 N 450.82 -0.546701 -1.47814 0
M  V30 4775 C 452.067 -0.0187407 -2.02491 0
M  V30 4776 C 452.395 1.32685 -1.42215 0
M  V30 4777 O 451.65 1.87413 -0.563454 0
M  V30 4778 C 451.949 0.134869 -3.57145 0
M  V30 4779 C 451.615 -1.13849 -4.3629 0
M  V30 4780 C 450.277 -1.48743 -4.57634 0
M  V30 4781 C 452.629 -1.98277 -4.82012 0
M  V30 4782 C 449.957 -2.67932 -5.21948 0
M  V30 4783 C 452.309 -3.16659 -5.4764 0
M  V30 4784 C 450.973 -3.51879 -5.67219 0
M  V30 4785 H 450.243 -0.0068577 -0.740968 0
M  V30 4786 H 452.89 -0.716097 -1.77607 0
M  V30 4787 H 451.195 0.915118 -3.80963 0
M  V30 4788 H 452.892 0.558556 -3.97091 0
M  V30 4789 H 449.482 -0.856767 -4.19949 0
M  V30 4790 H 453.666 -1.72628 -4.6531 0
M  V30 4791 H 448.922 -2.95401 -5.35302 0
M  V30 4792 H 453.096 -3.82374 -5.82033 0
M  V30 4793 H 450.723 -4.44331 -6.16825 0
M  V30 4794 N 452.299 1.55045 -0.282633 0
M  V30 4795 C 453.229 2.2579 0.595066 0
M  V30 4796 C 454.21 1.25074 1.15284 0
M  V30 4797 O 455.395 1.5381 1.18559 0
M  V30 4798 C 452.525 2.98472 1.77572 0
M  V30 4799 C 451.479 4.0618 1.34914 0
M  V30 4800 C 450.805 4.66477 2.6135 0
M  V30 4801 C 452.105 5.1996 0.493821 0
M  V30 4802 H 453.799 2.994 0.00505653 0
M  V30 4803 H 451.345 1.44 0.000992001 0
M  V30 4804 H 453.298 3.46677 2.39568 0
M  V30 4805 H 452.022 2.2241 2.39168 0
M  V30 4806 H 450.681 3.58797 0.752338 0
M  V30 4807 H 450.329 3.87074 3.2122 0
M  V30 4808 H 450.029 5.39207 2.33516 0
M  V30 4809 H 451.553 5.17435 3.24181 0
M  V30 4810 H 452.967 5.64172 1.01898 0
M  V30 4811 H 451.364 5.99299 0.310047 0
M  V30 4812 H 452.434 4.82462 -0.485593 0
M  V30 4813 N 453.777 0.010035 1.57597 0
M  V30 4814 C 454.709 -1.00649 2.05918 0
M  V30 4815 C 455.722 -1.30077 0.978964 0
M  V30 4816 O 456.911 -1.26878 1.25556 0
M  V30 4817 C 454.011 -2.33876 2.45265 0
M  V30 4818 C 453.184 -2.23242 3.7614 0
M  V30 4819 C 452.243 -3.39242 4.02245 0
M  V30 4820 O 451.269 -3.1698 4.72771 0
M  V30 4821 N 452.471 -4.6242 3.50924 0
M  V30 4822 H 455.236 -0.594333 2.93748 0
M  V30 4823 H 452.797 -0.17714 1.60928 0
M  V30 4824 H 454.789 -3.1027 2.59836 0
M  V30 4825 H 453.359 -2.66799 1.62902 0
M  V30 4826 H 452.579 -1.31696 3.71551 0
M  V30 4827 H 453.867 -2.13321 4.61922 0
M  V30 4828 H 453.265 -4.83404 2.93832 0
M  V30 4829 H 451.822 -5.36046 3.70807 0
M  V30 4830 N 455.255 -1.55392 -0.262866 0
M  V30 4831 C 456.185 -1.91978 -1.32917 0
M  V30 4832 C 457.166 -0.7828 -1.51017 0
M  V30 4833 O 458.351 -1.04178 -1.63892 0
M  V30 4834 C 455.481 -2.20055 -2.68687 0
M  V30 4835 C 454.435 -3.35854 -2.65304 0
M  V30 4836 C 453.761 -3.49435 -4.04721 0
M  V30 4837 C 455.061 -4.71977 -2.23685 0
M  V30 4838 H 456.755 -2.81292 -1.02544 0
M  V30 4839 H 454.301 -1.3534 -0.491846 0
M  V30 4840 H 456.254 -2.44237 -3.43404 0
M  V30 4841 H 454.978 -1.27551 -3.00663 0
M  V30 4842 H 453.637 -3.11655 -1.93045 0
M  V30 4843 H 453.285 -2.54379 -4.33936 0
M  V30 4844 H 452.985 -4.27297 -4.0335 0
M  V30 4845 H 454.509 -3.7592 -4.81161 0
M  V30 4846 H 455.923 -4.95637 -2.88127 0
M  V30 4847 H 454.32 -5.52828 -2.33456 0
M  V30 4848 H 455.39 -4.70115 -1.18827 0
M  V30 4849 N 456.733 0.527833 -1.48498 0
M  V30 4850 C 457.68 1.6322 -1.6318 0
M  V30 4851 C 458.65 1.59199 -0.473815 0
M  V30 4852 O 459.835 1.77591 -0.697563 0
M  V30 4853 C 456.975 3.01474 -1.67951 0
M  V30 4854 C 456.088 3.15713 -2.94871 0
M  V30 4855 C 455.223 4.44539 -2.90789 0
M  V30 4856 C 454.262 4.52315 -4.12404 0
M  V30 4857 N 453.399 5.72533 -4.06387 0
M  V30 4858 H 458.239 1.50011 -2.57489 0
M  V30 4859 H 455.776 0.730298 -1.27691 0
M  V30 4860 H 457.734 3.81572 -1.68698 0
M  V30 4861 H 456.364 3.1345 -0.771306 0
M  V30 4862 H 455.416 2.28854 -3.03859 0
M  V30 4863 H 456.728 3.1732 -3.8485 0
M  V30 4864 H 455.882 5.3293 -2.89949 0
M  V30 4865 H 454.621 4.45457 -1.98542 0
M  V30 4866 H 453.626 3.62331 -4.13517 0
M  V30 4867 H 454.851 4.53134 -5.05812 0
M  V30 4868 H 452.797 5.74344 -3.16962 0
M  V30 4869 H 452.714 5.75643 -4.90073 0
M  V30 4870 H 453.982 6.63204 -4.0961 0
M  V30 4871 N 458.211 1.37122 0.776871 0
M  V30 4872 C 459.627 1.1781 1.07671 0
M  V30 4873 C 459.827 0.0107454 2.01497 0
M  V30 4874 O 458.883 -0.650756 2.4397 0
M  V30 4875 C 460.196 2.49451 1.67913 0
M  V30 4876 C 461.744 2.55927 1.80195 0
M  V30 4877 C 462.219 3.87686 2.43851 0
M  V30 4878 N 463.71 3.891 2.51307 0
M  V30 4879 C 464.445 4.87797 3.014 0
M  V30 4880 N 463.941 5.96888 3.51705 0
M  V30 4881 N 465.734 4.75205 3.00227 0
M  V30 4882 H 457.885 2.11843 0.153778 0
M  V30 4883 H 460.148 0.938927 0.130844 0
M  V30 4884 H 459.854 3.35207 1.06439 0
M  V30 4885 H 459.728 2.66169 2.67271 0
M  V30 4886 H 462.115 1.70582 2.40803 0
M  V30 4887 H 462.196 2.43097 0.796069 0
M  V30 4888 H 461.84 4.73444 1.83884 0
M  V30 4889 H 461.77 3.97817 3.45035 0
M  V30 4890 H 464.261 3.10293 2.157 0
M  V30 4891 H 464.574 6.68155 3.88316 0
M  V30 4892 H 462.919 6.0054 3.49824 0
M  V30 4893 H 466.11 3.89103 2.60224 0
M  V30 4894 H 466.283 5.52279 3.38957 0
M  V30 4895 N 459.689 -1.00246 1.21608 0
M  V30 4896 C 460.636 -2.09073 0.977613 0
M  V30 4897 C 461.606 -1.65815 -0.097297 0
M  V30 4898 O 462.791 -1.90734 0.0503445 0
M  V30 4899 C 459.931 -3.40671 0.551133 0
M  V30 4900 C 459.044 -3.97326 1.69576 0
M  V30 4901 C 458.179 -5.17043 1.2182 0
M  V30 4902 C 457.218 -5.65813 2.335 0
M  V30 4903 N 456.355 -6.76778 1.86859 0
M  V30 4904 H 461.195 -2.28806 1.90924 0
M  V30 4905 H 458.732 -1.12186 0.951452 0
M  V30 4906 H 460.69 -4.16225 0.285097 0
M  V30 4907 H 459.32 -3.20967 -0.343489 0
M  V30 4908 H 458.372 -3.18734 2.07637 0
M  V30 4909 H 459.684 -4.29511 2.53617 0
M  V30 4910 H 458.838 -5.99852 0.908975 0
M  V30 4911 H 457.577 -4.86458 0.347869 0
M  V30 4912 H 456.582 -4.81599 2.65222 0
M  V30 4913 H 457.807 -5.98427 3.21033 0
M  V30 4914 H 455.753 -6.47994 1.02174 0
M  V30 4915 H 455.67 -7.08231 2.64471 0
M  V30 4916 H 456.938 -7.63116 1.58978 0
M  V30 4917 N 461.167 -1.02423 -1.1978 0
M  V30 4918 C 462.583 -0.740459 -1.41384 0
M  V30 4919 C 462.783 0.676827 -1.89793 0
M  V30 4920 O 461.839 1.4435 -2.0717 0
M  V30 4921 C 463.152 -1.77264 -2.42895 0
M  V30 4922 C 464.7 -1.79165 -2.56649 0
M  V30 4923 C 465.175 -2.8133 -3.6141 0
M  V30 4924 N 466.666 -2.80118 -3.68901 0
M  V30 4925 C 467.401 -3.55824 -4.49641 0
M  V30 4926 N 466.897 -4.41231 -5.34123 0
M  V30 4927 N 468.69 -3.44387 -4.44246 0
M  V30 4928 H 460.841 -1.9391 -0.866764 0
M  V30 4929 H 463.104 -0.838074 -0.443098 0
M  V30 4930 H 462.81 -2.7884 -2.14339 0
M  V30 4931 H 462.684 -1.59108 -3.42001 0
M  V30 4932 H 465.071 -0.782702 -2.84531 0
M  V30 4933 H 465.152 -2.01396 -1.57713 0
M  V30 4934 H 464.796 -3.82394 -3.34271 0
M  V30 4935 H 464.726 -2.56359 -4.59986 0
M  V30 4936 H 467.217 -2.1817 -3.08562 0
M  V30 4937 H 467.53 -4.95747 -5.92836 0
M  V30 4938 H 465.875 -4.45306 -5.33599 0
M  V30 4939 H 469.066 -2.7708 -3.77285 0
M  V30 4940 H 469.239 -4.0364 -5.06931 0
M  V30 4941 N 462.645 1.35699 -0.801477 0
M  V30 4942 C 463.893 1.9852 -0.37871 0
M  V30 4943 C 464.214 1.63907 1.05638 0
M  V30 4944 O 463.484 0.919013 1.73006 0
M  V30 4945 H 462.064 0.734322 -0.137042 0
M  V30 4946 H 464.726 1.65697 -1.02619 0
M  V30 4947 H 463.822 3.08382 -0.480284 0
M  V30 4948 N 464.123 0.554532 1.47522 0
M  V30 4949 C 465.371 0.0294208 2.02079 0
M  V30 4950 C 465.692 -1.32411 1.43151 0
M  V30 4951 O 464.962 -1.863 0.605728 0
M  V30 4952 H 463.542 0.00788672 0.746958 0
M  V30 4953 H 466.204 0.723934 1.80956 0
M  V30 4954 H 465.3 -0.0606745 3.12041 0
M  V30 4955 N 465.601 -1.54893 0.290851 0
M  V30 4956 C 466.878 -1.91991 -0.373989 0
M  V30 4957 C 467.258 -1.21694 -1.72493 0
M  V30 4958 O 466.606 -0.34917 -2.25816 0
M  V30 4959 C 466.816 -3.45419 -0.498703 0
M  V30 4960 C 468.164 -4.1748 -0.774298 0
M  V30 4961 O 469.188 -3.51398 -0.582908 0
M  V30 4962 O 468.047 -5.3445 -1.14129 0
M  V30 4963 H 465.141 -0.800593 -0.207315 0
M  V30 4964 H 467.687 -1.66297 0.338164 0
M  V30 4965 H 466.459 -3.88688 0.451392 0
M  V30 4966 H 466.082 -3.77117 -1.25972 0
M  V30 4967 N 467.08 -0.0183926 -1.57589 0
M  V30 4968 C 468.326 0.663543 -1.91638 0
M  V30 4969 C 468.659 1.72392 -0.894134 0
M  V30 4970 O 467.934 1.94316 0.0846449 0
M  V30 4971 C 468.217 1.28984 -3.36207 0
M  V30 4972 C 468.07 0.239761 -4.49161 0
M  V30 4973 C 469.389 2.2109 -3.80536 0
M  V30 4974 H 466.508 0.239746 -0.696915 0
M  V30 4975 H 469.15 -0.073456 -1.89858 0
M  V30 4976 H 467.3 1.91799 -3.37854 0
M  V30 4977 H 468.972 -0.390119 -4.59647 0
M  V30 4978 H 467.215 -0.435972 -4.31604 0
M  V30 4979 H 467.886 0.717383 -5.47319 0
M  V30 4980 H 470.362 1.68273 -3.80557 0
M  V30 4981 H 469.238 2.61869 -4.82406 0
M  V30 4982 H 469.499 3.09764 -3.15434 0
M  V30 4983 N 468.558 1.5553 0.254621 0
M  V30 4984 C 469.783 1.81383 1.00573 0
M  V30 4985 C 470.208 0.594419 1.78461 0
M  V30 4986 O 469.566 -0.456403 1.75461 0
M  V30 4987 C 469.614 3.04892 1.92545 0
M  V30 4988 O 468.718 2.81266 3.01601 0
M  V30 4989 H 468.059 0.598969 0.286587 0
M  V30 4990 H 470.589 2.02703 0.277952 0
M  V30 4991 H 470.599 3.34119 2.34155 0
M  V30 4992 H 469.274 3.93287 1.3527 0
M  V30 4993 H 467.851 2.63185 2.64174 0
M  V30 4994 N 470.036 -0.519951 1.48776 0
M  V30 4995 C 471.313 -1.28123 1.47797 0
M  V30 4996 C 471.693 -2.10196 0.195157 0
M  V30 4997 O 471.041 -2.13167 -0.822925 0
M  V30 4998 C 471.251 -2.15413 2.74587 0
M  V30 4999 C 472.599 -2.75225 3.23321 0
M  V30 5000 O 473.623 -2.25694 2.75574 0
M  V30 5001 O 472.482 -3.65346 4.06429 0
M  V30 5002 H 469.576 -0.578793 0.590701 0
M  V30 5003 H 472.122 -0.535779 1.6102 0
M  V30 5004 H 470.894 -1.54617 3.59457 0
M  V30 5005 H 470.517 -2.97186 2.64132 0
M  V30 5006 N 471.514 -1.37532 -0.769588 0
M  V30 5007 C 472.739 -1.36231 -1.56384 0
M  V30 5008 C 473.164 0.0495849 -1.88035 0
M  V30 5009 O 472.522 1.02723 -1.49391 0
M  V30 5010 C 472.57 -2.20986 -2.84952 0
M  V30 5011 O 471.674 -1.61597 -3.79421 0
M  V30 5012 H 471.015 -0.465387 -0.473615 0
M  V30 5013 H 473.545 -1.81085 -0.952342 0
M  V30 5014 H 473.555 -2.34277 -3.34034 0
M  V30 5015 H 472.23 -3.23612 -2.61243 0
M  V30 5016 H 470.807 -1.57359 -3.38072 0
M  V30 5017 N 472.992 0.995999 -1.22138 0
M  V30 5018 C 473.939 2.08551 -0.988687 0
M  V30 5019 C 474.909 1.65864 0.0885021 0
M  V30 5020 O 476.094 1.90704 -0.0604589 0
M  V30 5021 C 473.234 3.40374 -0.569191 0
M  V30 5022 C 472.347 3.96421 -1.71681 0
M  V30 5023 C 471.482 5.1639 -1.2456 0
M  V30 5024 C 470.521 5.64567 -2.36497 0
M  V30 5025 N 469.658 6.75777 -1.90445 0
M  V30 5026 H 474.498 2.2779 -1.92135 0
M  V30 5027 H 472.035 1.1168 -0.957388 0
M  V30 5028 H 473.993 4.16068 -0.307166 0
M  V30 5029 H 472.623 3.21145 0.326462 0
M  V30 5030 H 471.675 3.17628 -2.09324 0
M  V30 5031 H 472.987 4.2816 -2.55891 0
M  V30 5032 H 472.141 5.99362 -0.940774 0
M  V30 5033 H 470.88 4.86266 -0.373662 0
M  V30 5034 H 469.885 4.80185 -2.67772 0
M  V30 5035 H 471.11 5.96716 -3.24202 0
M  V30 5036 H 469.056 6.47443 -1.05609 0
M  V30 5037 H 468.973 7.06818 -2.68223 0
M  V30 5038 H 470.241 7.62262 -1.63022 0
M  V30 5039 N 474.47 1.03057 1.19235 0
M  V30 5040 C 475.402 0.570932 2.21975 0
M  V30 5041 C 476.415 -0.354088 1.58903 0
M  V30 5042 O 477.604 -0.150211 1.77867 0
M  V30 5043 C 474.704 -0.187152 3.38383 0
M  V30 5044 C 473.877 0.743231 4.31039 0
M  V30 5045 C 472.936 0.0302493 5.26191 0
M  V30 5046 O 471.962 0.657371 5.65391 0
M  V30 5047 N 473.164 -1.23991 5.67104 0
M  V30 5048 H 475.929 1.45456 2.62036 0
M  V30 5049 H 473.49 0.909807 1.33918 0
M  V30 5050 H 475.482 -0.673715 3.99053 0
M  V30 5051 H 474.052 -0.972205 2.97098 0
M  V30 5052 H 473.272 1.40985 3.68126 0
M  V30 5053 H 474.56 1.3755 4.89854 0
M  V30 5054 H 473.958 -1.77011 5.37293 0
M  V30 5055 H 472.515 -1.67093 6.30018 0
M  V30 5056 N 475.948 -1.35272 0.808662 0
M  V30 5057 C 477.195 -1.98709 0.390003 0
M  V30 5058 C 477.523 -1.64148 -1.04335 0
M  V30 5059 O 476.778 -0.897797 -1.73891 0
M  V30 5060 C 477.077 -3.53556 0.522798 0
M  V30 5061 C 476.743 -4.0799 1.91977 0
M  V30 5062 C 475.405 -4.22568 2.30195 0
M  V30 5063 C 477.757 -4.37442 2.83361 0
M  V30 5064 C 475.085 -4.63918 3.59162 0
M  V30 5065 C 477.437 -4.80232 4.11776 0
M  V30 5066 C 476.101 -4.93016 4.49991 0
M  V30 5067 H 475.371 -0.727127 0.142712 0
M  V30 5068 H 478.018 -1.6145 1.02985 0
M  V30 5069 H 476.323 -3.91287 -0.200494 0
M  V30 5070 H 478.02 -4.00598 0.179608 0
M  V30 5071 H 474.61 -3.97096 1.61284 0
M  V30 5072 H 478.794 -4.25731 2.55083 0
M  V30 5073 H 474.05 -4.72005 3.88615 0
M  V30 5074 H 478.224 -5.01982 4.82687 0
M  V30 5075 H 475.851 -5.24814 5.49976 0
M  V30 5076 N 477.426 -0.562348 -1.47226 0
M  V30 5077 C 478.654 -0.0452275 -2.06851 0
M  V30 5078 C 479.069 1.25078 -1.41424 0
M  V30 5079 O 478.426 1.75156 -0.512513 0
M  V30 5080 C 478.477 0.148674 -3.61194 0
M  V30 5081 O 478.198 -1.09602 -4.24169 0
M  V30 5082 C 479.699 0.702488 -4.37699 0
M  V30 5083 H 476.919 -0.0481775 -0.669268 0
M  V30 5084 H 479.463 -0.777223 -1.89155 0
M  V30 5085 H 477.618 0.830817 -3.78386 0
M  V30 5086 H 478.032 -0.896982 -5.16773 0
M  V30 5087 H 479.506 0.78743 -5.46355 0
M  V30 5088 H 479.983 1.71493 -4.04335 0
M  V30 5089 H 480.589 0.0558772 -4.25263 0
M  V30 5090 N 478.904 1.54736 -0.299062 0
M  V30 5091 C 480.134 2.04215 0.312992 0
M  V30 5092 C 480.542 1.17596 1.48215 0
M  V30 5093 O 479.885 0.193835 1.82674 0
M  V30 5094 C 479.947 3.49696 0.833862 0
M  V30 5095 C 479.611 4.56518 -0.20977 0
M  V30 5096 C 480.608 5.09442 -1.03756 0
M  V30 5097 C 478.293 5.01073 -0.35091 0
M  V30 5098 C 480.287 6.05459 -1.99244 0
M  V30 5099 C 477.974 5.9691 -1.30924 0
M  V30 5100 C 478.972 6.48987 -2.1285 0
M  V30 5101 O 478.66 7.42947 -3.07059 0
M  V30 5102 H 478.392 0.672128 0.0722494 0
M  V30 5103 H 480.946 2.00718 -0.436043 0
M  V30 5104 H 479.176 3.5051 1.63339 0
M  V30 5105 H 480.865 3.82381 1.36159 0
M  V30 5106 H 481.631 4.75816 -0.939376 0
M  V30 5107 H 477.51 4.60168 0.276813 0
M  V30 5108 H 481.054 6.46031 -2.63229 0
M  V30 5109 H 476.951 6.29953 -1.40815 0
M  V30 5110 H 477.719 7.60743 -3.02015 0
M  V30 5111 N 480.382 0.0267497 1.57577 0
M  V30 5112 C 481.612 -0.6617 1.95717 0
M  V30 5113 C 482.02 -1.66331 0.901706 0
M  V30 5114 O 481.363 -1.83273 -0.125241 0
M  V30 5115 C 481.425 -1.42649 3.29987 0
M  V30 5116 C 481.089 -0.583482 4.5326 0
M  V30 5117 C 482.086 0.140221 5.19711 0
M  V30 5118 C 479.771 -0.521581 4.99585 0
M  V30 5119 C 481.765 0.914523 6.30805 0
M  V30 5120 C 479.452 0.256428 6.10562 0
M  V30 5121 C 480.45 0.973189 6.76031 0
M  V30 5122 O 480.138 1.73845 7.84878 0
M  V30 5123 H 479.87 -0.187483 0.649481 0
M  V30 5124 H 482.424 0.0820847 2.05236 0
M  V30 5125 H 480.654 -2.21536 3.16952 0
M  V30 5126 H 482.343 -2.00282 3.53047 0
M  V30 5127 H 483.109 0.101716 4.84893 0
M  V30 5128 H 478.988 -1.06904 4.48433 0
M  V30 5129 H 482.532 1.4745 6.81839 0
M  V30 5130 H 478.429 0.296657 6.44818 0
M  V30 5131 H 479.197 1.65797 8.01532 0
M  V30 5132 N 481.861 -1.55662 -0.24637 0
M  V30 5133 C 483.272 -1.67953 -0.81539 0
M  V30 5134 C 483.623 -0.624302 -1.86002 0
M  V30 5135 O 482.748 0.229328 -2.15181 0
M  V30 5136 C 483.343 -3.04484 -1.48576 0
M  V30 5137 C 481.902 -3.18713 -2.00248 0
M  V30 5138 C 481.049 -2.6383 -0.853766 0
M  V30 5139 H 484 -1.58685 -0.0221692 0
M  V30 5140 H 484.021 -2.98959 -2.3538 0
M  V30 5141 H 483.533 -3.81264 -0.725222 0
M  V30 5142 H 481.634 -2.46757 -2.79181 0
M  V30 5143 H 481.747 -4.25628 -2.1995 0
M  V30 5144 H 480.111 -2.21667 -1.25442 0
M  V30 5145 H 480.894 -3.43135 -0.106302 0
M  V30 5146 N 483.339 0.512053 -1.4905 0
M  V30 5147 C 484.269 1.62365 -1.67809 0
M  V30 5148 C 485.25 1.61737 -0.526809 0
M  V30 5149 O 486.435 1.78651 -0.761404 0
M  V30 5150 C 483.565 3.00895 -1.73435 0
M  V30 5151 C 482.519 3.16387 -2.88242 0
M  V30 5152 C 481.845 4.56157 -2.78971 0
M  V30 5153 C 483.145 2.97457 -4.29321 0
M  V30 5154 H 484.839 1.46921 -2.60873 0
M  V30 5155 H 482.385 0.705379 -1.2554 0
M  V30 5156 H 484.338 3.78549 -1.85145 0
M  V30 5157 H 483.062 3.17403 -0.769619 0
M  V30 5158 H 481.721 2.41155 -2.76116 0
M  V30 5159 H 481.369 4.69525 -1.8043 0
M  V30 5160 H 481.069 4.67465 -3.5602 0
M  V30 5161 H 482.593 5.35886 -2.92675 0
M  V30 5162 H 484.007 3.64888 -4.42187 0
M  V30 5163 H 482.404 3.20245 -5.07507 0
M  V30 5164 H 483.474 1.93692 -4.44535 0
M  V30 5165 N 484.817 1.37938 0.762283 0
M  V30 5166 C 486.063 1.33866 1.52341 0
M  V30 5167 C 486.396 -0.0738961 1.94059 0
M  V30 5168 O 485.671 -1.03326 1.64785 0
M  V30 5169 C 485.954 2.28644 2.78197 0
M  V30 5170 C 485.807 3.78722 2.42672 0
M  V30 5171 C 487.126 2.21702 3.80179 0
M  V30 5172 H 484.245 0.487593 0.55265 0
M  V30 5173 H 486.887 1.68717 0.873767 0
M  V30 5174 H 485.037 1.99055 3.33631 0
M  V30 5175 H 486.709 4.18948 1.93081 0
M  V30 5176 H 484.952 3.96827 1.75244 0
M  V30 5177 H 485.623 4.40486 3.3268 0
M  V30 5178 H 488.099 2.47805 3.34263 0
M  V30 5179 H 486.975 2.90143 4.65949 0
M  V30 5180 H 487.236 1.21301 4.25133 0
M  V30 5181 N 486.295 -0.989507 1.22664 0
M  V30 5182 C 487.205 -2.11449 1.01619 0
M  V30 5183 C 488.221 -1.73962 -0.036545 0
M  V30 5184 O 489.397 -2.00788 0.156924 0
M  V30 5185 C 486.462 -3.41465 0.600204 0
M  V30 5186 C 485.523 -3.93033 1.72695 0
M  V30 5187 C 484.756 -5.16844 1.33071 0
M  V30 5188 O 484.979 -5.7001 0.210975 0
M  V30 5189 O 483.913 -5.6225 2.14845 0
M  V30 5190 H 487.739 -2.32088 1.9588 0
M  V30 5191 H 485.324 -1.09823 1.01289 0
M  V30 5192 H 487.206 -4.19695 0.37873 0
M  V30 5193 H 485.881 -3.22178 -0.313511 0
M  V30 5194 H 484.788 -3.15961 2.00298 0
M  V30 5195 H 486.121 -4.16758 2.61865 0
M  V30 5196 N 487.773 -1.03688 -1.18687 0
M  V30 5197 C 489.05 -0.652397 -1.84399 0
M  V30 5198 C 489.43 0.868386 -1.92412 0
M  V30 5199 O 488.778 1.76832 -1.44716 0
M  V30 5200 C 488.988 -1.3238 -3.22919 0
M  V30 5201 C 490.336 -1.45216 -3.98996 0
M  V30 5202 O 491.36 -1.2816 -3.32345 0
M  V30 5203 O 490.219 -1.72975 -5.18403 0
M  V30 5204 H 487.313 -0.227793 -0.795009 0
M  V30 5205 H 489.859 -1.13553 -1.2611 0
M  V30 5206 H 488.631 -2.36202 -3.11968 0
M  V30 5207 H 488.254 -0.829039 -3.88861 0
M  V30 5208 N 489.251 1.34841 -0.815825 0
M  V30 5209 C 490.198 2.29644 -0.230664 0
M  V30 5210 C 491.168 1.53253 0.640533 0
M  V30 5211 O 492.353 1.81653 0.583672 0
M  V30 5212 C 489.493 3.39715 0.607275 0
M  V30 5213 C 488.606 4.31056 -0.28538 0
M  V30 5214 C 487.741 5.28225 0.561446 0
M  V30 5215 C 486.78 6.11204 -0.331035 0
M  V30 5216 N 485.917 7.00483 0.476302 0
M  V30 5217 H 490.757 2.79095 -1.0445 0
M  V30 5218 H 488.294 1.37351 -0.526595 0
M  V30 5219 H 490.252 4.02208 1.10835 0
M  V30 5220 H 488.882 2.91517 1.38629 0
M  V30 5221 H 487.934 3.69487 -0.904621 0
M  V30 5222 H 489.246 4.89239 -0.97193 0
M  V30 5223 H 488.4 5.96135 1.12728 0
M  V30 5224 H 487.139 4.70562 1.28153 0
M  V30 5225 H 486.144 5.42232 -0.909069 0
M  V30 5226 H 487.369 6.70947 -1.04912 0
M  V30 5227 H 485.315 6.45296 1.18019 0
M  V30 5228 H 485.232 7.55847 -0.152008 0
M  V30 5229 H 486.5 7.7273 1.02512 0
M  V30 5230 N 490.729 0.570148 1.46925 0
M  V30 5231 C 491.639 -0.173061 2.33961 0
M  V30 5232 C 492.655 -0.898825 1.48987 0
M  V30 5233 O 493.831 -0.864825 1.81887 0
M  V30 5234 C 490.896 -1.18177 3.25937 0
M  V30 5235 C 489.957 -0.462041 4.26806 0
M  V30 5236 C 489.19 -1.4227 5.14388 0
M  V30 5237 O 489.413 -2.65842 5.04662 0
M  V30 5238 O 488.347 -0.940127 5.94513 0
M  V30 5239 H 492.173 0.541216 2.98839 0
M  V30 5240 H 489.758 0.330647 1.45695 0
M  V30 5241 H 491.64 -1.76372 3.82715 0
M  V30 5242 H 490.315 -1.87774 2.63671 0
M  V30 5243 H 489.222 0.161429 3.73752 0
M  V30 5244 H 490.555 0.192719 4.91823 0
M  V30 5245 N 492.207 -1.54576 0.307264 0
M  V30 5246 C 493.117 -2.27435 -0.57536 0
M  V30 5247 C 494.133 -1.31183 -1.14311 0
M  V30 5248 O 495.309 -1.64175 -1.16656 0
M  V30 5249 C 492.374 -3.00566 -1.72803 0
M  V30 5250 C 491.435 -4.12369 -1.19373 0
M  V30 5251 C 490.668 -4.82003 -2.29147 0
M  V30 5252 O 490.891 -4.51038 -3.49171 0
M  V30 5253 O 489.825 -5.69271 -1.95485 0
M  V30 5254 H 493.651 -3.03696 0.0158558 0
M  V30 5255 H 491.236 -1.49219 0.0735064 0
M  V30 5256 H 493.118 -3.46416 -2.39946 0
M  V30 5257 H 491.793 -2.27195 -2.30574 0
M  V30 5258 H 490.7 -3.70905 -0.487851 0
M  V30 5259 H 492.033 -4.87736 -0.661376 0
M  V30 5260 N 493.685 -0.035106 -1.57561 0
M  V30 5261 C 494.931 0.64318 -1.92331 0
M  V30 5262 C 495.264 1.71434 -0.912368 0
M  V30 5263 O 494.539 1.94395 0.0640303 0
M  V30 5264 C 494.822 1.25411 -3.37556 0
M  V30 5265 C 494.675 0.192109 -4.4939 0
M  V30 5266 C 495.994 2.17041 -3.82859 0
M  V30 5267 H 493.113 0.232341 -0.699419 0
M  V30 5268 H 495.755 -0.0935889 -1.89769 0
M  V30 5269 H 493.905 1.88205 -3.39869 0
M  V30 5270 H 495.577 -0.438849 -4.59208 0
M  V30 5271 H 493.82 -0.481725 -4.31117 0
M  V30 5272 H 494.491 0.659292 -5.48049 0
M  V30 5273 H 496.967 1.64228 -3.8232 0
M  V30 5274 H 495.843 2.56738 -4.85157 0
M  V30 5275 H 496.104 3.06401 -3.18702 0
M  V30 5276 N 495.163 1.55791 0.238111 0
M  V30 5277 C 496.095 1.87513 1.31802 0
M  V30 5278 C 497.108 0.762053 1.43863 0
M  V30 5279 O 498.297 1.04024 1.45056 0
M  V30 5280 C 495.397 2.05402 2.69561 0
M  V30 5281 C 494.57 3.3632 2.79656 0
M  V30 5282 C 493.629 3.43844 3.98319 0
M  V30 5283 O 492.655 4.16994 3.87433 0
M  V30 5284 N 493.857 2.73777 5.11885 0
M  V30 5285 H 496.622 2.80734 1.04922 0
M  V30 5286 H 494.183 1.56135 0.428196 0
M  V30 5287 H 496.175 2.07769 3.47296 0
M  V30 5288 H 494.745 1.18884 2.89111 0
M  V30 5289 H 493.965 3.46195 1.88528 0
M  V30 5290 H 495.253 4.22594 2.83358 0
M  V30 5291 H 494.651 2.14094 5.23622 0
M  V30 5292 H 493.208 2.81825 5.87723 0
M  V30 5293 N 496.642 -0.504142 1.49319 0
M  V30 5294 C 498.058 -0.835039 1.36012 0
M  V30 5295 C 498.258 -1.97674 0.390808 0
M  V30 5296 O 497.314 -2.51867 -0.178655 0
M  V30 5297 C 498.627 -1.17821 2.76656 0
M  V30 5298 C 500.175 -1.2866 2.85334 0
M  V30 5299 C 500.65 -1.66307 4.26739 0
M  V30 5300 N 502.141 -1.73362 4.29534 0
M  V30 5301 C 502.876 -2.0393 5.35911 0
M  V30 5302 N 502.372 -2.32744 6.52535 0
M  V30 5303 N 504.165 -2.05155 5.23324 0
M  V30 5304 H 496.316 0.248764 2.10938 0
M  V30 5305 H 498.579 0.0486962 0.946748 0
M  V30 5306 H 498.285 -0.412682 3.4927 0
M  V30 5307 H 498.159 -2.12239 3.11825 0
M  V30 5308 H 500.546 -2.04285 2.1296 0
M  V30 5309 H 500.627 -0.323004 2.53752 0
M  V30 5310 H 500.271 -0.91234 4.99639 0
M  V30 5311 H 500.201 -2.63761 4.55782 0
M  V30 5312 H 502.692 -1.53268 3.45424 0
M  V30 5313 H 503.005 -2.55248 7.2943 0
M  V30 5314 H 501.35 -2.30207 6.55767 0
M  V30 5315 H 504.541 -1.82119 4.3122 0
M  V30 5316 H 504.714 -2.28644 6.06322 0
M  V30 5317 N 498.12 -1.38341 -0.754957 0
M  V30 5318 C 499.067 -1.3546 -1.86867 0
M  V30 5319 C 500.037 -0.217369 -1.64672 0
M  V30 5320 O 501.222 -0.409383 -1.86356 0
M  V30 5321 C 498.362 -1.18413 -3.24149 0
M  V30 5322 C 497.475 -2.41511 -3.58185 0
M  V30 5323 C 496.61 -2.17205 -4.84763 0
M  V30 5324 C 495.649 -3.36081 -5.11582 0
M  V30 5325 N 494.786 -3.11219 -6.29354 0
M  V30 5326 H 499.626 -2.30672 -1.88664 0
M  V30 5327 H 497.163 -1.14607 -0.922154 0
M  V30 5328 H 499.121 -1.06545 -4.03366 0
M  V30 5329 H 497.751 -0.268397 -3.21682 0
M  V30 5330 H 496.803 -2.64056 -2.73822 0
M  V30 5331 H 498.115 -3.30115 -3.73932 0
M  V30 5332 H 497.269 -2.02465 -5.7192 0
M  V30 5333 H 496.008 -1.25964 -4.71152 0
M  V30 5334 H 495.013 -3.51341 -4.22894 0
M  V30 5335 H 496.238 -4.28196 -5.27091 0
M  V30 5336 H 494.184 -2.22624 -6.17069 0
M  V30 5337 H 494.101 -3.93373 -6.45596 0
M  V30 5338 H 495.369 -3.00132 -7.19403 0
M  V30 5339 N 499.598 0.982988 -1.23187 0
M  V30 5340 C 501.014 1.2487 -0.993967 0
M  V30 5341 C 501.214 1.99155 0.306498 0
M  V30 5342 O 500.27 2.30688 1.0266 0
M  V30 5343 C 501.583 2.05078 -2.19917 0
M  V30 5344 C 503.131 2.18227 -2.2438 0
M  V30 5345 C 503.606 3.01825 -3.44479 0
M  V30 5346 N 505.097 3.09411 -3.44702 0
M  V30 5347 C 505.832 3.74412 -4.34285 0
M  V30 5348 N 505.328 4.41259 -5.341 0
M  V30 5349 N 507.121 3.71273 -4.22035 0
M  V30 5350 H 499.272 0.485253 -2.06783 0
M  V30 5351 H 501.535 0.276979 -0.906635 0
M  V30 5352 H 501.241 1.57867 -3.14279 0
M  V30 5353 H 501.115 3.05829 -2.2079 0
M  V30 5354 H 503.502 2.64648 -1.30559 0
M  V30 5355 H 503.583 1.16873 -2.2754 0
M  V30 5356 H 503.227 2.56102 -4.38605 0
M  V30 5357 H 503.157 4.03342 -3.38559 0
M  V30 5358 H 505.648 2.61845 -2.7248 0
M  V30 5359 H 505.961 4.88629 -5.98717 0
M  V30 5360 H 504.306 4.39975 -5.38002 0
M  V30 5361 H 507.497 3.18217 -3.43301 0
M  V30 5362 H 507.67 4.21649 -4.92053 0
M  V30 5363 N 501.076 1.04316 1.18135 0
M  V30 5364 C 502.492 0.762858 1.40188 0
M  V30 5365 C 502.692 -0.646547 1.90846 0
M  V30 5366 O 501.748 -1.41036 2.0944 0
M  V30 5367 C 503.061 1.81106 2.40044 0
M  V30 5368 C 504.609 1.83226 2.53766 0
M  V30 5369 C 505.084 2.87044 3.56889 0
M  V30 5370 N 506.575 2.85951 3.64398 0
M  V30 5371 C 507.31 3.62932 4.43923 0
M  V30 5372 N 506.806 4.49672 5.27036 0
M  V30 5373 N 508.599 3.51411 4.38711 0
M  V30 5374 H 500.75 1.95264 0.835805 0
M  V30 5375 H 503.013 0.845017 0.429709 0
M  V30 5376 H 502.719 2.82214 2.09876 0
M  V30 5377 H 502.593 1.64529 3.39426 0
M  V30 5378 H 504.98 0.827869 2.8325 0
M  V30 5379 H 505.061 2.03879 1.54489 0
M  V30 5380 H 504.705 3.87663 3.28145 0
M  V30 5381 H 504.635 2.63645 4.5585 0
M  V30 5382 H 507.126 2.23051 3.05052 0
M  V30 5383 H 507.439 5.05116 5.84874 0
M  V30 5384 H 505.784 4.53738 5.26447 0
M  V30 5385 H 508.975 2.83047 3.72829 0
M  V30 5386 H 509.148 4.11654 5.00445 0
M  V30 5387 N 502.554 -1.34406 0.822964 0
M  V30 5388 C 503.501 -2.29519 0.24284 0
M  V30 5389 C 504.471 -1.5359 -0.632397 0
M  V30 5390 O 505.656 -1.8196 -0.57403 0
M  V30 5391 C 502.796 -3.40032 -0.58925 0
M  V30 5392 C 501.909 -4.30899 0.308236 0
M  V30 5393 C 501.044 -5.28515 -0.533425 0
M  V30 5394 C 500.083 -6.1102 0.363444 0
M  V30 5395 N 499.22 -7.00725 -0.439147 0
M  V30 5396 H 504.06 -2.78537 1.05929 0
M  V30 5397 H 501.597 -1.3707 0.533872 0
M  V30 5398 H 503.555 -4.0279 -1.087 0
M  V30 5399 H 502.185 -2.92248 -1.37081 0
M  V30 5400 H 501.237 -3.69002 0.924203 0
M  V30 5401 H 502.549 -4.88717 0.997862 0
M  V30 5402 H 501.703 -5.96725 -1.09565 0
M  V30 5403 H 500.442 -4.71235 -1.25656 0
M  V30 5404 H 499.447 -5.41743 0.937812 0
M  V30 5405 H 500.672 -6.70381 1.08469 0
M  V30 5406 H 498.618 -6.45913 -1.14595 0
M  V30 5407 H 498.535 -7.55756 0.19209 0
M  V30 5408 H 499.803 -7.73263 -0.984124 0
M  V30 5409 N 504.032 -0.577932 -1.46621 0
M  V30 5410 C 504.995 0.147805 -2.28723 0
M  V30 5411 C 505.995 0.823325 -1.38123 0
M  V30 5412 O 507.185 0.676011 -1.60548 0
M  V30 5413 C 504.317 1.21853 -3.18378 0
M  V30 5414 H 505.51 -0.573654 -2.94362 0
M  V30 5415 H 503.063 -0.335703 -1.52652 0
M  V30 5416 H 503.798 1.97173 -2.57475 0
M  V30 5417 H 503.583 0.738714 -3.85078 0
M  V30 5418 H 505.073 1.72768 -3.80186 0
M  V30 5419 N 505.51 1.54411 -0.315457 0
M  V30 5420 C 506.44 2.27002 0.547039 0
M  V30 5421 C 507.421 1.27492 1.12605 0
M  V30 5422 O 508.606 1.5629 1.15269 0
M  V30 5423 C 505.736 3.02171 1.71201 0
M  V30 5424 C 504.69 4.0895 1.26268 0
M  V30 5425 C 504.016 4.71915 2.51396 0
M  V30 5426 C 505.316 5.20891 0.383419 0
M  V30 5427 H 507.01 2.99343 -0.0584517 0
M  V30 5428 H 504.556 1.4397 -0.0295527 0
M  V30 5429 H 506.509 3.51681 2.32161 0
M  V30 5430 H 505.233 2.27433 2.34397 0
M  V30 5431 H 503.892 3.60312 0.676062 0
M  V30 5432 H 503.54 3.93801 3.12937 0
M  V30 5433 H 503.24 5.44039 2.22026 0
M  V30 5434 H 504.764 5.24195 3.13133 0
M  V30 5435 H 506.178 5.66206 0.899082 0
M  V30 5436 H 504.575 5.99821 0.182857 0
M  V30 5437 H 505.645 4.81324 -0.587821 0
M  V30 5438 N 506.988 0.0434614 1.5754 0
M  V30 5439 C 508.399 -0.493343 1.80064 0
M  V30 5440 C 508.75 -1.71388 0.955023 0
M  V30 5441 O 507.875 -2.15736 0.169434 0
M  V30 5442 C 508.47 -0.90179 3.26578 0
M  V30 5443 C 507.029 -1.38362 3.50047 0
M  V30 5444 C 506.176 -0.355129 2.75017 0
M  V30 5445 H 509.127 0.2694 1.56397 0
M  V30 5446 H 509.148 -1.76523 3.37075 0
M  V30 5447 H 508.66 -0.013271 3.88098 0
M  V30 5448 H 506.761 -2.29159 2.93798 0
M  V30 5449 H 506.874 -1.3811 4.58762 0
M  V30 5450 H 505.238 -0.826348 2.40922 0
M  V30 5451 H 506.021 0.525172 3.39259 0
M  V30 5452 N 508.466 -1.55915 -0.229846 0
M  V30 5453 C 509.694 -1.82617 -0.972562 0
M  V30 5454 C 510.109 -0.621488 -1.78278 0
M  V30 5455 O 509.466 0.409956 -1.77836 0
M  V30 5456 C 509.517 -3.0774 -1.89679 0
M  V30 5457 O 509.238 -4.23559 -1.11934 0
M  V30 5458 C 510.739 -3.47368 -2.75409 0
M  V30 5459 H 507.959 -0.60727 -0.285419 0
M  V30 5460 H 510.503 -2.02996 -0.247579 0
M  V30 5461 H 508.658 -2.89361 -2.57583 0
M  V30 5462 H 509.072 -4.94586 -1.74599 0
M  V30 5463 H 510.546 -4.37977 -3.35977 0
M  V30 5464 H 511.023 -2.68737 -3.47386 0
M  V30 5465 H 511.629 -3.68158 -2.12931 0
M  V30 5466 N 509.944 0.496216 -1.49584 0
M  V30 5467 C 511.191 1.25003 -1.59312 0
M  V30 5468 C 511.519 1.92445 -0.28198 0
M  V30 5469 O 510.774 1.81557 0.730452 0
M  V30 5470 C 511.073 2.3359 -2.705 0
M  V30 5471 C 510.739 1.83574 -4.11839 0
M  V30 5472 C 509.401 1.69653 -4.50302 0
M  V30 5473 C 511.753 1.46193 -5.00277 0
M  V30 5474 C 509.081 1.16736 -5.74969 0
M  V30 5475 C 511.433 0.947265 -6.25468 0
M  V30 5476 C 510.097 0.794485 -6.62755 0
M  V30 5477 H 509.367 0.45742 -0.582965 0
M  V30 5478 H 512.014 0.549996 -1.83432 0
M  V30 5479 H 510.319 3.09401 -2.40371 0
M  V30 5480 H 512.016 2.91627 -2.75235 0
M  V30 5481 H 508.606 1.9537 -3.81482 0
M  V30 5482 H 512.79 1.55793 -4.71214 0
M  V30 5483 H 508.046 1.03623 -6.02555 0
M  V30 5484 H 512.22 0.648846 -6.93371 0
M  V30 5485 H 509.847 0.382271 -7.59238 0
M  V30 5486 N 511.423 1.38739 0.74761 0
M  V30 5487 C 512.648 1.38702 1.54197 0
M  V30 5488 C 513.073 -0.019664 1.8809 0
M  V30 5489 O 512.431 -1.00333 1.51006 0
M  V30 5490 C 512.479 2.25492 2.814 0
M  V30 5491 O 511.583 1.67613 3.76802 0
M  V30 5492 H 510.924 0.472863 0.466151 0
M  V30 5493 H 513.454 1.82577 0.923413 0
M  V30 5494 H 513.464 2.39561 3.30264 0
M  V30 5495 H 512.139 3.27727 2.56062 0
M  V30 5496 H 510.716 1.62718 3.35526 0
M  V30 5497 N 512.901 -0.976442 1.23707 0
M  V30 5498 C 513.833 -2.07212 0.979574 0
M  V30 5499 C 514.846 -1.6273 -0.0478528 0
M  V30 5500 O 516.035 -1.77506 0.18815 0
M  V30 5501 C 513.135 -3.35835 0.45479 0
M  V30 5502 C 512.308 -4.09268 1.54331 0
M  V30 5503 C 511.367 -5.16166 1.02271 0
M  V30 5504 O 510.393 -5.42827 1.71254 0
M  V30 5505 N 511.595 -5.80313 -0.147419 0
M  V30 5506 H 514.36 -2.29878 1.92292 0
M  V30 5507 H 511.921 -1.14343 1.14618 0
M  V30 5508 H 513.913 -4.04597 0.0914631 0
M  V30 5509 H 512.483 -3.10106 -0.394068 0
M  V30 5510 H 511.703 -3.34906 2.07923 0
M  V30 5511 H 512.991 -4.55095 2.27522 0
M  V30 5512 H 512.389 -5.61043 -0.724353 0
M  V30 5513 H 510.946 -6.50231 -0.451972 0
M  V30 5514 N 514.379 -1.04941 -1.1758 0
M  V30 5515 C 515.79 -0.784501 -1.69418 0
M  V30 5516 C 516.141 0.693625 -1.8353 0
M  V30 5517 O 515.266 1.53925 -1.52106 0
M  V30 5518 C 515.861 -1.41746 -3.07723 0
M  V30 5519 C 514.42 -1.20066 -3.56737 0
M  V30 5520 C 513.567 -1.5026 -2.33061 0
M  V30 5521 H 516.518 -1.21469 -1.02133 0
M  V30 5522 H 516.539 -0.825381 -3.7144 0
M  V30 5523 H 516.051 -2.49325 -2.9742 0
M  V30 5524 H 514.152 -0.144006 -3.72322 0
M  V30 5525 H 514.265 -1.90384 -4.39648 0
M  V30 5526 H 512.629 -0.922598 -2.37403 0
M  V30 5527 H 513.412 -2.58967 -2.25368 0
M  V30 5528 N 515.857 1.33968 -0.830081 0
M  V30 5529 C 517.104 1.98063 -0.421566 0
M  V30 5530 C 517.432 1.65787 1.0171 0
M  V30 5531 O 516.687 0.925348 1.72441 0
M  V30 5532 C 516.986 3.52679 -0.57898 0
M  V30 5533 C 516.652 4.04884 -1.98443 0
M  V30 5534 C 515.314 4.18852 -2.36888 0
M  V30 5535 C 517.666 4.32879 -2.90285 0
M  V30 5536 C 514.994 4.58145 -3.66497 0
M  V30 5537 C 517.346 4.7362 -4.19364 0
M  V30 5538 C 516.01 4.85794 -4.57778 0
M  V30 5539 H 515.28 0.724765 -0.154262 0
M  V30 5540 H 517.927 1.59792 -1.05541 0
M  V30 5541 H 516.232 3.91556 0.138219 0
M  V30 5542 H 517.929 4.00261 -0.243317 0
M  V30 5543 H 514.519 3.9448 -1.67581 0
M  V30 5544 H 518.703 4.21619 -2.61823 0
M  V30 5545 H 513.959 4.65762 -3.96075 0
M  V30 5546 H 518.133 4.9424 -4.90612 0
M  V30 5547 H 515.76 5.15998 -5.58256 0
M  V30 5548 N 517.335 0.585699 1.46312 0
M  V30 5549 C 518.583 0.072278 2.01971 0
M  V30 5550 C 518.904 -1.29345 1.45928 0
M  V30 5551 O 518.174 -1.84973 0.645109 0
M  V30 5552 H 516.754 0.023729 0.746623 0
M  V30 5553 H 519.416 0.762155 1.7938 0
M  V30 5554 H 518.512 0.00552767 3.121 0
M  V30 5555 N 518.813 -1.54241 0.323641 0
M  V30 5556 C 520.061 -2.00174 -0.278359 0
M  V30 5557 C 520.382 -1.2134 -1.52648 0
M  V30 5558 O 519.652 -0.315244 -1.93347 0
M  V30 5559 H 518.232 -0.739463 -0.105845 0
M  V30 5560 H 520.894 -1.89864 0.440204 0
M  V30 5561 H 519.99 -3.07486 -0.5347 0
M  V30 5562 N 520.291 -0.0518155 -1.57515 0
M  V30 5563 C 521.539 0.620595 -1.92336 0
M  V30 5564 C 521.86 1.71345 -0.930907 0
M  V30 5565 O 521.13 1.95885 0.0241341 0
M  V30 5566 H 519.71 0.232226 -0.709986 0
M  V30 5567 H 522.372 -0.104969 -1.94617 0
M  V30 5568 H 521.468 1.05879 -2.93592 0
M  V30 5569 N 521.769 1.56035 0.221574 0
M  V30 5570 C 522.994 1.83476 0.967026 0
M  V30 5571 C 523.419 0.632139 1.7716 0
M  V30 5572 O 522.777 -0.419082 1.7639 0
M  V30 5573 C 522.825 3.08907 1.86034 0
M  V30 5574 O 521.929 2.876 2.95567 0
M  V30 5575 H 521.27 0.604913 0.273817 0
M  V30 5576 H 523.8 2.03247 0.234893 0
M  V30 5577 H 523.81 3.3901 2.27016 0
M  V30 5578 H 522.485 3.96068 1.26898 0
M  V30 5579 H 521.062 2.6873 2.58532 0
M  V30 5580 N 523.247 -0.488276 1.49845 0
M  V30 5581 C 524.197 -1.58556 1.63842 0
M  V30 5582 C 525.181 -1.53142 0.493586 0
M  V30 5583 O 526.373 -1.60457 0.747169 0
M  V30 5584 C 523.502 -2.97101 1.72005 0
M  V30 5585 C 522.588 -3.07463 2.92108 0
M  V30 5586 N 522.979 -2.87681 4.16021 0
M  V30 5587 C 521.277 -3.3858 2.90309 0
M  V30 5588 C 521.978 -3.0256 4.96822 0
M  V30 5589 N 520.954 -3.32002 4.30437 0
M  V30 5590 H 524.756 -1.41935 2.57355 0
M  V30 5591 H 522.27 -0.694668 1.46793 0
M  V30 5592 H 524.267 -3.75976 1.80132 0
M  V30 5593 H 522.927 -3.14782 0.796375 0
M  V30 5594 H 523.938 -2.63603 4.45796 0
M  V30 5595 H 520.615 -3.62357 2.07372 0
M  V30 5596 H 522.005 -2.9165 6.05301 0
M  V30 5597 N 524.725 -1.39134 -0.740242 0
M  V30 5598 C 525.658 -1.3182 -1.86276 0
M  V30 5599 C 526.636 -0.192794 -1.61453 0
M  V30 5600 O 527.82 -0.372365 -1.84786 0
M  V30 5601 C 524.947 -1.04564 -3.22155 0
M  V30 5602 C 523.993 -2.19224 -3.65846 0
M  V30 5603 S 524.826 -3.81466 -3.75824 0
M  V30 5604 C 525.982 -3.56425 -5.14502 0
M  V30 5605 H 526.215 -2.26822 -1.92195 0
M  V30 5606 H 523.748 -1.25127 -0.904576 0
M  V30 5607 H 525.706 -0.895228 -4.00619 0
M  V30 5608 H 524.367 -0.112578 -3.13898 0
M  V30 5609 H 523.56 -1.95732 -4.6444 0
M  V30 5610 H 523.162 -2.30441 -2.94572 0
M  V30 5611 H 525.454 -3.13366 -6.00673 0
M  V30 5612 H 526.397 -4.54462 -5.43019 0
M  V30 5613 H 526.805 -2.90641 -4.8393 0
M  V30 5614 N 526.204 0.969867 -1.24223 0
M  V30 5615 C 527.452 1.70918 -1.0785 0
M  V30 5616 C 527.773 1.91186 0.383763 0
M  V30 5617 O 527.043 1.48806 1.27411 0
M  V30 5618 H 525.623 0.633334 -0.396103 0
M  V30 5619 H 528.285 1.16689 -1.56108 0
M  V30 5620 H 527.381 2.69455 -1.57482 0
M  V30 5621 N 527.682 1.05563 1.17022 0
M  V30 5622 C 528.93 0.76642 1.87004 0
M  V30 5623 C 529.251 -0.708854 1.8166 0
M  V30 5624 O 528.521 -1.51242 1.2451 0
M  V30 5625 H 527.101 0.280516 0.692329 0
M  V30 5626 H 529.763 1.33557 1.41945 0
M  V30 5627 H 528.859 1.08472 2.92644 0
M  V30 5628 N 529.16 -1.33526 0.837174 0
M  V30 5629 C 530.408 -1.97446 0.431211 0
M  V30 5630 C 530.729 -1.6665 -1.01255 0
M  V30 5631 O 529.999 -0.964559 -1.70508 0
M  V30 5632 H 528.579 -0.73043 0.156463 0
M  V30 5633 H 531.241 -1.62918 1.06976 0
M  V30 5634 H 530.337 -3.07001 0.561877 0
M  V30 5635 N 530.638 -0.59345 -1.46 0
M  V30 5636 C 531.863 -0.0872365 -2.07216 0
M  V30 5637 C 532.288 1.2131 -1.43755 0
M  V30 5638 O 531.646 1.73528 -0.525152 0
M  V30 5639 C 531.694 0.0538197 -3.6056 0
M  V30 5640 O 530.798 1.10765 -3.97247 0
M  V30 5641 H 530.139 -0.0676598 -0.660544 0
M  V30 5642 H 532.669 -0.819445 -1.87473 0
M  V30 5643 H 532.679 0.256567 -4.07193 0
M  V30 5644 H 531.354 -0.895739 -4.0614 0
M  V30 5645 H 529.931 0.882501 -3.62307 0
M  V30 5646 N 532.116 1.54067 -0.331816 0
M  V30 5647 C 533.364 2.00319 0.267739 0
M  V30 5648 C 533.685 1.22148 1.52003 0
M  V30 5649 O 532.955 0.325494 1.93177 0
M  V30 5650 H 531.535 0.740014 0.101922 0
M  V30 5651 H 534.197 1.89628 -0.450267 0
M  V30 5652 H 533.293 3.07765 0.518385 0
M  V30 5653 N 533.594 0.0601682 1.57485 0
M  V30 5654 C 534.842 -0.610386 1.92662 0
M  V30 5655 C 535.163 -1.70849 0.939981 0
M  V30 5656 O 534.433 -1.95895 -0.0137455 0
M  V30 5657 H 533.013 -0.228457 0.711208 0
M  V30 5658 H 535.675 0.115288 1.94559 0
M  V30 5659 H 534.771 -1.0432 2.94149 0
M  V30 5660 N 535.072 -1.5615 -0.213296 0
M  V30 5661 C 536.035 -1.92249 -1.24792 0
M  V30 5662 C 537.035 -0.801828 -1.39382 0
M  V30 5663 O 538.225 -1.06948 -1.37506 0
M  V30 5664 C 535.357 -2.18056 -2.62039 0
M  V30 5665 H 536.55 -2.84793 -0.939845 0
M  V30 5666 H 534.103 -1.49559 -0.454062 0
M  V30 5667 H 534.838 -1.2809 -2.97932 0
M  V30 5668 H 534.623 -2.99703 -2.52825 0
M  V30 5669 H 536.113 -2.47051 -3.36683 0
M  V30 5670 N 536.55 0.480323 -1.50102 0
M  V30 5671 C 537.513 1.56181 -1.6775 0
M  V30 5672 C 538.513 1.51156 -0.548503 0
M  V30 5673 O 539.703 1.5394 -0.815363 0
M  V30 5674 C 536.835 2.95823 -1.69415 0
M  V30 5675 H 538.028 1.41855 -2.6423 0
M  V30 5676 H 535.581 0.70605 -1.39444 0
M  V30 5677 H 536.316 3.15604 -0.745948 0
M  V30 5678 H 536.101 3.00878 -2.51425 0
M  V30 5679 H 537.591 3.74359 -1.85054 0
M  V30 5680 N 538.028 1.39524 0.732853 0
M  V30 5681 C 539.276 1.36594 1.48951 0
M  V30 5682 C 539.597 -0.0367507 1.94965 0
M  V30 5683 O 538.867 -0.988391 1.69138 0
M  V30 5684 H 537.447 0.502673 0.552566 0
M  V30 5685 H 540.109 1.74411 0.869869 0
M  V30 5686 H 539.205 2.03 2.3706 0
M  V30 5687 N 539.506 -0.963266 1.24736 0
M  V30 5688 C 540.754 -1.70343 1.08755 0
M  V30 5689 C 541.075 -1.91387 -0.373619 0
M  V30 5690 O 540.345 -1.4948 -1.2662 0
M  V30 5691 H 538.925 -0.631224 0.399456 0
M  V30 5692 H 541.587 -1.15859 1.56725 0
M  V30 5693 H 540.683 -2.68616 1.58909 0
M  V30 5694 N 540.985 -1.06182 -1.16461 0
M  V30 5695 C 542.215 -0.797425 -1.9059 0
M  V30 5696 C 542.623 0.651845 -1.77616 0
M  V30 5697 O 541.966 1.45788 -1.11766 0
M  V30 5698 C 542.028 -1.11128 -3.41893 0
M  V30 5699 C 541.692 -2.55874 -3.78652 0
M  V30 5700 C 542.689 -3.54104 -3.80665 0
M  V30 5701 C 540.374 -2.91144 -4.09317 0
M  V30 5702 C 542.368 -4.85645 -4.12829 0
M  V30 5703 C 540.055 -4.22885 -4.41148 0
M  V30 5704 C 541.053 -5.19945 -4.42883 0
M  V30 5705 O 540.741 -6.49322 -4.73959 0
M  V30 5706 H 540.473 -0.288709 -0.611247 0
M  V30 5707 H 543.027 -1.41841 -1.4856 0
M  V30 5708 H 541.257 -0.433217 -3.84266 0
M  V30 5709 H 542.946 -0.831306 -3.97296 0
M  V30 5710 H 543.712 -3.28197 -3.57088 0
M  V30 5711 H 539.591 -2.16252 -4.07131 0
M  V30 5712 H 543.135 -5.61398 -4.14099 0
M  V30 5713 H 539.032 -4.48551 -4.6419 0
M  V30 5714 H 539.8 -6.54294 -4.91774 0
M  V30 5715 N 542.463 1.3308 -0.844243 0
M  V30 5716 C 543.711 1.97215 -0.441676 0
M  V30 5717 C 544.032 1.67185 1.0037 0
M  V30 5718 O 543.302 0.973588 1.69994 0
M  V30 5719 H 541.882 0.72959 -0.160335 0
M  V30 5720 H 544.544 1.62348 -1.07838 0
M  V30 5721 H 543.64 3.06698 -0.57815 0
M  V30 5722 N 543.941 0.601185 1.45683 0
M  V30 5723 C 545.189 0.0936957 2.01883 0
M  V30 5724 C 545.51 -1.2779 1.47291 0
M  V30 5725 O 544.78 -1.84279 0.664691 0
M  V30 5726 H 543.36 0.0316466 0.746329 0
M  V30 5727 H 546.022 0.781137 1.78562 0
M  V30 5728 H 545.118 0.0386297 3.12076 0
M  V30 5729 N 545.419 -1.53889 0.339982 0
M  V30 5730 C 546.382 -2.23547 -0.50592 0
M  V30 5731 C 547.382 -1.23445 -1.03044 0
M  V30 5732 O 548.572 -1.47909 -0.920253 0
M  V30 5733 C 545.704 -2.95234 -1.7044 0
M  V30 5734 H 546.897 -2.99722 0.103247 0
M  V30 5735 H 544.45 -1.56033 0.0912804 0
M  V30 5736 H 545.185 -2.23236 -2.35236 0
M  V30 5737 H 544.97 -3.68654 -1.33553 0
M  V30 5738 H 546.46 -3.48258 -2.30447 0
M  V30 5739 N 546.897 -0.0685191 -1.57451 0
M  V30 5740 C 548.145 0.60016 -1.92983 0
M  V30 5741 C 548.466 1.70348 -0.949028 0
M  V30 5742 O 547.736 1.959 0.00335647 0
M  V30 5743 H 546.316 0.224682 -0.712409 0
M  V30 5744 H 548.978 -0.125605 -1.94495 0
M  V30 5745 H 548.074 1.02759 -2.94698 0
M  V30 5746 N 548.375 1.56261 0.205012 0
M  V30 5747 C 549.623 1.79684 0.925096 0
M  V30 5748 C 549.944 0.63989 1.84202 0
M  V30 5749 O 549.214 -0.342345 1.92885 0
M  V30 5750 H 547.794 0.662774 0.344587 0
M  V30 5751 H 550.456 1.93734 0.212899 0
M  V30 5752 H 549.552 2.72467 1.52211 0
M  V30 5753 N 549.853 -0.472356 1.50355 0
M  V30 5754 C 551.101 -1.22211 1.60962 0
M  V30 5755 C 551.422 -1.92497 0.311439 0
M  V30 5756 O 550.692 -1.8405 -0.671002 0
M  V30 5757 H 549.272 -0.454092 0.593135 0
M  V30 5758 H 551.934 -0.544977 1.87126 0
M  V30 5759 H 551.03 -1.9707 2.42012 0
M  V30 5760 N 551.331 -1.39911 -0.725443 0
M  V30 5761 C 552.579 -1.37382 -1.48224 0
M  V30 5762 C 552.9 0.0264107 -1.94982 0
M  V30 5763 O 552.17 0.979408 -1.6966 0
M  V30 5764 H 550.75 -0.505596 -0.549892 0
M  V30 5765 H 553.412 -1.7487 -0.860608 0
M  V30 5766 H 552.508 -2.04254 -2.3598 0
M  V30 5767 N 552.809 0.956637 -1.25245 0
M  V30 5768 C 554.034 1.74104 -1.12706 0
M  V30 5769 C 554.459 1.85436 0.315429 0
M  V30 5770 O 553.817 1.33334 1.22848 0
M  V30 5771 C 553.865 3.1338 -1.78396 0
M  V30 5772 O 552.969 3.98485 -1.06224 0
M  V30 5773 H 552.31 0.53476 -0.393609 0
M  V30 5774 H 554.84 1.19924 -1.65769 0
M  V30 5775 H 554.85 3.6385 -1.846 0
M  V30 5776 H 553.525 3.04448 -2.83345 0
M  V30 5777 H 552.102 3.56952 -1.07886 0
M  V30 5778 N 554.287 1.06798 1.15896 0
M  V30 5779 C 555.217 0.704677 2.22613 0
M  V30 5780 C 556.198 -0.305252 1.67339 0
M  V30 5781 O 557.383 -0.179247 1.93371 0
M  V30 5782 C 554.513 0.0957325 3.47168 0
M  V30 5783 C 553.467 1.0322 4.15367 0
M  V30 5784 C 552.793 0.286293 5.33933 0
M  V30 5785 C 554.093 2.36341 4.65768 0
M  V30 5786 H 555.787 1.59688 2.53259 0
M  V30 5787 H 553.333 0.769257 1.21731 0
M  V30 5788 H 555.286 -0.170333 4.21056 0
M  V30 5789 H 554.01 -0.831516 3.15838 0
M  V30 5790 H 552.669 1.28309 3.43413 0
M  V30 5791 H 552.317 -0.644237 4.98857 0
M  V30 5792 H 552.017 0.910436 5.80504 0
M  V30 5793 H 553.541 0.0278938 6.10594 0
M  V30 5794 H 554.955 2.1561 5.31211 0
M  V30 5795 H 553.352 2.94299 5.2298 0
M  V30 5796 H 554.422 2.99047 3.81705 0
M  V30 5797 N 555.766 -1.3263 0.851289 0
M  V30 5798 C 557.014 -1.96978 0.452128 0
M  V30 5799 C 557.335 -1.67715 -0.99482 0
M  V30 5800 O 556.605 -0.98259 -1.69476 0
M  V30 5801 H 555.185 -0.72873 0.164202 0
M  V30 5802 H 557.847 -1.61774 1.08698 0
M  V30 5803 H 556.943 -3.06387 0.594407 0
M  V30 5804 N 557.244 -0.608902 -1.45362 0
M  V30 5805 C 558.491 -0.104607 -2.0223 0
M  V30 5806 C 558.819 1.26534 -1.47714 0
M  V30 5807 O 558.074 1.84855 -0.642435 0
M  V30 5808 C 558.373 -0.0167296 -3.57396 0
M  V30 5809 C 558.039 -1.32251 -4.31069 0
M  V30 5810 C 556.701 -1.68019 -4.50914 0
M  V30 5811 C 559.053 -2.18542 -4.73169 0
M  V30 5812 C 556.381 -2.89828 -5.10114 0
M  V30 5813 C 558.733 -3.39602 -5.33717 0
M  V30 5814 C 557.397 -3.7562 -5.51784 0
M  V30 5815 H 556.667 -0.0382785 -0.740011 0
M  V30 5816 H 559.314 -0.790782 -1.7441 0
M  V30 5817 H 557.619 0.752715 -3.84502 0
M  V30 5818 H 559.316 0.389634 -3.99103 0
M  V30 5819 H 555.906 -1.03411 -4.15938 0
M  V30 5820 H 560.09 -1.92208 -4.5757 0
M  V30 5821 H 555.346 -3.17839 -5.22291 0
M  V30 5822 H 559.52 -4.06716 -5.65292 0
M  V30 5823 H 557.147 -4.70093 -5.97425 0
M  V30 5824 N 558.722 1.53707 -0.348139 0
M  V30 5825 C 559.969 2.00988 0.246966 0
M  V30 5826 C 560.297 1.23586 1.50189 0
M  V30 5827 O 559.552 0.312817 1.93184 0
M  V30 5828 C 559.851 3.52292 0.602061 0
M  V30 5829 C 559.517 4.47453 -0.556509 0
M  V30 5830 C 558.179 4.73188 -0.874446 0
M  V30 5831 C 560.531 5.03851 -1.33354 0
M  V30 5832 C 557.859 5.52577 -1.9717 0
M  V30 5833 C 560.211 5.84437 -2.42108 0
M  V30 5834 C 558.875 6.08465 -2.74456 0
M  V30 5835 H 558.145 0.735469 0.0903712 0
M  V30 5836 H 560.792 1.85464 -0.477001 0
M  V30 5837 H 559.097 3.65672 1.40681 0
M  V30 5838 H 560.794 3.86337 1.07447 0
M  V30 5839 H 557.384 4.27558 -0.298652 0
M  V30 5840 H 561.568 4.8393 -1.10117 0
M  V30 5841 H 556.824 5.69418 -2.22651 0
M  V30 5842 H 560.998 6.27151 -3.02745 0
M  V30 5843 H 558.625 6.69768 -3.59604 0
M  V30 5844 N 560.2 0.0768682 1.57412 0
M  V30 5845 C 561.611 -0.455037 1.8107 0
M  V30 5846 C 561.962 -1.69323 0.991162 0
M  V30 5847 O 561.087 -2.15328 0.215156 0
M  V30 5848 C 561.682 -0.832316 3.28417 0
M  V30 5849 C 560.241 -1.30906 3.52903 0
M  V30 5850 C 559.388 -0.296714 2.75708 0
M  V30 5851 H 562.339 0.302514 1.5579 0
M  V30 5852 H 562.36 -1.69333 3.40744 0
M  V30 5853 H 561.872 0.0690532 3.88039 0
M  V30 5854 H 559.973 -2.22875 2.98592 0
M  V30 5855 H 560.086 -1.28348 4.61588 0
M  V30 5856 H 558.45 -0.775059 2.42621 0
M  V30 5857 H 559.233 0.597015 3.38069 0
M  V30 5858 N 561.678 -1.56367 -0.196722 0
M  V30 5859 C 562.903 -1.84991 -0.937714 0
M  V30 5860 C 563.328 -0.660244 -1.76132 0
M  V30 5861 O 562.686 0.390967 -1.77034 0
M  V30 5862 C 562.734 -3.11828 -1.81096 0
M  V30 5863 O 561.838 -2.92266 -2.90955 0
M  V30 5864 H 561.179 -0.609193 -0.264159 0
M  V30 5865 H 563.709 -2.03595 -0.202529 0
M  V30 5866 H 563.719 -3.42579 -2.21594 0
M  V30 5867 H 562.394 -3.98037 -1.2058 0
M  V30 5868 H 560.971 -2.72809 -2.54224 0
M  V30 5869 N 563.156 0.464375 -1.50603 0
M  V30 5870 C 564.381 1.24372 -1.65971 0
M  V30 5871 C 564.806 1.84901 -0.345453 0
M  V30 5872 O 564.164 1.67596 0.691457 0
M  V30 5873 C 564.212 2.32331 -2.7578 0
M  V30 5874 O 563.316 3.37146 -2.375 0
M  V30 5875 H 562.657 0.365604 -0.554283 0
M  V30 5876 H 565.187 0.55183 -1.97018 0
M  V30 5877 H 565.197 2.77539 -2.99059 0
M  V30 5878 H 563.872 1.87648 -3.71162 0
M  V30 5879 H 562.449 2.97602 -2.24694 0
M  V30 5880 N 564.634 1.40294 0.718013 0
M  V30 5881 C 565.564 1.43118 1.84498 0
M  V30 5882 C 566.545 0.292403 1.67568 0
M  V30 5883 O 567.73 0.500675 1.87635 0
M  V30 5884 C 564.86 1.29065 3.22427 0
M  V30 5885 C 563.814 2.40521 3.54025 0
M  V30 5886 C 563.14 2.11546 4.91073 0
M  V30 5887 C 564.44 3.82859 3.55269 0
M  V30 5888 H 566.134 2.37432 1.82391 0
M  V30 5889 H 563.68 1.14283 0.87609 0
M  V30 5890 H 565.633 1.29658 4.00957 0
M  V30 5891 H 564.357 0.312271 3.25104 0
M  V30 5892 H 563.016 2.39173 2.77834 0
M  V30 5893 H 562.664 1.12104 4.90348 0
M  V30 5894 H 562.364 2.86216 5.1318 0
M  V30 5895 H 563.888 2.13817 5.71939 0
M  V30 5896 H 565.302 3.86044 4.23843 0
M  V30 5897 H 563.699 4.57029 3.88902 0
M  V30 5898 H 564.769 4.12617 2.54706 0
M  V30 5899 N 566.112 -0.949982 1.2575 0
M  V30 5900 C 567.075 -2.02894 1.06615 0
M  V30 5901 C 568.075 -1.60791 0.0173905 0
M  V30 5902 O 569.265 -1.72249 0.260003 0
M  V30 5903 C 566.397 -3.35219 0.619751 0
M  V30 5904 H 567.59 -2.21302 2.02399 0
M  V30 5905 H 565.143 -1.12772 1.08223 0
M  V30 5906 H 565.878 -3.22508 -0.340486 0
M  V30 5907 H 565.663 -3.67129 1.37692 0
M  V30 5908 H 567.153 -4.14505 0.507443 0
M  V30 5909 N 567.59 -1.07411 -1.15328 0
M  V30 5910 C 568.82 -0.817595 -1.89734 0
M  V30 5911 C 569.228 0.63297 -1.78298 0
M  V30 5912 O 568.571 1.44594 -1.13306 0
M  V30 5913 C 568.633 -1.14748 -3.40695 0
M  V30 5914 C 568.297 -2.59876 -3.75917 0
M  V30 5915 C 569.294 -3.58122 -3.76888 0
M  V30 5916 C 566.979 -2.95469 -4.06206 0
M  V30 5917 C 568.973 -4.89996 -4.07655 0
M  V30 5918 C 566.66 -4.2754 -4.36638 0
M  V30 5919 C 567.658 -5.24614 -4.37344 0
M  V30 5920 O 567.346 -6.54312 -4.67045 0
M  V30 5921 H 567.078 -0.295175 -0.608151 0
M  V30 5922 H 569.632 -1.43409 -1.47048 0
M  V30 5923 H 567.862 -0.47395 -3.83785 0
M  V30 5924 H 569.551 -0.873397 -3.96392 0
M  V30 5925 H 570.317 -3.31966 -3.53587 0
M  V30 5926 H 566.196 -2.20558 -4.04815 0
M  V30 5927 H 569.74 -5.65759 -4.08121 0
M  V30 5928 H 565.637 -4.53449 -4.59407 0
M  V30 5929 H 566.405 -6.59473 -4.84807 0
M  V30 5930 N 569.068 1.32177 -0.85831 0
M  V30 5931 C 570.293 2.01847 -0.476718 0
M  V30 5932 C 570.718 1.64065 0.920021 0
M  V30 5933 O 570.076 0.843189 1.60499 0
M  V30 5934 C 570.124 3.55097 -0.627578 0
M  V30 5935 O 569.228 4.11012 0.338086 0
M  V30 5936 H 568.569 0.635907 -0.191099 0
M  V30 5937 H 571.099 1.68641 -1.15851 0
M  V30 5938 H 571.109 4.04718 -0.516476 0
M  V30 5939 H 569.784 3.81938 -1.64609 0
M  V30 5940 H 568.361 3.72451 0.182917 0
M  V30 5941 N 570.547 0.616602 1.45037 0
M  V30 5942 C 571.958 0.199359 1.85633 0
M  V30 5943 C 572.309 -1.24588 1.51566 0
M  V30 5944 O 571.434 -1.94594 0.94668 0
M  V30 5945 C 572.029 0.355033 3.36935 0
M  V30 5946 C 570.588 -0.00758748 3.76399 0
M  V30 5947 C 569.735 0.675256 2.68953 0
M  V30 5948 H 572.686 0.822708 1.3571 0
M  V30 5949 H 572.707 -0.410201 3.78282 0
M  V30 5950 H 572.219 1.40699 3.61698 0
M  V30 5951 H 570.32 -1.05837 3.57252 0
M  V30 5952 H 570.433 0.392346 4.77491 0
M  V30 5953 H 568.797 0.111992 2.54454 0
M  V30 5954 H 569.58 1.72952 2.96551 0
M  V30 5955 N 572.025 -1.5352 0.356285 0
M  V30 5956 C 573.255 -2.05236 -0.236983 0
M  V30 5957 C 573.663 -1.23016 -1.43749 0
M  V30 5958 O 573.006 -0.2615 -1.81829 0
M  V30 5959 C 573.068 -3.52549 -0.7035 0
M  V30 5960 C 572.732 -4.55425 0.379059 0
M  V30 5961 C 573.729 -5.0524 1.22592 0
M  V30 5962 C 571.414 -4.99425 0.536638 0
M  V30 5963 C 573.408 -5.97647 2.21578 0
M  V30 5964 C 571.095 -5.9164 1.52988 0
M  V30 5965 C 572.093 -6.4064 2.3679 0
M  V30 5966 O 571.781 -7.31039 3.34421 0
M  V30 5967 H 571.513 -0.674346 -0.047254 0
M  V30 5968 H 574.067 -1.98962 0.510238 0
M  V30 5969 H 572.297 -3.56331 -1.50217 0
M  V30 5970 H 573.986 -3.87171 -1.21873 0
M  V30 5971 H 574.752 -4.72002 1.11532 0
M  V30 5972 H 570.631 -4.60879 -0.105834 0
M  V30 5973 H 574.175 -6.35816 2.87025 0
M  V30 5974 H 570.072 -6.24293 1.64099 0
M  V30 5975 H 570.84 -7.49009 3.30041 0
M  V30 5976 N 573.503 -0.0852151 -1.57369 0
M  V30 5977 C 574.435 0.907099 -2.10486 0
M  V30 5978 C 575.448 1.25259 -1.03991 0
M  V30 5979 O 576.637 1.20743 -1.31467 0
M  V30 5980 C 573.737 2.21908 -2.56145 0
M  V30 5981 C 572.91 2.05042 -3.86363 0
M  V30 5982 C 571.969 3.19664 -4.17973 0
M  V30 5983 O 570.995 2.94062 -4.87356 0
M  V30 5984 N 572.197 4.45151 -3.72587 0
M  V30 5985 H 574.962 0.453505 -2.96249 0
M  V30 5986 H 572.523 0.100157 -1.6159 0
M  V30 5987 H 574.515 2.97519 -2.74343 0
M  V30 5988 H 573.085 2.58723 -1.75446 0
M  V30 5989 H 572.305 1.13819 -3.77411 0
M  V30 5990 H 573.593 1.91039 -4.71574 0
M  V30 5991 H 572.991 4.68834 -3.16561 0
M  V30 5992 H 571.548 5.17744 -3.9596 0
M  V30 5993 N 574.981 1.5647 0.188427 0
M  V30 5994 C 576.206 1.85486 0.927891 0
M  V30 5995 C 576.631 0.669575 1.75779 0
M  V30 5996 O 575.989 -0.381573 1.77239 0
M  V30 5997 C 576.037 3.12784 1.7944 0
M  V30 5998 O 575.141 2.93805 2.894 0
M  V30 5999 H 574.482 0.610585 0.260925 0
M  V30 6000 H 577.012 2.037 0.191729 0
M  V30 6001 H 577.022 3.43749 2.19774 0
M  V30 6002 H 575.697 3.98671 1.18468 0
M  V30 6003 H 574.274 2.74153 2.52774 0
M  V30 6004 N 576.459 -0.456382 1.50847 0
M  V30 6005 C 577.707 -1.20497 1.62249 0
M  V30 6006 C 578.028 -1.92156 0.331839 0
M  V30 6007 O 577.298 -1.84751 -0.651443 0
M  V30 6008 H 575.878 -0.447775 0.597918 0
M  V30 6009 H 578.54 -0.525099 1.87693 0
M  V30 6010 H 577.636 -1.94492 2.44089 0
M  V30 6011 N 577.937 -1.40673 -0.710563 0
M  V30 6012 C 578.9 -1.4108 -1.80635 0
M  V30 6013 C 579.9 -0.303783 -1.57904 0
M  V30 6014 O 581.09 -0.562937 -1.64853 0
M  V30 6015 C 578.222 -1.20748 -3.18799 0
M  V30 6016 H 579.415 -2.38612 -1.81671 0
M  V30 6017 H 576.968 -1.26595 -0.916704 0
M  V30 6018 H 577.703 -0.239964 -3.23411 0
M  V30 6019 H 577.488 -2.00941 -3.36698 0
M  V30 6020 H 578.978 -1.23833 -3.98817 0
M  V30 6021 N 579.415 0.9433 -1.26252 0
M  V30 6022 C 580.663 1.68592 -1.11451 0
M  V30 6023 C 580.984 1.91957 0.343123 0
M  V30 6024 O 580.254 1.51475 1.24226 0
M  V30 6025 H 578.834 0.624789 -0.409448 0
M  V30 6026 H 581.496 1.13351 -1.58548 0
M  V30 6027 H 580.592 2.66054 -1.63162 0
M  V30 6028 N 580.893 1.08022 1.14757 0
M  V30 6029 C 582.304 0.829144 1.67279 0
M  V30 6030 C 582.655 -0.644721 1.85305 0
M  V30 6031 O 581.78 -1.49838 1.56133 0
M  V30 6032 C 582.375 1.49855 3.03857 0
M  V30 6033 C 580.934 1.29482 3.53428 0
M  V30 6034 C 580.081 1.56386 2.28995 0
M  V30 6035 H 583.032 1.24134 0.988762 0
M  V30 6036 H 583.053 0.923572 3.69121 0
M  V30 6037 H 582.565 2.57123 2.90705 0
M  V30 6038 H 580.666 0.242669 3.71809 0
M  V30 6039 H 580.779 2.01974 4.34446 0
M  V30 6040 H 579.143 0.985217 2.34874 0
M  V30 6041 H 579.926 2.64851 2.18423 0
M  V30 6042 N 582.371 -1.3172 0.865308 0
M  V30 6043 C 583.304 -2.26687 0.262376 0
M  V30 6044 C 584.282 -1.50894 -0.605787 0
M  V30 6045 O 585.466 -1.79982 -0.56024 0
M  V30 6046 C 582.593 -3.3281 -0.628915 0
M  V30 6047 C 581.639 -4.26172 0.167278 0
M  V30 6048 S 582.472 -5.12797 1.54272 0
M  V30 6049 C 583.628 -6.22438 0.657427 0
M  V30 6050 H 583.861 -2.77478 1.0674 0
M  V30 6051 H 581.394 -1.39414 0.663555 0
M  V30 6052 H 583.352 -3.94426 -1.13747 0
M  V30 6053 H 582.013 -2.80782 -1.40785 0
M  V30 6054 H 581.206 -5.01392 -0.51203 0
M  V30 6055 H 580.808 -3.69029 0.607777 0
M  V30 6056 H 583.1 -6.77368 -0.133925 0
M  V30 6057 H 584.043 -6.9451 1.38061 0
M  V30 6058 H 584.451 -5.64043 0.227044 0
M  V30 6059 N 583.85 -0.624285 -1.44708 0
M  V30 6060 C 585.098 -0.125802 -2.01708 0
M  V30 6061 C 585.418 1.2543 -1.49306 0
M  V30 6062 O 584.689 1.83198 -0.693924 0
M  V30 6063 H 583.269 -0.0435161 -0.745731 0
M  V30 6064 H 585.931 -0.809446 -1.77296 0
M  V30 6065 H 585.027 -0.0882734 -3.11975 0
M  V30 6066 N 585.328 1.53329 -0.364422 0
M  V30 6067 C 586.568 2.0315 0.22572 0
M  V30 6068 C 586.932 1.24589 1.46087 0
M  V30 6069 O 588.133 1.64411 2.12656 0
M  V30 6070 C 586.404 3.53718 0.511663 0
M  V30 6071 S 587.963 4.25412 1.07564 0
M  V30 6072 H 584.781 0.70795 0.0657843 0
M  V30 6073 H 587.383 1.88811 -0.507019 0
M  V30 6074 H 586.087 4.08497 -0.394784 0
M  V30 6075 H 585.618 3.72217 1.27351 0
M  V30 6076 H 587.633 4.36486 2.35997 0
M  V30 6077 N 586.806 0.0935595 1.57322 0
M  V30 6078 C 588.036 -0.578095 1.98347 0
M  V30 6079 C 588.444 -1.62357 0.971441 0
M  V30 6080 O 587.787 -1.83639 -0.0473959 0
M  V30 6081 C 587.849 -1.28525 3.3574 0
M  V30 6082 C 587.513 -0.390714 4.55327 0
M  V30 6083 C 588.51 0.360522 5.18648 0
M  V30 6084 C 586.195 -0.309221 5.01347 0
M  V30 6085 C 588.189 1.18125 6.26359 0
M  V30 6086 C 585.876 0.515157 6.08925 0
M  V30 6087 C 586.874 1.25904 6.71295 0
M  V30 6088 O 586.562 2.06978 7.76798 0
M  V30 6089 H 586.294 -0.159767 0.656849 0
M  V30 6090 H 588.848 0.169058 2.04703 0
M  V30 6091 H 587.078 -2.07894 3.26063 0
M  V30 6092 H 588.767 -1.85128 3.61223 0
M  V30 6093 H 589.533 0.307285 4.84026 0
M  V30 6094 H 585.412 -0.877881 4.52564 0
M  V30 6095 H 588.956 1.76236 6.74971 0
M  V30 6096 H 584.853 0.56988 6.42979 0
M  V30 6097 H 585.621 1.99644 7.93779 0
M  V30 6098 N 588.284 -1.56567 -0.180126 0
M  V30 6099 C 589.695 -1.7126 -0.743422 0
M  V30 6100 C 590.046 -0.70263 -1.83187 0
M  V30 6101 O 589.171 0.137856 -2.1596 0
M  V30 6102 C 589.766 -3.10512 -1.35528 0
M  V30 6103 C 588.325 -3.26919 -1.8655 0
M  V30 6104 C 587.472 -2.67213 -0.741099 0
M  V30 6105 H 590.423 -1.58636 0.0451543 0
M  V30 6106 H 590.444 -3.08673 -2.22489 0
M  V30 6107 H 589.956 -3.83997 -0.562862 0
M  V30 6108 H 588.057 -2.58376 -2.68464 0
M  V30 6109 H 588.17 -4.34574 -2.01699 0
M  V30 6110 H 586.534 -2.26788 -1.15927 0
M  V30 6111 H 587.317 -3.43277 0.0393291 0
M  V30 6112 N 589.762 0.448376 -1.51087 0
M  V30 6113 C 591.01 1.19635 -1.62886 0
M  V30 6114 C 591.331 1.91977 -0.342024 0
M  V30 6115 O 590.601 1.85094 0.641636 0
M  V30 6116 H 589.181 0.444598 -0.600285 0
M  V30 6117 H 591.843 0.515138 -1.87969 0
M  V30 6118 H 590.939 1.93194 -2.45117 0
M  V30 6119 N 591.24 1.41047 0.703093 0
M  V30 6120 C 592.488 1.39723 1.4602 0
M  V30 6121 C 592.809 0.00461257 1.94999 0
M  V30 6122 O 592.079 -0.952292 1.71196 0
M  V30 6123 H 590.659 0.514281 0.541779 0
M  V30 6124 H 593.321 1.76217 0.832678 0
M  V30 6125 H 592.417 2.07982 2.32701 0
M  V30 6126 N 592.718 -0.936591 1.26751 0
M  V30 6127 C 593.966 -1.67998 1.12343 0
M  V30 6128 C 594.287 -1.92137 -0.332938 0
M  V30 6129 O 593.557 -1.52132 -1.23421 0
M  V30 6130 H 592.137 -0.622609 0.412756 0
M  V30 6131 H 594.799 -1.12509 1.59147 0
M  V30 6132 H 593.895 -2.65185 1.64571 0
M  V30 6133 N 594.196 -1.08629 -1.14182 0
M  V30 6134 C 595.444 -0.815731 -1.84906 0
M  V30 6135 C 595.765 0.660441 -1.83475 0
M  V30 6136 O 595.035 1.47888 -1.28476 0
M  V30 6137 H 593.615 -0.298773 -0.684648 0
M  V30 6138 H 596.277 -1.37274 -1.38354 0
M  V30 6139 H 595.373 -1.16193 -2.89665 0
M  V30 6140 N 595.674 1.31259 -0.872281 0
M  V30 6141 C 596.922 1.96233 -0.483409 0
M  V30 6142 C 597.243 1.69276 0.968012 0
M  V30 6143 O 596.513 1.00943 1.67891 0
M  V30 6144 H 595.093 0.726025 -0.175774 0
M  V30 6145 H 597.755 1.60024 -1.11258 0
M  V30 6146 H 596.851 3.05403 -0.643075 0
M  V30 6147 N 597.152 0.631951 1.44375 0
M  V30 6148 C 598.115 -0.0628142 2.29114 0
M  V30 6149 C 599.115 -0.771494 1.41084 0
M  V30 6150 O 600.305 -0.615959 1.62947 0
M  V30 6151 C 597.437 -1.09953 3.22681 0
M  V30 6152 H 598.63 0.682509 2.92031 0
M  V30 6153 H 596.183 0.392128 1.51301 0
M  V30 6154 H 596.918 -1.87481 2.64616 0
M  V30 6155 H 596.703 -0.595286 3.87555 0
M  V30 6156 H 598.193 -1.58538 3.86336 0
M  V30 6157 N 598.631 -1.53133 0.372548 0
M  V30 6158 C 599.563 -2.23557 -0.505444 0
M  V30 6159 C 600.576 -1.25211 -1.04049 0
M  V30 6160 O 601.765 -1.51391 -0.945675 0
M  V30 6161 C 598.865 -2.92516 -1.71136 0
M  V30 6162 C 598.038 -4.17428 -1.30661 0
M  V30 6163 C 597.097 -4.69535 -2.37536 0
M  V30 6164 O 596.123 -5.33042 -1.99637 0
M  V30 6165 N 597.325 -4.47947 -3.6922 0
M  V30 6166 H 600.09 -2.9954 0.0978259 0
M  V30 6167 H 597.651 -1.60684 0.198068 0
M  V30 6168 H 599.643 -3.24281 -2.42124 0
M  V30 6169 H 598.213 -2.19944 -2.22134 0
M  V30 6170 H 597.433 -3.91888 -0.426292 0
M  V30 6171 H 598.721 -4.98622 -1.01259 0
M  V30 6172 H 598.119 -3.97219 -4.02783 0
M  V30 6173 H 596.676 -4.84245 -4.36292 0
M  V30 6174 N 600.109 -0.101901 -1.5727 0
M  V30 6175 C 601.042 0.891377 -2.10071 0
M  V30 6176 C 602.02 1.27197 -1.01291 0
M  V30 6177 O 603.204 1.37602 -1.28833 0
M  V30 6178 C 600.331 2.19049 -2.58331 0
M  V30 6179 C 599.377 1.95925 -3.78834 0
M  V30 6180 S 600.21 1.19106 -5.22086 0
M  V30 6181 C 601.366 2.50234 -5.73702 0
M  V30 6182 H 601.599 0.442212 -2.93993 0
M  V30 6183 H 599.132 0.111529 -1.53997 0
M  V30 6184 H 601.09 2.937 -2.86793 0
M  V30 6185 H 599.751 2.61086 -1.74622 0
M  V30 6186 H 598.944 2.92143 -4.10693 0
M  V30 6187 H 598.546 1.29401 -3.50901 0
M  V30 6188 H 600.838 3.46173 -5.82384 0
M  V30 6189 H 601.781 2.22944 -6.72088 0
M  V30 6190 H 602.189 2.58818 -5.01671 0
M  V30 6191 N 601.587 1.56661 0.17182 0
M  V30 6192 C 602.55 1.9549 1.19651 0
M  V30 6193 C 603.55 0.838501 1.37207 0
M  V30 6194 O 604.74 1.10556 1.34622 0
M  V30 6195 C 601.872 2.24927 2.56166 0
M  V30 6196 H 603.065 2.87184 0.864007 0
M  V30 6197 H 600.618 1.50711 0.41425 0
M  V30 6198 H 601.353 1.35944 2.94431 0
M  V30 6199 H 601.138 3.06301 2.4479 0
M  V30 6200 H 602.628 2.55891 3.30014 0
M  V30 6201 N 603.065 -0.440357 1.51323 0
M  V30 6202 C 604.028 -1.51679 1.71832 0
M  V30 6203 C 605.028 -1.49648 0.588386 0
M  V30 6204 O 606.218 -1.51724 0.855891 0
M  V30 6205 C 603.35 -2.91228 1.77199 0
M  V30 6206 H 604.543 -1.34799 2.67898 0
M  V30 6207 H 602.096 -0.66883 1.41267 0
M  V30 6208 H 602.831 -3.13516 0.829363 0
M  V30 6209 H 602.616 -2.94107 2.59314 0
M  V30 6210 H 604.106 -3.69321 1.94915 0
M  V30 6211 N 604.543 -1.41418 -0.695603 0
M  V30 6212 C 605.771 -1.4413 -1.48439 0
M  V30 6213 C 606.186 -0.0465698 -1.88743 0
M  V30 6214 O 605.543 0.934117 -1.56782 0
M  V30 6215 C 605.594 -2.34998 -2.74696 0
M  V30 6216 O 605.315 -3.69043 -2.36091 0
M  V30 6217 C 606.816 -2.46513 -3.68438 0
M  V30 6218 H 604.036 -0.490905 -0.457442 0
M  V30 6219 H 606.58 -1.85702 -0.856454 0
M  V30 6220 H 604.735 -1.96735 -3.33728 0
M  V30 6221 H 605.149 -4.17505 -3.17474 0
M  V30 6222 H 606.623 -3.1426 -4.53811 0
M  V30 6223 H 607.1 -1.49638 -4.12922 0
M  V30 6224 H 607.706 -2.85412 -3.1531 0
M  V30 6225 N 606.021 0.929856 -1.27246 0
M  V30 6226 C 607.267 1.6798 -1.13625 0
M  V30 6227 C 607.6 1.91586 0.317589 0
M  V30 6228 O 606.875 1.50467 1.23247 0
M  V30 6229 C 607.158 3.04766 -1.91806 0
M  V30 6230 C 607.011 2.88415 -3.45162 0
M  V30 6231 C 608.33 4.05063 -1.72082 0
M  V30 6232 H 605.449 0.609632 -0.414147 0
M  V30 6233 H 608.091 1.0792 -1.56376 0
M  V30 6234 H 606.241 3.56034 -1.55474 0
M  V30 6235 H 607.913 2.44282 -3.91311 0
M  V30 6236 H 606.156 2.23802 -3.71611 0
M  V30 6237 H 606.827 3.85482 -3.95105 0
M  V30 6238 H 609.303 3.62798 -2.03757 0
M  V30 6239 H 608.179 4.98765 -2.29182 0
M  V30 6240 H 608.44 4.37021 -0.668206 0
M  V30 6241 N 607.499 1.09233 1.13605 0
M  V30 6242 C 608.91 0.846839 1.6639 0
M  V30 6243 C 609.261 -0.625031 1.85978 0
M  V30 6244 O 608.386 -1.48173 1.57714 0
M  V30 6245 C 608.981 1.5307 3.0225 0
M  V30 6246 C 607.54 1.33223 3.52035 0
M  V30 6247 C 606.687 1.58806 2.27323 0
M  V30 6248 H 609.638 1.25175 0.975541 0
M  V30 6249 H 609.659 0.96267 3.68121 0
M  V30 6250 H 609.171 2.60192 2.87961 0
M  V30 6251 H 607.272 0.282091 3.71531 0
M  V30 6252 H 607.385 2.0657 4.32279 0
M  V30 6253 H 605.749 1.01007 2.33815 0
M  V30 6254 H 606.532 2.67153 2.15602 0
M  V30 6255 N 608.977 -1.30795 0.87923 0
M  V30 6256 C 610.202 -2.01063 0.508769 0
M  V30 6257 C 610.627 -1.65508 -0.893803 0
M  V30 6258 O 609.985 -0.868616 -1.59138 0
M  V30 6259 C 610.033 -3.54054 0.683991 0
M  V30 6260 O 609.137 -4.11498 -0.272654 0
M  V30 6261 H 608.478 -0.632786 0.201191 0
M  V30 6262 H 611.008 -1.66776 1.18519 0
M  V30 6263 H 611.018 -4.03845 0.580798 0
M  V30 6264 H 609.693 -3.79271 1.70665 0
M  V30 6265 H 608.27 -3.72695 -0.12364 0
M  V30 6266 N 610.455 -0.639598 -1.44038 0
M  V30 6267 C 611.871 -0.305953 -1.5664 0
M  V30 6268 C 612.071 1.19055 -1.62567 0
M  V30 6269 O 611.127 1.97492 -1.57331 0
M  V30 6270 C 612.44 -1.00533 -2.83397 0
M  V30 6271 C 613.988 -0.984278 -2.97121 0
M  V30 6272 C 614.463 -1.66428 -4.26691 0
M  V30 6273 N 615.954 -1.63127 -4.33525 0
M  V30 6274 C 616.689 -2.12629 -5.32519 0
M  V30 6275 N 616.185 -2.70359 -6.3787 0
M  V30 6276 N 617.978 -2.03208 -5.24083 0
M  V30 6277 H 610.129 -1.6109 -1.38434 0
M  V30 6278 H 612.392 -0.676672 -0.663942 0
M  V30 6279 H 612.098 -2.06034 -2.85032 0
M  V30 6280 H 611.972 -0.548362 -3.73193 0
M  V30 6281 H 614.359 0.0622792 -2.95034 0
M  V30 6282 H 614.44 -1.47981 -2.08651 0
M  V30 6283 H 614.084 -2.71034 -4.29538 0
M  V30 6284 H 614.014 -1.14351 -5.14034 0
M  V30 6285 H 616.505 -1.20987 -3.58009 0
M  V30 6286 H 616.818 -3.05842 -7.09704 0
M  V30 6287 H 615.163 -2.74414 -6.38531 0
M  V30 6288 H 618.354 -1.57823 -4.40692 0
M  V30 6289 H 618.527 -2.42097 -6.01077 0
M  V30 6290 N 611.933 1.52934 -0.380664 0
M  V30 6291 C 613.21 1.93845 0.261417 0
M  V30 6292 C 613.59 1.31544 1.65104 0
M  V30 6293 O 612.938 0.480234 2.23397 0
M  V30 6294 C 613.148 3.47739 0.296466 0
M  V30 6295 C 614.496 4.21284 0.529578 0
M  V30 6296 O 615.52 3.54199 0.377041 0
M  V30 6297 O 614.379 5.40195 0.827753 0
M  V30 6298 H 611.473 0.811318 0.160285 0
M  V30 6299 H 614.019 1.64042 -0.434544 0
M  V30 6300 H 612.791 3.85395 -0.67724 0
M  V30 6301 H 612.414 3.8382 1.0377 0
M  V30 6302 N 613.412 0.11024 1.57214 0
M  V30 6303 C 614.637 -0.561179 1.99664 0
M  V30 6304 C 615.062 -1.59985 0.989266 0
M  V30 6305 O 614.42 -1.81255 -0.0402399 0
M  V30 6306 C 614.468 -1.17189 3.41027 0
M  V30 6307 O 613.572 -2.28755 3.4314 0
M  V30 6308 H 612.913 -0.14101 0.648855 0
M  V30 6309 H 615.443 0.196128 2.03658 0
M  V30 6310 H 615.453 -1.50954 3.79047 0
M  V30 6311 H 614.128 -0.411041 4.13864 0
M  V30 6312 H 612.705 -1.96495 3.16929 0
M  V30 6313 N 614.89 -1.56749 -0.16351 0
M  V30 6314 C 616.138 -1.82074 -0.87713 0
M  V30 6315 C 616.459 -0.688503 -1.82441 0
M  V30 6316 O 615.729 0.291085 -1.93725 0
M  V30 6317 H 614.309 -0.671677 -0.326893 0
M  V30 6318 H 616.971 -1.9423 -0.161459 0
M  V30 6319 H 616.067 -2.76407 -1.44934 0
M  V30 6320 N 616.368 0.432326 -1.51554 0
M  V30 6321 C 617.278 1.55023 -1.76082 0
M  V30 6322 C 618.294 1.61593 -0.645265 0
M  V30 6323 O 619.47 1.78742 -0.928086 0
M  V30 6324 C 616.535 2.90964 -1.88523 0
M  V30 6325 C 615.596 2.9447 -3.12388 0
M  V30 6326 C 614.829 4.23926 -3.24225 0
M  V30 6327 O 615.052 5.16576 -2.4188 0
M  V30 6328 O 613.986 4.33818 -4.17235 0
M  V30 6329 H 617.812 1.37238 -2.70923 0
M  V30 6330 H 615.397 0.615845 -1.36117 0
M  V30 6331 H 617.279 3.71633 -1.98662 0
M  V30 6332 H 615.954 3.08865 -0.9687 0
M  V30 6333 H 614.861 2.12737 -3.07723 0
M  V30 6334 H 616.194 2.81514 -4.03746 0
M  V30 6335 N 617.846 1.41785 0.688094 0
M  V30 6336 C 618.756 1.46596 1.83158 0
M  V30 6337 C 619.772 0.355862 1.70322 0
M  V30 6338 O 620.948 0.604737 1.92106 0
M  V30 6339 C 618.013 1.35322 3.192 0
M  V30 6340 C 617.074 2.56711 3.4409 0
M  V30 6341 C 616.307 2.45965 4.73642 0
M  V30 6342 O 616.53 1.48827 5.50642 0
M  V30 6343 O 615.464 3.35859 4.99482 0
M  V30 6344 H 619.29 2.43083 1.82056 0
M  V30 6345 H 616.875 1.23404 0.842126 0
M  V30 6346 H 618.757 1.31347 4.00407 0
M  V30 6347 H 617.432 0.419536 3.2097 0
M  V30 6348 H 616.339 2.66262 2.62784 0
M  V30 6349 H 617.672 3.48933 3.47141 0
M  V30 6350 N 619.324 -0.923095 1.27737 0
M  V30 6351 C 620.287 -2.00587 1.10894 0
M  V30 6352 C 621.287 -1.60718 0.0514927 0
M  V30 6353 O 622.477 -1.71658 0.296481 0
M  V30 6354 C 619.609 -3.33829 0.690717 0
M  V30 6355 H 620.802 -2.16959 2.07048 0
M  V30 6356 H 618.355 -1.10451 1.1059 0
M  V30 6357 H 619.09 -3.23157 -0.272 0
M  V30 6358 H 618.875 -3.64125 1.45448 0
M  V30 6359 H 620.365 -4.13336 0.595252 0
M  V30 6360 N 620.802 -1.09834 -1.13024 0
M  V30 6361 C 621.765 -0.745058 -2.16752 0
M  V30 6362 C 622.765 0.227435 -1.59183 0
M  V30 6363 O 623.955 0.0050786 -1.74199 0
M  V30 6364 C 621.087 -0.102543 -3.40746 0
M  V30 6365 H 622.28 -1.66375 -2.49518 0
M  V30 6366 H 619.833 -0.898061 -1.27924 0
M  V30 6367 H 620.568 0.827177 -3.13573 0
M  V30 6368 H 620.353 -0.80235 -3.83803 0
M  V30 6369 H 621.843 0.129082 -4.174 0
M  V30 6370 N 622.28 1.30327 -0.886154 0
M  V30 6371 C 623.19 2.31854 -0.357866 0
M  V30 6372 C 624.206 1.65392 0.540502 0
M  V30 6373 O 625.382 1.96683 0.433339 0
M  V30 6374 C 622.447 3.44171 0.417999 0
M  V30 6375 C 621.508 4.26257 -0.510263 0
M  V30 6376 C 620.741 5.3321 0.228669 0
M  V30 6377 O 620.964 5.51542 1.45458 0
M  V30 6378 O 619.898 6.0042 -0.421832 0
M  V30 6379 H 623.724 2.78995 -1.19982 0
M  V30 6380 H 621.309 1.34518 -0.650028 0
M  V30 6381 H 623.191 4.12588 0.857251 0
M  V30 6382 H 621.866 2.99164 1.23623 0
M  V30 6383 H 620.773 3.60533 -0.99835 0
M  V30 6384 H 622.106 4.74871 -1.29454 0
M  V30 6385 N 623.758 0.647228 1.43697 0
M  V30 6386 C 625.169 0.238689 1.85168 0
M  V30 6387 C 625.52 -1.21345 1.54175 0
M  V30 6388 O 624.645 -1.92542 0.987743 0
M  V30 6389 C 625.24 0.426422 3.36106 0
M  V30 6390 C 623.799 0.0722541 3.76331 0
M  V30 6391 C 622.946 0.732153 2.6746 0
M  V30 6392 H 625.897 0.851309 1.33934 0
M  V30 6393 H 625.918 -0.32987 3.79067 0
M  V30 6394 H 625.43 1.48339 3.58632 0
M  V30 6395 H 623.531 -0.982355 3.59417 0
M  V30 6396 H 623.644 0.493541 4.76551 0
M  V30 6397 H 622.008 0.16594 2.54159 0
M  V30 6398 H 622.791 1.79204 2.92816 0
M  V30 6399 N 625.236 -1.5273 0.388769 0
M  V30 6400 C 626.461 -2.0647 -0.19621 0
M  V30 6401 C 626.886 -1.25865 -1.39784 0
M  V30 6402 O 626.244 -0.283562 -1.79069 0
M  V30 6403 C 626.292 -3.56456 -0.5451 0
M  V30 6404 O 625.396 -3.78426 -1.63912 0
M  V30 6405 H 624.737 -0.663599 -0.023067 0
M  V30 6406 H 627.267 -1.96898 0.556084 0
M  V30 6407 H 627.277 -3.99888 -0.809557 0
M  V30 6408 H 625.952 -4.14561 0.333417 0
M  V30 6409 H 624.529 -3.46884 -1.36842 0
M  V30 6410 N 626.714 -0.118576 -1.57153 0
M  V30 6411 C 627.677 0.817464 -2.14127 0
M  V30 6412 C 628.677 1.1949 -1.07604 0
M  V30 6413 O 629.867 1.12048 -1.33382 0
M  V30 6414 C 626.999 2.10541 -2.68115 0
M  V30 6415 H 628.192 0.322339 -2.98163 0
M  V30 6416 H 625.745 0.130655 -1.55753 0
M  V30 6417 H 626.48 2.64485 -1.87665 0
M  V30 6418 H 626.265 1.84425 -3.4602 0
M  V30 6419 H 627.755 2.77453 -3.12105 0
M  V30 6420 N 628.193 1.56834 0.155195 0
M  V30 6421 C 629.604 1.72421 0.716082 0
M  V30 6422 C 629.955 0.731685 1.82046 0
M  V30 6423 O 629.08 -0.103481 2.16152 0
M  V30 6424 C 629.675 3.12629 1.30571 0
M  V30 6425 C 628.234 3.29846 1.81325 0
M  V30 6426 C 627.381 2.68359 0.698494 0
M  V30 6427 H 630.332 1.58544 -0.0703861 0
M  V30 6428 H 630.353 3.12174 2.1755 0
M  V30 6429 H 629.865 3.84844 0.501701 0
M  V30 6430 H 627.966 2.62614 2.64319 0
M  V30 6431 H 628.079 4.37727 1.9476 0
M  V30 6432 H 626.443 2.28604 1.12305 0
M  V30 6433 H 627.226 3.43171 -0.0939366 0
M  V30 6434 N 629.671 -0.424282 1.51781 0
M  V30 6435 C 630.896 -1.19928 1.6921 0
M  V30 6436 C 631.321 -1.8392 0.394355 0
M  V30 6437 O 630.679 -1.69371 -0.646778 0
M  V30 6438 C 630.727 -2.24937 2.81843 0
M  V30 6439 O 629.831 -3.3073 2.46356 0
M  V30 6440 H 629.172 -0.35078 0.563781 0
M  V30 6441 H 631.702 -0.499401 1.98412 0
M  V30 6442 H 631.712 -2.69512 3.06312 0
M  V30 6443 H 630.387 -1.77742 3.76006 0
M  V30 6444 H 628.964 -2.9154 2.32505 0
M  V30 6445 N 631.149 -1.42148 -0.680565 0
M  V30 6446 C 632.565 -1.24947 -0.992995 0
M  V30 6447 C 632.765 -0.149527 -2.00944 0
M  V30 6448 O 631.821 0.481145 -2.47873 0
M  V30 6449 C 633.134 -2.60426 -1.5033 0
M  V30 6450 C 634.682 -2.67733 -1.62137 0
M  V30 6451 C 635.157 -4.03564 -2.16565 0
M  V30 6452 N 636.648 -4.05488 -2.23905 0
M  V30 6453 C 637.383 -5.07401 -2.67081 0
M  V30 6454 N 636.879 -6.19698 -3.09751 0
M  V30 6455 N 638.672 -4.94758 -2.66778 0
M  V30 6456 H 630.823 -2.12399 -0.0074788 0
M  V30 6457 H 633.086 -0.94571 -0.0658529 0
M  V30 6458 H 632.792 -3.41743 -0.830947 0
M  V30 6459 H 632.666 -2.83949 -2.483 0
M  V30 6460 H 635.053 -1.86765 -2.2848 0
M  V30 6461 H 635.134 -2.48004 -0.626713 0
M  V30 6462 H 634.778 -4.84987 -1.50833 0
M  V30 6463 H 634.708 -4.20641 -3.1681 0
M  V30 6464 H 637.199 -3.24415 -1.93812 0
M  V30 6465 H 637.512 -6.93318 -3.41365 0
M  V30 6466 H 635.857 -6.23212 -3.07623 0
M  V30 6467 H 639.048 -4.06105 -2.32801 0
M  V30 6468 H 639.221 -5.74317 -3.00107 0
M  V30 6469 N 632.627 0.916307 -1.28225 0
M  V30 6470 C 633.855 1.69901 -1.18073 0
M  V30 6471 C 634.27 1.86988 0.260968 0
M  V30 6472 O 633.627 1.39505 1.17663 0
M  V30 6473 C 633.678 3.09254 -1.87201 0
M  V30 6474 O 633.399 2.92959 -3.2574 0
M  V30 6475 C 634.9 4.0362 -1.83319 0
M  V30 6476 H 632.12 0.531181 -0.409985 0
M  V30 6477 H 634.664 1.14703 -1.69303 0
M  V30 6478 H 632.819 3.61277 -1.39848 0
M  V30 6479 H 633.233 3.81139 -3.60324 0
M  V30 6480 H 634.707 4.98873 -2.36282 0
M  V30 6481 H 635.184 4.3176 -0.805007 0
M  V30 6482 H 635.79 3.57524 -2.3034 0
M  V30 6483 N 634.105 1.10431 1.1244 0
M  V30 6484 C 635.516 0.864439 1.65482 0
M  V30 6485 C 635.867 -0.60527 1.8663 0
M  V30 6486 O 634.992 -1.46492 1.59276 0
M  V30 6487 C 635.587 1.56267 3.0061 0
M  V30 6488 C 634.146 1.3695 3.50602 0
M  V30 6489 C 633.293 1.61209 2.25626 0
M  V30 6490 H 636.244 1.26203 0.962209 0
M  V30 6491 H 636.265 1.00166 3.67079 0
M  V30 6492 H 635.777 2.63231 2.85186 0
M  V30 6493 H 633.878 0.321481 3.71211 0
M  V30 6494 H 633.991 2.11143 4.30064 0
M  V30 6495 H 632.355 1.03482 2.32731 0
M  V30 6496 H 633.138 2.69425 2.12756 0
M  V30 6497 N 635.583 -1.29855 0.893053 0
M  V30 6498 C 636.515 -2.26911 0.32311 0
M  V30 6499 C 637.528 -1.54039 -0.526858 0
M  V30 6500 O 638.717 -1.75132 -0.345095 0
M  V30 6501 C 635.817 -3.34266 -0.558509 0
M  V30 6502 C 634.99 -4.36601 0.264222 0
M  V30 6503 C 634.049 -5.23326 -0.549171 0
M  V30 6504 O 633.075 -5.69192 0.0309883 0
M  V30 6505 N 634.277 -5.50008 -1.85664 0
M  V30 6506 H 637.042 -2.76455 1.15726 0
M  V30 6507 H 634.603 -1.4312 0.756859 0
M  V30 6508 H 636.595 -3.89211 -1.1089 0
M  V30 6509 H 635.165 -2.8459 -1.29334 0
M  V30 6510 H 634.385 -3.81409 0.996046 0
M  V30 6511 H 635.673 -5.02019 0.827906 0
M  V30 6512 H 635.071 -5.14542 -2.35081 0
M  V30 6513 H 633.628 -6.07796 -2.35431 0
M  V30 6514 N 637.061 -0.65484 -1.43351 0
M  V30 6515 C 638.301 -0.172514 -2.03671 0
M  V30 6516 C 638.665 1.19154 -1.50553 0
M  V30 6517 O 639.866 1.76737 -2.02528 0
M  V30 6518 C 638.137 -0.183982 -3.56926 0
M  V30 6519 S 639.696 0.230262 -4.38195 0
M  V30 6520 H 636.514 -0.0727503 -0.707268 0
M  V30 6521 H 639.116 -0.863537 -1.75395 0
M  V30 6522 H 637.82 -1.17945 -3.93087 0
M  V30 6523 H 637.351 0.527527 -3.89847 0
M  V30 6524 H 639.366 1.46874 -4.73965 0
M  V30 6525 N 638.539 1.52521 -0.396863 0
M  V30 6526 C 639.449 2.30403 0.44178 0
M  V30 6527 C 640.465 1.37625 1.06468 0
M  V30 6528 O 641.641 1.70697 1.06886 0
M  V30 6529 C 638.706 3.1013 1.54986 0
M  V30 6530 C 637.767 4.18628 0.951279 0
M  V30 6531 C 637 4.94543 2.00655 0
M  V30 6532 O 637.223 4.70629 3.22281 0
M  V30 6533 O 636.157 5.797 1.61962 0
M  V30 6534 H 639.983 3.03087 -0.192892 0
M  V30 6535 H 637.568 1.48537 -0.16038 0
M  V30 6536 H 639.45 3.59816 2.19341 0
M  V30 6537 H 638.125 2.40251 2.16935 0
M  V30 6538 H 637.032 3.73119 0.270773 0
M  V30 6539 H 638.365 4.90763 0.375887 0
M  V30 6540 N 640.017 0.126909 1.57088 0
M  V30 6541 C 641.428 -0.397201 1.82426 0
M  V30 6542 C 641.779 -1.66084 1.04453 0
M  V30 6543 O 640.904 -2.14534 0.283552 0
M  V30 6544 C 641.499 -0.727411 3.30899 0
M  V30 6545 C 640.058 -1.19612 3.56889 0
M  V30 6546 C 639.205 -0.20885 2.76512 0
M  V30 6547 H 642.156 0.351924 1.54749 0
M  V30 6548 H 642.177 -1.58407 3.45959 0
M  V30 6549 H 641.689 0.19247 3.87622 0
M  V30 6550 H 639.79 -2.13263 3.05532 0
M  V30 6551 H 639.903 -1.13598 4.65438 0
M  V30 6552 H 638.267 -0.697479 2.44964 0
M  V30 6553 H 639.05 0.704267 3.35998 0
M  V30 6554 N 641.495 -1.56914 -0.146875 0
M  V30 6555 C 642.427 -1.94878 -1.20645 0
M  V30 6556 C 643.44 -0.844633 -1.39175 0
M  V30 6557 O 644.629 -1.12304 -1.38744 0
M  V30 6558 C 641.729 -2.20769 -2.57127 0
M  V30 6559 C 640.902 -3.52053 -2.59572 0
M  V30 6560 C 639.961 -3.66482 -3.77594 0
M  V30 6561 O 638.987 -4.38873 -3.62462 0
M  V30 6562 N 640.189 -3.03156 -4.95052 0
M  V30 6563 H 642.954 -2.86374 -0.883757 0
M  V30 6564 H 640.515 -1.58366 -0.336436 0
M  V30 6565 H 642.507 -2.27664 -3.34591 0
M  V30 6566 H 641.077 -1.35538 -2.81688 0
M  V30 6567 H 640.297 -3.56598 -1.68023 0
M  V30 6568 H 641.585 -4.38396 -2.58238 0
M  V30 6569 H 640.983 -2.44258 -5.10249 0
M  V30 6570 H 639.54 -3.15611 -5.70292 0
M  V30 6571 N 642.974 0.416227 -1.52004 0
M  V30 6572 C 643.937 1.48926 -1.74223 0
M  V30 6573 C 644.937 1.48693 -0.612119 0
M  V30 6574 O 646.127 1.50343 -0.879921 0
M  V30 6575 C 643.259 2.88372 -1.81809 0
M  V30 6576 H 644.452 1.3052 -2.70008 0
M  V30 6577 H 642.005 0.646271 -1.42313 0
M  V30 6578 H 642.74 3.12157 -0.879135 0
M  V30 6579 H 642.525 2.89944 -2.6396 0
M  V30 6580 H 644.015 3.66173 -2.00766 0
M  V30 6581 N 644.452 1.42507 0.673017 0
M  V30 6582 C 645.863 1.38347 1.25367 0
M  V30 6583 C 646.214 0.0776327 1.96046 0
M  V30 6584 O 645.339 -0.823571 2.00116 0
M  V30 6585 C 645.934 2.506 2.28002 0
M  V30 6586 C 644.493 2.49767 2.81591 0
M  V30 6587 C 643.64 2.293 1.55938 0
M  V30 6588 H 646.591 1.51695 0.466288 0
M  V30 6589 H 646.612 2.20953 3.09774 0
M  V30 6590 H 646.124 3.45627 1.76532 0
M  V30 6591 H 644.225 1.58563 3.37177 0
M  V30 6592 H 644.338 3.46867 3.30485 0
M  V30 6593 H 642.702 1.77594 1.82572 0
M  V30 6594 H 643.485 3.26385 1.06431 0
M  V30 6595 N 645.93 -0.909495 1.28709 0
M  V30 6596 C 646.84 -2.04558 1.14861 0
M  V30 6597 C 647.856 -1.73842 0.0741621 0
M  V30 6598 O 649.032 -1.99383 0.2843 0
M  V30 6599 C 646.097 -3.36957 0.816148 0
M  V30 6600 C 645.158 -3.81255 1.97341 0
M  V30 6601 C 644.391 -5.07335 1.65671 0
M  V30 6602 O 644.614 -5.67514 0.573053 0
M  V30 6603 O 643.548 -5.47449 2.50167 0
M  V30 6604 H 647.374 -2.19161 2.10243 0
M  V30 6605 H 644.959 -1.03159 1.08068 0
M  V30 6606 H 646.841 -4.16436 0.644873 0
M  V30 6607 H 645.516 -3.2352 -0.107983 0
M  V30 6608 H 644.423 -3.02584 2.19986 0
M  V30 6609 H 645.756 -3.99261 2.87839 0
M  V30 6610 N 647.408 -1.11026 -1.11852 0
M  V30 6611 C 648.341 -0.708501 -2.16923 0
M  V30 6612 C 649.319 0.293196 -1.59935 0
M  V30 6613 O 650.503 0.190641 -1.87533 0
M  V30 6614 C 647.63 -0.0463705 -3.38668 0
M  V30 6615 C 646.676 -1.01252 -4.14307 0
M  V30 6616 S 647.509 -2.53291 -4.71809 0
M  V30 6617 C 648.665 -1.88366 -5.96883 0
M  V30 6618 H 648.898 -1.59854 -2.50667 0
M  V30 6619 H 646.431 -0.927869 -1.2341 0
M  V30 6620 H 648.389 0.329314 -4.09177 0
M  V30 6621 H 647.05 0.820562 -3.03192 0
M  V30 6622 H 646.243 -0.496596 -5.01548 0
M  V30 6623 H 645.845 -1.33042 -3.49537 0
M  V30 6624 H 648.137 -1.21753 -6.6647 0
M  V30 6625 H 649.08 -2.73588 -6.53112 0
M  V30 6626 H 649.488 -1.34562 -5.48227 0
M  V30 6627 N 648.886 1.2938 -0.899927 0
M  V30 6628 C 649.816 2.30144 -0.39446 0
M  V30 6629 C 650.797 1.61611 0.530639 0
M  V30 6630 O 651.982 1.89119 0.441319 0
M  V30 6631 C 649.112 3.45229 0.37868 0
M  V30 6632 C 648.066 4.25564 -0.456012 0
M  V30 6633 C 647.392 5.32848 0.444637 0
M  V30 6634 C 648.692 4.93651 -1.70605 0
M  V30 6635 H 650.386 2.72673 -1.23653 0
M  V30 6636 H 647.932 1.31086 -0.596034 0
M  V30 6637 H 649.885 4.14797 0.743037 0
M  V30 6638 H 648.609 3.01545 1.25453 0
M  V30 6639 H 647.268 3.57704 -0.802704 0
M  V30 6640 H 646.916 4.85408 1.31863 0
M  V30 6641 H 646.616 5.87497 -0.110154 0
M  V30 6642 H 648.14 6.05268 0.805182 0
M  V30 6643 H 649.554 5.55655 -1.41141 0
M  V30 6644 H 647.951 5.58233 -2.20217 0
M  V30 6645 H 649.021 4.18926 -2.4419 0
M  V30 6646 N 650.364 0.662433 1.43002 0
M  V30 6647 C 651.296 -0.062326 2.29115 0
M  V30 6648 C 652.309 -0.777926 1.43011 0
M  V30 6649 O 653.498 -0.634146 1.66856 0
M  V30 6650 C 650.598 -1.11163 3.2015 0
M  V30 6651 C 649.771 -0.472327 4.34842 0
M  V30 6652 C 648.83 -1.41974 5.06685 0
M  V30 6653 O 647.856 -0.924795 5.61637 0
M  V30 6654 N 649.058 -2.75345 5.11043 0
M  V30 6655 H 651.823 0.676838 2.91957 0
M  V30 6656 H 649.384 0.505907 1.53793 0
M  V30 6657 H 651.376 -1.74643 3.65078 0
M  V30 6658 H 649.946 -1.75266 2.58845 0
M  V30 6659 H 649.166 0.341751 3.92716 0
M  V30 6660 H 650.454 -0.0264381 5.08793 0
M  V30 6661 H 649.852 -3.18108 4.67786 0
M  V30 6662 H 648.409 -3.34105 5.59658 0
M  V30 6663 N 651.842 -1.52309 0.404946 0
M  V30 6664 C 653.258 -1.59503 0.0556255 0
M  V30 6665 C 653.458 -1.41805 -1.43156 0
M  V30 6666 O 652.514 -1.2429 -2.19792 0
M  V30 6667 C 653.827 -2.95687 0.546801 0
M  V30 6668 C 655.375 -3.08909 0.504413 0
M  V30 6669 C 655.85 -4.47566 0.97203 0
M  V30 6670 N 657.341 -4.53795 0.928679 0
M  V30 6671 C 658.076 -5.59346 1.26174 0
M  V30 6672 N 657.572 -6.72469 1.66604 0
M  V30 6673 N 659.365 -5.49532 1.18198 0
M  V30 6674 H 651.516 -1.6206 1.37296 0
M  V30 6675 H 653.779 -0.762161 0.563751 0
M  V30 6676 H 653.485 -3.13905 1.58609 0
M  V30 6677 H 653.359 -3.77172 -0.0457905 0
M  V30 6678 H 655.746 -2.90378 -0.525819 0
M  V30 6679 H 655.827 -2.2934 1.13301 0
M  V30 6680 H 655.471 -4.6684 2.00057 0
M  V30 6681 H 655.401 -5.25625 0.320292 0
M  V30 6682 H 657.892 -3.72588 0.631369 0
M  V30 6683 H 658.205 -7.48993 1.9034 0
M  V30 6684 H 656.55 -6.73761 1.70504 0
M  V30 6685 H 659.741 -4.60038 0.865011 0
M  V30 6686 H 659.914 -6.31687 1.44485 0
M  V30 6687 N 653.32 -0.135238 -1.57019 0
M  V30 6688 C 654.283 0.794707 -2.14981 0
M  V30 6689 C 655.283 1.18342 -1.08866 0
M  V30 6690 O 656.473 1.10627 -1.34563 0
M  V30 6691 C 653.605 2.07685 -2.70333 0
M  V30 6692 H 654.798 0.290696 -2.98488 0
M  V30 6693 H 652.351 0.114128 -1.55883 0
M  V30 6694 H 653.086 2.6248 -1.9046 0
M  V30 6695 H 652.871 1.80745 -3.47957 0
M  V30 6696 H 654.361 2.74127 -3.1503 0
M  V30 6697 N 654.798 1.5699 0.138552 0
M  V30 6698 C 656.214 1.51844 0.491472 0
M  V30 6699 C 656.414 0.845063 1.82923 0
M  V30 6700 O 655.47 0.419143 2.48997 0
M  V30 6701 C 656.783 2.96615 0.493987 0
M  V30 6702 C 658.331 3.076 0.578913 0
M  V30 6703 C 658.806 4.53893 0.612009 0
M  V30 6704 N 660.297 4.5827 0.673997 0
M  V30 6705 C 661.032 5.68852 0.720729 0
M  V30 6706 N 660.528 6.88982 0.726292 0
M  V30 6707 N 662.321 5.56908 0.762253 0
M  V30 6708 H 654.472 1.99158 -0.738228 0
M  V30 6709 H 656.735 0.908693 -0.270149 0
M  V30 6710 H 656.441 3.49172 -0.420933 0
M  V30 6711 H 656.315 3.53017 1.32887 0
M  V30 6712 H 658.702 2.55057 1.48425 0
M  V30 6713 H 658.783 2.54227 -0.283286 0
M  V30 6714 H 658.427 5.07076 -0.289208 0
M  V30 6715 H 658.357 5.05057 1.49082 0
M  V30 6716 H 660.848 3.71793 0.676654 0
M  V30 6717 H 661.161 7.69014 0.764032 0
M  V30 6718 H 659.506 6.91526 0.69403 0
M  V30 6719 H 662.697 4.61969 0.755135 0
M  V30 6720 H 662.87 6.43102 0.795207 0
M  V30 6721 N 656.276 -0.40816 1.52223 0
M  V30 6722 C 657.186 -1.52202 1.78526 0
M  V30 6723 C 658.202 -1.60546 0.670892 0
M  V30 6724 O 659.378 -1.77242 0.956404 0
M  V30 6725 C 656.443 -2.87928 1.93128 0
M  V30 6726 C 655.504 -2.89463 3.17033 0
M  V30 6727 C 654.737 -4.18715 3.30929 0
M  V30 6728 O 654.96 -5.12662 2.50067 0
M  V30 6729 O 653.894 -4.27125 4.24084 0
M  V30 6730 H 657.72 -1.32911 2.73072 0
M  V30 6731 H 655.305 -0.594112 1.37079 0
M  V30 6732 H 657.187 -3.68426 2.04549 0
M  V30 6733 H 655.862 -3.07285 1.01772 0
M  V30 6734 H 654.769 -2.07815 3.11069 0
M  V30 6735 H 656.102 -2.75055 4.08174 0
M  V30 6736 N 657.755 -1.42862 -0.66545 0
M  V30 6737 C 658.985 -1.47032 -1.45138 0
M  V30 6738 C 659.393 -0.0829977 -1.89018 0
M  V30 6739 O 658.736 0.914551 -1.59316 0
M  V30 6740 C 658.798 -2.34302 -2.72659 0
M  V30 6741 C 658.462 -3.82034 -2.50796 0
M  V30 6742 C 659.459 -4.73453 -2.14799 0
M  V30 6743 C 657.144 -4.26397 -2.655 0
M  V30 6744 C 659.138 -6.07228 -1.93785 0
M  V30 6745 C 656.825 -5.6023 -2.44103 0
M  V30 6746 C 657.823 -6.50462 -2.08299 0
M  V30 6747 O 657.511 -7.8182 -1.87116 0
M  V30 6748 H 657.243 -0.501969 -0.452772 0
M  V30 6749 H 659.797 -1.88137 -0.82423 0
M  V30 6750 H 658.027 -1.88063 -3.37889 0
M  V30 6751 H 659.716 -2.29818 -3.34572 0
M  V30 6752 H 660.482 -4.4046 -2.03026 0
M  V30 6753 H 656.361 -3.56448 -2.92345 0
M  V30 6754 H 659.905 -6.7762 -1.65763 0
M  V30 6755 H 655.802 -5.92793 -2.55475 0
M  V30 6756 H 656.57 -7.93274 -2.01639 0
M  V30 6757 N 659.233 0.902656 -1.29189 0
M  V30 6758 C 660.181 2.0278 -1.13943 0
M  V30 6759 C 661.175 1.69308 -0.055787 0
M  V30 6760 O 662.381 1.78707 -0.215371 0
M  V30 6761 H 658.756 0.664595 -0.351877 0
M  V30 6762 H 660.727 2.12778 -2.09208 0
M  V30 6763 C 659.476 3.37657 -0.82966 0
M  V30 6764 H 658.799 3.63913 -1.65551 0
M  V30 6765 H 660.239 4.17078 -0.762998 0
M  V30 6766 C 658.698 3.33648 0.466991 0
M  V30 6767 O 659.228 3.72886 1.49395 0
M  V30 6768 N 657.434 2.86745 0.471761 0
M  V30 6769 H 656.981 2.55009 -0.364406 0
M  V30 6770 H 656.939 2.84446 1.33933 0
M  V30 6771 N 660.711 1.11618 1.11262 0
M  V30 6772 C 661.674 0.779447 2.15539 0
M  V30 6773 C 662.674 -0.202081 1.59525 0
M  V30 6774 O 663.864 0.0226356 1.74185 0
M  V30 6775 C 660.996 0.15674 3.40539 0
M  V30 6776 H 662.189 1.70324 2.4684 0
M  V30 6777 H 659.742 0.918298 1.26479 0
M  V30 6778 H 660.477 -0.777186 3.1485 0
M  V30 6779 H 660.262 0.863308 3.82478 0
M  V30 6780 H 661.752 -0.062661 4.17553 0
M  V30 6781 N 662.189 -1.289 0.906776 0
M  V30 6782 C 663.605 -1.47733 0.603902 0
M  V30 6783 C 663.805 -1.82568 -0.852702 0
M  V30 6784 O 662.861 -1.92642 -1.63234 0
M  V30 6785 C 664.174 -2.58522 1.53581 0
M  V30 6786 C 665.722 -2.72394 1.54177 0
M  V30 6787 C 666.197 -3.86318 2.46013 0
M  V30 6788 N 667.688 -3.93661 2.441 0
M  V30 6789 C 668.423 -4.81177 3.11859 0
M  V30 6790 N 667.919 -5.73333 3.88923 0
M  V30 6791 N 669.712 -4.74728 3.00981 0
M  V30 6792 H 661.863 -1.04567 1.84877 0
M  V30 6793 H 664.126 -0.520118 0.792579 0
M  V30 6794 H 663.832 -2.39667 2.57396 0
M  V30 6795 H 663.706 -3.55475 1.26165 0
M  V30 6796 H 666.093 -2.90641 0.511034 0
M  V30 6797 H 666.174 -1.75993 1.85634 0
M  V30 6798 H 665.818 -3.68826 3.49185 0
M  V30 6799 H 665.748 -4.82102 2.11862 0
M  V30 6800 H 668.239 -3.27751 1.88115 0
M  V30 6801 H 668.552 -6.36923 4.37663 0
M  V30 6802 H 666.897 -5.73196 3.93029 0
M  V30 6803 H 670.088 -4.01722 2.40286 0
M  V30 6804 H 670.261 -5.42719 3.54062 0
M  V30 6805 N 663.667 -0.670007 -1.42649 0
M  V30 6806 C 664.597 -0.00258501 -2.335 0
M  V30 6807 C 665.578 0.794364 -1.50412 0
M  V30 6808 O 666.763 0.75248 -1.79029 0
M  V30 6809 C 663.893 0.952748 -3.33976 0
M  V30 6810 C 662.847 0.264733 -4.2718 0
M  V30 6811 C 662.173 1.33267 -5.17826 0
M  V30 6812 C 663.473 -0.853289 -5.15283 0
M  V30 6813 H 665.167 -0.761326 -2.89559 0
M  V30 6814 H 662.713 -0.367561 -1.3923 0
M  V30 6815 H 664.666 1.4287 -3.96442 0
M  V30 6816 H 663.39 1.74285 -2.7621 0
M  V30 6817 H 662.049 -0.190938 -3.66102 0
M  V30 6818 H 661.697 2.11464 -4.5639 0
M  V30 6819 H 661.397 0.877476 -5.81011 0
M  V30 6820 H 662.921 1.80965 -5.83167 0
M  V30 6821 H 664.335 -0.458763 -5.71462 0
M  V30 6822 H 662.732 -1.23398 -5.87276 0
M  V30 6823 H 663.802 -1.70412 -4.53969 0
M  V30 6824 N 665.145 1.52092 -0.413018 0
M  V30 6825 C 666.392 2.01855 0.161497 0
M  V30 6826 C 666.72 1.29845 1.44812 0
M  V30 6827 O 665.975 0.394471 1.91683 0
M  V30 6828 C 666.274 3.54529 0.4521 0
M  V30 6829 C 665.94 4.4469 -0.745788 0
M  V30 6830 C 664.602 4.69053 -1.07435 0
M  V30 6831 C 666.954 4.97742 -1.54604 0
M  V30 6832 C 664.282 5.43717 -2.20429 0
M  V30 6833 C 666.634 5.73642 -2.66678 0
M  V30 6834 C 665.298 5.96277 -3.00016 0
M  V30 6835 H 664.568 0.73864 0.0590961 0
M  V30 6836 H 667.215 1.83274 -0.555234 0
M  V30 6837 H 665.52 3.7131 1.25045 0
M  V30 6838 H 667.217 3.90546 0.909647 0
M  V30 6839 H 663.807 4.25907 -0.479725 0
M  V30 6840 H 667.991 4.78824 -1.30543 0
M  V30 6841 H 663.247 5.59462 -2.46602 0
M  V30 6842 H 667.421 6.13746 -3.29072 0
M  V30 6843 H 665.048 6.53913 -3.87688 0
M  V30 6844 N 666.623 0.143563 1.56945 0
M  V30 6845 C 667.871 -0.507402 1.95627 0
M  V30 6846 C 668.192 -1.65626 1.02922 0
M  V30 6847 O 667.462 -1.95693 0.0901136 0
M  V30 6848 H 666.042 -0.190436 0.722318 0
M  V30 6849 H 668.704 0.218257 1.93674 0
M  V30 6850 H 667.8 -0.885816 2.99265 0
M  V30 6851 N 668.101 -1.57061 -0.130224 0
M  V30 6852 C 669.031 -2.02552 -1.16168 0
M  V30 6853 C 670.012 -0.907971 -1.4384 0
M  V30 6854 O 671.197 -1.17693 -1.54473 0
M  V30 6855 C 668.327 -2.42035 -2.49071 0
M  V30 6856 C 667.281 -3.5713 -2.35886 0
M  V30 6857 C 666.607 -3.82478 -3.7365 0
M  V30 6858 C 667.907 -4.89236 -1.8288 0
M  V30 6859 H 669.601 -2.8897 -0.783359 0
M  V30 6860 H 667.147 -1.39021 -0.375376 0
M  V30 6861 H 669.1 -2.72462 -3.21469 0
M  V30 6862 H 667.824 -1.52573 -2.88771 0
M  V30 6863 H 666.483 -3.26895 -1.65938 0
M  V30 6864 H 666.131 -2.9024 -4.10816 0
M  V30 6865 H 665.831 -4.59944 -3.65685 0
M  V30 6866 H 667.355 -4.15347 -4.47571 0
M  V30 6867 H 668.769 -5.18272 -2.45085 0
M  V30 6868 H 667.166 -5.70624 -1.85763 0
M  V30 6869 H 668.236 -4.78494 -0.785571 0
M  V30 6870 N 669.579 0.400081 -1.52437 0
M  V30 6871 C 670.542 1.4707 -1.75793 0
M  V30 6872 C 671.542 1.48036 -0.627856 0
M  V30 6873 O 672.732 1.49401 -0.895817 0
M  V30 6874 C 669.864 2.86427 -1.84858 0
M  V30 6875 H 671.057 1.27649 -2.71377 0
M  V30 6876 H 668.61 0.631141 -1.42991 0
M  V30 6877 H 669.345 3.11207 -0.912194 0
M  V30 6878 H 669.13 2.87128 -2.6702 0
M  V30 6879 H 670.62 3.64023 -2.04638 0
M  V30 6880 N 671.057 1.43213 0.657864 0
M  V30 6881 C 671.989 1.43974 1.78337 0
M  V30 6882 C 673.002 0.336482 1.59285 0
M  V30 6883 O 674.191 0.600631 1.68091 0
M  V30 6884 C 671.291 1.23242 3.15697 0
M  V30 6885 C 670.464 2.46319 3.61449 0
M  V30 6886 C 669.523 2.2088 4.77597 0
M  V30 6887 O 668.549 2.942 4.87273 0
M  V30 6888 N 669.751 1.22251 5.67481 0
M  V30 6889 H 672.516 2.40993 1.78164 0
M  V30 6890 H 670.077 1.3831 0.841549 0
M  V30 6891 H 672.069 1.04113 3.91079 0
M  V30 6892 H 670.639 0.346849 3.1067 0
M  V30 6893 H 669.859 2.80904 2.76563 0
M  V30 6894 H 671.147 3.28239 3.88763 0
M  V30 6895 H 670.545 0.616433 5.62331 0
M  V30 6896 H 669.102 1.09107 6.42603 0
M  V30 6897 N 672.536 -0.895792 1.29666 0
M  V30 6898 C 673.952 -1.17726 1.07763 0
M  V30 6899 C 674.152 -2.00794 -0.168576 0
M  V30 6900 O 673.208 -2.37213 -0.865244 0
M  V30 6901 C 674.521 -1.89441 2.33522 0
M  V30 6902 C 676.069 -2.02251 2.3888 0
M  V30 6903 C 676.544 -2.77378 3.64452 0
M  V30 6904 N 678.035 -2.8493 3.65198 0
M  V30 6905 C 678.77 -3.43606 4.59045 0
M  V30 6906 N 678.266 -4.03417 5.63228 0
M  V30 6907 N 680.059 -3.41317 4.46608 0
M  V30 6908 H 672.21 -0.341652 2.09634 0
M  V30 6909 H 674.473 -0.213865 0.923561 0
M  V30 6910 H 674.179 -1.35842 3.24407 0
M  V30 6911 H 674.053 -2.89893 2.41334 0
M  V30 6912 H 676.44 -2.55025 1.4848 0
M  V30 6913 H 676.521 -1.0092 2.3505 0
M  V30 6914 H 676.165 -2.25279 4.55205 0
M  V30 6915 H 676.095 -3.79062 3.65541 0
M  V30 6916 H 678.586 -2.42453 2.89871 0
M  V30 6917 H 678.899 -4.46224 6.30955 0
M  V30 6918 H 677.244 -4.01868 5.67033 0
M  V30 6919 H 680.435 -2.93812 3.64407 0
M  V30 6920 H 680.608 -3.86751 5.1993 0
M  V30 6921 N 674.014 -1.12206 -1.10668 0
M  V30 6922 C 675.239 -0.898938 -1.86906 0
M  V30 6923 C 675.664 0.546346 -1.79991 0
M  V30 6924 O 675.022 1.38655 -1.1681 0
M  V30 6925 C 675.07 -1.37529 -3.33344 0
M  V30 6926 O 674.174 -0.55218 -4.08687 0
M  V30 6927 H 673.515 -0.323163 -0.580053 0
M  V30 6928 H 676.045 -1.49355 -1.39837 0
M  V30 6929 H 676.055 -1.3733 -3.84193 0
M  V30 6930 H 674.73 -2.42767 -3.37693 0
M  V30 6931 H 673.307 -0.620947 -3.67694 0
M  V30 6932 N 675.492 1.28418 -0.913599 0
M  V30 6933 C 676.455 2.25564 -0.406624 0
M  V30 6934 C 677.455 1.5387 0.466965 0
M  V30 6935 O 678.645 1.72094 0.270042 0
M  V30 6936 C 675.777 3.38339 0.417053 0
M  V30 6937 H 676.97 2.71926 -1.26477 0
M  V30 6938 H 674.523 1.40098 -0.692986 0
M  V30 6939 H 675.258 2.97339 1.29461 0
M  V30 6940 H 675.043 3.91542 -0.209102 0
M  V30 6941 H 676.533 4.10578 0.762602 0
M  V30 6942 N 676.97 0.677563 1.42291 0
M  V30 6943 C 678.386 0.347376 1.55774 0
M  V30 6944 C 678.586 -1.14703 1.65667 0
M  V30 6945 O 677.642 -1.93252 1.62512 0
M  V30 6946 C 678.955 1.08011 2.80631 0
M  V30 6947 C 680.503 1.06271 2.94407 0
M  V30 6948 C 680.978 1.77683 4.22129 0
M  V30 6949 N 682.469 1.74564 4.29047 0
M  V30 6950 C 683.204 2.26673 5.26694 0
M  V30 6951 N 682.7 2.87176 6.30477 0
M  V30 6952 N 684.493 2.17032 5.18511 0
M  V30 6953 H 676.644 1.64703 1.34114 0
M  V30 6954 H 678.907 0.694038 0.645768 0
M  V30 6955 H 678.613 2.13518 2.79469 0
M  V30 6956 H 678.487 0.647115 3.71608 0
M  V30 6957 H 680.874 0.0159658 2.95096 0
M  V30 6958 H 680.955 1.53461 2.04654 0
M  V30 6959 H 680.599 2.82327 4.22201 0
M  V30 6960 H 680.529 1.2794 5.10822 0
M  V30 6961 H 683.02 1.30436 3.54676 0
M  V30 6962 H 683.333 3.24551 7.01346 0
M  V30 6963 H 681.678 2.91247 6.31031 0
M  V30 6964 H 684.869 1.69451 4.36353 0
M  V30 6965 H 685.042 2.57948 5.94446 0
M  V30 6966 N 678.448 -1.51871 0.421078 0
M  V30 6967 C 679.411 -2.25914 -0.386712 0
M  V30 6968 C 680.411 -1.28733 -0.963555 0
M  V30 6969 O 681.601 -1.52579 -0.840556 0
M  V30 6970 C 678.733 -3.03853 -1.54551 0
M  V30 6971 H 679.926 -2.98754 0.261978 0
M  V30 6972 H 677.479 -1.5533 0.173862 0
M  V30 6973 H 678.214 -2.35392 -2.23072 0
M  V30 6974 H 677.999 -3.75215 -1.13824 0
M  V30 6975 H 679.489 -3.59984 -2.11663 0
M  V30 6976 N 679.926 -0.151884 -1.56866 0
M  V30 6977 C 680.856 0.781943 -2.20018 0
M  V30 6978 C 681.837 1.25347 -1.14987 0
M  V30 6979 O 683.022 1.31015 -1.43348 0
M  V30 6980 C 680.152 2.01928 -2.82564 0
M  V30 6981 C 679.106 1.68434 -3.93464 0
M  V30 6982 C 678.432 2.99472 -4.42968 0
M  V30 6983 C 679.732 0.927244 -5.14003 0
M  V30 6984 H 681.426 0.255607 -2.98307 0
M  V30 6985 H 678.972 0.121502 -1.43486 0
M  V30 6986 H 680.925 2.67741 -3.25411 0
M  V30 6987 H 679.649 2.56943 -2.01614 0
M  V30 6988 H 678.308 1.04998 -3.51242 0
M  V30 6989 H 677.956 3.52488 -3.58834 0
M  V30 6990 H 677.656 2.77823 -5.17772 0
M  V30 6991 H 679.18 3.66348 -4.88489 0
M  V30 6992 H 680.594 1.48756 -5.53665 0
M  V30 6993 H 678.991 0.810513 -5.94601 0
M  V30 6994 H 680.061 -0.0801163 -4.84834 0
M  V30 6995 N 681.404 1.57128 0.121893 0
M  V30 6996 C 682.334 2.03165 1.15092 0
M  V30 6997 C 683.315 0.915587 1.43356 0
M  V30 6998 O 684.5 1.1851 1.53847 0
M  V30 6999 C 681.63 2.43352 2.47784 0
M  V30 7000 C 680.584 3.58376 2.33989 0
M  V30 7001 C 679.91 3.84454 3.71617 0
M  V30 7002 C 681.21 4.90199 1.80283 0
M  V30 7003 H 682.904 2.89382 0.768023 0
M  V30 7004 H 680.45 1.39218 0.367998 0
M  V30 7005 H 682.403 2.74163 3.20019 0
M  V30 7006 H 681.127 1.54103 2.87958 0
M  V30 7007 H 679.786 3.2777 1.64202 0
M  V30 7008 H 679.434 2.92414 4.09271 0
M  V30 7009 H 679.134 4.61877 3.6324 0
M  V30 7010 H 680.658 4.17714 4.45362 0
M  V30 7011 H 682.072 5.19565 2.42333 0
M  V30 7012 H 680.469 5.71601 1.82735 0
M  V30 7013 H 681.539 4.78904 0.760184 0
M  V30 7014 N 682.882 -0.391992 1.52647 0
M  V30 7015 C 684.159 -1.15136 1.58123 0
M  V30 7016 C 684.539 -2.07786 0.372597 0
M  V30 7017 O 683.887 -2.19374 -0.639304 0
M  V30 7018 C 684.097 -1.91367 2.91856 0
M  V30 7019 C 685.445 -2.46833 3.45483 0
M  V30 7020 O 686.469 -2.01527 2.9371 0
M  V30 7021 O 685.328 -3.29587 4.3593 0
M  V30 7022 H 682.422 -0.526649 0.637629 0
M  V30 7023 H 684.968 -0.397386 1.64982 0
M  V30 7024 H 683.74 -1.23597 3.71268 0
M  V30 7025 H 683.363 -2.73732 2.88369 0
M  V30 7026 N 684.36 -1.4356 -0.65026 0
M  V30 7027 C 685.59 -1.48563 -1.4357 0
M  V30 7028 C 685.998 -0.103041 -1.88919 0
M  V30 7029 O 685.341 0.897602 -1.60277 0
M  V30 7030 C 685.403 -2.37181 -2.70158 0
M  V30 7031 C 685.067 -3.84673 -2.4673 0
M  V30 7032 C 686.064 -4.75704 -2.09765 0
M  V30 7033 C 683.749 -4.29189 -2.60963 0
M  V30 7034 C 685.743 -6.09249 -1.87334 0
M  V30 7035 C 683.43 -5.62787 -2.38147 0
M  V30 7036 C 684.428 -6.52634 -2.01389 0
M  V30 7037 O 684.116 -7.83761 -1.78813 0
M  V30 7038 H 683.848 -0.506743 -0.447423 0
M  V30 7039 H 686.402 -1.89001 -0.80423 0
M  V30 7040 H 684.632 -1.91636 -3.35876 0
M  V30 7041 H 686.321 -2.33354 -3.32116 0
M  V30 7042 H 687.087 -4.42589 -1.98343 0
M  V30 7043 H 682.966 -3.59529 -2.88548 0
M  V30 7044 H 686.51 -6.7934 -1.58567 0
M  V30 7045 H 682.407 -5.95469 -2.49173 0
M  V30 7046 H 683.175 -7.95368 -1.93214 0
M  V30 7047 N 685.838 0.888903 -1.30139 0
M  V30 7048 C 687.086 1.63713 -1.18501 0
M  V30 7049 C 687.407 1.9324 0.261399 0
M  V30 7050 O 686.677 1.56608 1.17689 0
M  V30 7051 H 685.257 0.606861 -0.435579 0
M  V30 7052 H 687.919 1.06525 -1.63213 0
M  V30 7053 H 687.015 2.58894 -1.743 0
M  V30 7054 N 687.317 1.12792 1.10072 0
M  V30 7055 C 688.563 0.886857 1.82381 0
M  V30 7056 C 688.896 -0.58576 1.85155 0
M  V30 7057 O 688.171 -1.43317 1.31493 0
M  V30 7058 C 688.454 1.46703 3.28862 0
M  V30 7059 C 688.307 3.00829 3.34398 0
M  V30 7060 C 689.626 1.12971 4.25353 0
M  V30 7061 H 686.745 0.32362 0.662148 0
M  V30 7062 H 689.387 1.39513 1.28982 0
M  V30 7063 H 687.537 1.03476 3.74466 0
M  V30 7064 H 689.209 3.52764 2.97247 0
M  V30 7065 H 687.452 3.36164 2.74183 0
M  V30 7066 H 688.123 3.36519 4.3756 0
M  V30 7067 H 690.599 1.50313 3.88001 0
M  V30 7068 H 689.475 1.56223 5.26199 0
M  V30 7069 H 689.736 0.0424452 4.4208 0
M  V30 7070 N 688.795 -1.27931 0.920396 0
M  V30 7071 C 690.023 -1.98805 0.573087 0
M  V30 7072 C 690.438 -1.68724 -0.847201 0
M  V30 7073 O 689.795 -0.943699 -1.56207 0
M  V30 7074 C 689.846 -3.52971 0.780633 0
M  V30 7075 O 689.567 -3.81994 2.14504 0
M  V30 7076 C 691.068 -4.411 0.44105 0
M  V30 7077 H 688.288 -0.634651 0.21785 0
M  V30 7078 H 690.832 -1.62965 1.23542 0
M  V30 7079 H 688.987 -3.87048 0.165204 0
M  V30 7080 H 689.401 -4.76609 2.18962 0
M  V30 7081 H 690.875 -5.48312 0.637006 0
M  V30 7082 H 691.352 -4.34758 -0.62306 0
M  V30 7083 H 691.958 -4.12532 1.0343 0
M  V30 7084 N 690.273 -0.685099 -1.4193 0
M  V30 7085 C 691.236 -0.0222632 -2.29189 0
M  V30 7086 C 692.236 0.7186 -1.4385 0
M  V30 7087 O 693.426 0.555058 -1.6512 0
M  V30 7088 C 690.558 0.979013 -3.2654 0
M  V30 7089 H 691.751 -0.790424 -2.89296 0
M  V30 7090 H 689.304 -0.448012 -1.49742 0
M  V30 7091 H 690.039 1.77531 -2.71392 0
M  V30 7092 H 689.824 0.451037 -3.89497 0
M  V30 7093 H 691.314 1.44091 -3.91954 0
M  V30 7094 N 691.751 1.51645 -0.429126 0
M  V30 7095 C 693.028 1.94579 0.199614 0
M  V30 7096 C 693.408 1.3673 1.60836 0
M  V30 7097 O 692.756 0.551062 2.21756 0
M  V30 7098 C 692.966 3.48506 0.185685 0
M  V30 7099 C 694.314 4.22756 0.395282 0
M  V30 7100 O 695.338 3.55219 0.264165 0
M  V30 7101 O 694.197 5.42555 0.655475 0
M  V30 7102 H 691.291 0.816007 0.134393 0
M  V30 7103 H 693.837 1.62577 -0.486513 0
M  V30 7104 H 692.609 3.83045 -0.799508 0
M  V30 7105 H 692.232 3.86927 0.91507 0
M  V30 7106 N 693.229 0.160201 1.56784 0
M  V30 7107 C 694.192 -0.760405 2.16219 0
M  V30 7108 C 695.192 -1.16595 1.10735 0
M  V30 7109 O 696.382 -1.08472 1.36306 0
M  V30 7110 C 693.514 -2.03358 2.73603 0
M  V30 7111 H 694.707 -0.243173 2.98912 0
M  V30 7112 H 692.26 -0.0893139 1.56045 0
M  V30 7113 H 692.995 -2.59416 1.94612 0
M  V30 7114 H 692.78 -1.75186 3.50788 0
M  V30 7115 H 694.27 -2.69081 3.19351 0
M  V30 7116 N 694.707 -1.5719 -0.113559 0
M  V30 7117 C 696.123 -1.52607 -0.467253 0
M  V30 7118 C 696.323 -0.874058 -1.81556 0
M  V30 7119 O 695.379 -0.458703 -2.48299 0
M  V30 7120 C 696.692 -2.97363 -0.446736 0
M  V30 7121 C 698.24 -3.08482 -0.529903 0
M  V30 7122 C 698.715 -4.54809 -0.539721 0
M  V30 7123 N 700.206 -4.59284 -0.601005 0
M  V30 7124 C 700.941 -5.69927 -0.630138 0
M  V30 7125 N 700.437 -6.90051 -0.616589 0
M  V30 7126 N 702.23 -5.5805 -0.673558 0
M  V30 7127 H 694.381 -1.97958 0.769819 0
M  V30 7128 H 696.644 -0.90428 0.284572 0
M  V30 7129 H 696.35 -3.48458 0.47643 0
M  V30 7130 H 696.224 -3.55086 -1.27254 0
M  V30 7131 H 698.611 -2.57386 -1.44349 0
M  V30 7132 H 698.692 -2.53744 0.323695 0
M  V30 7133 H 698.336 -5.06552 0.369843 0
M  V30 7134 H 698.266 -5.07364 -1.41028 0
M  V30 7135 H 700.757 -3.72822 -0.617419 0
M  V30 7136 H 701.07 -7.70132 -0.641592 0
M  V30 7137 H 699.415 -6.92543 -0.583927 0
M  V30 7138 H 702.606 -4.63112 -0.681544 0
M  V30 7139 H 702.779 -6.44286 -0.692794 0
M  V30 7140 N 696.185 0.383891 -1.52853 0
M  V30 7141 C 697.148 1.45197 -1.77343 0
M  V30 7142 C 698.148 1.47362 -0.643522 0
M  V30 7143 O 699.338 1.48443 -0.911613 0
M  V30 7144 C 696.47 2.8445 -1.87885 0
M  V30 7145 H 697.663 1.24764 -2.72716 0
M  V30 7146 H 695.216 0.615939 -1.43652 0
M  V30 7147 H 695.951 3.10222 -0.94515 0
M  V30 7148 H 695.736 2.8428 -2.70051 0
M  V30 7149 H 697.226 3.61832 -2.08488 0
M  V30 7150 N 697.663 1.43903 0.642637 0
M  V30 7151 C 698.593 1.52697 1.76652 0
M  V30 7152 C 699.574 0.380816 1.65782 0
M  V30 7153 O 700.759 0.599432 1.84717 0
M  V30 7154 C 697.889 1.45975 3.15133 0
M  V30 7155 C 696.843 2.58949 3.40778 0
M  V30 7156 C 696.169 2.37279 4.79169 0
M  V30 7157 C 697.469 4.01153 3.34475 0
M  V30 7158 H 699.163 2.46766 1.69549 0
M  V30 7159 H 696.709 1.18767 0.814279 0
M  V30 7160 H 698.662 1.5073 3.93521 0
M  V30 7161 H 697.386 0.484162 3.22991 0
M  V30 7162 H 696.045 2.53564 2.64765 0
M  V30 7163 H 695.693 1.37939 4.83717 0
M  V30 7164 H 695.393 3.13016 4.97287 0
M  V30 7165 H 696.917 2.43834 5.59801 0
M  V30 7166 H 698.331 4.07968 4.02784 0
M  V30 7167 H 696.728 4.77001 3.64129 0
M  V30 7168 H 697.798 4.25539 2.32475 0
M  V30 7169 N 699.141 -0.881989 1.30609 0
M  V30 7170 C 700.071 -2.00413 1.1982 0
M  V30 7171 C 701.052 -1.69871 0.0881538 0
M  V30 7172 O 702.237 -1.92304 0.2707 0
M  V30 7173 C 699.367 -3.35641 0.89233 0
M  V30 7174 C 698.321 -3.80451 1.96064 0
M  V30 7175 C 697.647 -5.13003 1.5077 0
M  V30 7176 C 698.947 -3.98855 3.37213 0
M  V30 7177 H 700.641 -2.09698 2.13699 0
M  V30 7178 H 698.187 -1.00754 1.02882 0
M  V30 7179 H 700.14 -4.13669 0.803497 0
M  V30 7180 H 698.864 -3.26497 -0.0821381 0
M  V30 7181 H 697.523 -3.04654 2.03916 0
M  V30 7182 H 697.171 -5.0029 0.521417 0
M  V30 7183 H 696.871 -5.43956 2.22229 0
M  V30 7184 H 698.395 -5.93554 1.43271 0
M  V30 7185 H 699.809 -4.67312 3.32103 0
M  V30 7186 H 698.206 -4.41188 4.06784 0
M  V30 7187 H 699.276 -3.02614 3.78883 0
M  V30 7188 N 700.619 -1.13374 -1.09472 0
M  V30 7189 C 701.582 -0.813639 -2.14272 0
M  V30 7190 C 702.582 0.176677 -1.59826 0
M  V30 7191 O 703.772 -0.0503441 -1.74127 0
M  V30 7192 C 700.904 -0.210897 -3.40247 0
M  V30 7193 H 702.097 -1.74229 -2.44099 0
M  V30 7194 H 699.65 -0.938304 -1.25002 0
M  V30 7195 H 700.385 0.726998 -3.16046 0
M  V30 7196 H 700.17 -0.924048 -3.81056 0
M  V30 7197 H 701.66 -0.00377603 -4.176 0
M  V30 7198 N 702.098 1.27442 -0.927168 0
M  V30 7199 C 703.346 1.94007 -0.566203 0
M  V30 7200 C 703.667 1.7323 0.895345 0
M  V30 7201 O 702.937 1.07973 1.63459 0
M  V30 7202 H 701.517 0.717917 -0.206409 0
M  V30 7203 H 704.179 1.55161 -1.17945 0
M  V30 7204 H 703.275 3.02401 -0.772028 0
M  V30 7205 N 703.576 0.692616 1.41565 0
M  V30 7206 C 704.508 -0.0137132 2.29196 0
M  V30 7207 C 705.521 -0.747417 1.44629 0
M  V30 7208 O 706.71 -0.598611 1.68163 0
M  V30 7209 C 703.81 -1.04347 3.22436 0
M  V30 7210 C 702.983 -0.379985 4.35746 0
M  V30 7211 C 702.042 -1.31195 5.09583 0
M  V30 7212 O 701.068 -0.805455 5.63472 0
M  V30 7213 N 702.27 -2.64443 5.16769 0
M  V30 7214 H 705.035 0.738614 2.90456 0
M  V30 7215 H 702.596 0.538415 1.52685 0
M  V30 7216 H 704.588 -1.6686 3.687 0
M  V30 7217 H 703.158 -1.69736 2.62504 0
M  V30 7218 H 702.378 0.424975 3.91903 0
M  V30 7219 H 703.666 0.0814904 5.08735 0
M  V30 7220 H 703.064 -3.08114 4.74428 0
M  V30 7221 H 701.621 -3.22159 5.66619 0
M  V30 7222 N 705.054 -1.51416 0.437162 0
M  V30 7223 C 706.47 -1.59349 0.0894459 0
M  V30 7224 C 706.67 -1.44809 -1.40116 0
M  V30 7225 O 705.726 -1.28924 -2.17106 0
M  V30 7226 C 707.039 -2.9446 0.609398 0
M  V30 7227 C 708.587 -3.07769 0.569824 0
M  V30 7228 C 709.062 -4.45404 1.06675 0
M  V30 7229 N 710.553 -4.51723 1.02473 0
M  V30 7230 C 711.288 -5.56544 1.3801 0
M  V30 7231 N 710.784 -6.68784 1.80831 0
M  V30 7232 N 712.577 -5.46901 1.29828 0
M  V30 7233 H 704.728 -1.59112 1.40703 0
M  V30 7234 H 706.991 -0.750031 0.579791 0
M  V30 7235 H 706.697 -3.1047 1.65231 0
M  V30 7236 H 706.571 -3.77184 0.0342236 0
M  V30 7237 H 708.958 -2.91428 -0.464107 0
M  V30 7238 H 709.039 -2.26885 1.1814 0
M  V30 7239 H 708.683 -4.62492 2.09914 0
M  V30 7240 H 708.613 -5.24827 0.431712 0
M  V30 7241 H 711.104 -3.71165 0.710258 0
M  V30 7242 H 711.417 -7.44787 2.06185 0
M  V30 7243 H 709.762 -6.69992 1.84757 0
M  V30 7244 H 712.953 -4.581 0.962397 0
M  V30 7245 H 713.126 -6.2848 1.57851 0
M  V30 7246 N 706.532 -0.168513 -1.56696 0
M  V30 7247 C 707.482 0.7751 -2.14421 0
M  V30 7248 C 708.466 1.19476 -1.07769 0
M  V30 7249 O 709.658 1.15759 -1.33898 0
M  V30 7250 C 706.787 2.00549 -2.7863 0
M  V30 7251 C 705.873 1.60795 -3.92436 0
M  V30 7252 N 706.264 0.919812 -4.97366 0
M  V30 7253 C 704.562 1.89917 -4.03544 0
M  V30 7254 C 705.263 0.724485 -5.77171 0
M  V30 7255 N 704.239 1.26505 -5.28675 0
M  V30 7256 H 708.041 0.240349 -2.92916 0
M  V30 7257 H 705.555 0.0322675 -1.62368 0
M  V30 7258 H 707.552 2.6917 -3.1836 0
M  V30 7259 H 706.212 2.54522 -2.01615 0
M  V30 7260 H 707.223 0.578169 -5.14663 0
M  V30 7261 H 703.9 2.45587 -3.37629 0
M  V30 7262 H 705.29 0.180521 -6.71657 0
M  V30 7263 N 708.01 1.57248 0.105221 0
M  V30 7264 C 708.94 2.04374 1.12931 0
M  V30 7265 C 709.921 0.93074 1.42377 0
M  V30 7266 O 711.106 1.20136 1.52581 0
M  V30 7267 C 708.236 2.45967 2.45189 0
M  V30 7268 C 707.19 3.60838 2.30174 0
M  V30 7269 C 706.516 3.88374 3.67518 0
M  V30 7270 C 707.816 4.92084 1.75073 0
M  V30 7271 H 709.51 2.9018 0.737287 0
M  V30 7272 H 707.056 1.39601 0.353211 0
M  V30 7273 H 709.009 2.77542 3.17094 0
M  V30 7274 H 707.733 1.57148 2.86308 0
M  V30 7275 H 706.392 3.29493 1.60716 0
M  V30 7276 H 706.04 2.96739 4.06147 0
M  V30 7277 H 705.74 4.65703 3.58321 0
M  V30 7278 H 707.264 4.22415 4.40906 0
M  V30 7279 H 708.678 5.22106 2.36809 0
M  V30 7280 H 707.075 5.73507 1.76662 0
M  V30 7281 H 708.145 4.79684 0.709347 0
M  V30 7282 N 709.488 -0.375779 1.53054 0
M  V30 7283 C 710.418 -1.46598 1.81745 0
M  V30 7284 C 711.399 -1.56337 0.670286 0
M  V30 7285 O 712.584 -1.71071 0.919158 0
M  V30 7286 C 709.714 -2.84058 1.99821 0
M  V30 7287 C 708.668 -2.8915 3.15557 0
M  V30 7288 C 707.994 -4.29187 3.18908 0
M  V30 7289 C 709.294 -2.57595 4.54359 0
M  V30 7290 H 710.988 -1.22837 2.73041 0
M  V30 7291 H 708.534 -0.589485 1.31381 0
M  V30 7292 H 710.487 -3.60342 2.18475 0
M  V30 7293 H 709.211 -3.09184 1.05226 0
M  V30 7294 H 707.87 -2.15316 2.96706 0
M  V30 7295 H 707.518 -4.51374 2.2197 0
M  V30 7296 H 707.218 -4.33512 3.96662 0
M  V30 7297 H 708.742 -5.07359 3.39734 0
M  V30 7298 H 710.156 -3.23595 4.73243 0
M  V30 7299 H 708.553 -2.73252 5.34279 0
M  V30 7300 H 709.623 -1.52882 4.60169 0
M  V30 7301 N 710.966 -1.44241 -0.634997 0
M  V30 7302 C 712.194 -1.50296 -1.42193 0
M  V30 7303 C 712.609 -0.12658 -1.88375 0
M  V30 7304 O 711.966 0.86678 -1.60603 0
M  V30 7305 C 712.017 -2.46437 -2.64482 0
M  V30 7306 O 711.738 -3.78724 -2.20226 0
M  V30 7307 C 713.239 -2.61918 -3.57651 0
M  V30 7308 H 710.459 -0.509865 -0.43621 0
M  V30 7309 H 713.003 -1.89167 -0.776921 0
M  V30 7310 H 711.158 -2.10712 -3.25083 0
M  V30 7311 H 711.572 -4.30595 -2.9948 0
M  V30 7312 H 713.046 -3.33225 -4.40074 0
M  V30 7313 H 713.523 -1.67017 -4.06204 0
M  V30 7314 H 714.129 -2.98528 -3.02921 0
M  V30 7315 N 712.444 0.87505 -1.31075 0
M  V30 7316 C 713.407 1.96333 -1.18263 0
M  V30 7317 C 714.407 1.60416 -0.111106 0
M  V30 7318 O 715.597 1.7044 -0.359987 0
M  V30 7319 C 712.729 3.31036 -0.81414 0
M  V30 7320 H 713.922 2.09125 -2.14958 0
M  V30 7321 H 711.475 1.06271 -1.14614 0
M  V30 7322 H 712.21 3.23944 0.151875 0
M  V30 7323 H 711.995 3.58476 -1.58862 0
M  V30 7324 H 713.485 4.10842 -0.748249 0
M  V30 7325 N 713.922 1.13953 1.08869 0
M  V30 7326 C 714.854 0.779906 2.15523 0
M  V30 7327 C 715.867 -0.20102 1.61554 0
M  V30 7328 O 717.056 0.0200049 1.78489 0
M  V30 7329 C 714.156 0.136226 3.38626 0
M  V30 7330 C 713.329 1.15069 4.21993 0
M  V30 7331 C 712.388 0.531645 5.23507 0
M  V30 7332 O 711.414 1.19327 5.56552 0
M  V30 7333 N 712.616 -0.693734 5.7634 0
M  V30 7334 H 715.381 1.69769 2.46979 0
M  V30 7335 H 712.942 1.03331 1.24637 0
M  V30 7336 H 714.934 -0.290295 4.03658 0
M  V30 7337 H 713.504 -0.684603 3.05011 0
M  V30 7338 H 712.724 1.75431 3.53012 0
M  V30 7339 H 714.012 1.83614 4.74514 0
M  V30 7340 H 713.41 -1.24994 5.51718 0
M  V30 7341 H 711.967 -1.06283 6.43076 0
M  V30 7342 N 715.4 -1.26948 0.933913 0
M  V30 7343 C 716.677 -1.89212 0.495784 0
M  V30 7344 C 717.057 -1.84469 -1.02637 0
M  V30 7345 O 716.405 -1.29409 -1.88323 0
M  V30 7346 C 716.615 -3.32865 1.0489 0
M  V30 7347 C 717.963 -4.09749 1.11315 0
M  V30 7348 O 718.987 -3.41905 0.998966 0
M  V30 7349 O 717.846 -5.31061 1.28983 0
M  V30 7350 H 714.94 -0.811284 0.160459 0
M  V30 7351 H 717.486 -1.35171 1.02601 0
M  V30 7352 H 716.258 -3.30642 2.09265 0
M  V30 7353 H 715.881 -3.94435 0.500692 0
M  V30 7354 N 716.879 -0.700114 -1.41195 0
M  V30 7355 C 717.789 -0.0382854 -2.34569 0
M  V30 7356 C 718.805 0.761036 -1.56474 0
M  V30 7357 O 719.981 0.697553 -1.88934 0
M  V30 7358 C 717.046 0.883522 -3.35253 0
M  V30 7359 C 716.107 0.0758957 -4.29233 0
M  V30 7360 C 715.34 0.9538 -5.25108 0
M  V30 7361 O 715.563 2.19326 -5.26547 0
M  V30 7362 O 714.497 0.401049 -6.00562 0
M  V30 7363 H 718.323 -0.808073 -2.92752 0
M  V30 7364 H 715.908 -0.460479 -1.42127 0
M  V30 7365 H 717.79 1.41199 -3.9704 0
M  V30 7366 H 716.465 1.63272 -2.79506 0
M  V30 7367 H 715.372 -0.497274 -3.7078 0
M  V30 7368 H 716.705 -0.634741 -4.8809 0
M  V30 7369 N 718.357 1.51182 -0.445186 0
M  V30 7370 C 719.305 2.29531 0.376597 0
M  V30 7371 C 720.299 1.35711 1.01385 0
M  V30 7372 O 721.505 1.53018 0.947922 0
M  V30 7373 H 717.88 0.738803 0.140267 0
M  V30 7374 H 719.851 2.96838 -0.304958 0
M  V30 7375 C 718.6 3.1552 1.4609 0
M  V30 7376 H 717.923 3.87605 0.979912 0
M  V30 7377 H 719.363 3.73384 2.009 0
M  V30 7378 C 717.822 2.31406 2.44852 0
M  V30 7379 O 718.352 1.97912 3.49562 0
M  V30 7380 N 716.558 1.94478 2.15932 0
M  V30 7381 H 716.105 2.21917 1.30808 0
M  V30 7382 H 716.063 1.38498 2.82251 0
M  V30 7383 N 719.835 0.176821 1.56605 0
M  V30 7384 C 721.083 -0.465793 1.96659 0
M  V30 7385 C 721.404 -1.63406 1.06412 0
M  V30 7386 O 720.674 -1.95457 0.131603 0
M  V30 7387 H 719.254 -0.175072 0.726195 0
M  V30 7388 H 721.916 0.25929 1.93168 0
M  V30 7389 H 721.012 -0.822138 3.01077 0
M  V30 7390 N 721.313 -1.57302 -0.09688 0
M  V30 7391 C 722.59 -1.7701 -0.832272 0
M  V30 7392 C 722.97 -0.758025 -1.97021 0
M  V30 7393 O 722.318 0.213824 -2.27497 0
M  V30 7394 C 722.528 -3.22725 -1.32851 0
M  V30 7395 C 723.876 -3.85856 -1.772 0
M  V30 7396 O 724.9 -3.26464 -1.42478 0
M  V30 7397 O 723.759 -4.90295 -2.41398 0
M  V30 7398 H 720.853 -0.725558 -0.396856 0
M  V30 7399 H 723.399 -1.69516 -0.0789005 0
M  V30 7400 H 722.171 -3.87921 -0.51312 0
M  V30 7401 H 721.794 -3.34845 -2.14394 0
M  V30 7402 N 722.791 0.367657 -1.53252 0
M  V30 7403 C 724.019 1.13119 -1.73239 0
M  V30 7404 C 724.434 1.831 -0.460404 0
M  V30 7405 O 723.791 1.73483 0.566557 0
M  V30 7406 C 723.842 2.16308 -2.89643 0
M  V30 7407 O 723.563 1.49175 -4.1192 0
M  V30 7408 C 725.064 3.05224 -3.21486 0
M  V30 7409 H 722.284 0.338318 -0.579467 0
M  V30 7410 H 724.828 0.42721 -1.99988 0
M  V30 7411 H 722.983 2.82307 -2.65295 0
M  V30 7412 H 723.397 2.17912 -4.7709 0
M  V30 7413 H 724.871 3.73613 -4.06346 0
M  V30 7414 H 725.348 3.69919 -2.36763 0
M  V30 7415 H 725.954 2.44843 -3.47753 0
M  V30 7416 N 724.269 1.44576 0.627338 0
M  V30 7417 C 725.68 1.42266 1.20902 0
M  V30 7418 C 726.031 0.139964 1.957 0
M  V30 7419 O 725.156 -0.759489 2.02634 0
M  V30 7420 C 725.751 2.57727 2.19914 0
M  V30 7421 C 724.31 2.58599 2.73502 0
M  V30 7422 C 723.457 2.34145 1.48564 0
M  V30 7423 H 726.408 1.53102 0.417791 0
M  V30 7424 H 726.429 2.30697 3.02588 0
M  V30 7425 H 725.941 3.51068 1.65447 0
M  V30 7426 H 724.042 1.6921 3.31962 0
M  V30 7427 H 724.155 3.57205 3.19282 0
M  V30 7428 H 722.519 1.83313 1.76829 0
M  V30 7429 H 723.302 3.29606 0.959935 0
M  V30 7430 N 725.747 -0.868086 1.31537 0
M  V30 7431 C 726.677 -1.99131 1.21939 0
M  V30 7432 C 727.658 -1.69768 0.106166 0
M  V30 7433 O 728.843 -1.92006 0.291081 0
M  V30 7434 C 725.973 -3.34676 0.927879 0
M  V30 7435 C 724.927 -3.7835 2.00088 0
M  V30 7436 C 724.253 -5.11375 1.56203 0
M  V30 7437 C 725.553 -3.95256 3.41424 0
M  V30 7438 H 727.247 -2.07419 2.15911 0
M  V30 7439 H 724.793 -0.996569 1.03945 0
M  V30 7440 H 726.746 -4.12793 0.847327 0
M  V30 7441 H 725.47 -3.26565 -0.0475042 0
M  V30 7442 H 724.129 -3.02474 2.07135 0
M  V30 7443 H 723.777 -4.99709 0.57445 0
M  V30 7444 H 723.477 -5.41568 2.27985 0
M  V30 7445 H 725.001 -5.92001 1.49558 0
M  V30 7446 H 726.415 -4.63764 3.3704 0
M  V30 7447 H 724.812 -4.36849 4.1144 0
M  V30 7448 H 725.882 -2.98579 3.82072 0
M  V30 7449 N 727.225 -1.14528 -1.08264 0
M  V30 7450 C 728.175 -0.802141 -2.13424 0
M  V30 7451 C 729.159 0.209362 -1.59532 0
M  V30 7452 O 730.351 0.0114859 -1.76996 0
M  V30 7453 C 727.48 -0.282938 -3.42132 0
M  V30 7454 C 726.566 -1.32405 -4.02902 0
M  V30 7455 N 726.957 -2.52861 -4.38058 0
M  V30 7456 C 725.255 -1.17462 -4.30254 0
M  V30 7457 C 725.956 -3.1952 -4.86088 0
M  V30 7458 N 724.932 -2.46921 -4.84284 0
M  V30 7459 H 728.734 -1.71843 -2.38426 0
M  V30 7460 H 726.248 -1.02936 -1.2561 0
M  V30 7461 H 728.245 -0.0188053 -4.16896 0
M  V30 7462 H 726.905 0.627533 -3.18578 0
M  V30 7463 H 727.916 -2.90078 -4.2904 0
M  V30 7464 H 724.593 -0.323283 -4.16246 0
M  V30 7465 H 725.983 -4.2223 -5.22658 0
M  V30 7466 N 728.703 1.26451 -0.940633 0
M  V30 7467 C 729.633 2.28773 -0.467479 0
M  V30 7468 C 730.614 1.63218 0.478955 0
M  V30 7469 O 731.799 1.90427 0.380929 0
M  V30 7470 C 728.929 3.46259 0.268656 0
M  V30 7471 C 727.883 4.23898 -0.591171 0
M  V30 7472 C 727.209 5.33993 0.274891 0
M  V30 7473 C 728.509 4.87974 -1.86223 0
M  V30 7474 H 730.203 2.68601 -1.32265 0
M  V30 7475 H 727.749 1.29123 -0.637436 0
M  V30 7476 H 729.702 4.16951 0.610696 0
M  V30 7477 H 728.426 3.05383 1.15796 0
M  V30 7478 H 727.085 3.54969 -0.916098 0
M  V30 7479 H 726.733 4.89358 1.16353 0
M  V30 7480 H 726.433 5.86849 -0.297006 0
M  V30 7481 H 727.957 6.07523 0.612213 0
M  V30 7482 H 729.371 5.50883 -1.58747 0
M  V30 7483 H 727.768 5.50945 -2.37866 0
M  V30 7484 H 728.838 4.10945 -2.57394 0
M  V30 7485 N 730.181 0.707592 1.40822 0
M  V30 7486 C 731.144 0.0587224 2.29125 0
M  V30 7487 C 732.144 -0.695624 1.44975 0
M  V30 7488 O 733.334 -0.528718 1.65983 0
M  V30 7489 C 730.466 -0.926939 3.28056 0
M  V30 7490 H 731.659 0.836349 2.88002 0
M  V30 7491 H 729.212 0.471778 1.4901 0
M  V30 7492 H 729.947 -1.7319 2.74182 0
M  V30 7493 H 729.732 -0.389015 3.90165 0
M  V30 7494 H 731.222 -1.37837 3.94196 0
M  V30 7495 N 731.66 -1.50943 0.453197 0
M  V30 7496 C 732.909 -2.01402 -0.10951 0
M  V30 7497 C 733.222 -1.3411 -1.42386 0
M  V30 7498 O 734.428 -1.75626 -2.07045 0
M  V30 7499 C 732.884 -3.5906 -0.245693 0
M  V30 7500 C 732.492 -4.353 1.05916 0
M  V30 7501 C 734.236 -4.17617 -0.761318 0
M  V30 7502 C 732.143 -5.84699 0.887752 0
M  V30 7503 H 731.073 -0.752674 -0.0447013 0
M  V30 7504 H 733.724 -1.73913 0.585375 0
M  V30 7505 H 732.106 -3.83062 -1.00395 0
M  V30 7506 H 733.28 -4.23034 1.82698 0
M  V30 7507 H 731.595 -3.88269 1.50452 0
M  V30 7508 H 734.192 -5.26963 -0.906306 0
M  V30 7509 H 734.535 -3.77824 -1.74799 0
M  V30 7510 H 735.068 -3.97753 -0.0609416 0
M  V30 7511 H 731.807 -6.28933 1.84726 0
M  V30 7512 H 731.327 -5.99587 0.160006 0
M  V30 7513 H 733.006 -6.44682 0.547223 0
M  V30 7514 N 733.138 -0.185124 -1.56509 0
M  V30 7515 C 734.387 0.456421 -1.96468 0
M  V30 7516 C 734.7 1.63448 -1.07444 0
M  V30 7517 O 735.906 2.34316 -1.37143 0
M  V30 7518 C 734.362 0.863404 -3.4939 0
M  V30 7519 C 733.97 -0.289815 -4.47062 0
M  V30 7520 C 735.714 1.47259 -3.98139 0
M  V30 7521 C 733.621 0.137571 -5.9124 0
M  V30 7522 H 732.551 0.17429 -0.733579 0
M  V30 7523 H 735.202 -0.275554 -1.81419 0
M  V30 7524 H 733.584 1.65176 -3.59907 0
M  V30 7525 H 734.758 -1.06728 -4.4827 0
M  V30 7526 H 733.073 -0.809851 -4.08449 0
M  V30 7527 H 735.67 1.80463 -5.03326 0
M  V30 7528 H 736.013 2.3755 -3.41871 0
M  V30 7529 H 736.546 0.748405 -3.90696 0
M  V30 7530 H 733.285 -0.730907 -6.51412 0
M  V30 7531 H 732.805 0.8801 -5.93308 0
M  V30 7532 H 734.484 0.576771 -6.44424 0
M  V30 7533 N 734.616 1.57351 0.0885366 0
M  V30 7534 C 735.566 1.98963 1.11346 0
M  V30 7535 C 736.55 0.869065 1.35411 0
M  V30 7536 O 737.742 1.13292 1.35992 0
M  V30 7537 C 734.871 2.4231 2.43189 0
M  V30 7538 C 733.957 3.61065 2.22469 0
M  V30 7539 N 734.348 4.75789 1.71635 0
M  V30 7540 C 732.646 3.6729 2.5301 0
M  V30 7541 C 733.347 5.57708 1.65339 0
M  V30 7542 N 732.323 5.01067 2.1079 0
M  V30 7543 H 736.125 2.85109 0.713465 0
M  V30 7544 H 733.639 1.59682 0.295868 0
M  V30 7545 H 735.636 2.70352 3.17357 0
M  V30 7546 H 734.296 1.57544 2.83919 0
M  V30 7547 H 735.307 4.98411 1.40738 0
M  V30 7548 H 731.984 2.932 2.9722 0
M  V30 7549 H 733.374 6.59782 1.27031 0
M  V30 7550 N 736.094 -0.359525 1.53444 0
M  V30 7551 C 737.342 -1.09935 1.69584 0
M  V30 7552 C 737.663 -1.89656 0.453371 0
M  V30 7553 O 736.933 -1.8852 -0.53263 0
M  V30 7554 H 735.513 -0.408843 0.625185 0
M  V30 7555 H 738.175 -0.40467 1.90653 0
M  V30 7556 H 737.271 -1.78575 2.55964 0
M  V30 7557 N 737.572 -1.44907 -0.619662 0
M  V30 7558 C 738.504 -1.48652 -1.74457 0
M  V30 7559 C 739.517 -0.378596 -1.58337 0
M  V30 7560 O 740.706 -0.644987 -1.6644 0
M  V30 7561 C 737.806 -1.31568 -3.12319 0
M  V30 7562 C 736.979 -2.55816 -3.54792 0
M  V30 7563 C 736.038 -2.33465 -4.71573 0
M  V30 7564 O 735.064 -3.07015 -4.79302 0
M  V30 7565 N 736.266 -1.37254 -5.6404 0
M  V30 7566 H 739.031 -2.45632 -1.71712 0
M  V30 7567 H 736.592 -1.40492 -0.804582 0
M  V30 7568 H 738.584 -1.14445 -3.88181 0
M  V30 7569 H 737.154 -0.429095 -3.09641 0
M  V30 7570 H 736.374 -2.88137 -2.69018 0
M  V30 7571 H 737.662 -3.38431 -3.79924 0
M  V30 7572 H 737.06 -0.765309 -5.60499 0
M  V30 7573 H 735.617 -1.26106 -6.39485 0
M  V30 7574 N 739.05 0.861098 -1.31996 0
M  V30 7575 C 740.278 1.6474 -1.25173 0
M  V30 7576 C 740.693 1.87926 0.181425 0
M  V30 7577 O 740.05 1.4437 1.1164 0
M  V30 7578 C 740.101 3.01036 -2.0015 0
M  V30 7579 O 739.822 2.7888 -3.37872 0
M  V30 7580 C 741.323 3.95481 -2.00273 0
M  V30 7581 H 738.543 0.513314 -0.432146 0
M  V30 7582 H 741.087 1.07419 -1.74016 0
M  V30 7583 H 739.242 3.55021 -1.55046 0
M  V30 7584 H 739.656 3.65514 -3.76165 0
M  V30 7585 H 741.13 4.88403 -2.57229 0
M  V30 7586 H 741.607 4.27957 -0.987407 0
M  V30 7587 H 742.213 3.47433 -2.45296 0
M  V30 7588 N 740.528 1.15101 1.07655 0
M  V30 7589 C 741.753 0.948177 1.84457 0
M  V30 7590 C 742.178 -0.498432 1.81376 0
M  V30 7591 O 741.536 -1.35509 1.20445 0
M  V30 7592 C 741.584 1.46318 3.29581 0
M  V30 7593 O 740.688 0.660342 4.07079 0
M  V30 7594 H 740.029 0.338428 0.571281 0
M  V30 7595 H 742.559 1.5301 1.35828 0
M  V30 7596 H 742.569 1.47468 3.80417 0
M  V30 7597 H 741.244 2.51635 3.31138 0
M  V30 7598 H 739.821 0.718216 3.65918 0
M  V30 7599 N 742.006 -1.2595 0.947325 0
M  V30 7600 C 743.252 -1.9375 0.599064 0
M  V30 7601 C 743.585 -1.74088 -0.860632 0
M  V30 7602 O 742.86 -1.08158 -1.61654 0
M  V30 7603 C 743.143 -3.47353 0.949634 0
M  V30 7604 C 742.996 -3.76273 2.46452 0
M  V30 7605 C 744.315 -4.37589 0.469442 0
M  V30 7606 H 741.434 -0.703674 0.219115 0
M  V30 7607 H 744.076 -1.48705 1.18266 0
M  V30 7608 H 742.226 -3.8585 0.453008 0
M  V30 7609 H 743.898 -3.47455 3.03435 0
M  V30 7610 H 742.141 -3.22135 2.90537 0
M  V30 7611 H 742.812 -4.83664 2.66032 0
M  V30 7612 H 745.288 -4.06353 0.89534 0
M  V30 7613 H 744.164 -5.43841 0.7435 0
M  V30 7614 H 744.425 -4.37579 -0.630618 0
M  V30 7615 N 743.484 -0.715051 -1.40445 0
M  V30 7616 C 744.733 -0.251322 -2.00128 0
M  V30 7617 C 745.046 1.16194 -1.57347 0
M  V30 7618 O 746.252 1.72416 -2.09726 0
M  V30 7619 C 744.708 -0.398407 -3.57688 0
M  V30 7620 C 744.316 -1.81828 -4.09442 0
M  V30 7621 C 746.06 0.00455625 -4.245 0
M  V30 7622 C 743.967 -1.91598 -5.59503 0
M  V30 7623 H 742.897 -0.0902081 -0.748584 0
M  V30 7624 H 745.548 -0.886062 -1.6069 0
M  V30 7625 H 743.93 0.304908 -3.94824 0
M  V30 7626 H 745.104 -2.55193 -3.83684 0
M  V30 7627 H 743.419 -2.17266 -3.55225 0
M  V30 7628 H 746.016 -0.0477303 -5.34679 0
M  V30 7629 H 746.359 1.04636 -4.02935 0
M  V30 7630 H 746.892 -0.649184 -3.92467 0
M  V30 7631 H 743.631 -2.93898 -5.85922 0
M  V30 7632 H 743.151 -1.22644 -5.87127 0
M  V30 7633 H 744.83 -1.68785 -6.24596 0
M  V30 7634 N 744.962 1.50701 -0.461195 0
M  V30 7635 C 745.872 2.32069 0.343661 0
M  V30 7636 C 746.888 1.42016 1.00535 0
M  V30 7637 O 748.064 1.75077 0.995498 0
M  V30 7638 C 745.129 3.16424 1.41692 0
M  V30 7639 C 744.19 4.22286 0.772869 0
M  V30 7640 C 743.423 5.02609 1.79499 0
M  V30 7641 O 743.646 4.83874 3.0203 0
M  V30 7642 O 742.58 5.86047 1.3723 0
M  V30 7643 H 746.406 3.01996 -0.321268 0
M  V30 7644 H 743.991 1.47723 -0.223235 0
M  V30 7645 H 745.873 3.68795 2.03883 0
M  V30 7646 H 744.548 2.49236 2.0655 0
M  V30 7647 H 743.455 3.73931 0.112277 0
M  V30 7648 H 744.788 4.91915 0.167399 0
M  V30 7649 N 746.441 0.193421 1.56409 0
M  V30 7650 C 747.373 -0.759944 2.16235 0
M  V30 7651 C 748.386 -1.17797 1.12373 0
M  V30 7652 O 749.575 -1.11399 1.39472 0
M  V30 7653 C 746.675 -2.03735 2.70823 0
M  V30 7654 C 745.848 -1.77939 3.9957 0
M  V30 7655 C 744.907 -2.90111 4.39001 0
M  V30 7656 O 743.933 -2.59791 5.06456 0
M  V30 7657 N 745.135 -4.18426 4.02368 0
M  V30 7658 H 747.9 -0.248348 2.98669 0
M  V30 7659 H 745.461 0.0113966 1.61896 0
M  V30 7660 H 747.453 -2.77914 2.94187 0
M  V30 7661 H 746.023 -2.46022 1.92852 0
M  V30 7662 H 745.243 -0.875491 3.84355 0
M  V30 7663 H 746.531 -1.58099 4.83614 0
M  V30 7664 H 745.929 -4.45913 3.48106 0
M  V30 7665 H 744.486 -4.89237 4.30686 0
M  V30 7666 N 747.919 -1.57396 -0.0801906 0
M  V30 7667 C 749.168 -1.8602 -0.779702 0
M  V30 7668 C 749.481 -0.784864 -1.79163 0
M  V30 7669 O 750.687 -0.958691 -2.54011 0
M  V30 7670 C 749.143 -3.29942 -1.43758 0
M  V30 7671 C 748.751 -4.45584 -0.464654 0
M  V30 7672 C 750.495 -3.67775 -2.11995 0
M  V30 7673 C 748.402 -5.80544 -1.12797 0
M  V30 7674 H 747.332 -0.69392 -0.294943 0
M  V30 7675 H 749.983 -1.83471 -0.0328527 0
M  V30 7676 H 748.365 -3.27078 -2.2324 0
M  V30 7677 H 749.539 -4.59824 0.299749 0
M  V30 7678 H 747.854 -4.16247 0.112813 0
M  V30 7679 H 750.451 -4.65896 -2.62383 0
M  V30 7680 H 750.794 -2.9715 -2.91561 0
M  V30 7681 H 751.327 -3.72593 -1.39354 0
M  V30 7682 H 748.066 -6.54439 -0.372807 0
M  V30 7683 H 747.586 -5.70119 -1.86344 0
M  V30 7684 H 749.265 -6.25602 -1.6502 0
M  V30 7685 N 749.397 0.351382 -1.53633 0
M  V30 7686 C 750.643 1.09411 -1.70754 0
M  V30 7687 C 750.976 1.88544 -0.465293 0
M  V30 7688 O 750.251 1.86923 0.537608 0
M  V30 7689 C 750.534 2.04173 -2.96623 0
M  V30 7690 C 750.387 1.28556 -4.31038 0
M  V30 7691 C 751.706 3.04102 -3.18136 0
M  V30 7692 H 748.825 0.396373 -0.621335 0
M  V30 7693 H 751.467 0.373464 -1.86293 0
M  V30 7694 H 749.617 2.65625 -2.83506 0
M  V30 7695 H 751.289 0.697786 -4.55992 0
M  V30 7696 H 749.532 0.587498 -4.29803 0
M  V30 7697 H 750.203 1.97989 -5.15271 0
M  V30 7698 H 752.679 2.5276 -3.30532 0
M  V30 7699 H 751.555 3.67616 -4.07615 0
M  V30 7700 H 751.816 3.75053 -2.34068 0
M  V30 7701 N 750.875 1.45233 0.611969 0
M  V30 7702 C 752.105 1.52318 1.39581 0
M  V30 7703 C 752.513 0.153093 1.8858 0
M  V30 7704 O 751.856 -0.854792 1.62601 0
M  V30 7705 C 751.918 2.4426 2.63775 0
M  V30 7706 C 751.582 3.91079 2.36445 0
M  V30 7707 C 752.579 4.81099 1.97079 0
M  V30 7708 C 750.264 4.35958 2.49492 0
M  V30 7709 C 752.258 6.14002 1.71115 0
M  V30 7710 C 749.945 5.68903 2.23142 0
M  V30 7711 C 750.943 6.57744 1.84015 0
M  V30 7712 O 750.631 7.88226 1.5797 0
M  V30 7713 H 750.363 0.518428 0.43383 0
M  V30 7714 H 752.917 1.91067 0.753837 0
M  V30 7715 H 751.147 2.00474 3.30677 0
M  V30 7716 H 752.836 2.42077 3.25812 0
M  V30 7717 H 753.602 4.47692 1.86539 0
M  V30 7718 H 749.481 3.67053 2.78914 0
M  V30 7719 H 753.025 6.83305 1.405 0
M  V30 7720 H 748.922 6.01866 2.33297 0
M  V30 7721 H 749.69 8.00211 1.72058 0
M  V30 7722 N 752.353 -0.854086 1.3245 0
M  V30 7723 C 753.599 -1.61069 1.23225 0
M  V30 7724 C 753.932 -1.93111 -0.205349 0
M  V30 7725 O 753.207 -1.57397 -1.14265 0
M  V30 7726 C 753.49 -2.93065 2.09249 0
M  V30 7727 C 753.343 -2.67801 3.6139 0
M  V30 7728 C 754.662 -3.94341 1.95406 0
M  V30 7729 H 751.781 -0.584449 0.448986 0
M  V30 7730 H 754.423 -0.986189 1.62402 0
M  V30 7731 H 752.573 -3.46364 1.75967 0
M  V30 7732 H 754.245 -2.21052 4.04887 0
M  V30 7733 H 752.488 -2.01756 3.84027 0
M  V30 7734 H 753.159 -3.6179 4.16907 0
M  V30 7735 H 755.635 -3.50301 2.24562 0
M  V30 7736 H 754.511 -4.84555 2.57872 0
M  V30 7737 H 754.772 -4.32382 0.921865 0
M  V30 7738 N 753.831 -1.1567 -1.07043 0
M  V30 7739 C 755.08 -0.928039 -1.79082 0
M  V30 7740 C 755.393 0.545968 -1.87826 0
M  V30 7741 O 756.599 0.892308 -2.56418 0
M  V30 7742 C 755.055 -1.61103 -3.21829 0
M  V30 7743 C 754.663 -3.12228 -3.21275 0
M  V30 7744 C 756.407 -1.46404 -3.98455 0
M  V30 7745 C 754.314 -3.733 -4.58695 0
M  V30 7746 H 753.244 -0.34357 -0.671175 0
M  V30 7747 H 755.895 -1.38718 -1.20123 0
M  V30 7748 H 754.277 -1.07958 -3.81 0
M  V30 7749 H 755.451 -3.72155 -2.71731 0
M  V30 7750 H 753.766 -3.26725 -2.58147 0
M  V30 7751 H 756.363 -1.8942 -5.00024 0
M  V30 7752 H 756.706 -0.41195 -4.14257 0
M  V30 7753 H 757.239 -1.96663 -3.45787 0
M  V30 7754 H 753.978 -4.78423 -4.48098 0
M  V30 7755 H 753.498 -3.18157 -5.08465 0
M  V30 7756 H 755.177 -3.7441 -5.27661 0
M  V30 7757 N 755.309 1.25446 -0.953992 0
M  V30 7758 C 756.259 2.23627 -0.444413 0
M  V30 7759 C 757.243 1.54004 0.465993 0
M  V30 7760 O 758.435 1.74454 0.29915 0
M  V30 7761 C 755.564 3.42179 0.277175 0
M  V30 7762 C 754.65 4.1907 -0.651263 0
M  V30 7763 N 755.041 4.73346 -1.78262 0
M  V30 7764 C 753.339 4.43628 -0.459338 0
M  V30 7765 C 754.04 5.31576 -2.36224 0
M  V30 7766 N 753.016 5.17991 -1.64884 0
M  V30 7767 H 756.818 2.63197 -1.30785 0
M  V30 7768 H 754.332 1.40677 -0.811402 0
M  V30 7769 H 756.329 4.11653 0.659367 0
M  V30 7770 H 754.989 3.04134 1.13723 0
M  V30 7771 H 756 4.705 -2.1645 0
M  V30 7772 H 752.677 4.15963 0.357885 0
M  V30 7773 H 754.067 5.84361 -3.3162 0
M  V30 7774 N 756.787 0.722489 1.40064 0
M  V30 7775 C 757.737 0.0506801 2.27944 0
M  V30 7776 C 758.721 -0.725493 1.43615 0
M  V30 7777 O 759.913 -0.596559 1.66644 0
M  V30 7778 C 757.042 -0.865195 3.32219 0
M  V30 7779 C 756.128 -0.0838393 4.24017 0
M  V30 7780 N 756.519 0.936516 4.97054 0
M  V30 7781 C 754.817 -0.315371 4.44884 0
M  V30 7782 C 755.518 1.4066 5.64437 0
M  V30 7783 N 754.494 0.727485 5.3871 0
M  V30 7784 H 758.296 0.832609 2.8186 0
M  V30 7785 H 755.81 0.555691 1.52597 0
M  V30 7786 H 757.807 -1.36186 3.94029 0
M  V30 7787 H 756.467 -1.64642 2.79862 0
M  V30 7788 H 757.478 1.31755 5.0086 0
M  V30 7789 H 754.155 -1.07238 4.03492 0
M  V30 7790 H 755.545 2.25482 6.32936 0
M  V30 7791 N 758.265 -1.50454 0.469181 0
M  V30 7792 C 759.228 -2.2703 -0.314643 0
M  V30 7793 C 760.228 -1.31734 -0.922111 0
M  V30 7794 O 761.418 -1.55176 -0.791588 0
M  V30 7795 C 758.55 -3.08616 -1.44806 0
M  V30 7796 H 759.743 -2.97769 0.356892 0
M  V30 7797 H 757.296 -1.54698 0.223191 0
M  V30 7798 H 758.031 -2.42369 -2.1547 0
M  V30 7799 H 757.816 -3.78647 -1.01829 0
M  V30 7800 H 759.306 -3.66536 -2.00103 0
M  V30 7801 N 759.743 -0.201713 -1.56304 0
M  V30 7802 C 760.675 0.748466 -2.16635 0
M  V30 7803 C 761.688 1.172 -1.12996 0
M  V30 7804 O 762.877 1.10658 -1.40061 0
M  V30 7805 C 759.977 2.02296 -2.719 0
M  V30 7806 C 759.15 1.75818 -4.00508 0
M  V30 7807 C 758.209 2.87779 -4.40533 0
M  V30 7808 O 757.235 2.57101 -5.07826 0
M  V30 7809 N 758.437 4.16287 -4.04581 0
M  V30 7810 H 761.202 0.232505 -2.98797 0
M  V30 7811 H 758.763 -0.0199822 -1.61888 0
M  V30 7812 H 760.755 2.7635 -2.95657 0
M  V30 7813 H 759.325 2.44996 -1.94154 0
M  V30 7814 H 758.545 0.855095 -3.84814 0
M  V30 7815 H 759.833 1.55532 -4.84445 0
M  V30 7816 H 759.231 4.44061 -3.50466 0
M  V30 7817 H 757.788 4.86946 -4.33274 0
M  V30 7818 N 761.222 1.57436 0.0718424 0
M  V30 7819 C 762.499 1.78312 0.804006 0
M  V30 7820 C 762.879 0.789273 1.9579 0
M  V30 7821 O 762.227 -0.177605 2.27809 0
M  V30 7822 C 762.437 3.24798 1.277 0
M  V30 7823 C 763.785 3.88627 1.71039 0
M  V30 7824 O 764.809 3.28689 1.37266 0
M  V30 7825 O 763.668 4.94073 2.33567 0
M  V30 7826 H 760.762 0.73178 0.385262 0
M  V30 7827 H 763.308 1.69621 0.0519219 0
M  V30 7828 H 762.08 3.88688 0.45134 0
M  V30 7829 H 761.703 3.38213 2.0904 0
M  V30 7830 N 762.7 -0.34323 1.53817 0
M  V30 7831 C 763.63 -1.42709 1.84814 0
M  V30 7832 C 764.611 -1.5488 0.703297 0
M  V30 7833 O 765.796 -1.69082 0.955237 0
M  V30 7834 C 762.926 -2.79756 2.05801 0
M  V30 7835 C 761.88 -2.82392 3.21619 0
M  V30 7836 C 761.206 -4.22326 3.2794 0
M  V30 7837 C 762.506 -2.479 4.59721 0
M  V30 7838 H 764.2 -1.17018 2.75585 0
M  V30 7839 H 761.746 -0.561485 1.32602 0
M  V30 7840 H 763.699 -3.55627 2.26069 0
M  V30 7841 H 762.423 -3.06883 1.11761 0
M  V30 7842 H 761.082 -2.08974 3.01207 0
M  V30 7843 H 760.73 -4.46564 2.31494 0
M  V30 7844 H 760.43 -4.25001 4.05768 0
M  V30 7845 H 761.954 -5.00039 3.50419 0
M  V30 7846 H 763.368 -3.13484 4.80001 0
M  V30 7847 H 761.765 -2.61857 5.39954 0
M  V30 7848 H 762.835 -1.43087 4.63308 0
M  V30 7849 N 764.178 -1.45556 -0.604258 0
M  V30 7850 C 765.426 -1.4945 -1.36048 0
M  V30 7851 C 765.747 -0.138933 -1.94504 0
M  V30 7852 O 765.017 0.832097 -1.7735 0
M  V30 7853 H 763.597 -0.550381 -0.505064 0
M  V30 7854 H 766.259 -1.81535 -0.709308 0
M  V30 7855 H 765.355 -2.23519 -2.17821 0
M  V30 7856 N 765.656 0.84705 -1.32902 0
M  V30 7857 C 766.902 1.60414 -1.24078 0
M  V30 7858 C 767.235 1.93217 0.195105 0
M  V30 7859 O 766.51 1.58001 1.13428 0
M  V30 7860 C 766.793 2.91951 -2.108 0
M  V30 7861 C 766.646 2.6588 -3.62805 0
M  V30 7862 C 767.965 3.93299 -1.97494 0
M  V30 7863 H 765.084 0.58206 -0.452079 0
M  V30 7864 H 767.726 0.977562 -1.62922 0
M  V30 7865 H 765.876 3.45425 -1.77802 0
M  V30 7866 H 767.548 2.18902 -4.06054 0
M  V30 7867 H 765.791 1.99716 -3.85092 0
M  V30 7868 H 766.462 3.59574 -4.1882 0
M  V30 7869 H 768.938 3.49105 -2.26417 0
M  V30 7870 H 767.814 4.8318 -2.60438 0
M  V30 7871 H 768.075 4.31887 -0.944782 0
M  V30 7872 N 767.134 1.16236 1.06428 0
M  V30 7873 C 768.38 0.944431 1.79467 0
M  V30 7874 C 768.713 -0.526558 1.86925 0
M  V30 7875 O 767.988 -1.39061 1.35986 0
M  V30 7876 C 768.271 1.57092 3.24028 0
M  V30 7877 C 768.124 3.11315 3.24658 0
M  V30 7878 C 769.443 1.26447 4.21544 0
M  V30 7879 H 766.562 0.344521 0.651517 0
M  V30 7880 H 769.204 1.43545 1.24478 0
M  V30 7881 H 767.354 1.15337 3.70985 0
M  V30 7882 H 769.026 3.62042 2.85873 0
M  V30 7883 H 767.269 3.44716 2.6335 0
M  V30 7884 H 767.94 3.50269 4.26633 0
M  V30 7885 H 770.416 1.62581 3.83023 0
M  V30 7886 H 769.292 1.72885 5.20963 0
M  V30 7887 H 769.553 0.183068 4.41721 0
M  V30 7888 N 768.612 -1.24939 0.960631 0
M  V30 7889 C 769.56 -2.27659 0.47686 0
M  V30 7890 C 770.554 -1.63148 -0.455961 0
M  V30 7891 O 771.76 -1.76911 -0.332029 0
M  V30 7892 H 768.135 -0.739651 0.135723 0
M  V30 7893 H 770.106 -2.65844 1.35534 0
M  V30 7894 C 768.855 -3.46976 -0.224191 0
M  V30 7895 H 768.178 -3.96854 0.484471 0
M  V30 7896 H 769.618 -4.20717 -0.526615 0
M  V30 7897 C 768.077 -3.04159 -1.44876 0
M  V30 7898 O 768.607 -3.10697 -2.54618 0
M  V30 7899 N 766.813 -2.59284 -1.31226 0
M  V30 7900 H 766.36 -2.54164 -0.419361 0
M  V30 7901 H 766.318 -2.31 -2.13275 0
M  V30 7902 N 770.09 -0.729906 -1.39679 0
M  V30 7903 C 771.02 -0.101618 -2.33279 0
M  V30 7904 C 772.001 0.729854 -1.53646 0
M  V30 7905 O 773.186 0.67587 -1.82059 0
M  V30 7906 C 770.316 0.81024 -3.37716 0
M  V30 7907 C 769.27 0.0833126 -4.27919 0
M  V30 7908 C 768.596 1.11185 -5.23012 0
M  V30 7909 C 769.896 -1.07107 -5.112 0
M  V30 7910 H 771.59 -0.883452 -2.86069 0
M  V30 7911 H 769.136 -0.426283 -1.37546 0
M  V30 7912 H 771.089 1.25927 -4.02145 0
M  V30 7913 H 769.813 1.62413 -2.83354 0
M  V30 7914 H 768.472 -0.346043 -3.64963 0
M  V30 7915 H 768.12 1.91917 -4.64948 0
M  V30 7916 H 767.82 0.63026 -5.8421 0
M  V30 7917 H 769.344 1.56068 -5.90318 0
M  V30 7918 H 770.758 -0.700726 -5.69002 0
M  V30 7919 H 769.155 -1.48196 -5.81514 0
M  V30 7920 H 770.225 -1.89513 -4.46332 0
M  V30 7921 N 771.568 1.50203 -0.477153 0
M  V30 7922 C 772.796 2.0677 0.0732489 0
M  V30 7923 C 773.211 1.34033 1.32968 0
M  V30 7924 O 772.568 0.411412 1.77802 0
M  V30 7925 C 772.619 3.59751 0.35518 0
M  V30 7926 O 772.34 4.29747 -0.851425 0
M  V30 7927 C 773.841 4.3296 0.951877 0
M  V30 7928 H 771.061 0.670929 -0.00978923 0
M  V30 7929 H 773.605 1.93293 -0.667676 0
M  V30 7930 H 771.76 3.7301 1.04605 0
M  V30 7931 H 772.174 5.2106 -0.599708 0
M  V30 7932 H 773.648 5.40952 1.09888 0
M  V30 7933 H 774.125 3.93856 1.94356 0
M  V30 7934 H 774.731 4.24246 0.299208 0
M  V30 7935 N 773.046 0.209999 1.56195 0
M  V30 7936 C 773.994 -0.721416 2.2113 0
M  V30 7937 C 774.988 -1.20852 1.18706 0
M  V30 7938 O 776.194 -1.16968 1.36815 0
M  V30 7939 H 772.569 -0.251033 0.708863 0
M  V30 7940 H 774.54 -0.150193 2.98022 0
M  V30 7941 C 773.289 -1.92392 2.89621 0
M  V30 7942 H 772.612 -1.5582 3.68185 0
M  V30 7943 H 774.052 -2.55367 3.38473 0
M  V30 7944 C 772.511 -2.77208 1.91461 0
M  V30 7945 O 773.041 -3.75603 1.42426 0
M  V30 7946 N 771.247 -2.43006 1.59363 0
M  V30 7947 H 770.794 -1.63047 1.99433 0
M  V30 7948 H 770.752 -3.00036 0.939449 0
M  V30 7949 N 774.524 -1.57472 -0.0634922 0
M  V30 7950 C 775.474 -2.00709 -1.08166 0
M  V30 7951 C 776.458 -0.890498 -1.34011 0
M  V30 7952 O 777.65 -1.15441 -1.34173 0
M  V30 7953 C 774.779 -2.46148 -2.39303 0
M  V30 7954 C 773.865 -3.64559 -2.16697 0
M  V30 7955 N 774.256 -4.78459 -1.64043 0
M  V30 7956 C 772.554 -3.71269 -2.47135 0
M  V30 7957 C 773.255 -5.60268 -1.56445 0
M  V30 7958 N 772.231 -5.04357 -2.02792 0
M  V30 7959 H 776.033 -2.86208 -0.668016 0
M  V30 7960 H 773.547 -1.60133 -0.270426 0
M  V30 7961 H 775.544 -2.75367 -3.13016 0
M  V30 7962 H 774.204 -1.62041 -2.81377 0
M  V30 7963 H 775.215 -5.00587 -1.32791 0
M  V30 7964 H 771.892 -2.97891 -2.92518 0
M  V30 7965 H 773.282 -6.6172 -1.16519 0
M  V30 7966 N 776.003 0.335068 -1.53997 0
M  V30 7967 C 776.933 1.41727 -1.85568 0
M  V30 7968 C 777.914 1.54505 -0.7115 0
M  V30 7969 O 779.099 1.68573 -0.964191 0
M  V30 7970 C 776.229 2.7866 -2.07282 0
M  V30 7971 C 775.183 2.80682 -3.23112 0
M  V30 7972 C 774.509 4.20581 -3.30175 0
M  V30 7973 C 775.809 2.45458 -4.61029 0
M  V30 7974 H 777.503 1.15555 -2.76202 0
M  V30 7975 H 775.049 0.554445 -1.32898 0
M  V30 7976 H 777.002 3.54423 -2.27952 0
M  V30 7977 H 775.726 3.06286 -1.13387 0
M  V30 7978 H 774.385 2.07373 -3.02311 0
M  V30 7979 H 774.033 4.4533 -2.33859 0
M  V30 7980 H 773.733 4.22843 -4.08016 0
M  V30 7981 H 775.257 4.98174 -3.53066 0
M  V30 7982 H 776.671 3.10934 -4.81656 0
M  V30 7983 H 775.068 2.5899 -5.41336 0
M  V30 7984 H 776.138 1.40628 -4.6406 0
M  V30 7985 N 777.481 1.45874 0.596531 0
M  V30 7986 C 778.431 1.5181 1.70111 0
M  V30 7987 C 779.415 0.380293 1.56341 0
M  V30 7988 O 780.607 0.627849 1.6549 0
M  V30 7989 C 777.736 1.49822 3.08883 0
M  V30 7990 C 776.822 2.68845 3.27998 0
M  V30 7991 N 777.213 3.93873 3.17329 0
M  V30 7992 C 775.511 2.64777 3.589 0
M  V30 7993 C 776.212 4.73371 3.38076 0
M  V30 7994 N 775.188 4.0501 3.62585 0
M  V30 7995 H 778.99 2.46289 1.60372 0
M  V30 7996 H 776.504 1.41321 0.800138 0
M  V30 7997 H 778.501 1.5216 3.8814 0
M  V30 7998 H 777.161 0.564086 3.19763 0
M  V30 7999 H 778.172 4.25329 2.95492 0
M  V30 8000 H 774.849 1.80323 3.7655 0
M  V30 8001 H 776.239 5.82357 3.35127 0
M  V30 8002 N 778.959 -0.83999 1.33349 0
M  V30 8003 C 779.891 -1.95678 1.19344 0
M  V30 8004 C 780.904 -1.62322 0.124692 0
M  V30 8005 O 782.093 -1.74516 0.375012 0
M  V30 8006 C 779.193 -3.29133 0.807771 0
M  V30 8007 C 778.366 -3.9063 1.96792 0
M  V30 8008 C 777.425 -5.02438 1.56341 0
M  V30 8009 O 776.451 -5.21646 2.27759 0
M  V30 8010 N 777.653 -5.78612 0.467767 0
M  V30 8011 H 780.418 -2.08229 2.15548 0
M  V30 8012 H 777.979 -1.01566 1.26079 0
M  V30 8013 H 779.971 -4.01355 0.519282 0
M  V30 8014 H 778.541 -3.12535 -0.063555 0
M  V30 8015 H 777.761 -3.11011 2.4221 0
M  V30 8016 H 779.049 -4.2845 2.74422 0
M  V30 8017 H 778.447 -5.65559 -0.126324 0
M  V30 8018 H 777.004 -6.51362 0.238945 0
M  V30 8019 N 780.437 -1.16799 -1.0581 0
M  V30 8020 C 781.665 -0.97687 -1.82387 0
M  V30 8021 C 782.08 0.474917 -1.82729 0
M  V30 8022 O 781.437 1.3297 -1.25001 0
M  V30 8023 C 781.488 -1.50279 -3.28783 0
M  V30 8024 O 781.209 -2.89772 -3.28578 0
M  V30 8025 C 782.71 -1.35538 -4.22071 0
M  V30 8026 H 779.93 -0.345977 -0.574927 0
M  V30 8027 H 782.474 -1.54942 -1.33466 0
M  V30 8028 H 780.629 -0.972414 -3.74997 0
M  V30 8029 H 781.043 -3.13954 -4.20159 0
M  V30 8030 H 782.517 -1.7716 -5.22799 0
M  V30 8031 H 782.994 -0.301598 -4.38163 0
M  V30 8032 H 783.6 -1.87562 -3.81708 0
M  V30 8033 N 781.915 1.24427 -0.967243 0
M  V30 8034 C 783.326 1.74349 -0.667785 0
M  V30 8035 C 783.677 1.78403 0.816509 0
M  V30 8036 O 782.802 1.41315 1.63887 0
M  V30 8037 C 783.397 3.16628 -1.20548 0
M  V30 8038 C 781.956 3.64059 -0.955934 0
M  V30 8039 C 781.103 2.42715 -1.34106 0
M  V30 8040 H 784.054 1.10136 -1.14262 0
M  V30 8041 H 784.075 3.76183 -0.571547 0
M  V30 8042 H 783.587 3.13646 -2.28578 0
M  V30 8043 H 781.688 3.72441 0.108858 0
M  V30 8044 H 781.801 4.51549 -1.60126 0
M  V30 8045 H 780.165 2.43114 -0.759452 0
M  V30 8046 H 780.948 2.42414 -2.43085 0
M  V30 8047 N 783.393 0.737304 1.3929 0
M  V30 8048 C 784.323 0.113988 2.33222 0
M  V30 8049 C 785.304 -0.721695 1.54031 0
M  V30 8050 O 786.489 -0.666206 1.82415 0
M  V30 8051 C 783.619 -0.792319 3.38141 0
M  V30 8052 C 782.573 -0.0606178 4.27957 0
M  V30 8053 C 781.899 -1.08409 5.23595 0
M  V30 8054 C 783.199 1.09817 5.10625 0
M  V30 8055 H 784.893 0.898611 2.85596 0
M  V30 8056 H 782.439 0.433571 1.37318 0
M  V30 8057 H 784.392 -1.23793 4.02807 0
M  V30 8058 H 783.116 -1.60908 2.84211 0
M  V30 8059 H 781.775 0.365393 3.64775 0
M  V30 8060 H 781.423 -1.89449 4.6596 0
M  V30 8061 H 781.123 -0.599269 5.84536 0
M  V30 8062 H 782.647 -1.52936 5.91137 0
M  V30 8063 H 784.061 0.730892 5.68622 0
M  V30 8064 H 782.458 1.51278 5.80719 0
M  V30 8065 H 783.528 1.91878 4.45321 0
M  V30 8066 N 784.871 -1.49948 0.485112 0
M  V30 8067 C 785.821 -2.25734 -0.320658 0
M  V30 8068 C 786.805 -1.29907 -0.949373 0
M  V30 8069 O 787.997 -1.54725 -0.859601 0
M  V30 8070 C 785.126 -3.13728 -1.39391 0
M  V30 8071 C 784.212 -4.1701 -0.772225 0
M  V30 8072 N 784.603 -5.05667 0.115782 0
M  V30 8073 C 782.901 -4.33834 -1.03461 0
M  V30 8074 C 783.602 -5.79798 0.47004 0
M  V30 8075 N 782.578 -5.4337 -0.158204 0
M  V30 8076 H 786.38 -2.91647 0.36319 0
M  V30 8077 H 783.894 -1.59602 0.300154 0
M  V30 8078 H 785.891 -3.66639 -1.98447 0
M  V30 8079 H 784.551 -2.49365 -2.0796 0
M  V30 8080 H 785.562 -5.15619 0.485557 0
M  V30 8081 H 782.239 -3.80684 -1.71424 0
M  V30 8082 H 783.629 -6.61177 1.19558 0
M  V30 8083 N 786.349 -0.21828 -1.56081 0
M  V30 8084 C 787.279 0.687922 -2.23136 0
M  V30 8085 C 788.26 1.20357 -1.202 0
M  V30 8086 O 789.445 1.24817 -1.48776 0
M  V30 8087 C 786.575 1.89762 -2.90874 0
M  V30 8088 C 785.529 1.51595 -4.00254 0
M  V30 8089 C 784.855 2.80415 -4.55271 0
M  V30 8090 C 786.155 0.708404 -5.17474 0
M  V30 8091 H 787.849 0.128854 -2.99123 0
M  V30 8092 H 785.395 0.0605354 -1.43873 0
M  V30 8093 H 787.348 2.53699 -3.36474 0
M  V30 8094 H 786.072 2.4816 -2.1233 0
M  V30 8095 H 784.731 0.900058 -3.55379 0
M  V30 8096 H 784.379 3.36951 -3.73461 0
M  V30 8097 H 784.079 2.55613 -5.2909 0
M  V30 8098 H 785.603 3.453 -5.03587 0
M  V30 8099 H 787.017 1.2514 -5.59476 0
M  V30 8100 H 785.414 0.557593 -5.97504 0
M  V30 8101 H 786.484 -0.285679 -4.84058 0
M  V30 8102 N 787.827 1.57504 0.0551401 0
M  V30 8103 C 788.79 2.03826 1.04821 0
M  V30 8104 C 789.79 0.937968 1.30609 0
M  V30 8105 O 790.98 1.20237 1.2605 0
M  V30 8106 C 788.112 2.43309 2.38775 0
M  V30 8107 H 789.305 2.92802 0.6486 0
M  V30 8108 H 786.858 1.53368 0.301315 0
M  V30 8109 H 787.593 1.5741 2.83536 0
M  V30 8110 H 787.378 3.23615 2.21395 0
M  V30 8111 H 788.868 2.79666 3.10124 0
M  V30 8112 N 789.305 -0.326896 1.54172 0
M  V30 8113 C 790.551 -1.06681 1.72473 0
M  V30 8114 C 790.884 -1.87779 0.49523 0
M  V30 8115 O 790.159 -1.87754 -0.507803 0
M  V30 8116 C 790.442 -1.99429 2.99834 0
M  V30 8117 C 790.295 -1.21682 4.33028 0
M  V30 8118 C 791.614 -2.99002 3.22933 0
M  V30 8119 H 788.733 -0.386438 0.627563 0
M  V30 8120 H 791.375 -0.343779 1.86864 0
M  V30 8121 H 789.525 -2.61081 2.87696 0
M  V30 8122 H 791.197 -0.625153 4.57044 0
M  V30 8123 H 789.44 -0.519045 4.30684 0
M  V30 8124 H 790.111 -1.89766 5.18356 0
M  V30 8125 H 792.587 -2.4747 3.34511 0
M  V30 8126 H 791.463 -3.61085 4.13412 0
M  V30 8127 H 791.724 -3.71281 2.40006 0
M  V30 8128 N 790.784 -1.46188 -0.588786 0
M  V30 8129 C 792.033 -1.50452 -1.34339 0
M  V30 8130 C 792.346 -0.158096 -1.9496 0
M  V30 8131 O 793.552 -0.0784918 -2.71387 0
M  V30 8132 C 792.008 -2.65074 -2.43441 0
M  V30 8133 C 791.616 -4.06111 -1.8915 0
M  V30 8134 C 793.36 -2.78603 -3.20282 0
M  V30 8135 C 791.267 -5.12084 -2.95845 0
M  V30 8136 H 790.197 -0.559905 -0.504997 0
M  V30 8137 H 792.848 -1.72382 -0.629014 0
M  V30 8138 H 791.23 -2.36462 -3.1765 0
M  V30 8139 H 792.404 -4.44487 -1.21524 0
M  V30 8140 H 790.719 -3.97197 -1.24995 0
M  V30 8141 H 793.316 -3.54944 -3.99898 0
M  V30 8142 H 793.659 -1.85902 -3.72486 0
M  V30 8143 H 794.192 -3.06832 -2.53178 0
M  V30 8144 H 790.931 -6.06556 -2.48535 0
M  V30 8145 H 790.451 -4.78259 -3.61979 0
M  V30 8146 H 792.13 -5.37661 -3.59902 0
M  V30 8147 N 792.262 0.832906 -1.33792 0
M  V30 8148 C 793.49 1.62048 -1.28639 0
M  V30 8149 C 793.905 1.88269 0.141522 0
M  V30 8150 O 793.262 1.46706 1.08553 0
M  V30 8151 C 793.313 2.96722 -2.0649 0
M  V30 8152 O 793.034 2.7165 -3.43712 0
M  V30 8153 C 794.535 3.91144 -2.08617 0
M  V30 8154 H 791.755 0.504032 -0.442937 0
M  V30 8155 H 794.299 1.03704 -1.76255 0
M  V30 8156 H 792.454 3.51652 -1.62541 0
M  V30 8157 H 792.868 3.57453 -3.83833 0
M  V30 8158 H 794.342 4.82837 -2.67531 0
M  V30 8159 H 794.819 4.25766 -1.07796 0
M  V30 8160 H 795.425 3.42152 -2.52611 0
M  V30 8161 N 793.74 1.17359 1.05189 0
M  V30 8162 C 794.988 0.960087 1.77839 0
M  V30 8163 C 795.309 -0.512554 1.88143 0
M  V30 8164 O 794.579 -1.3721 1.39822 0
M  V30 8165 H 793.159 0.352234 0.658741 0
M  V30 8166 H 795.821 1.47834 1.27008 0
M  V30 8167 H 794.917 1.38843 2.79516 0
M  V30 8168 N 795.218 -1.23913 0.973828 0
M  V30 8169 C 796.15 -2.24397 0.466763 0
M  V30 8170 C 797.163 -1.57078 -0.427828 0
M  V30 8171 O 798.352 -1.76973 -0.233019 0
M  V30 8172 C 795.452 -3.37141 -0.344798 0
M  V30 8173 C 794.625 -4.34037 0.541349 0
M  V30 8174 C 793.684 -5.2576 -0.215243 0
M  V30 8175 O 792.71 -5.67842 0.39291 0
M  V30 8176 N 793.912 -5.60702 -1.5031 0
M  V30 8177 H 796.677 -2.68536 1.33074 0
M  V30 8178 H 794.238 -1.38017 0.846346 0
M  V30 8179 H 796.23 -3.95476 -0.859133 0
M  V30 8180 H 794.8 -2.92239 -1.10974 0
M  V30 8181 H 794.02 -3.74302 1.23659 0
M  V30 8182 H 795.308 -4.95738 1.1455 0
M  V30 8183 H 794.706 -5.28451 -2.01882 0
M  V30 8184 H 793.263 -6.21538 -1.96301 0
M  V30 8185 N 796.696 -0.74468 -1.38897 0
M  V30 8186 C 797.924 -0.307428 -2.04603 0
M  V30 8187 C 798.339 1.06115 -1.56157 0
M  V30 8188 O 797.696 1.67233 -0.730701 0
M  V30 8189 C 797.747 -0.31101 -3.6016 0
M  V30 8190 O 797.468 -1.62557 -4.06825 0
M  V30 8191 C 798.969 0.141213 -4.43075 0
M  V30 8192 H 796.189 -0.132741 -0.657739 0
M  V30 8193 H 798.733 -1.01104 -1.77759 0
M  V30 8194 H 796.888 0.343792 -3.85872 0
M  V30 8195 H 797.302 -1.54569 -5.01207 0
M  V30 8196 H 798.776 0.0875449 -5.51931 0
M  V30 8197 H 799.253 1.18782 -4.22833 0
M  V30 8198 H 799.859 -0.484383 -4.22533 0
M  V30 8199 N 798.174 1.49689 -0.493057 0
M  V30 8200 C 799.399 2.07331 0.0535114 0
M  V30 8201 C 799.824 1.35196 1.30781 0
M  V30 8202 O 799.182 0.406246 1.7669 0
M  V30 8203 C 799.23 3.59364 0.29825 0
M  V30 8204 O 798.334 3.88819 1.37454 0
M  V30 8205 H 797.675 0.663612 -0.0227018 0
M  V30 8206 H 800.205 1.926 -0.690402 0
M  V30 8207 H 800.215 4.04515 0.532159 0
M  V30 8208 H 798.89 4.1128 -0.618207 0
M  V30 8209 H 797.467 3.55487 1.12621 0
M  V30 8210 N 799.652 0.226554 1.55963 0
M  V30 8211 C 800.898 -0.404387 1.98727 0
M  V30 8212 C 801.231 -1.59059 1.11418 0
M  V30 8213 O 800.506 -1.93729 0.172971 0
M  V30 8214 C 800.789 -0.834081 3.50307 0
M  V30 8215 C 800.642 0.356104 4.48388 0
M  V30 8216 C 801.961 -1.68845 4.06423 0
M  V30 8217 H 799.08 -0.145515 0.722492 0
M  V30 8218 H 801.722 0.323791 1.87221 0
M  V30 8219 H 799.872 -1.45454 3.60244 0
M  V30 8220 H 801.544 0.99432 4.50456 0
M  V30 8221 H 799.787 1.0027 4.22053 0
M  V30 8222 H 800.458 0.0124333 5.51999 0
M  V30 8223 H 802.934 -1.16489 3.99461 0
M  V30 8224 H 801.81 -1.958 5.1279 0
M  V30 8225 H 802.071 -2.65347 3.53615 0
M  V30 8226 N 801.13 -1.57531 -0.0467866 0
M  V30 8227 C 802.376 -1.8873 -0.742218 0
M  V30 8228 C 802.709 -0.822084 -1.75941 0
M  V30 8229 O 801.984 0.164922 -1.938 0
M  V30 8230 C 802.267 -3.30586 -1.42776 0
M  V30 8231 C 802.12 -4.47785 -0.425285 0
M  V30 8232 C 803.439 -3.71068 -2.36636 0
M  V30 8233 H 800.558 -0.686406 -0.268359 0
M  V30 8234 H 803.2 -1.89999 -0.00511341 0
M  V30 8235 H 801.35 -3.29634 -2.05605 0
M  V30 8236 H 803.022 -4.60867 0.199721 0
M  V30 8237 H 801.265 -4.33037 0.25713 0
M  V30 8238 H 801.936 -5.43884 -0.943086 0
M  V30 8239 H 804.412 -3.73273 -1.83866 0
M  V30 8240 H 803.288 -4.71165 -2.81593 0
M  V30 8241 H 803.549 -3.02355 -3.22542 0
M  V30 8242 N 802.608 0.318715 -1.54344 0
M  V30 8243 C 803.833 1.07987 -1.77069 0
M  V30 8244 C 804.258 1.80766 -0.520117 0
M  V30 8245 O 803.616 1.73424 0.528566 0
M  V30 8246 C 803.664 2.04987 -2.96669 0
M  V30 8247 O 802.768 3.12974 -2.68554 0
M  V30 8248 H 802.109 0.311109 -0.586606 0
M  V30 8249 H 804.639 0.361533 -2.0138 0
M  V30 8250 H 804.649 2.47771 -3.2415 0
M  V30 8251 H 803.324 1.51417 -3.87357 0
M  V30 8252 H 801.901 2.74831 -2.52037 0
M  V30 8253 N 804.086 1.46499 0.581025 0
M  V30 8254 C 805.333 1.51896 1.33918 0
M  V30 8255 C 805.661 0.171361 1.93744 0
M  V30 8256 O 804.916 -0.833178 1.77078 0
M  V30 8257 C 805.215 2.56686 2.48691 0
M  V30 8258 C 804.881 4.00656 2.06847 0
M  V30 8259 C 803.543 4.39852 1.9515 0
M  V30 8260 C 805.895 4.91089 1.74589 0
M  V30 8261 C 803.223 5.67345 1.49456 0
M  V30 8262 C 805.575 6.1902 1.30373 0
M  V30 8263 C 804.239 6.57121 1.17255 0
M  V30 8264 H 803.509 0.555826 0.490039 0
M  V30 8265 H 806.156 1.79983 0.654092 0
M  V30 8266 H 804.461 2.22266 3.22653 0
M  V30 8267 H 806.158 2.58091 3.06904 0
M  V30 8268 H 802.748 3.69674 2.16886 0
M  V30 8269 H 806.932 4.61523 1.8251 0
M  V30 8270 H 802.188 5.95635 1.37944 0
M  V30 8271 H 806.362 6.8852 1.04467 0
M  V30 8272 H 803.989 7.55805 0.816236 0
M  V30 8273 N 805.565 -0.825799 1.34232 0
M  V30 8274 C 806.495 -1.95151 1.28212 0
M  V30 8275 C 807.476 -1.69345 0.160123 0
M  V30 8276 O 808.661 -1.90983 0.352019 0
M  V30 8277 C 805.791 -3.31554 1.03388 0
M  V30 8278 C 804.745 -3.71793 2.12023 0
M  V30 8279 C 804.071 -5.06147 1.72392 0
M  V30 8280 C 805.371 -3.84193 3.53826 0
M  V30 8281 H 807.065 -2.00445 2.22401 0
M  V30 8282 H 804.611 -0.962996 1.07063 0
M  V30 8283 H 806.564 -4.09889 0.978225 0
M  V30 8284 H 805.288 -3.26551 0.0564142 0
M  V30 8285 H 803.947 -2.95731 2.16654 0
M  V30 8286 H 803.595 -4.97628 0.733137 0
M  V30 8287 H 803.295 -5.34041 2.451 0
M  V30 8288 H 804.819 -5.86943 1.68317 0
M  V30 8289 H 806.233 -4.52806 3.51624 0
M  V30 8290 H 804.63 -4.23538 4.2513 0
M  V30 8291 H 805.7 -2.86272 3.91377 0
M  V30 8292 N 807.043 -1.17915 -1.04565 0
M  V30 8293 C 807.973 -0.925033 -2.14395 0
M  V30 8294 C 808.954 0.135375 -1.6956 0
M  V30 8295 O 810.139 -0.0161774 -1.94193 0
M  V30 8296 C 807.269 -0.444469 -3.44444 0
M  V30 8297 C 806.223 -1.44478 -4.02877 0
M  V30 8298 C 805.549 -0.821933 -5.28345 0
M  V30 8299 C 806.849 -2.81995 -4.39632 0
M  V30 8300 H 808.543 -1.84354 -2.35911 0
M  V30 8301 H 806.089 -0.887806 -1.13375 0
M  V30 8302 H 808.042 -0.254078 -4.20633 0
M  V30 8303 H 806.766 0.509592 -3.226 0
M  V30 8304 H 805.425 -1.62203 -3.28764 0
M  V30 8305 H 805.073 0.139161 -5.02807 0
M  V30 8306 H 804.773 -1.48976 -5.68401 0
M  V30 8307 H 806.297 -0.641959 -6.07216 0
M  V30 8308 H 807.711 -2.67952 -5.06828 0
M  V30 8309 H 806.108 -3.45414 -4.90723 0
M  V30 8310 H 807.178 -3.35927 -3.49687 0
M  V30 8311 N 808.521 1.23394 -0.980386 0
M  V30 8312 C 809.937 1.43961 -0.689008 0
M  V30 8313 C 810.137 1.87229 0.744809 0
M  V30 8314 O 809.193 2.01831 1.51725 0
M  V30 8315 C 810.506 2.49128 -1.68392 0
M  V30 8316 C 812.054 2.62941 -1.69796 0
M  V30 8317 C 812.529 3.71317 -2.68118 0
M  V30 8318 N 814.02 3.7876 -2.66636 0
M  V30 8319 C 814.755 4.62176 -3.39383 0
M  V30 8320 N 814.251 5.49682 -4.21688 0
M  V30 8321 N 816.044 4.56372 -3.28147 0
M  V30 8322 H 808.195 0.936106 -1.90659 0
M  V30 8323 H 810.458 0.473023 -0.821555 0
M  V30 8324 H 810.164 2.24252 -2.70931 0
M  V30 8325 H 810.038 3.47514 -1.46675 0
M  V30 8326 H 812.425 2.87168 -0.679617 0
M  V30 8327 H 812.506 1.64871 -1.95579 0
M  V30 8328 H 812.15 3.4784 -3.70095 0
M  V30 8329 H 812.08 4.68929 -2.3961 0
M  V30 8330 H 814.571 3.16226 -2.06904 0
M  V30 8331 H 814.884 6.10323 -4.74053 0
M  V30 8332 H 813.229 5.49306 -4.25779 0
M  V30 8333 H 816.42 3.87029 -2.63299 0
M  V30 8334 H 816.593 5.21153 -3.85102 0
M  V30 8335 N 809.999 0.752036 1.385 0
M  V30 8336 C 811.245 0.307958 2.00448 0
M  V30 8337 C 811.578 -1.10702 1.59558 0
M  V30 8338 O 810.853 -1.75788 0.832391 0
M  V30 8339 C 811.136 0.429092 3.57534 0
M  V30 8340 C 810.989 1.88507 4.08393 0
M  V30 8341 C 812.308 -0.178442 4.39738 0
M  V30 8342 H 809.427 0.113373 0.728228 0
M  V30 8343 H 812.069 0.951389 1.64465 0
M  V30 8344 H 810.219 -0.118695 3.88319 0
M  V30 8345 H 811.891 2.49104 3.88259 0
M  V30 8346 H 810.134 2.40066 3.61318 0
M  V30 8347 H 810.805 1.92099 5.17496 0
M  V30 8348 H 813.281 0.28872 4.15097 0
M  V30 8349 H 812.157 -0.0634349 5.48863 0
M  V30 8350 H 812.418 -1.26655 4.23569 0
M  V30 8351 N 811.477 -1.49425 0.500989 0
M  V30 8352 C 812.725 -2.02053 -0.0434495 0
M  V30 8353 C 813.046 -1.38285 -1.37486 0
M  V30 8354 O 812.316 -0.538171 -1.88363 0
M  V30 8355 H 810.896 -0.746757 -0.0190469 0
M  V30 8356 H 813.558 -1.83449 0.658227 0
M  V30 8357 H 812.654 -3.11619 -0.173129 0
M  V30 8358 N 812.955 -0.234822 -1.55841 0
M  V30 8359 C 813.918 0.656378 -2.196 0
M  V30 8360 C 814.918 1.11179 -1.16171 0
M  V30 8361 O 816.108 1.01845 -1.41326 0
M  V30 8362 C 813.24 1.90072 -2.82993 0
M  V30 8363 H 814.433 0.100281 -2.99732 0
M  V30 8364 H 811.986 0.0147613 -1.56293 0
M  V30 8365 H 812.721 2.49836 -2.06767 0
M  V30 8366 H 812.506 1.5825 -3.58747 0
M  V30 8367 H 813.996 2.53538 -3.31826 0
M  V30 8368 N 814.433 1.57553 0.0384317 0
M  V30 8369 C 815.71 1.79977 0.766002 0
M  V30 8370 C 816.09 0.830625 1.94072 0
M  V30 8371 O 815.438 -0.129243 2.28134 0
M  V30 8372 C 815.648 3.27434 1.20781 0
M  V30 8373 C 816.996 3.92167 1.62758 0
M  V30 8374 O 818.02 3.31527 1.30263 0
M  V30 8375 O 816.879 4.98917 2.23035 0
M  V30 8376 H 813.973 0.739787 0.369654 0
M  V30 8377 H 816.519 1.69693 0.0159312 0
M  V30 8378 H 815.291 3.89558 0.368792 0
M  V30 8379 H 814.914 3.42571 2.01819 0
M  V30 8380 N 815.911 -0.310526 1.54511 0
M  V30 8381 C 817.322 -0.884142 1.64438 0
M  V30 8382 C 817.673 -1.88425 0.546855 0
M  V30 8383 O 816.798 -2.14049 -0.31811 0
M  V30 8384 C 817.393 -1.6104 2.9808 0
M  V30 8385 C 815.952 -2.13255 3.1016 0
M  V30 8386 C 815.099 -0.96213 2.60074 0
M  V30 8387 H 818.05 -0.0877666 1.58457 0
M  V30 8388 H 818.071 -2.47541 2.8897 0
M  V30 8389 H 817.583 -0.882255 3.77939 0
M  V30 8390 H 815.684 -2.89145 2.35002 0
M  V30 8391 H 815.797 -2.37361 4.16169 0
M  V30 8392 H 814.161 -1.34501 2.16291 0
M  V30 8393 H 814.944 -0.248098 3.42402 0
M  V30 8394 N 817.389 -1.46805 -0.573248 0
M  V30 8395 C 818.352 -1.57655 -1.66366 0
M  V30 8396 C 819.352 -0.452905 -1.5429 0
M  V30 8397 O 820.542 -0.717502 -1.58737 0
M  V30 8398 C 817.674 -1.50584 -3.05839 0
M  V30 8399 H 818.867 -2.54842 -1.581 0
M  V30 8400 H 816.42 -1.34756 -0.791868 0
M  V30 8401 H 817.155 -0.547127 -3.19651 0
M  V30 8402 H 816.94 -2.32118 -3.16012 0
M  V30 8403 H 818.43 -1.61282 -3.85199 0
M  V30 8404 N 818.867 0.818669 -1.34668 0
M  V30 8405 C 819.797 1.94468 -1.29245 0
M  V30 8406 C 820.778 1.69257 -0.169101 0
M  V30 8407 O 821.963 1.90794 -0.362143 0
M  V30 8408 C 819.093 3.31001 -1.05145 0
M  V30 8409 C 818.047 3.70663 -2.13992 0
M  V30 8410 C 817.373 5.05226 -1.75074 0
M  V30 8411 C 818.673 3.82312 -3.55858 0
M  V30 8412 H 820.367 1.99263 -2.2346 0
M  V30 8413 H 817.913 0.957304 -1.07572 0
M  V30 8414 H 819.866 4.09364 -0.999949 0
M  V30 8415 H 818.59 3.26517 -0.0737312 0
M  V30 8416 H 817.249 2.94578 -2.18219 0
M  V30 8417 H 816.897 4.97233 -0.759518 0
M  V30 8418 H 816.597 5.32734 -2.47928 0
M  V30 8419 H 818.121 5.86042 -1.71427 0
M  V30 8420 H 819.535 4.50935 -3.5402 0
M  V30 8421 H 817.932 4.21278 -4.2737 0
M  V30 8422 H 819.002 2.84193 -3.9289 0
M  V30 8423 N 820.346 1.18468 1.03938 0
M  V30 8424 C 821.276 0.936389 2.13902 0
M  V30 8425 C 822.257 -0.126381 1.6963 0
M  V30 8426 O 823.442 0.0264757 1.94182 0
M  V30 8427 C 820.572 0.462729 3.44204 0
M  V30 8428 C 819.526 1.46613 4.02105 0
M  V30 8429 C 818.852 0.84994 5.27902 0
M  V30 8430 C 820.152 2.84323 4.3813 0
M  V30 8431 H 821.846 1.85602 2.3493 0
M  V30 8432 H 819.392 0.893806 1.12903 0
M  V30 8433 H 821.345 0.276382 4.20493 0
M  V30 8434 H 820.069 -0.492477 3.22866 0
M  V30 8435 H 818.728 1.63944 3.27899 0
M  V30 8436 H 818.376 -0.112493 5.02874 0
M  V30 8437 H 818.076 1.51988 5.67603 0
M  V30 8438 H 819.6 0.674152 6.06867 0
M  V30 8439 H 821.014 2.70636 5.054 0
M  V30 8440 H 819.411 3.48012 4.88884 0
M  V30 8441 H 820.481 3.37776 3.47901 0
M  V30 8442 N 821.824 -1.22873 0.986916 0
M  V30 8443 C 823.101 -1.86939 0.575589 0
M  V30 8444 C 823.481 -1.88656 -0.947205 0
M  V30 8445 O 822.829 -1.3728 -1.82665 0
M  V30 8446 C 823.039 -3.28117 1.18914 0
M  V30 8447 C 824.387 -4.04659 1.28593 0
M  V30 8448 O 825.411 -3.3736 1.14308 0
M  V30 8449 O 824.27 -5.25112 1.51391 0
M  V30 8450 H 821.364 -0.803748 0.194724 0
M  V30 8451 H 823.91 -1.30698 1.08241 0
M  V30 8452 H 822.682 -3.21468 2.231 0
M  V30 8453 H 822.305 -3.91956 0.667535 0
M  V30 8454 N 823.302 -0.75937 -1.38099 0
M  V30 8455 C 824.718 -0.437606 -1.53483 0
M  V30 8456 C 824.918 1.04849 -1.72072 0
M  V30 8457 O 823.974 1.83448 -1.73502 0
M  V30 8458 C 825.287 -1.24189 -2.73857 0
M  V30 8459 C 826.835 -1.23255 -2.8771 0
M  V30 8460 C 827.31 -2.01992 -4.11051 0
M  V30 8461 N 828.801 -1.99282 -4.1814 0
M  V30 8462 C 829.536 -2.56996 -5.12583 0
M  V30 8463 N 829.032 -3.23446 -6.12662 0
M  V30 8464 N 830.825 -2.46894 -5.04975 0
M  V30 8465 H 822.976 -1.72242 -1.24283 0
M  V30 8466 H 825.239 -0.730507 -0.604205 0
M  V30 8467 H 824.945 -2.29449 -2.66545 0
M  V30 8468 H 824.819 -0.862672 -3.67203 0
M  V30 8469 H 827.206 -0.187988 -2.94501 0
M  V30 8470 H 827.287 -1.65132 -1.95359 0
M  V30 8471 H 826.931 -3.06462 -4.05023 0
M  V30 8472 H 826.861 -1.57505 -5.02494 0
M  V30 8473 H 829.352 -1.50893 -3.46467 0
M  V30 8474 H 829.665 -3.6489 -6.81231 0
M  V30 8475 H 828.01 -3.27543 -6.12977 0
M  V30 8476 H 831.201 -1.94604 -4.25731 0
M  V30 8477 H 831.374 -2.92168 -5.78396 0
M  V30 8478 N 824.78 1.49157 -0.508906 0
M  V30 8479 C 825.73 2.26215 0.284705 0
M  V30 8480 C 826.714 1.31401 0.928586 0
M  V30 8481 O 827.906 1.56073 0.834877 0
M  V30 8482 C 825.035 3.15906 1.34382 0
M  V30 8483 C 824.121 4.18186 0.705785 0
M  V30 8484 N 824.512 5.05419 -0.196214 0
M  V30 8485 C 822.81 4.35425 0.965457 0
M  V30 8486 C 823.511 5.78977 -0.562222 0
M  V30 8487 N 822.487 5.43553 0.0717389 0
M  V30 8488 H 826.289 2.91033 -0.409543 0
M  V30 8489 H 823.803 1.59104 -0.325508 0
M  V30 8490 H 825.8 3.6975 1.92589 0
M  V30 8491 H 824.46 2.52642 2.03966 0
M  V30 8492 H 825.471 5.14781 -0.567526 0
M  V30 8493 H 822.148 3.83363 1.65346 0
M  V30 8494 H 823.538 6.59192 -1.30062 0
M  V30 8495 N 826.258 0.243083 1.55714 0
M  V30 8496 C 827.506 -0.381964 1.98458 0
M  V30 8497 C 827.827 -1.58745 1.13247 0
M  V30 8498 O 827.097 -1.94723 0.214384 0
M  V30 8499 H 825.677 -0.144114 0.732967 0
M  V30 8500 H 828.339 0.340985 1.91894 0
M  V30 8501 H 827.435 -0.693702 3.04293 0
M  V30 8502 N 827.736 -1.57571 -0.0300757 0
M  V30 8503 C 829.013 -1.80381 -0.756447 0
M  V30 8504 C 829.393 -0.840906 -1.93628 0
M  V30 8505 O 828.741 0.117143 -2.282 0
M  V30 8506 C 828.951 -3.2807 -1.19043 0
M  V30 8507 C 830.299 -3.93025 -1.60676 0
M  V30 8508 O 831.323 -3.32213 -1.28503 0
M  V30 8509 O 830.182 -5.00092 -2.20386 0
M  V30 8510 H 827.276 -0.741737 -0.365725 0
M  V30 8511 H 829.822 -1.69699 -0.00693177 0
M  V30 8512 H 828.594 -3.89748 -0.348128 0
M  V30 8513 H 828.217 -3.43637 -1.99999 0
M  V30 8514 N 829.214 0.302327 -1.54673 0
M  V30 8515 C 830.439 1.06103 -1.78205 0
M  V30 8516 C 830.864 1.80204 -0.53926 0
M  V30 8517 O 830.222 1.73975 0.510142 0
M  V30 8518 C 830.27 2.01829 -2.98827 0
M  V30 8519 O 829.374 3.10108 -2.71858 0
M  V30 8520 H 828.715 0.30487 -0.589873 0
M  V30 8521 H 831.245 0.340153 -2.01753 0
M  V30 8522 H 831.255 2.44319 -3.2676 0
M  V30 8523 H 829.93 1.473 -3.88942 0
M  V30 8524 H 828.507 2.72142 -2.54937 0
M  V30 8525 N 830.692 1.47107 0.565454 0
M  V30 8526 C 831.655 1.58535 1.65527 0
M  V30 8527 C 832.655 0.461081 1.54048 0
M  V30 8528 O 833.845 0.725911 1.58355 0
M  V30 8529 C 830.977 1.52204 3.05036 0
M  V30 8530 H 832.17 2.55676 1.56747 0
M  V30 8531 H 829.723 1.35174 0.78471 0
M  V30 8532 H 830.458 0.564071 3.19357 0
M  V30 8533 H 830.243 2.3379 3.14777 0
M  V30 8534 H 831.733 1.63322 3.84338 0
M  V30 8535 N 832.17 -0.811516 1.35101 0
M  V30 8536 C 833.103 -1.92872 1.21966 0
M  V30 8537 C 834.081 -1.62236 0.108667 0
M  V30 8538 O 835.265 -1.8647 0.275875 0
M  V30 8539 C 832.392 -3.27152 0.876886 0
M  V30 8540 C 831.438 -3.7674 1.99924 0
M  V30 8541 S 832.271 -3.95132 3.61429 0
M  V30 8542 C 833.427 -5.32322 3.29218 0
M  V30 8543 H 833.66 -2.03718 2.16532 0
M  V30 8544 H 831.193 -0.968352 1.20259 0
M  V30 8545 H 833.151 -4.04729 0.685917 0
M  V30 8546 H 831.812 -3.14059 -0.0506289 0
M  V30 8547 H 831.005 -4.73981 1.71343 0
M  V30 8548 H 830.607 -3.06145 2.14829 0
M  V30 8549 H 832.899 -6.1614 2.8174 0
M  V30 8550 H 833.842 -5.65893 4.25641 0
M  V30 8551 H 834.25 -4.98374 2.65111 0
M  V30 8552 N 833.648 -1.19017 -1.03309 0
M  V30 8553 C 834.598 -0.89194 -2.0983 0
M  V30 8554 C 835.582 0.14151 -1.60277 0
M  V30 8555 O 836.774 -0.0635946 -1.76886 0
M  V30 8556 C 833.903 -0.427793 -3.40624 0
M  V30 8557 C 832.989 -1.49374 -3.96923 0
M  V30 8558 N 833.38 -2.71213 -4.26939 0
M  V30 8559 C 831.678 -1.35605 -4.24885 0
M  V30 8560 C 832.379 -3.39849 -4.72099 0
M  V30 8561 N 831.355 -2.67239 -4.73375 0
M  V30 8562 H 835.157 -1.81801 -2.30923 0
M  V30 8563 H 832.671 -1.08171 -1.21131 0
M  V30 8564 H 834.668 -0.195608 -4.16441 0
M  V30 8565 H 833.328 0.491848 -3.20953 0
M  V30 8566 H 834.339 -3.08014 -4.16351 0
M  V30 8567 H 831.016 -0.499537 -4.14501 0
M  V30 8568 H 832.406 -4.44018 -5.04279 0
M  V30 8569 N 835.127 1.22348 -0.993418 0
M  V30 8570 C 836.057 2.26584 -0.564088 0
M  V30 8571 C 837.038 1.65102 0.409298 0
M  V30 8572 O 838.223 1.91872 0.299819 0
M  V30 8573 C 835.353 3.47087 0.121554 0
M  V30 8574 C 834.307 4.21009 -0.770429 0
M  V30 8575 C 833.633 5.34678 0.0481586 0
M  V30 8576 C 834.933 4.79636 -2.06752 0
M  V30 8577 H 836.627 2.62749 -1.43538 0
M  V30 8578 H 834.173 1.26303 -0.691628 0
M  V30 8579 H 836.126 4.19166 0.433303 0
M  V30 8580 H 834.85 3.1002 1.0274 0
M  V30 8581 H 833.509 3.50764 -1.06583 0
M  V30 8582 H 833.157 4.93852 0.954933 0
M  V30 8583 H 832.857 5.85061 -0.545641 0
M  V30 8584 H 834.381 6.09573 0.353991 0
M  V30 8585 H 835.795 5.43654 -1.81969 0
M  V30 8586 H 834.192 5.4036 -2.61019 0
M  V30 8587 H 835.262 3.99659 -2.74592 0
M  V30 8588 N 836.605 0.766683 1.37694 0
M  V30 8589 C 837.568 0.155849 2.2867 0
M  V30 8590 C 838.568 -0.633509 1.47795 0
M  V30 8591 O 839.758 -0.457844 1.68076 0
M  V30 8592 C 836.89 -0.786965 3.31692 0
M  V30 8593 H 838.083 0.957748 2.84196 0
M  V30 8594 H 835.636 0.534554 1.46875 0
M  V30 8595 H 836.371 -1.61406 2.8128 0
M  V30 8596 H 836.156 -0.223182 3.91464 0
M  V30 8597 H 837.646 -1.20994 3.99688 0
M  V30 8598 N 838.083 -1.48885 0.516809 0
M  V30 8599 C 839.013 -2.32241 -0.242157 0
M  V30 8600 C 839.994 -1.41258 -0.947633 0
M  V30 8601 O 841.179 -1.70156 -0.935973 0
M  V30 8602 C 838.309 -3.22151 -1.29754 0
M  V30 8603 C 837.263 -4.22053 -0.710995 0
M  V30 8604 C 836.589 -5.01007 -1.86806 0
M  V30 8605 C 837.889 -5.21388 0.30853 0
M  V30 8606 H 839.583 -2.95943 0.453651 0
M  V30 8607 H 837.129 -1.42316 0.219612 0
M  V30 8608 H 839.082 -3.79284 -1.83634 0
M  V30 8609 H 837.806 -2.56423 -2.02274 0
M  V30 8610 H 836.465 -3.66087 -0.193819 0
M  V30 8611 H 836.113 -4.31713 -2.58133 0
M  V30 8612 H 835.813 -5.68615 -1.48159 0
M  V30 8613 H 837.337 -5.60989 -2.4109 0
M  V30 8614 H 838.751 -5.73122 -0.142703 0
M  V30 8615 H 837.148 -5.96975 0.611673 0
M  V30 8616 H 838.218 -4.69329 1.21894 0
M  V30 8617 N 839.561 -0.251338 -1.55583 0
M  V30 8618 C 840.977 0.103409 -1.59265 0
M  V30 8619 C 841.177 1.56559 -1.26852 0
M  V30 8620 O 840.233 2.31071 -1.01796 0
M  V30 8621 C 841.546 -0.249781 -2.99661 0
M  V30 8622 C 843.094 -0.194442 -3.12395 0
M  V30 8623 C 843.569 -0.521728 -4.55019 0
M  V30 8624 N 845.06 -0.472393 -4.60785 0
M  V30 8625 C 845.795 -0.698737 -5.69127 0
M  V30 8626 N 845.291 -0.988443 -6.85713 0
M  V30 8627 N 847.084 -0.629143 -5.58568 0
M  V30 8628 H 839.235 -1.20484 -1.74921 0
M  V30 8629 H 841.498 -0.485092 -0.814488 0
M  V30 8630 H 841.204 -1.26577 -3.28133 0
M  V30 8631 H 841.078 0.420973 -3.74844 0
M  V30 8632 H 843.465 0.812229 -2.83702 0
M  V30 8633 H 843.546 -0.899111 -2.39478 0
M  V30 8634 H 843.19 -1.52597 -4.84434 0
M  V30 8635 H 843.12 0.204468 -5.26203 0
M  V30 8636 H 845.611 -0.257386 -3.77022 0
M  V30 8637 H 845.924 -1.14846 -7.64219 0
M  V30 8638 H 844.269 -1.02596 -6.87386 0
M  V30 8639 H 847.46 -0.402826 -4.66364 0
M  V30 8640 H 847.633 -0.808935 -6.42931 0
M  V30 8641 N 841.039 1.57585 0.0217189 0
M  V30 8642 C 842.002 2.06004 1.00474 0
M  V30 8643 C 843.002 0.965461 1.2859 0
M  V30 8644 O 844.192 1.22884 1.23471 0
M  V30 8645 C 841.324 2.48319 2.33561 0
M  V30 8646 H 842.517 2.94112 0.586346 0
M  V30 8647 H 840.07 1.53973 0.268716 0
M  V30 8648 H 840.805 1.63389 2.80133 0
M  V30 8649 H 840.59 3.28239 2.1448 0
M  V30 8650 H 842.08 2.86181 3.04122 0
M  V30 8651 N 842.517 -0.29412 1.54831 0
M  V30 8652 C 843.765 -1.02643 1.74094 0
M  V30 8653 C 844.086 -1.87563 0.533402 0
M  V30 8654 O 843.356 -1.9061 -0.452192 0
M  V30 8655 H 841.936 -0.381959 0.641963 0
M  V30 8656 H 844.598 -0.323444 1.92197 0
M  V30 8657 H 843.694 -1.67558 2.63307 0
M  V30 8658 N 843.995 -1.47404 -0.557645 0
M  V30 8659 C 844.958 -1.59411 -1.64684 0
M  V30 8660 C 845.958 -0.469244 -1.53801 0
M  V30 8661 O 847.148 -0.734298 -1.57967 0
M  V30 8662 C 844.28 -1.5382 -3.04224 0
M  V30 8663 H 845.473 -2.56504 -1.55389 0
M  V30 8664 H 843.026 -1.35588 -0.777531 0
M  V30 8665 H 843.761 -0.581 -3.19053 0
M  V30 8666 H 843.546 -2.35456 -3.13533 0
M  V30 8667 H 845.036 -1.65358 -3.83466 0
M  V30 8668 N 845.473 0.80434 -1.35529 0
M  V30 8669 C 846.721 1.55845 -1.28673 0
M  V30 8670 C 847.042 1.94511 0.137976 0
M  V30 8671 O 846.312 1.63775 1.07492 0
M  V30 8672 H 844.892 0.577931 -0.473291 0
M  V30 8673 H 847.554 0.959293 -1.69657 0
M  V30 8674 H 846.65 2.47285 -1.90411 0
M  V30 8675 N 846.951 1.19563 1.02676 0
M  V30 8676 C 847.914 0.937182 2.09164 0
M  V30 8677 C 848.914 -0.0831927 1.60585 0
M  V30 8678 O 850.104 0.15178 1.73538 0
M  V30 8679 C 847.236 0.408912 3.38439 0
M  V30 8680 H 848.429 1.88164 2.33526 0
M  V30 8681 H 845.982 1.00959 1.19319 0
M  V30 8682 H 846.717 -0.541497 3.19747 0
M  V30 8683 H 846.502 1.14464 3.7502 0
M  V30 8684 H 847.992 0.247242 4.16867 0
M  V30 8685 N 848.429 -1.21819 0.999893 0
M  V30 8686 C 849.84 -1.72517 0.713775 0
M  V30 8687 C 850.191 -1.80505 -0.768922 0
M  V30 8688 O 849.316 -1.45611 -1.60083 0
M  V30 8689 C 849.911 -3.13321 1.28901 0
M  V30 8690 C 848.47 -3.61396 1.05212 0
M  V30 8691 C 847.617 -2.39074 1.40494 0
M  V30 8692 H 850.568 -1.07068 1.17141 0
M  V30 8693 H 850.589 -3.74535 0.671084 0
M  V30 8694 H 850.101 -3.07475 2.36814 0
M  V30 8695 H 848.202 -3.72599 -0.0100732 0
M  V30 8696 H 848.315 -4.47145 1.72042 0
M  V30 8697 H 846.679 -2.41015 0.823642 0
M  V30 8698 H 847.462 -2.35884 2.49427 0
M  V30 8699 N 849.908 -0.773975 -1.37286 0
M  V30 8700 C 850.818 -0.162571 -2.34036 0
M  V30 8701 C 851.834 0.677022 -1.60289 0
M  V30 8702 O 853.01 0.596423 -1.92366 0
M  V30 8703 C 850.075 0.70457 -3.39465 0
M  V30 8704 C 849.136 -0.151738 -4.29032 0
M  V30 8705 C 848.369 0.674111 -5.29426 0
M  V30 8706 O 848.592 1.91107 -5.37433 0
M  V30 8707 O 847.526 0.0821398 -6.01844 0
M  V30 8708 H 851.352 -0.962119 -2.88057 0
M  V30 8709 H 848.937 -0.53517 -1.39486 0
M  V30 8710 H 850.819 1.19954 -4.03967 0
M  V30 8711 H 849.494 1.48227 -2.87768 0
M  V30 8712 H 848.401 -0.693118 -3.67623 0
M  V30 8713 H 849.734 -0.892575 -4.84039 0
M  V30 8714 N 851.386 1.48609 -0.524698 0
M  V30 8715 C 852.316 2.32366 0.229837 0
M  V30 8716 C 853.297 1.41759 0.940129 0
M  V30 8717 O 854.482 1.7065 0.926936 0
M  V30 8718 C 851.612 3.22835 1.28043 0
M  V30 8719 C 850.566 4.22424 0.688603 0
M  V30 8720 C 849.892 5.0199 1.84146 0
M  V30 8721 C 851.192 5.21217 -0.336176 0
M  V30 8722 H 852.886 2.95698 -0.469339 0
M  V30 8723 H 850.432 1.42197 -0.227156 0
M  V30 8724 H 852.385 3.80253 1.8162 0
M  V30 8725 H 851.109 2.57492 2.00912 0
M  V30 8726 H 849.768 3.66185 0.174402 0
M  V30 8727 H 849.416 4.33076 2.5584 0
M  V30 8728 H 849.116 5.69392 1.45142 0
M  V30 8729 H 850.64 5.62259 2.38111 0
M  V30 8730 H 852.054 5.7319 0.112307 0
M  V30 8731 H 850.451 5.96642 -0.643324 0
M  V30 8732 H 851.521 4.68676 -1.24381 0
M  V30 8733 N 852.864 0.259585 1.55447 0
M  V30 8734 C 853.794 -0.62852 2.24882 0
M  V30 8735 C 854.775 -1.17128 1.23349 0
M  V30 8736 O 855.96 -1.20829 1.52033 0
M  V30 8737 C 853.09 -1.81983 2.95803 0
M  V30 8738 C 852.044 -1.40929 4.04132 0
M  V30 8739 C 851.37 -2.68246 4.62545 0
M  V30 8740 C 852.67 -0.570956 5.1917 0
M  V30 8741 H 854.364 -0.0495021 2.99359 0
M  V30 8742 H 851.91 -0.0223688 1.43983 0
M  V30 8743 H 853.863 -2.44689 3.43082 0
M  V30 8744 H 852.587 -2.42444 2.18835 0
M  V30 8745 H 851.246 -0.805519 3.57641 0
M  V30 8746 H 850.894 -3.26931 3.82263 0
M  V30 8747 H 850.594 -2.41495 5.35681 0
M  V30 8748 H 852.118 -3.31827 5.12565 0
M  V30 8749 H 853.532 -1.10262 5.62597 0
M  V30 8750 H 851.929 -0.398979 5.98772 0
M  V30 8751 H 852.999 0.413918 4.8313 0
M  V30 8752 N 854.342 -1.57594 -0.0133615 0
M  V30 8753 C 855.758 -1.5527 -0.369255 0
M  V30 8754 C 855.958 -0.987751 -1.7563 0
M  V30 8755 O 855.014 -0.615683 -2.44879 0
M  V30 8756 C 856.327 -2.99602 -0.25672 0
M  V30 8757 C 857.875 -3.11227 -0.332647 0
M  V30 8758 C 858.35 -4.57321 -0.249387 0
M  V30 8759 N 859.841 -4.62177 -0.3077 0
M  V30 8760 C 860.576 -5.72781 -0.26641 0
M  V30 8761 N 860.072 -6.92575 -0.176494 0
M  V30 8762 N 861.865 -5.61204 -0.317295 0
M  V30 8763 H 854.016 -1.92662 0.894154 0
M  V30 8764 H 856.279 -0.884352 0.341505 0
M  V30 8765 H 855.985 -3.44723 0.697072 0
M  V30 8766 H 855.859 -3.6246 -1.04415 0
M  V30 8767 H 858.246 -2.66045 -1.27688 0
M  V30 8768 H 858.327 -2.51171 0.484412 0
M  V30 8769 H 857.971 -5.03174 0.691242 0
M  V30 8770 H 857.901 -5.15306 -1.08476 0
M  V30 8771 H 860.392 -3.75994 -0.379069 0
M  V30 8772 H 860.705 -7.72653 -0.150518 0
M  V30 8773 H 859.05 -6.94854 -0.142314 0
M  V30 8774 H 862.241 -4.66509 -0.385643 0
M  V30 8775 H 862.414 -6.47388 -0.28165 0
M  V30 8776 N 855.82 0.285905 -1.54985 0
M  V30 8777 C 856.783 1.33625 -1.86218 0
M  V30 8778 C 857.783 1.42971 -0.735936 0
M  V30 8779 O 858.973 1.42345 -1.00417 0
M  V30 8780 C 856.105 2.71926 -2.05595 0
M  V30 8781 H 857.298 1.07167 -2.80099 0
M  V30 8782 H 854.851 0.523335 -1.47278 0
M  V30 8783 H 855.586 3.03583 -1.14053 0
M  V30 8784 H 855.371 2.6653 -2.87583 0
M  V30 8785 H 856.861 3.47841 -2.31077 0
M  V30 8786 N 857.298 1.47698 0.54982 0
M  V30 8787 C 858.228 1.63622 1.66583 0
M  V30 8788 C 859.209 0.485477 1.63025 0
M  V30 8789 O 860.394 0.715692 1.80531 0
M  V30 8790 C 857.524 1.65721 3.05211 0
M  V30 8791 C 856.478 2.80097 3.2362 0
M  V30 8792 C 855.804 2.67272 4.63109 0
M  V30 8793 C 857.104 4.21612 3.08286 0
M  V30 8794 H 858.798 2.57049 1.53512 0
M  V30 8795 H 856.344 1.23705 0.737099 0
M  V30 8796 H 858.297 1.75451 3.83138 0
M  V30 8797 H 857.021 0.688593 3.19258 0
M  V30 8798 H 855.68 2.69889 2.48104 0
M  V30 8799 H 855.328 1.68422 4.73965 0
M  V30 8800 H 855.028 3.44008 4.76374 0
M  V30 8801 H 856.552 2.78942 5.43161 0
M  V30 8802 H 857.966 4.32758 3.76024 0
M  V30 8803 H 856.363 4.99193 3.33057 0
M  V30 8804 H 857.433 4.39462 2.04942 0
M  V30 8805 N 858.776 -0.797141 1.35954 0
M  V30 8806 C 859.706 -1.92387 1.32323 0
M  V30 8807 C 860.687 -1.68967 0.196007 0
M  V30 8808 O 861.872 -1.90193 0.39245 0
M  V30 8809 C 859.002 -3.29286 1.10398 0
M  V30 8810 C 857.956 -3.67212 2.19862 0
M  V30 8811 C 857.282 -5.02377 1.8309 0
M  V30 8812 C 858.582 -3.76602 3.61896 0
M  V30 8813 H 860.276 -1.95683 2.26602 0
M  V30 8814 H 857.822 -0.94007 1.09081 0
M  V30 8815 H 859.775 -4.07721 1.06495 0
M  V30 8816 H 858.499 -3.26358 0.125668 0
M  V30 8817 H 857.158 -2.91069 2.22878 0
M  V30 8818 H 856.806 -4.95961 0.838527 0
M  V30 8819 H 856.506 -5.28722 2.56372 0
M  V30 8820 H 858.03 -5.8324 1.80729 0
M  V30 8821 H 859.444 -4.45246 3.6115 0
M  V30 8822 H 857.841 -4.14425 4.34018 0
M  V30 8823 H 858.911 -2.77906 3.97361 0
M  V30 8824 N 860.254 -1.20106 -1.0204 0
M  V30 8825 C 861.186 -0.904236 -2.10609 0
M  V30 8826 C 862.199 0.106487 -1.62451 0
M  V30 8827 O 863.388 -0.124035 -1.78069 0
M  V30 8828 C 860.488 -0.333423 -3.37256 0
M  V30 8829 C 859.661 -1.39476 -4.14566 0
M  V30 8830 C 858.72 -0.835961 -5.19517 0
M  V30 8831 O 857.746 -1.51573 -5.48648 0
M  V30 8832 N 858.948 0.356531 -5.79404 0
M  V30 8833 H 861.713 -1.8388 -2.36661 0
M  V30 8834 H 859.274 -1.10422 -1.184 0
M  V30 8835 H 861.266 0.0544571 -4.04663 0
M  V30 8836 H 859.836 0.505608 -3.08484 0
M  V30 8837 H 859.056 -1.95714 -3.42184 0
M  V30 8838 H 860.344 -2.10967 -4.63001 0
M  V30 8839 H 859.742 0.926143 -5.58067 0
M  V30 8840 H 858.299 0.686093 -6.48179 0
M  V30 8841 N 861.732 1.21287 -1.00634 0
M  V30 8842 C 862.957 1.94925 -0.708441 0
M  V30 8843 C 863.382 1.73659 0.722783 0
M  V30 8844 O 862.74 1.02429 1.49593 0
M  V30 8845 C 862.788 3.45377 -1.03667 0
M  V30 8846 O 861.892 4.12153 -0.142661 0
M  V30 8847 H 861.233 0.609338 -0.263824 0
M  V30 8848 H 863.763 1.54008 -1.34695 0
M  V30 8849 H 863.773 3.95954 -0.984086 0
M  V30 8850 H 862.448 3.6018 -2.0795 0
M  V30 8851 H 861.025 3.72048 -0.251888 0
M  V30 8852 N 863.21 0.781244 1.36873 0
M  V30 8853 C 864.458 0.349198 1.9906 0
M  V30 8854 C 864.779 -1.0806 1.62321 0
M  V30 8855 O 864.049 -1.74351 0.893229 0
M  V30 8856 H 862.629 0.126126 0.736275 0
M  V30 8857 H 865.291 1.00148 1.67202 0
M  V30 8858 H 864.387 0.434451 3.09061 0
M  V30 8859 N 864.689 -1.48329 0.532571 0
M  V30 8860 C 865.652 -2.2816 -0.218069 0
M  V30 8861 C 866.652 -1.35526 -0.865409 0
M  V30 8862 O 867.842 -1.58394 -0.725061 0
M  V30 8863 C 864.974 -3.1448 -1.31586 0
M  V30 8864 H 866.167 -2.95987 0.482865 0
M  V30 8865 H 863.72 -1.53612 0.288603 0
M  V30 8866 H 864.455 -2.5129 -2.04997 0
M  V30 8867 H 864.24 -3.82625 -0.856779 0
M  V30 8868 H 865.73 -3.74693 -1.84377 0
M  V30 8869 N 866.167 -0.267825 -1.55308 0
M  V30 8870 C 867.578 0.231344 -1.85261 0
M  V30 8871 C 867.929 1.56006 -1.18982 0
M  V30 8872 O 867.054 2.1111 -0.475554 0
M  V30 8873 C 867.649 0.426537 -3.36104 0
M  V30 8874 C 866.208 0.869945 -3.66209 0
M  V30 8875 C 865.355 -0.0409522 -2.7727 0
M  V30 8876 H 868.306 -0.489821 -1.50952 0
M  V30 8877 H 868.327 1.26616 -3.58816 0
M  V30 8878 H 867.839 -0.540678 -3.84315 0
M  V30 8879 H 865.94 1.84889 -3.23492 0
M  V30 8880 H 866.053 0.712316 -4.73775 0
M  V30 8881 H 864.417 0.474097 -2.50249 0
M  V30 8882 H 865.2 -1.00392 -3.28293 0
M  V30 8883 N 867.645 1.57599 0.00500368 0
M  V30 8884 C 868.608 2.07058 0.982832 0
M  V30 8885 C 869.608 0.979045 1.27559 0
M  V30 8886 O 870.798 1.24187 1.22161 0
M  V30 8887 C 867.93 2.50782 2.30914 0
M  V30 8888 H 869.123 2.94718 0.555119 0
M  V30 8889 H 866.676 1.54249 0.25237 0
M  V30 8890 H 867.411 1.66351 2.78385 0
M  V30 8891 H 867.196 3.30495 2.10987 0
M  V30 8892 H 868.686 2.89391 3.0107 0
M  V30 8893 N 869.123 -0.277682 1.55134 0
M  V30 8894 C 870.369 -1.0114 1.7578 0
M  V30 8895 C 870.702 -1.86109 0.554719 0
M  V30 8896 O 869.977 -1.89275 -0.447813 0
M  V30 8897 C 870.26 -1.89789 3.06027 0
M  V30 8898 C 870.113 -1.07844 4.3668 0
M  V30 8899 C 871.432 -2.88577 3.32282 0
M  V30 8900 H 868.551 -0.366277 0.639539 0
M  V30 8901 H 871.193 -0.284155 1.87863 0
M  V30 8902 H 869.343 -2.51796 2.95856 0
M  V30 8903 H 871.015 -0.479432 4.58802 0
M  V30 8904 H 869.258 -0.381764 4.32117 0
M  V30 8905 H 869.929 -1.73179 5.24131 0
M  V30 8906 H 872.405 -2.36702 3.42215 0
M  V30 8907 H 871.281 -3.47749 4.2469 0
M  V30 8908 H 871.542 -3.63458 2.51696 0
M  V30 8909 N 870.601 -1.47988 -0.541979 0
M  V30 8910 C 872.012 -1.49073 -1.12402 0
M  V30 8911 C 872.363 -0.253825 -1.94551 0
M  V30 8912 O 871.488 0.640056 -2.06718 0
M  V30 8913 C 872.083 -2.7011 -2.04514 0
M  V30 8914 C 870.642 -2.74105 -2.5796 0
M  V30 8915 C 869.789 -2.42409 -1.3466 0
M  V30 8916 H 872.74 -1.55277 -0.327818 0
M  V30 8917 H 872.761 -2.47946 -2.88623 0
M  V30 8918 H 872.273 -3.60117 -1.44697 0
M  V30 8919 H 870.374 -1.88276 -3.21532 0
M  V30 8920 H 870.487 -3.75213 -2.97913 0
M  V30 8921 H 868.851 -1.9331 -1.65841 0
M  V30 8922 H 869.634 -3.34642 -0.766133 0
M  V30 8923 N 872.079 0.78992 -1.36375 0
M  V30 8924 C 873.011 1.91113 -1.26524 0
M  V30 8925 C 874.024 1.61747 -0.184851 0
M  V30 8926 O 875.213 1.73004 -0.439524 0
M  V30 8927 C 872.313 3.25908 -0.92937 0
M  V30 8928 C 871.486 3.83057 -2.11154 0
M  V30 8929 C 870.545 4.96289 -1.74881 0
M  V30 8930 O 869.571 5.12834 -2.46962 0
M  V30 8931 N 870.773 5.76478 -0.682193 0
M  V30 8932 H 873.538 2.00085 -2.23128 0
M  V30 8933 H 871.099 0.968165 -1.29762 0
M  V30 8934 H 873.091 3.99151 -0.667884 0
M  V30 8935 H 871.661 3.12556 -0.0524843 0
M  V30 8936 H 870.881 3.01808 -2.53586 0
M  V30 8937 H 872.169 4.1797 -2.90135 0
M  V30 8938 H 871.567 5.65638 -0.0836661 0
M  V30 8939 H 870.124 6.50026 -0.480529 0
M  V30 8940 N 873.557 1.20646 1.01402 0
M  V30 8941 C 874.487 0.98155 2.11867 0
M  V30 8942 C 875.468 -0.0903712 1.6986 0
M  V30 8943 O 876.653 0.0676586 1.94082 0
M  V30 8944 C 873.783 0.535636 3.43145 0
M  V30 8945 C 872.737 1.55109 3.98905 0
M  V30 8946 C 872.063 0.961725 5.2598 0
M  V30 8947 C 873.363 2.93552 4.32001 0
M  V30 8948 H 875.057 1.90544 2.3094 0
M  V30 8949 H 872.603 0.917554 1.10982 0
M  V30 8950 H 874.556 0.365512 4.19812 0
M  V30 8951 H 873.28 -0.423882 3.23838 0
M  V30 8952 H 871.939 1.70862 3.24348 0
M  V30 8953 H 871.587 -0.00580108 5.03 0
M  V30 8954 H 871.287 1.63993 5.64252 0
M  V30 8955 H 872.811 0.802726 6.053 0
M  V30 8956 H 874.225 2.81295 4.99546 0
M  V30 8957 H 872.622 3.58303 4.81393 0
M  V30 8958 H 873.692 3.4508 3.40658 0
M  V30 8959 N 875.035 -1.20752 1.01276 0
M  V30 8960 C 875.965 -2.25658 0.600064 0
M  V30 8961 C 876.946 -1.65733 -0.38298 0
M  V30 8962 O 878.131 -1.92324 -0.269256 0
M  V30 8963 C 875.261 -3.47237 -0.0663197 0
M  V30 8964 C 874.215 -4.1973 0.83731 0
M  V30 8965 C 873.541 -5.34687 0.0369102 0
M  V30 8966 C 874.841 -4.76286 2.14357 0
M  V30 8967 H 876.535 -2.60432 1.477 0
M  V30 8968 H 874.081 -1.25187 0.711634 0
M  V30 8969 H 876.034 -4.19803 -0.366563 0
M  V30 8970 H 874.758 -3.11615 -0.977944 0
M  V30 8971 H 873.417 -3.49024 1.1215 0
M  V30 8972 H 873.065 -4.95309 -0.876244 0
M  V30 8973 H 872.765 -5.84119 0.63865 0
M  V30 8974 H 874.289 -6.10059 -0.256968 0
M  V30 8975 H 875.703 -5.40691 1.90595 0
M  V30 8976 H 874.1 -5.36139 2.69583 0
M  V30 8977 H 875.17 -3.9524 2.80916 0
M  V30 8978 N 876.513 -0.788492 -1.36457 0
M  V30 8979 C 877.463 -0.159377 -2.27442 0
M  V30 8980 C 878.447 0.656146 -1.46913 0
M  V30 8981 O 879.639 0.516372 -1.693 0
M  V30 8982 C 876.768 0.705703 -3.35968 0
M  V30 8983 C 875.854 -0.11856 -4.23934 0
M  V30 8984 N 876.245 -1.1726 -4.9202 0
M  V30 8985 C 874.543 0.102752 -4.45882 0
M  V30 8986 C 875.244 -1.6743 -5.57083 0
M  V30 8987 N 874.22 -0.983682 -5.34626 0
M  V30 8988 H 878.022 -0.96614 -2.77566 0
M  V30 8989 H 875.536 -0.627864 -1.49772 0
M  V30 8990 H 877.533 1.17231 -4.00078 0
M  V30 8991 H 876.193 1.51102 -2.87399 0
M  V30 8992 H 877.204 -1.55502 -4.94004 0
M  V30 8993 H 873.881 0.878651 -4.08149 0
M  V30 8994 H 875.271 -2.55423 -6.21457 0
M  V30 8995 N 877.991 1.48044 -0.54043 0
M  V30 8996 C 878.924 2.26667 0.264083 0
M  V30 8997 C 879.902 1.32996 0.935456 0
M  V30 8998 O 881.086 1.62354 0.95778 0
M  V30 8999 C 878.213 3.09541 1.37485 0
M  V30 9000 C 877.259 4.18664 0.813792 0
M  V30 9001 S 878.092 5.34503 -0.326536 0
M  V30 9002 C 879.248 6.20939 0.786452 0
M  V30 9003 H 879.481 2.94554 -0.403129 0
M  V30 9004 H 877.014 1.5091 -0.326415 0
M  V30 9005 H 878.972 3.57863 2.01107 0
M  V30 9006 H 877.633 2.41048 2.01382 0
M  V30 9007 H 876.826 4.76316 1.6474 0
M  V30 9008 H 876.428 3.73136 0.254066 0
M  V30 9009 H 878.72 6.56273 1.68262 0
M  V30 9010 H 879.663 7.07667 0.247673 0
M  V30 9011 H 880.071 5.54236 1.07156 0
M  V30 9012 N 879.47 0.276058 1.55163 0
M  V30 9013 C 880.881 -0.221516 1.85381 0
M  V30 9014 C 881.232 -1.55372 1.19808 0
M  V30 9015 O 880.357 -2.10855 0.486742 0
M  V30 9016 C 880.952 -0.408706 3.36326 0
M  V30 9017 C 879.511 -0.850512 3.66665 0
M  V30 9018 C 878.658 0.055656 2.77244 0
M  V30 9019 H 881.609 0.497819 1.5069 0
M  V30 9020 H 881.63 -1.24711 3.59482 0
M  V30 9021 H 881.142 0.561052 3.84023 0
M  V30 9022 H 879.243 -1.83171 3.24468 0
M  V30 9023 H 879.356 -0.687181 4.74146 0
M  V30 9024 H 877.72 -0.460819 2.50497 0
M  V30 9025 H 878.503 1.02131 3.27756 0
M  V30 9026 N 880.948 -1.576 0.00335426 0
M  V30 9027 C 882.225 -1.81945 -0.718015 0
M  V30 9028 C 882.605 -0.881788 -1.91801 0
M  V30 9029 O 881.953 0.0687118 -2.28397 0
M  V30 9030 C 882.163 -3.30521 -1.12058 0
M  V30 9031 C 883.511 -3.96345 -1.52303 0
M  V30 9032 O 884.535 -3.34864 -1.21428 0
M  V30 9033 O 883.394 -5.04655 -2.09728 0
M  V30 9034 H 880.488 -0.749328 -0.34991 0
M  V30 9035 H 883.034 -1.69675 0.0290654 0
M  V30 9036 H 881.806 -3.90399 -0.265378 0
M  V30 9037 H 881.429 -3.47802 -1.92665 0
M  V30 9038 N 882.426 0.269451 -1.5528 0
M  V30 9039 C 883.673 1.00058 -1.76053 0
M  V30 9040 C 884.001 1.86156 -0.563592 0
M  V30 9041 O 883.256 1.90366 0.453806 0
M  V30 9042 C 883.555 1.91 -3.02082 0
M  V30 9043 C 883.221 1.20623 -4.34466 0
M  V30 9044 C 881.883 1.01165 -4.70446 0
M  V30 9045 C 884.235 0.705695 -5.164 0
M  V30 9046 C 881.563 0.303865 -5.85913 0
M  V30 9047 C 883.915 0.0114838 -6.32599 0
M  V30 9048 C 882.579 -0.19478 -6.67216 0
M  V30 9049 H 881.849 0.366138 -0.644223 0
M  V30 9050 H 884.496 0.272563 -1.8955 0
M  V30 9051 H 882.801 2.70435 -2.835 0
M  V30 9052 H 884.498 2.47698 -3.15352 0
M  V30 9053 H 881.088 1.36781 -4.06188 0
M  V30 9054 H 885.272 0.84364 -4.89077 0
M  V30 9055 H 880.528 0.133368 -6.11255 0
M  V30 9056 H 884.702 -0.384111 -6.9534 0
M  V30 9057 H 882.329 -0.745201 -7.56539 0
M  V30 9058 N 883.904 1.48273 0.534124 0
M  V30 9059 C 884.814 1.65162 1.66609 0
M  V30 9060 C 885.83 0.534177 1.65598 0
M  V30 9061 O 887.006 0.804715 1.84625 0
M  V30 9062 C 884.071 1.68354 3.03081 0
M  V30 9063 C 883.132 2.91696 3.1498 0
M  V30 9064 C 882.365 2.94725 4.44941 0
M  V30 9065 O 882.588 2.06285 5.31792 0
M  V30 9066 O 881.522 3.8685 4.61119 0
M  V30 9067 H 885.348 2.60991 1.55298 0
M  V30 9068 H 882.933 1.31626 0.706749 0
M  V30 9069 H 884.815 1.72998 3.84252 0
M  V30 9070 H 883.49 0.756978 3.14725 0
M  V30 9071 H 882.397 2.92586 2.33119 0
M  V30 9072 H 883.73 3.83722 3.0825 0
M  V30 9073 N 885.382 -0.782676 1.36792 0
M  V30 9074 C 886.63 -1.53778 1.31136 0
M  V30 9075 C 886.951 -1.94706 -0.107014 0
M  V30 9076 O 886.221 -1.65465 -1.04872 0
M  V30 9077 H 884.801 -0.570328 0.482426 0
M  V30 9078 H 887.463 -0.932181 1.71162 0
M  V30 9079 H 886.559 -2.44224 1.94321 0
M  V30 9080 N 886.86 -1.21182 -1.00761 0
M  V30 9081 C 887.79 -0.992773 -2.11344 0
M  V30 9082 C 888.771 0.0813618 -1.69905 0
M  V30 9083 O 889.956 -0.0779503 -1.94043 0
M  V30 9084 C 887.086 -0.553826 -3.42856 0
M  V30 9085 C 886.04 -1.57223 -3.98077 0
M  V30 9086 C 885.366 -0.989605 -5.25463 0
M  V30 9087 C 886.666 -2.95839 -4.30438 0
M  V30 9088 H 888.36 -1.91766 -2.29927 0
M  V30 9089 H 885.906 -0.923426 -1.10494 0
M  V30 9090 H 887.859 -0.387771 -4.19612 0
M  V30 9091 H 886.583 0.406702 -3.24058 0
M  V30 9092 H 885.242 -1.7258 -3.23437 0
M  V30 9093 H 884.89 -0.0208743 -5.02996 0
M  V30 9094 H 884.59 -1.66984 -5.63374 0
M  V30 9095 H 886.114 -0.834815 -6.04866 0
M  V30 9096 H 887.528 -2.8394 -4.98047 0
M  V30 9097 H 885.925 -3.60851 -4.79486 0
M  V30 9098 H 886.995 -3.46882 -3.38823 0
M  V30 9099 N 888.338 1.20213 -1.01915 0
M  V30 9100 C 889.568 1.93341 -0.728197 0
M  V30 9101 C 889.976 1.75151 0.715454 0
M  V30 9102 O 889.319 1.06437 1.49722 0
M  V30 9103 C 889.381 3.45677 -0.9873 0
M  V30 9104 C 889.045 3.8763 -2.42057 0
M  V30 9105 C 890.042 3.93184 -3.40151 0
M  V30 9106 C 887.727 4.19547 -2.76199 0
M  V30 9107 C 889.721 4.30069 -4.70446 0
M  V30 9108 C 887.408 4.56106 -4.06707 0
M  V30 9109 C 888.406 4.6134 -5.03641 0
M  V30 9110 O 888.094 4.97059 -6.31813 0
M  V30 9111 H 887.826 0.621258 -0.266485 0
M  V30 9112 H 890.38 1.53577 -1.36393 0
M  V30 9113 H 888.61 3.85578 -0.294405 0
M  V30 9114 H 890.299 4.00035 -0.687536 0
M  V30 9115 H 891.065 3.68687 -3.15111 0
M  V30 9116 H 886.944 4.14663 -2.01434 0
M  V30 9117 H 890.488 4.34069 -5.46105 0
M  V30 9118 H 886.385 4.80059 -4.31525 0
M  V30 9119 H 887.153 5.15043 -6.36139 0
M  V30 9120 N 889.816 0.795718 1.36037 0
M  V30 9121 C 891.227 0.433379 1.816 0
M  V30 9122 C 891.578 -1.04341 1.66155 0
M  V30 9123 O 890.703 -1.81004 1.18603 0
M  V30 9124 C 891.298 0.77985 3.29703 0
M  V30 9125 C 889.857 0.470256 3.73451 0
M  V30 9126 C 889.004 1.01119 2.58206 0
M  V30 9127 H 891.955 0.988317 1.24169 0
M  V30 9128 H 891.976 0.0732898 3.80429 0
M  V30 9129 H 891.488 1.85473 3.40913 0
M  V30 9130 H 889.589 -0.596332 3.67797 0
M  V30 9131 H 889.702 0.995276 4.68648 0
M  V30 9132 H 888.066 0.434077 2.50974 0
M  V30 9133 H 888.849 2.09196 2.72198 0
M  V30 9134 N 891.294 -1.47756 0.548274 0
M  V30 9135 C 892.54 -2.02789 0.0209265 0
M  V30 9136 C 892.873 -1.42268 -1.32187 0
M  V30 9137 O 892.148 -0.575001 -1.85806 0
M  V30 9138 C 892.431 -3.60007 -0.0816674 0
M  V30 9139 C 892.284 -4.30977 1.28759 0
M  V30 9140 C 893.603 -4.32777 -0.799515 0
M  V30 9141 H 890.722 -0.736944 0.00907884 0
M  V30 9142 H 893.364 -1.76282 0.708839 0
M  V30 9143 H 891.514 -3.82722 -0.667537 0
M  V30 9144 H 893.186 -4.19629 1.91597 0
M  V30 9145 H 891.429 -3.9168 1.86466 0
M  V30 9146 H 892.1 -5.39488 1.16861 0
M  V30 9147 H 894.576 -4.15001 -0.30216 0
M  V30 9148 H 893.452 -5.42431 -0.840239 0
M  V30 9149 H 893.713 -4.01358 -1.85375 0
M  V30 9150 N 892.772 -0.284283 -1.55015 0
M  V30 9151 C 893.722 0.613913 -2.19579 0
M  V30 9152 C 894.706 1.11153 -1.16335 0
M  V30 9153 O 895.898 1.05508 -1.42116 0
M  V30 9154 C 893.027 1.79329 -2.92739 0
M  V30 9155 C 892.113 1.31242 -4.03282 0
M  V30 9156 N 892.504 0.548344 -5.02819 0
M  V30 9157 C 890.802 1.5946 -4.1652 0
M  V30 9158 C 891.503 0.294358 -5.80955 0
M  V30 9159 N 890.479 0.869406 -5.36603 0
M  V30 9160 H 894.281 0.0224088 -2.93891 0
M  V30 9161 H 891.795 -0.0882619 -1.6216 0
M  V30 9162 H 893.792 2.44814 -3.37449 0
M  V30 9163 H 892.452 2.38865 -2.1994 0
M  V30 9164 H 893.463 0.194812 -5.17533 0
M  V30 9165 H 890.14 2.19866 -3.54916 0
M  V30 9166 H 891.53 -0.318195 -6.71146 0
M  V30 9167 N 894.251 1.57596 -0.0117121 0
M  V30 9168 C 895.181 2.12188 0.9746 0
M  V30 9169 C 896.162 1.03379 1.35081 0
M  V30 9170 O 897.347 1.31123 1.4325 0
M  V30 9171 C 894.477 2.63477 2.26268 0
M  V30 9172 C 893.431 3.76917 2.02774 0
M  V30 9173 C 892.757 4.14566 3.37697 0
M  V30 9174 C 894.057 5.03715 1.38089 0
M  V30 9175 H 895.751 2.9485 0.520007 0
M  V30 9176 H 893.297 1.41836 0.248685 0
M  V30 9177 H 895.25 3.00299 2.95633 0
M  V30 9178 H 893.974 1.77953 2.73862 0
M  V30 9179 H 892.633 3.40507 1.35832 0
M  V30 9180 H 892.281 3.26048 3.83016 0
M  V30 9181 H 891.981 4.91 3.22789 0
M  V30 9182 H 893.505 4.53956 4.08358 0
M  V30 9183 H 894.919 5.38233 1.97428 0
M  V30 9184 H 893.316 5.85032 1.33634 0
M  V30 9185 H 894.386 4.83624 0.351575 0
M  V30 9186 N 895.729 -0.261212 1.5542 0
M  V30 9187 C 896.692 -1.30645 1.8832 0
M  V30 9188 C 897.692 -1.41782 0.758588 0
M  V30 9189 O 898.882 -1.40729 1.02669 0
M  V30 9190 C 896.014 -2.6862 2.09895 0
M  V30 9191 H 897.207 -1.02698 2.81768 0
M  V30 9192 H 894.76 -0.499838 1.48092 0
M  V30 9193 H 895.495 -3.0173 1.18868 0
M  V30 9194 H 895.28 -2.61921 2.91787 0
M  V30 9195 H 896.77 -3.44121 2.36581 0
M  V30 9196 N 897.207 -1.48554 -0.526253 0
M  V30 9197 C 898.453 -1.56994 -1.28378 0
M  V30 9198 C 898.786 -0.244701 -1.92652 0
M  V30 9199 O 898.061 0.749636 -1.79473 0
M  V30 9200 C 898.344 -2.71092 -2.37026 0
M  V30 9201 C 898.197 -4.13331 -1.77418 0
M  V30 9202 C 899.516 -2.80934 -3.38769 0
M  V30 9203 H 896.635 -0.571466 -0.465398 0
M  V30 9204 H 899.277 -1.80742 -0.585861 0
M  V30 9205 H 897.427 -2.50973 -2.96555 0
M  V30 9206 H 899.099 -4.44899 -1.21912 0
M  V30 9207 H 897.342 -4.20158 -1.07936 0
M  V30 9208 H 898.013 -4.88994 -2.56104 0
M  V30 9209 H 900.489 -2.9917 -2.892 0
M  V30 9210 H 899.365 -3.62489 -4.12181 0
M  V30 9211 H 899.626 -1.89244 -3.99549 0
M  V30 9212 N 898.685 0.775411 -1.37205 0
M  V30 9213 C 900.101 1.07546 -1.17924 0
M  V30 9214 C 900.301 2.01496 -0.0128897 0
M  V30 9215 O 899.357 2.44039 0.64816 0
M  V30 9216 C 900.67 1.67647 -2.49629 0
M  V30 9217 C 902.218 1.79923 -2.56119 0
M  V30 9218 C 902.693 2.43438 -3.87946 0
M  V30 9219 N 904.184 2.50893 -3.89368 0
M  V30 9220 C 904.919 3.00881 -4.88117 0
M  V30 9221 N 904.415 3.5107 -5.97262 0
M  V30 9222 N 906.208 2.99722 -4.75524 0
M  V30 9223 H 898.359 0.151524 -2.11859 0
M  V30 9224 H 900.622 0.129845 -0.939066 0
M  V30 9225 H 900.328 1.06082 -3.3532 0
M  V30 9226 H 900.202 2.66988 -2.66453 0
M  V30 9227 H 902.589 2.40621 -1.70838 0
M  V30 9228 H 902.67 0.793482 -2.43182 0
M  V30 9229 H 902.314 1.8338 -4.73639 0
M  V30 9230 H 902.244 3.44611 -3.98184 0
M  V30 9231 H 904.735 2.1537 -3.10522 0
M  V30 9232 H 905.048 3.87604 -6.68568 0
M  V30 9233 H 903.393 3.49184 -6.00912 0
M  V30 9234 H 906.584 2.5981 -3.8938 0
M  V30 9235 H 906.757 3.38369 -5.52639 0
M  V30 9236 N 900.163 1.21714 1.00117 0
M  V30 9237 C 901.126 0.981338 2.07129 0
M  V30 9238 C 902.126 -0.0491116 1.60725 0
M  V30 9239 O 903.316 0.188555 1.73177 0
M  V30 9240 C 900.448 0.480608 3.37495 0
M  V30 9241 H 901.641 1.93075 2.29482 0
M  V30 9242 H 899.194 1.03467 1.17151 0
M  V30 9243 H 899.929 -0.473552 3.20824 0
M  V30 9244 H 899.714 1.22393 3.72508 0
M  V30 9245 H 901.204 0.33561 4.16249 0
M  V30 9246 N 901.641 -1.19671 1.02551 0
M  V30 9247 C 903.057 -1.41305 0.741963 0
M  V30 9248 C 903.257 -1.89865 -0.674807 0
M  V30 9249 O 902.313 -2.07323 -1.44129 0
M  V30 9250 C 903.626 -2.42706 1.77522 0
M  V30 9251 C 905.174 -2.56458 1.79438 0
M  V30 9252 C 905.649 -3.61111 2.81715 0
M  V30 9253 N 907.14 -3.68603 2.8051 0
M  V30 9254 C 907.875 -4.49262 3.56302 0
M  V30 9255 N 907.371 -5.33653 4.41799 0
M  V30 9256 N 909.164 -4.43879 3.44859 0
M  V30 9257 H 901.315 -0.8647 1.94002 0
M  V30 9258 H 903.578 -0.442206 0.838545 0
M  V30 9259 H 903.284 -2.14042 2.79068 0
M  V30 9260 H 903.158 -3.41831 1.59472 0
M  V30 9261 H 905.545 -2.84447 0.78573 0
M  V30 9262 H 905.626 -1.57499 2.01563 0
M  V30 9263 H 905.27 -3.33864 3.82749 0
M  V30 9264 H 905.2 -4.59713 2.56849 0
M  V30 9265 H 907.691 -3.08329 2.18498 0
M  V30 9266 H 908.004 -5.92308 4.96378 0
M  V30 9267 H 906.349 -5.33125 4.45873 0
M  V30 9268 H 909.54 -3.7699 2.77482 0
M  V30 9269 H 909.713 -5.06501 4.04179 0
M  V30 9270 N 903.119 -0.802921 -1.35613 0
M  V30 9271 C 904.344 -0.392846 -2.03645 0
M  V30 9272 C 904.769 0.987075 -1.6012 0
M  V30 9273 O 904.127 1.63849 -0.776101 0
M  V30 9274 C 904.175 -0.480208 -3.57388 0
M  V30 9275 O 903.279 0.507751 -4.09262 0
M  V30 9276 H 902.62 -0.16464 -0.643265 0
M  V30 9277 H 905.15 -1.08779 -1.73287 0
M  V30 9278 H 905.16 -0.348683 -4.06507 0
M  V30 9279 H 903.835 -1.48675 -3.88418 0
M  V30 9280 H 902.412 0.336769 -3.71376 0
M  V30 9281 N 904.597 1.47463 -0.556102 0
M  V30 9282 C 906.008 1.86298 -0.122429 0
M  V30 9283 C 906.359 1.46285 1.30749 0
M  V30 9284 O 905.484 0.865405 1.98342 0
M  V30 9285 C 906.079 3.38115 -0.215407 0
M  V30 9286 C 904.638 3.76046 0.163223 0
M  V30 9287 C 903.785 2.71515 -0.563466 0
M  V30 9288 H 906.736 1.38996 -0.765888 0
M  V30 9289 H 906.757 3.76263 0.566271 0
M  V30 9290 H 906.269 3.67207 -1.25622 0
M  V30 9291 H 904.37 3.5257 1.20519 0
M  V30 9292 H 904.483 4.78705 -0.194568 0
M  V30 9293 H 902.847 2.54699 -0.00667879 0
M  V30 9294 H 903.63 3.03449 -1.60542 0
M  V30 9295 N 906.075 0.2925 1.54862 0
M  V30 9296 C 906.985 -0.597036 2.26876 0
M  V30 9297 C 908.001 -1.15558 1.30086 0
M  V30 9298 O 909.177 -1.18217 1.63054 0
M  V30 9299 C 906.242 -1.75664 2.98903 0
M  V30 9300 C 905.303 -1.23303 4.11212 0
M  V30 9301 C 904.536 -2.33736 4.79795 0
M  V30 9302 O 904.759 -3.53459 4.47686 0
M  V30 9303 O 903.693 -2.00908 5.67379 0
M  V30 9304 H 907.519 -0.0131242 3.03697 0
M  V30 9305 H 905.104 0.0592642 1.49282 0
M  V30 9306 H 906.986 -2.43241 3.4411 0
M  V30 9307 H 905.661 -2.32731 2.24984 0
M  V30 9308 H 904.568 -0.523222 3.70423 0
M  V30 9309 H 905.901 -0.707887 4.87083 0
M  V30 9310 N 907.553 -1.57587 0.0200696 0
M  V30 9311 C 908.793 -1.93287 -0.66479 0
M  V30 9312 C 909.157 -0.896022 -1.6981 0
M  V30 9313 O 910.358 -1.13892 -2.43479 0
M  V30 9314 C 908.629 -3.33949 -1.27328 0
M  V30 9315 S 910.188 -3.91564 -1.98047 0
M  V30 9316 H 907.006 -0.676397 -0.219106 0
M  V30 9317 H 909.608 -1.9533 0.081568 0
M  V30 9318 H 908.312 -4.07235 -0.508673 0
M  V30 9319 H 907.843 -3.35329 -2.05714 0
M  V30 9320 H 909.858 -3.74265 -3.25791 0
M  V30 9321 N 909.032 0.252966 -1.55557 0
M  V30 9322 C 909.962 1.31691 -1.9282 0
M  V30 9323 C 910.943 1.50516 -0.7924 0
M  V30 9324 O 912.128 1.63225 -1.05219 0
M  V30 9325 C 909.258 2.67281 -2.21762 0
M  V30 9326 C 908.212 2.6316 -3.37536 0
M  V30 9327 C 907.538 4.02488 -3.52005 0
M  V30 9328 C 908.838 2.20675 -4.73392 0
M  V30 9329 H 910.532 1.00751 -2.81939 0
M  V30 9330 H 908.078 0.483219 -1.3565 0
M  V30 9331 H 910.031 3.41842 -2.46419 0
M  V30 9332 H 908.755 2.99845 -1.29463 0
M  V30 9333 H 907.414 1.91057 -3.12878 0
M  V30 9334 H 907.062 4.32307 -2.57137 0
M  V30 9335 H 906.762 4.00621 -4.29857 0
M  V30 9336 H 908.286 4.78758 -3.78977 0
M  V30 9337 H 909.7 2.84965 -4.97461 0
M  V30 9338 H 908.097 2.29931 -5.54303 0
M  V30 9339 H 909.167 1.15831 -4.70862 0
M  V30 9340 N 910.51 1.48831 0.518367 0
M  V30 9341 C 911.787 1.47933 1.27966 0
M  V30 9342 C 912.167 0.197393 2.10175 0
M  V30 9343 O 911.515 -0.820656 2.13255 0
M  V30 9344 C 911.725 2.74816 2.15121 0
M  V30 9345 C 913.073 3.23613 2.74881 0
M  V30 9346 O 914.097 2.75814 2.254 0
M  V30 9347 O 912.956 4.06818 3.64913 0
M  V30 9348 H 910.05 0.591316 0.578164 0
M  V30 9349 H 912.596 1.61077 0.534065 0
M  V30 9350 H 911.368 3.59621 1.54234 0
M  V30 9351 H 910.991 2.64449 2.96905 0
M  V30 9352 N 911.988 -0.768124 1.37614 0
M  V30 9353 C 912.918 -1.89537 1.36374 0
M  V30 9354 C 913.899 -1.68513 0.231803 0
M  V30 9355 O 915.084 -1.89318 0.432705 0
M  V30 9356 C 912.214 -3.26871 1.17358 0
M  V30 9357 C 911.168 -3.62466 2.27602 0
M  V30 9358 C 910.494 -4.9838 1.93705 0
M  V30 9359 C 911.794 -3.68841 3.69802 0
M  V30 9360 H 913.488 -1.90832 2.30702 0
M  V30 9361 H 911.034 -0.91672 1.11051 0
M  V30 9362 H 912.987 -4.05371 1.15119 0
M  V30 9363 H 911.711 -3.26018 0.194865 0
M  V30 9364 H 910.37 -2.86276 2.29002 0
M  V30 9365 H 910.018 -4.94071 0.943539 0
M  V30 9366 H 909.718 -5.23165 2.6753 0
M  V30 9367 H 911.242 -5.79276 1.93059 0
M  V30 9368 H 912.656 -4.37485 3.70513 0
M  V30 9369 H 911.053 -4.05126 4.42711 0
M  V30 9370 H 912.123 -2.69415 4.03167 0
M  V30 9371 N 913.466 -1.22244 -0.994698 0
M  V30 9372 C 914.396 -1.01513 -2.10279 0
M  V30 9373 C 915.377 0.0633365 -1.69982 0
M  V30 9374 O 916.562 -0.0985268 -1.9395 0
M  V30 9375 C 913.692 -0.59016 -3.42249 0
M  V30 9376 C 912.646 -1.61436 -3.96387 0
M  V30 9377 C 911.972 -1.04528 -5.24383 0
M  V30 9378 C 913.272 -3.00388 -4.27276 0
M  V30 9379 H 914.966 -1.94194 -2.2788 0
M  V30 9380 H 912.512 -0.935094 -1.09508 0
M  V30 9381 H 914.465 -0.432254 -4.19177 0
M  V30 9382 H 913.189 0.372308 -3.24471 0
M  V30 9383 H 911.848 -1.76001 -3.21589 0
M  V30 9384 H 911.496 -0.0742225 -5.02945 0
M  V30 9385 H 911.196 -1.72949 -5.61571 0
M  V30 9386 H 912.72 -0.898922 -6.03947 0
M  V30 9387 H 914.134 -2.89207 -4.95007 0
M  V30 9388 H 912.531 -3.65916 -4.75631 0
M  V30 9389 H 913.601 -3.50456 -3.35125 0
M  V30 9390 N 914.944 1.19125 -1.03184 0
M  V30 9391 C 916.19 1.89163 -0.731111 0
M  V30 9392 C 916.523 1.79604 0.738662 0
M  V30 9393 O 915.798 1.19037 1.53819 0
M  V30 9394 C 916.081 3.39986 -1.18666 0
M  V30 9395 C 915.934 3.58401 -2.71788 0
M  V30 9396 C 917.253 4.33316 -0.769772 0
M  V30 9397 H 914.372 0.686908 -0.267069 0
M  V30 9398 H 917.014 1.40205 -1.28229 0
M  V30 9399 H 915.164 3.81813 -0.717736 0
M  V30 9400 H 916.836 3.25727 -3.26649 0
M  V30 9401 H 915.079 3.01355 -3.12038 0
M  V30 9402 H 915.75 4.64189 -2.98719 0
M  V30 9403 H 918.226 3.9922 -1.17314 0
M  V30 9404 H 917.102 5.37427 -1.11637 0
M  V30 9405 H 917.363 4.40884 0.327681 0
M  V30 9406 N 916.422 0.810101 1.35185 0
M  V30 9407 C 917.699 0.315235 1.93043 0
M  V30 9408 C 918.079 -1.19567 1.73974 0
M  V30 9409 O 917.427 -1.99682 1.11083 0
M  V30 9410 C 917.637 0.730492 3.41269 0
M  V30 9411 C 918.985 0.721985 4.18417 0
M  V30 9412 O 920.009 0.672258 3.49799 0
M  V30 9413 O 918.868 0.783535 5.40854 0
M  V30 9414 H 915.962 0.0832774 0.822796 0
M  V30 9415 H 918.508 0.894034 1.4424 0
M  V30 9416 H 917.28 1.77169 3.48894 0
M  V30 9417 H 916.903 0.12669 3.97398 0
M  V30 9418 N 917.9 -1.47166 0.563914 0
M  V30 9419 C 919.125 -2.0735 0.0454698 0
M  V30 9420 C 919.55 -1.41281 -1.24182 0
M  V30 9421 O 918.908 -0.490084 -1.7455 0
M  V30 9422 C 918.956 -3.60378 -0.126453 0
M  V30 9423 O 918.06 -3.94934 -1.18746 0
M  V30 9424 H 917.401 -0.661773 0.0543377 0
M  V30 9425 H 919.931 -1.89086 0.781508 0
M  V30 9426 H 919.941 -4.06593 -0.338554 0
M  V30 9427 H 918.616 -4.07862 0.81373 0
M  V30 9428 H 917.193 -3.60455 -0.955318 0
M  V30 9429 N 919.378 -0.300708 -1.54705 0
M  V30 9430 C 920.626 0.308044 -1.99739 0
M  V30 9431 C 920.947 1.54433 -1.19061 0
M  V30 9432 O 920.217 1.93794 -0.286507 0
M  V30 9433 H 918.797 0.116811 -0.73781 0
M  V30 9434 H 921.459 -0.41197 -1.90496 0
M  V30 9435 H 920.555 0.580287 -3.06658 0
M  V30 9436 N 920.856 1.57574 -0.0284266 0
M  V30 9437 C 921.819 2.09096 0.938691 0
M  V30 9438 C 922.819 1.00588 1.25454 0
M  V30 9439 O 924.009 1.2675 1.19499 0
M  V30 9440 C 921.141 2.55624 2.25542 0
M  V30 9441 H 922.334 2.95829 0.49248 0
M  V30 9442 H 919.887 1.5475 0.219594 0
M  V30 9443 H 920.622 1.72218 2.74793 0
M  V30 9444 H 920.407 3.34896 2.03929 0
M  V30 9445 H 921.897 2.95712 2.94863 0
M  V30 9446 N 922.334 -0.244713 1.55689 0
M  V30 9447 C 923.244 -1.32447 1.93636 0
M  V30 9448 C 924.26 -1.52541 0.837086 0
M  V30 9449 O 925.436 -1.66121 1.13867 0
M  V30 9450 C 922.501 -2.65864 2.22525 0
M  V30 9451 C 921.562 -2.54273 3.45896 0
M  V30 9452 C 920.795 -3.81327 3.73397 0
M  V30 9453 O 921.018 -4.83307 3.02936 0
M  V30 9454 O 919.952 -3.79829 4.66919 0
M  V30 9455 H 923.778 -1.03255 2.85608 0
M  V30 9456 H 921.363 -0.445652 1.42598 0
M  V30 9457 H 923.245 -3.447 2.42404 0
M  V30 9458 H 921.92 -2.94784 1.33731 0
M  V30 9459 H 920.827 -1.73715 3.31321 0
M  V30 9460 H 922.16 -2.30297 4.34999 0
M  V30 9461 N 923.813 -1.49104 -0.510467 0
M  V30 9462 C 925.059 -1.58346 -1.26705 0
M  V30 9463 C 925.392 -0.265121 -1.92382 0
M  V30 9464 O 924.667 0.730558 -1.80258 0
M  V30 9465 C 924.95 -2.7359 -2.34137 0
M  V30 9466 C 924.803 -4.1519 -1.73024 0
M  V30 9467 C 926.122 -2.84511 -3.3577 0
M  V30 9468 H 923.241 -0.57637 -0.459311 0
M  V30 9469 H 925.883 -1.81353 -0.566658 0
M  V30 9470 H 924.033 -2.54105 -2.93876 0
M  V30 9471 H 925.705 -4.46167 -1.17186 0
M  V30 9472 H 923.948 -4.21279 -1.03473 0
M  V30 9473 H 924.619 -4.91683 -2.50903 0
M  V30 9474 H 927.095 -3.0222 -2.86011 0
M  V30 9475 H 925.971 -3.6684 -4.08313 0
M  V30 9476 H 926.232 -1.93471 -3.97519 0
M  V30 9477 N 925.291 0.760815 -1.38019 0
M  V30 9478 C 926.201 1.90526 -1.36884 0
M  V30 9479 C 927.217 1.71941 -0.266908 0
M  V30 9480 O 928.393 1.94988 -0.50413 0
M  V30 9481 C 925.458 3.25799 -1.18558 0
M  V30 9482 C 924.519 3.56961 -2.3849 0
M  V30 9483 C 923.752 4.8578 -2.21029 0
M  V30 9484 O 923.975 5.57629 -1.20023 0
M  V30 9485 O 922.909 5.16254 -3.0946 0
M  V30 9486 H 926.735 1.94437 -2.33298 0
M  V30 9487 H 924.32 0.905091 -1.18863 0
M  V30 9488 H 926.202 4.0669 -1.1037 0
M  V30 9489 H 924.877 3.22716 -0.252241 0
M  V30 9490 H 923.784 2.7626 -2.52252 0
M  V30 9491 H 925.117 3.64798 -3.30429 0
M  V30 9492 N 926.769 1.22769 0.988202 0
M  V30 9493 C 927.732 1.00325 2.06076 0
M  V30 9494 C 928.732 -0.0320618 1.60768 0
M  V30 9495 O 929.922 0.206912 1.72967 0
M  V30 9496 C 927.054 0.516376 3.36966 0
M  V30 9497 H 928.247 1.95499 2.27421 0
M  V30 9498 H 925.8 1.04704 1.16047 0
M  V30 9499 H 926.535 -0.439498 3.21308 0
M  V30 9500 H 926.32 1.26337 3.71189 0
M  V30 9501 H 927.81 0.37974 4.1587 0
M  V30 9502 N 928.247 -1.18576 1.03814 0
M  V30 9503 C 929.475 -1.92437 0.759966 0
M  V30 9504 C 929.89 -1.76031 -0.682526 0
M  V30 9505 O 929.247 -1.08829 -1.46501 0
M  V30 9506 C 929.298 -3.43923 1.11351 0
M  V30 9507 O 929.019 -3.5981 2.49937 0
M  V30 9508 C 930.52 -4.34888 0.859472 0
M  V30 9509 H 927.74 -0.610998 0.277349 0
M  V30 9510 H 930.284 -1.50448 1.38512 0
M  V30 9511 H 928.439 -3.83711 0.533362 0
M  V30 9512 H 928.853 -4.53569 2.63393 0
M  V30 9513 H 930.327 -5.39744 1.15672 0
M  V30 9514 H 930.804 -4.38717 -0.205839 0
M  V30 9515 H 931.41 -4.00795 1.42279 0
M  V30 9516 N 929.725 -0.817259 -1.34754 0
M  V30 9517 C 930.635 -0.236946 -2.334 0
M  V30 9518 C 931.651 0.625685 -1.62361 0
M  V30 9519 O 932.827 0.534921 -1.94166 0
M  V30 9520 C 929.892 0.596215 -3.41535 0
M  V30 9521 C 928.953 -0.288154 -4.28332 0
M  V30 9522 C 928.186 0.505337 -5.31302 0
M  V30 9523 O 928.409 1.73912 -5.43241 0
M  V30 9524 O 927.343 -0.109374 -6.01801 0
M  V30 9525 H 931.169 -1.05327 -2.84851 0
M  V30 9526 H 928.754 -0.579275 -1.37713 0
M  V30 9527 H 930.636 1.07041 -4.07578 0
M  V30 9528 H 929.311 1.38997 -2.92338 0
M  V30 9529 H 928.218 -0.809724 -3.65232 0
M  V30 9530 H 929.551 -1.04612 -4.80955 0
M  V30 9531 N 931.203 1.46865 -0.571711 0
M  V30 9532 C 932.619 1.57897 -0.23255 0
M  V30 9533 C 932.819 1.56836 1.26509 0
M  V30 9534 O 931.875 1.47947 2.04617 0
M  V30 9535 C 933.188 2.87778 -0.872036 0
M  V30 9536 C 934.736 3.01389 -0.844605 0
M  V30 9537 C 935.211 4.33991 -1.46343 0
M  V30 9538 N 936.702 4.40662 -1.42727 0
M  V30 9539 C 937.437 5.41858 -1.87557 0
M  V30 9540 N 936.933 6.49787 -2.4031 0
M  V30 9541 N 938.726 5.32992 -1.7854 0
M  V30 9542 H 930.877 1.45798 -1.54457 0
M  V30 9543 H 933.14 0.694785 -0.644964 0
M  V30 9544 H 932.846 2.94332 -1.92513 0
M  V30 9545 H 932.72 3.75345 -0.373677 0
M  V30 9546 H 935.107 2.94423 0.19984 0
M  V30 9547 H 935.188 2.15327 -1.38087 0
M  V30 9548 H 934.832 4.41714 -2.50701 0
M  V30 9549 H 934.762 5.18809 -0.902479 0
M  V30 9550 H 937.253 3.63263 -1.04155 0
M  V30 9551 H 937.566 7.23199 -2.72403 0
M  V30 9552 H 935.911 6.50637 -2.44329 0
M  V30 9553 H 939.102 4.47575 -1.37093 0
M  V30 9554 H 939.275 6.11716 -2.13794 0
M  V30 9555 N 932.681 0.308908 1.54543 0
M  V30 9556 C 933.613 -0.597453 2.21276 0
M  V30 9557 C 934.626 -1.09137 1.20801 0
M  V30 9558 O 935.815 -1.00747 1.47351 0
M  V30 9559 C 932.915 -1.83085 2.85189 0
M  V30 9560 C 932.088 -1.4781 4.11669 0
M  V30 9561 C 931.147 -2.56748 4.59311 0
M  V30 9562 O 930.173 -2.21507 5.24331 0
M  V30 9563 N 931.375 -3.87427 4.32297 0
M  V30 9564 H 934.14 -0.0261183 2.99689 0
M  V30 9565 H 931.701 0.131456 1.61365 0
M  V30 9566 H 933.693 -2.55326 3.13992 0
M  V30 9567 H 932.263 -2.31039 2.1057 0
M  V30 9568 H 931.483 -0.587974 3.8979 0
M  V30 9569 H 932.771 -1.2179 4.94009 0
M  V30 9570 H 932.169 -4.18863 3.80224 0
M  V30 9571 H 930.726 -4.55942 4.6579 0
M  V30 9572 N 934.159 -1.57557 0.0367827 0
M  V30 9573 C 935.407 -1.91735 -0.63892 0
M  V30 9574 C 935.728 -0.914515 -1.72226 0
M  V30 9575 O 934.998 0.0428248 -1.95853 0
M  V30 9576 H 933.578 -0.707738 -0.23899 0
M  V30 9577 H 936.24 -1.94708 0.0863931 0
M  V30 9578 H 935.336 -2.92568 -1.08676 0
M  V30 9579 N 935.637 0.236453 -1.55816 0
M  V30 9580 C 936.885 0.96111 -1.77784 0
M  V30 9581 C 937.206 1.85454 -0.602648 0
M  V30 9582 O 936.476 1.92157 0.381137 0
M  V30 9583 H 935.056 0.35787 -0.655697 0
M  V30 9584 H 937.718 0.251888 -1.93265 0
M  V30 9585 H 936.814 1.5767 -2.69345 0
M  V30 9586 N 937.115 1.49373 0.502552 0
M  V30 9587 C 938.531 1.36101 0.833591 0
M  V30 9588 C 938.731 0.392911 1.97632 0
M  V30 9589 O 937.787 -0.175975 2.51886 0
M  V30 9590 C 939.1 2.76782 1.17526 0
M  V30 9591 C 940.648 2.85471 1.28356 0
M  V30 9592 C 941.123 4.26915 1.65853 0
M  V30 9593 N 942.614 4.29719 1.72905 0
M  V30 9594 C 943.349 5.36127 2.0336 0
M  V30 9595 N 942.845 6.52782 2.32049 0
M  V30 9596 N 944.638 5.23542 2.04598 0
M  V30 9597 H 936.789 2.10912 -0.251008 0
M  V30 9598 H 939.052 0.946696 -0.0497037 0
M  V30 9599 H 938.758 3.49314 0.408965 0
M  V30 9600 H 938.632 3.1205 2.11907 0
M  V30 9601 H 941.019 2.13177 2.04058 0
M  V30 9602 H 941.1 2.53787 0.320304 0
M  V30 9603 H 940.744 4.99735 0.907022 0
M  V30 9604 H 940.674 4.56063 2.63276 0
M  V30 9605 H 943.165 3.45586 1.529 0
M  V30 9606 H 943.478 7.29701 2.54471 0
M  V30 9607 H 941.823 6.56011 2.29509 0
M  V30 9608 H 945.014 4.31413 1.8166 0
M  V30 9609 H 945.187 6.06565 2.27998 0
M  V30 9610 N 938.594 -0.753485 1.38421 0
M  V30 9611 C 939.822 -1.54272 1.37868 0
M  V30 9612 C 940.237 -1.88774 -0.0315155 0
M  V30 9613 O 939.594 -1.52785 -0.998148 0
M  V30 9614 C 939.645 -2.84179 2.23438 0
M  V30 9615 O 939.366 -2.51149 3.58965 0
M  V30 9616 C 940.867 -3.78316 2.31067 0
M  V30 9617 H 938.087 -0.47735 0.47157 0
M  V30 9618 H 940.631 -0.932509 1.82001 0
M  V30 9619 H 938.786 -3.41577 1.82767 0
M  V30 9620 H 939.2 -3.34466 4.04021 0
M  V30 9621 H 940.674 -4.66418 2.95226 0
M  V30 9622 H 941.151 -4.18757 1.32436 0
M  V30 9623 H 941.757 -3.26842 2.72129 0
M  V30 9624 N 940.072 -1.23292 -0.981677 0
M  V30 9625 C 941.035 -1.01417 -2.05542 0
M  V30 9626 C 942.035 0.0235354 -1.60783 0
M  V30 9627 O 943.225 -0.216082 -1.72855 0
M  V30 9628 C 940.357 -0.534239 -3.36688 0
M  V30 9629 H 941.55 -1.96702 -2.26381 0
M  V30 9630 H 939.103 -1.05318 -1.1549 0
M  V30 9631 H 939.838 0.422452 -3.21537 0
M  V30 9632 H 939.623 -1.28304 -3.70514 0
M  V30 9633 H 941.113 -0.40179 -4.15663 0
M  V30 9634 N 941.55 1.18024 -1.04442 0
M  V30 9635 C 942.48 2.23988 -0.659683 0
M  V30 9636 C 943.461 1.6669 0.338904 0
M  V30 9637 O 944.646 1.92971 0.21817 0
M  V30 9638 C 941.776 3.4729 -0.0257672 0
M  V30 9639 C 940.73 4.17362 -0.948299 0
M  V30 9640 C 940.056 5.34401 -0.17866 0
M  V30 9641 C 941.356 4.70435 -2.26909 0
M  V30 9642 H 943.05 2.56425 -1.54553 0
M  V30 9643 H 940.596 1.23256 -0.744575 0
M  V30 9644 H 942.549 4.20627 0.255131 0
M  V30 9645 H 941.273 3.14098 0.894981 0
M  V30 9646 H 939.932 3.45928 -1.21364 0
M  V30 9647 H 939.58 4.97458 0.744614 0
M  V30 9648 H 939.28 5.8222 -0.793294 0
M  V30 9649 H 940.804 6.10526 0.0951315 0
M  V30 9650 H 942.218 5.35447 -2.04864 0
M  V30 9651 H 940.615 5.28803 -2.83703 0
M  V30 9652 H 941.685 3.87653 -2.91296 0
M  V30 9653 N 943.028 0.824394 1.34319 0
M  V30 9654 C 943.978 0.219624 2.2694 0
M  V30 9655 C 944.962 -0.616964 1.48601 0
M  V30 9656 O 946.154 -0.471303 1.7061 0
M  V30 9657 C 943.283 -0.616379 3.37721 0
M  V30 9658 C 942.369 0.230917 4.23471 0
M  V30 9659 N 942.76 1.30264 4.88738 0
M  V30 9660 C 941.058 0.0155016 4.45997 0
M  V30 9661 C 941.759 1.82141 5.52449 0
M  V30 9662 N 940.735 1.12508 5.3183 0
M  V30 9663 H 944.537 1.03939 2.74907 0
M  V30 9664 H 942.051 0.667353 1.48055 0
M  V30 9665 H 944.048 -1.06582 4.03046 0
M  V30 9666 H 942.708 -1.43429 2.91304 0
M  V30 9667 H 943.719 1.68545 4.89707 0
M  V30 9668 H 940.396 -0.770128 4.10336 0
M  V30 9669 H 941.786 2.7181 6.14466 0
M  V30 9670 N 944.506 -1.46559 0.579492 0
M  V30 9671 C 945.436 -2.33059 -0.143437 0
M  V30 9672 C 946.417 -1.4515 -0.886868 0
M  V30 9673 O 947.602 -1.73973 -0.862961 0
M  V30 9674 C 944.732 -3.27364 -1.15973 0
M  V30 9675 C 943.686 -4.24689 -0.531348 0
M  V30 9676 C 943.012 -5.08479 -1.65388 0
M  V30 9677 C 944.312 -5.1961 0.529391 0
M  V30 9678 H 946.006 -2.93753 0.578762 0
M  V30 9679 H 943.552 -1.41256 0.279775 0
M  V30 9680 H 945.505 -3.86732 -1.67382 0
M  V30 9681 H 944.229 -2.64771 -1.91217 0
M  V30 9682 H 942.888 -3.6658 -0.0383749 0
M  V30 9683 H 942.536 -4.42273 -2.3959 0
M  V30 9684 H 942.236 -5.74387 -1.23909 0
M  V30 9685 H 943.76 -5.70709 -2.17079 0
M  V30 9686 H 945.174 -5.73212 0.100506 0
M  V30 9687 H 943.571 -5.93843 0.86432 0
M  V30 9688 H 944.641 -4.63737 1.4169 0
M  V30 9689 N 945.984 -0.3171 -1.54377 0
M  V30 9690 C 946.947 0.53905 -2.22771 0
M  V30 9691 C 947.947 1.04865 -1.21901 0
M  V30 9692 O 949.137 0.942108 -1.46526 0
M  V30 9693 C 946.269 1.74804 -2.92671 0
M  V30 9694 H 947.462 -0.0587417 -2.99842 0
M  V30 9695 H 945.015 -0.068107 -1.56152 0
M  V30 9696 H 945.75 2.38524 -2.1972 0
M  V30 9697 H 945.535 1.39011 -3.66631 0
M  V30 9698 H 947.025 2.35592 -3.44799 0
M  V30 9699 N 947.462 1.57535 -0.0451378 0
M  V30 9700 C 948.69 1.96761 0.639742 0
M  V30 9701 C 949.105 0.922405 1.64734 0
M  V30 9702 O 948.462 -0.0940535 1.82257 0
M  V30 9703 C 948.513 3.36066 1.33199 0
M  V30 9704 O 948.234 4.36579 0.364757 0
M  V30 9705 C 949.735 3.90015 2.1072 0
M  V30 9706 H 946.955 0.64769 0.175324 0
M  V30 9707 H 949.499 2.04206 -0.109651 0
M  V30 9708 H 947.654 3.2979 2.03266 0
M  V30 9709 H 948.068 5.17432 0.858168 0
M  V30 9710 H 949.542 4.89785 2.54586 0
M  V30 9711 H 950.019 3.25117 2.95288 0
M  V30 9712 H 950.625 3.99609 1.45577 0
M  V30 9713 N 948.94 -0.228186 1.55939 0
M  V30 9714 C 949.85 -1.30386 1.9503 0
M  V30 9715 C 950.866 -1.51645 0.853218 0
M  V30 9716 O 952.042 -1.64904 1.15623 0
M  V30 9717 C 949.107 -2.63489 2.25332 0
M  V30 9718 C 948.168 -2.5059 3.48573 0
M  V30 9719 C 947.401 -3.77345 3.7742 0
M  V30 9720 O 947.624 -4.80067 3.08045 0
M  V30 9721 O 946.558 -3.74855 4.70922 0
M  V30 9722 H 950.384 -1.0022 2.86687 0
M  V30 9723 H 947.969 -0.430503 1.43063 0
M  V30 9724 H 949.851 -3.4211 2.46046 0
M  V30 9725 H 948.526 -2.93349 1.3685 0
M  V30 9726 H 947.433 -1.70191 3.33145 0
M  V30 9727 H 948.766 -2.2567 4.37417 0
M  V30 9728 N 950.418 -1.49637 -0.494624 0
M  V30 9729 C 951.351 -1.61387 -1.61337 0
M  V30 9730 C 952.329 -0.462704 -1.55878 0
M  V30 9731 O 953.513 -0.679103 -1.75842 0
M  V30 9732 C 950.64 -1.57471 -2.99867 0
M  V30 9733 C 949.686 -2.77863 -3.23565 0
M  V30 9734 S 950.519 -4.3946 -3.05999 0
M  V30 9735 C 951.675 -4.382 -4.46914 0
M  V30 9736 H 951.908 -2.56024 -1.51126 0
M  V30 9737 H 949.441 -1.38607 -0.680253 0
M  V30 9738 H 951.399 -1.55898 -3.79745 0
M  V30 9739 H 950.06 -0.641107 -3.07488 0
M  V30 9740 H 949.253 -2.71361 -4.24711 0
M  V30 9741 H 948.855 -2.76882 -2.51421 0
M  V30 9742 H 951.147 -4.10312 -5.3912 0
M  V30 9743 H 952.09 -5.39645 -4.58464 0
M  V30 9744 H 952.498 -3.68197 -4.27891 0
M  V30 9745 N 951.896 0.746133 -1.38819 0
M  V30 9746 C 952.806 1.89063 -1.38897 0
M  V30 9747 C 953.822 1.71648 -0.28513 0
M  V30 9748 O 954.998 1.94443 -0.524783 0
M  V30 9749 C 952.063 3.24523 -1.22007 0
M  V30 9750 C 951.124 3.54411 -2.42263 0
M  V30 9751 C 950.357 4.83408 -2.26169 0
M  V30 9752 O 950.58 5.56325 -1.25931 0
M  V30 9753 O 949.514 5.12943 -3.14918 0
M  V30 9754 H 953.34 1.91951 -2.35347 0
M  V30 9755 H 950.925 0.892433 -1.19816 0
M  V30 9756 H 952.807 4.05496 -1.14677 0
M  V30 9757 H 951.482 3.2243 -0.286455 0
M  V30 9758 H 950.389 2.73569 -2.55168 0
M  V30 9759 H 951.722 3.61273 -3.3428 0
M  V30 9760 N 953.375 1.23811 0.975125 0
M  V30 9761 C 954.285 1.0408 2.10249 0
M  V30 9762 C 955.301 -0.0162404 1.73992 0
M  V30 9763 O 956.477 0.180346 2.00591 0
M  V30 9764 C 953.542 0.640013 3.40741 0
M  V30 9765 C 952.603 1.7727 3.90991 0
M  V30 9766 C 951.836 1.39094 5.15256 0
M  V30 9767 O 952.059 0.277483 5.69725 0
M  V30 9768 O 950.993 2.21392 5.59704 0
M  V30 9769 H 954.819 1.98575 2.29786 0
M  V30 9770 H 952.404 1.02563 1.08633 0
M  V30 9771 H 954.286 0.427684 4.19224 0
M  V30 9772 H 952.961 -0.27589 3.22522 0
M  V30 9773 H 951.868 2.03971 3.13602 0
M  V30 9774 H 953.201 2.66711 4.13674 0
M  V30 9775 N 954.853 -1.17469 1.05066 0
M  V30 9776 C 955.783 -2.23635 0.671552 0
M  V30 9777 C 956.764 -1.66867 -0.33006 0
M  V30 9778 O 957.949 -1.93084 -0.207933 0
M  V30 9779 C 955.079 -3.47272 0.0441845 0
M  V30 9780 C 954.033 -4.16854 0.97042 0
M  V30 9781 C 953.359 -5.34299 0.206998 0
M  V30 9782 C 954.659 -4.69225 2.29401 0
M  V30 9783 H 956.353 -2.55602 1.55911 0
M  V30 9784 H 953.899 -1.2286 0.751101 0
M  V30 9785 H 955.852 -4.20756 -0.23282 0
M  V30 9786 H 954.576 -3.14568 -0.878311 0
M  V30 9787 H 953.235 -3.4528 1.23197 0
M  V30 9788 H 952.883 -4.97846 -0.718222 0
M  V30 9789 H 952.583 -5.81792 0.82416 0
M  V30 9790 H 954.107 -6.10568 -0.0627525 0
M  V30 9791 H 955.521 -5.34353 2.077 0
M  V30 9792 H 953.918 -5.27291 2.86503 0
M  V30 9793 H 954.988 -3.86102 2.93348 0
M  V30 9794 N 956.331 -0.831506 -1.3388 0
M  V30 9795 C 957.579 -0.422837 -1.97627 0
M  V30 9796 C 957.9 1.01961 -1.6622 0
M  V30 9797 O 957.17 1.70916 -0.957323 0
M  V30 9798 H 955.75 -0.153365 -0.731087 0
M  V30 9799 H 958.412 -1.06284 -1.6337 0
M  V30 9800 H 957.508 -0.548858 -3.07236 0
M  V30 9801 N 957.809 1.4625 -0.587256 0
M  V30 9802 C 958.739 2.33132 0.131076 0
M  V30 9803 C 959.72 1.45619 0.879158 0
M  V30 9804 O 960.905 1.74428 0.853723 0
M  V30 9805 C 958.035 3.27975 1.14236 0
M  V30 9806 C 956.989 4.24965 0.508819 0
M  V30 9807 C 956.315 5.09349 1.62689 0
M  V30 9808 C 957.615 5.19322 -0.55694 0
M  V30 9809 H 959.309 2.93442 -0.594333 0
M  V30 9810 H 956.855 1.41106 -0.287263 0
M  V30 9811 H 958.808 3.87614 1.65328 0
M  V30 9812 H 957.532 2.65781 1.8981 0
M  V30 9813 H 956.191 3.66595 0.0189337 0
M  V30 9814 H 955.839 4.43537 2.37242 0
M  V30 9815 H 955.539 5.75036 1.20861 0
M  V30 9816 H 957.063 5.71852 2.14049 0
M  V30 9817 H 958.477 5.73151 -0.130903 0
M  V30 9818 H 956.874 5.93376 -0.895801 0
M  V30 9819 H 957.944 4.62979 -1.44148 0
M  V30 9820 N 959.287 0.325282 1.54207 0
M  V30 9821 C 960.533 -0.277185 2.00897 0
M  V30 9822 C 960.866 -1.51651 1.21308 0
M  V30 9823 O 960.141 -1.92237 0.295825 0
M  V30 9824 C 960.424 -0.60961 3.54902 0
M  V30 9825 C 960.277 0.640542 4.45216 0
M  V30 9826 C 961.596 -1.42656 4.16338 0
M  V30 9827 H 958.715 -0.0992722 0.730284 0
M  V30 9828 H 961.357 0.442201 1.84783 0
M  V30 9829 H 959.507 -1.22249 3.68765 0
M  V30 9830 H 961.179 1.27878 4.43221 0
M  V30 9831 H 959.422 1.26908 4.14821 0
M  V30 9832 H 960.093 0.363459 5.50802 0
M  V30 9833 H 962.569 -0.908494 4.06061 0
M  V30 9834 H 961.445 -1.62792 5.24204 0
M  V30 9835 H 961.706 -2.42321 3.69774 0
M  V30 9836 N 960.765 -1.57509 0.0534917 0
M  V30 9837 C 961.993 -1.97098 -0.629298 0
M  V30 9838 C 962.408 -0.931128 -1.64242 0
M  V30 9839 O 961.765 0.0843866 -1.82305 0
M  V30 9840 C 961.816 -3.36767 -1.31415 0
M  V30 9841 O 961.537 -4.36766 -0.341599 0
M  V30 9842 C 963.038 -3.91127 -2.08649 0
M  V30 9843 H 960.258 -0.648611 -0.171886 0
M  V30 9844 H 962.802 -2.04145 0.120479 0
M  V30 9845 H 960.957 -3.30863 -2.01515 0
M  V30 9846 H 961.371 -5.1788 -0.830715 0
M  V30 9847 H 962.845 -4.91129 -2.51985 0
M  V30 9848 H 963.322 -3.26679 -2.9356 0
M  V30 9849 H 963.928 -4.00376 -1.43456 0
M  V30 9850 N 962.243 0.219913 -1.56058 0
M  V30 9851 C 963.193 1.27606 -1.88946 0
M  V30 9852 C 964.177 1.42209 -0.752691 0
M  V30 9853 O 965.369 1.44996 -1.01514 0
M  V30 9854 C 962.498 2.62614 -2.21108 0
M  V30 9855 C 961.584 2.51906 -3.4118 0
M  V30 9856 N 961.975 2.10851 -4.59756 0
M  V30 9857 C 960.273 2.82861 -3.44827 0
M  V30 9858 C 960.974 2.11434 -5.41914 0
M  V30 9859 N 959.95 2.51985 -4.81669 0
M  V30 9860 H 963.752 0.94957 -2.78137 0
M  V30 9861 H 961.266 0.428468 -1.56646 0
M  V30 9862 H 963.263 3.38869 -2.42844 0
M  V30 9863 H 961.923 2.96108 -1.3323 0
M  V30 9864 H 962.934 1.81956 -4.84884 0
M  V30 9865 H 959.611 3.20716 -2.67297 0
M  V30 9866 H 961.001 1.81803 -6.46836 0
M  V30 9867 N 963.721 1.49897 0.486681 0
M  V30 9868 C 964.651 1.7054 1.59494 0
M  V30 9869 C 965.632 0.554184 1.60819 0
M  V30 9870 O 966.817 0.791617 1.77333 0
M  V30 9871 C 963.947 1.78517 2.97908 0
M  V30 9872 C 962.901 2.93571 3.11449 0
M  V30 9873 C 962.227 2.86674 4.51356 0
M  V30 9874 C 963.527 4.34308 2.90127 0
M  V30 9875 H 965.221 2.63329 1.42472 0
M  V30 9876 H 962.767 1.2672 0.683969 0
M  V30 9877 H 964.72 1.91544 3.75352 0
M  V30 9878 H 963.444 0.823381 3.16051 0
M  V30 9879 H 962.103 2.80169 2.36433 0
M  V30 9880 H 961.751 1.88373 4.66395 0
M  V30 9881 H 961.451 3.63903 4.61355 0
M  V30 9882 H 962.975 3.01728 5.30841 0
M  V30 9883 H 964.389 4.48317 3.57331 0
M  V30 9884 H 962.786 5.12869 3.11585 0
M  V30 9885 H 963.856 4.47759 1.86119 0
M  V30 9886 N 965.199 -0.738761 1.39212 0
M  V30 9887 C 966.445 -1.50046 1.36433 0
M  V30 9888 C 966.778 -1.94157 -0.0409474 0
M  V30 9889 O 966.053 -1.66515 -1.00514 0
M  V30 9890 C 966.336 -2.74277 2.33333 0
M  V30 9891 C 966.189 -2.36209 3.82786 0
M  V30 9892 C 967.508 -3.76361 2.28123 0
M  V30 9893 H 964.627 -0.544294 0.496903 0
M  V30 9894 H 967.269 -0.845005 1.70175 0
M  V30 9895 H 965.419 -3.30204 2.04689 0
M  V30 9896 H 967.091 -1.85942 4.22165 0
M  V30 9897 H 965.334 -1.68483 3.99745 0
M  V30 9898 H 966.005 -3.25156 4.46069 0
M  V30 9899 H 968.481 -3.30009 2.53443 0
M  V30 9900 H 967.357 -4.60957 2.9801 0
M  V30 9901 H 967.618 -4.23013 1.28499 0
M  V30 9902 N 966.677 -1.24326 -0.968545 0
M  V30 9903 C 967.905 -1.10947 -1.74638 0
M  V30 9904 C 968.32 0.338064 -1.85749 0
M  V30 9905 O 967.677 1.23331 -1.3452 0
M  V30 9906 C 967.728 -1.74254 -3.1673 0
M  V30 9907 O 967.449 -3.13347 -3.06178 0
M  V30 9908 C 968.95 -1.66473 -4.10855 0
M  V30 9909 H 966.17 -0.38767 -0.547679 0
M  V30 9910 H 968.714 -1.64415 -1.21605 0
M  V30 9911 H 966.869 -1.2479 -3.66751 0
M  V30 9912 H 967.283 -3.44255 -3.95713 0
M  V30 9913 H 968.757 -2.15452 -5.08217 0
M  V30 9914 H 969.234 -0.625785 -4.34719 0
M  V30 9915 H 969.84 -2.15359 -3.66743 0
M  V30 9916 N 968.156 1.1691 -1.05688 0
M  V30 9917 C 969.103 2.21095 -0.662246 0
M  V30 9918 C 970.073 1.62623 0.338083 0
M  V30 9919 O 971.258 1.89428 0.228362 0
M  V30 9920 C 968.398 3.45066 -0.0484018 0
M  V30 9921 C 967.511 4.17809 -1.09817 0
M  V30 9922 C 966.646 5.29281 -0.451114 0
M  V30 9923 C 965.685 5.93817 -1.48484 0
M  V30 9924 N 964.822 6.96793 -0.861588 0
M  V30 9925 H 969.662 2.54204 -1.55513 0
M  V30 9926 H 967.199 1.24863 -0.777665 0
M  V30 9927 H 969.157 4.15932 0.324978 0
M  V30 9928 H 967.787 3.12526 0.807918 0
M  V30 9929 H 966.839 3.45608 -1.58932 0
M  V30 9930 H 968.151 4.61907 -1.88265 0
M  V30 9931 H 967.305 6.06695 -0.0244251 0
M  V30 9932 H 966.044 4.8633 0.365306 0
M  V30 9933 H 965.049 5.1513 -1.92149 0
M  V30 9934 H 966.274 6.38848 -2.30325 0
M  V30 9935 H 964.22 6.55967 -0.0657688 0
M  V30 9936 H 964.137 7.39229 -1.58354 0
M  V30 9937 H 965.405 7.78142 -0.45984 0
M  V30 9938 N 969.634 0.838594 1.33437 0
M  V30 9939 C 970.564 0.286672 2.31734 0
M  V30 9940 C 971.545 -0.605451 1.5896 0
M  V30 9941 O 972.73 -0.529059 1.86854 0
M  V30 9942 C 969.86 -0.539311 3.43087 0
M  V30 9943 C 968.814 0.256997 4.27228 0
M  V30 9944 C 968.14 -0.692718 5.30194 0
M  V30 9945 C 969.44 1.47391 5.01072 0
M  V30 9946 H 971.134 1.10798 2.78144 0
M  V30 9947 H 968.68 0.534235 1.33723 0
M  V30 9948 H 970.633 -0.935724 4.1088 0
M  V30 9949 H 969.357 -1.39383 2.95364 0
M  V30 9950 H 968.016 0.634967 3.61059 0
M  V30 9951 H 967.664 -1.54363 4.78729 0
M  V30 9952 H 967.364 -0.164023 5.87371 0
M  V30 9953 H 968.888 -1.08665 6.00853 0
M  V30 9954 H 970.302 1.15067 5.61634 0
M  V30 9955 H 968.699 1.93937 5.67898 0
M  V30 9956 H 969.769 2.24382 4.29861 0
M  V30 9957 N 971.112 -1.45937 0.595003 0
M  V30 9958 C 972.528 -1.57507 0.257641 0
M  V30 9959 C 972.728 -1.58829 -1.23998 0
M  V30 9960 O 971.784 -1.51183 -2.02237 0
M  V30 9961 C 973.097 -2.86354 0.917708 0
M  V30 9962 C 974.645 -3.00007 0.892446 0
M  V30 9963 C 975.12 -4.31607 1.53229 0
M  V30 9964 N 976.611 -4.38336 1.49719 0
M  V30 9965 C 977.346 -5.38805 1.96154 0
M  V30 9966 N 976.842 -6.45882 2.50617 0
M  V30 9967 N 978.635 -5.30084 1.86997 0
M  V30 9968 H 970.786 -1.43322 1.56756 0
M  V30 9969 H 973.049 -0.684436 0.655936 0
M  V30 9970 H 972.755 -2.91233 1.97171 0
M  V30 9971 H 972.629 -3.74703 0.433344 0
M  V30 9972 H 975.016 -2.94703 -0.152975 0
M  V30 9973 H 975.097 -2.13103 1.41495 0
M  V30 9974 H 974.741 -4.3767 2.57697 0
M  V30 9975 H 974.671 -5.17308 0.984903 0
M  V30 9976 H 977.162 -3.6156 1.09921 0
M  V30 9977 H 977.475 -7.18774 2.83874 0
M  V30 9978 H 975.82 -6.46668 2.54649 0
M  V30 9979 H 979.011 -4.45337 1.44196 0
M  V30 9980 H 979.184 -6.08237 2.23499 0
M  V30 9981 N 972.59 -0.333456 -1.54032 0
M  V30 9982 C 973.553 0.515392 -2.2333 0
M  V30 9983 C 974.553 1.03566 -1.23007 0
M  V30 9984 O 975.743 0.926514 -1.47517 0
M  V30 9985 C 972.875 1.7169 -2.94508 0
M  V30 9986 H 974.068 -0.0905407 -2.99763 0
M  V30 9987 H 971.621 -0.0846651 -1.56071 0
M  V30 9988 H 972.356 2.3618 -2.22237 0
M  V30 9989 H 972.141 1.35115 -3.68085 0
M  V30 9990 H 973.631 2.31922 -3.47278 0
M  V30 9991 N 974.068 1.57479 -0.061844 0
M  V30 9992 C 975.016 2.13346 0.926629 0
M  V30 9993 C 976.01 1.06787 1.31502 0
M  V30 9994 O 977.216 1.25181 1.29343 0
M  V30 9995 H 973.591 0.682046 0.316729 0
M  V30 9996 H 975.562 2.95279 0.430424 0
M  V30 9997 C 974.311 2.70198 2.18834 0
M  V30 9998 H 973.634 3.51859 1.89829 0
M  V30 9999 H 975.074 3.12897 2.86132 0
M  V30 10000 C 973.533 1.64481 2.9402 0
M  V30 10001 O 974.063 1.0639 3.87355 0
M  V30 10002 N 972.269 1.35749 2.56944 0
M  V30 10003 H 971.816 1.83177 1.81119 0
M  V30 10004 H 971.774 0.652469 3.07555 0
M  V30 10005 N 975.546 -0.211634 1.56173 0
M  V30 10006 C 976.792 -0.935935 1.79911 0
M  V30 10007 C 977.125 -1.83589 0.633155 0
M  V30 10008 O 976.4 -1.91004 -0.367132 0
M  V30 10009 C 976.683 -1.76638 3.13801 0
M  V30 10010 C 976.536 -0.892259 4.40861 0
M  V30 10011 C 977.855 -2.74224 3.44223 0
M  V30 10012 H 974.974 -0.338822 0.654499 0
M  V30 10013 H 977.616 -0.20422 1.88899 0
M  V30 10014 H 975.766 -2.39021 3.0627 0
M  V30 10015 H 977.438 -0.284407 4.60422 0
M  V30 10016 H 975.681 -0.198145 4.33347 0
M  V30 10017 H 976.352 -1.50793 5.31004 0
M  V30 10018 H 978.828 -2.21975 3.51946 0
M  V30 10019 H 977.704 -3.29424 4.39057 0
M  V30 10020 H 977.965 -3.52455 2.66885 0
M  V30 10021 N 977.024 -1.50153 -0.478725 0
M  V30 10022 C 977.972 -1.68975 -1.59844 0
M  V30 10023 C 978.966 -0.555591 -1.6003 0
M  V30 10024 O 980.172 -0.735875 -1.64271 0
M  V30 10025 H 976.547 -0.533211 -0.530274 0
M  V30 10026 H 978.518 -2.62917 -1.41128 0
M  V30 10027 C 977.267 -1.79409 -2.97838 0
M  V30 10028 H 976.59 -2.66066 -2.98411 0
M  V30 10029 H 978.03 -1.96606 -3.75662 0
M  V30 10030 C 976.489 -0.543927 -3.3248 0
M  V30 10031 O 977.019 0.320376 -4.0042 0
M  V30 10032 N 975.225 -0.400217 -2.87831 0
M  V30 10033 H 974.772 -1.10458 -2.32716 0
M  V30 10034 H 974.73 0.435111 -3.11375 0
M  V30 10035 N 978.502 0.731368 -1.39602 0
M  V30 10036 C 979.465 1.8271 -1.38383 0
M  V30 10037 C 980.465 1.58338 -0.280309 0
M  V30 10038 O 981.655 1.65671 -0.538402 0
M  V30 10039 C 978.787 3.20556 -1.16002 0
M  V30 10040 H 979.98 1.85193 -2.35889 0
M  V30 10041 H 977.533 0.935396 -1.2522 0
M  V30 10042 H 978.268 3.23732 -0.191927 0
M  V30 10043 H 978.053 3.39643 -1.9592 0
M  V30 10044 H 979.543 4.00612 -1.17899 0
M  V30 10045 N 979.98 1.24838 0.961938 0
M  V30 10046 C 981.396 1.01502 1.23165 0
M  V30 10047 C 981.596 -0.272651 1.99647 0
M  V30 10048 O 980.652 -0.987297 2.32398 0
M  V30 10049 C 981.965 2.23366 2.01316 0
M  V30 10050 C 983.513 2.28051 2.14387 0
M  V30 10051 C 983.988 3.49552 2.95935 0
M  V30 10052 N 985.479 3.49904 3.03515 0
M  V30 10053 C 986.214 4.40577 3.66987 0
M  V30 10054 N 985.71 5.41512 4.3213 0
M  V30 10055 N 987.503 4.28275 3.64056 0
M  V30 10056 H 979.654 2.07576 0.450086 0
M  V30 10057 H 981.917 0.911205 0.261551 0
M  V30 10058 H 981.623 3.16913 1.5251 0
M  V30 10059 H 981.497 2.25949 3.02038 0
M  V30 10060 H 983.884 1.35032 2.62393 0
M  V30 10061 H 983.965 2.29491 1.12994 0
M  V30 10062 H 983.609 4.42889 2.4862 0
M  V30 10063 H 983.539 3.45357 3.97538 0
M  V30 10064 H 986.03 2.76885 2.57183 0
M  V30 10065 H 986.343 6.06924 4.78396 0
M  V30 10066 H 984.688 5.45393 4.3078 0
M  V30 10067 H 987.879 3.48653 3.12344 0
M  V30 10068 H 988.052 4.99138 4.13237 0
M  V30 10069 N 981.458 -1.16348 1.06306 0
M  V30 10070 C 982.686 -1.90782 0.800614 0
M  V30 10071 C 983.101 -1.77439 -0.645033 0
M  V30 10072 O 982.458 -1.11912 -1.4416 0
M  V30 10073 C 982.509 -3.41484 1.18621 0
M  V30 10074 O 982.23 -3.54428 2.57512 0
M  V30 10075 C 983.731 -4.32968 0.951525 0
M  V30 10076 H 980.951 -0.604977 0.290247 0
M  V30 10077 H 983.495 -1.47476 1.41672 0
M  V30 10078 H 981.65 -3.82493 0.614633 0
M  V30 10079 H 982.064 -4.4788 2.72954 0
M  V30 10080 H 983.538 -5.37169 1.27095 0
M  V30 10081 H 984.015 -4.39055 -0.112734 0
M  V30 10082 H 984.621 -3.97687 1.50749 0
M  V30 10083 N 982.937 -0.845659 -1.3299 0
M  V30 10084 C 984.184 -0.444653 -1.97558 0
M  V30 10085 C 984.512 0.997682 -1.66963 0
M  V30 10086 O 983.767 1.71349 -0.94541 0
M  V30 10087 C 984.066 -0.6201 -3.51979 0
M  V30 10088 C 983.732 -2.03155 -4.02541 0
M  V30 10089 C 982.394 -2.4176 -4.16059 0
M  V30 10090 C 984.746 -2.95317 -4.29462 0
M  V30 10091 C 982.074 -3.71818 -4.53837 0
M  V30 10092 C 984.426 -4.24863 -4.68694 0
M  V30 10093 C 983.09 -4.63416 -4.80419 0
M  V30 10094 H 982.36 -0.16271 -0.722915 0
M  V30 10095 H 985.007 -1.07399 -1.58549 0
M  V30 10096 H 983.312 0.092513 -3.91691 0
M  V30 10097 H 985.009 -0.290012 -3.9995 0
M  V30 10098 H 981.599 -1.72174 -3.92497 0
M  V30 10099 H 985.783 -2.66726 -4.18534 0
M  V30 10100 H 981.039 -4.01484 -4.61108 0
M  V30 10101 H 985.213 -4.96347 -4.8848 0
M  V30 10102 H 982.84 -5.6424 -5.09448 0
M  V30 10103 N 984.415 1.45619 -0.602734 0
M  V30 10104 C 985.378 2.28941 0.108962 0
M  V30 10105 C 986.378 1.39501 0.799762 0
M  V30 10106 O 987.568 1.61673 0.648663 0
M  V30 10107 C 984.7 3.204 1.16432 0
M  V30 10108 H 985.893 2.93346 -0.623534 0
M  V30 10109 H 983.446 1.52061 -0.361565 0
M  V30 10110 H 984.181 2.60785 1.92774 0
M  V30 10111 H 983.966 3.86277 0.673248 0
M  V30 10112 H 985.456 3.83063 1.6629 0
M  V30 10113 N 985.893 0.34162 1.53853 0
M  V30 10114 C 987.141 -0.254979 2.00485 0
M  V30 10115 C 987.462 -1.51222 1.23114 0
M  V30 10116 O 986.732 -1.92966 0.337787 0
M  V30 10117 H 985.312 -0.0972084 0.740648 0
M  V30 10118 H 987.974 0.462332 1.89337 0
M  V30 10119 H 987.07 -0.498778 3.08089 0
M  V30 10120 N 987.371 -1.57444 0.0701946 0
M  V30 10121 C 988.319 -2.13834 -0.915302 0
M  V30 10122 C 989.313 -1.07483 -1.30934 0
M  V30 10123 O 990.519 -1.25865 -1.28678 0
M  V30 10124 H 986.894 -0.683716 -0.313108 0
M  V30 10125 H 988.865 -2.95503 -0.414758 0
M  V30 10126 C 987.614 -2.71355 -2.17398 0
M  V30 10127 H 986.937 -3.52861 -1.87961 0
M  V30 10128 H 988.377 -3.1441 -2.84469 0
M  V30 10129 C 986.836 -1.66038 -2.93143 0
M  V30 10130 O 987.366 -1.08443 -3.86786 0
M  V30 10131 N 985.572 -1.3711 -2.56221 0
M  V30 10132 H 985.119 -1.84135 -1.80145 0
M  V30 10133 H 985.077 -0.66877 -3.07205 0
M  V30 10134 N 988.849 0.203349 -1.56283 0
M  V30 10135 C 990.077 0.941426 -1.84241 0
M  V30 10136 C 990.492 1.77197 -0.651658 0
M  V30 10137 O 989.849 1.78506 0.379713 0
M  V30 10138 C 989.9 1.84429 -3.10915 0
M  V30 10139 O 989.621 1.04729 -4.25398 0
M  V30 10140 C 991.122 2.69474 -3.51993 0
M  V30 10141 H 988.342 0.27507 -0.612027 0
M  V30 10142 H 990.886 0.213088 -2.03387 0
M  V30 10143 H 989.041 2.52635 -2.93691 0
M  V30 10144 H 989.455 1.66179 -4.97478 0
M  V30 10145 H 990.929 3.28495 -4.43616 0
M  V30 10146 H 991.406 3.42775 -2.74594 0
M  V30 10147 H 992.012 2.06652 -3.71719 0
M  V30 10148 N 990.327 1.50405 0.470755 0
M  V30 10149 C 991.738 1.54266 1.05162 0
M  V30 10150 C 992.089 0.346359 1.93119 0
M  V30 10151 O 991.214 -0.540699 2.09536 0
M  V30 10152 C 991.809 2.7956 1.91394 0
M  V30 10153 C 990.368 2.86101 2.44588 0
M  V30 10154 C 989.515 2.48557 1.22941 0
M  V30 10155 H 992.466 1.56665 0.253359 0
M  V30 10156 H 992.487 2.61434 2.76464 0
M  V30 10157 H 991.999 3.66611 1.27351 0
M  V30 10158 H 990.1 2.03403 3.12183 0
M  V30 10159 H 990.213 3.88999 2.79672 0
M  V30 10160 H 988.577 2.01003 1.56429 0
M  V30 10161 H 989.36 3.37916 0.605598 0
M  V30 10162 N 991.805 -0.723954 1.39988 0
M  V30 10163 C 992.735 -1.85103 1.42335 0
M  V30 10164 C 993.716 -1.6769 0.285297 0
M  V30 10165 O 994.901 -1.87846 0.492716 0
M  V30 10166 C 992.031 -3.22972 1.27697 0
M  V30 10167 C 990.985 -3.55041 2.39018 0
M  V30 10168 C 990.311 -4.91965 2.09462 0
M  V30 10169 C 991.611 -3.56889 3.8135 0
M  V30 10170 H 993.305 -1.83396 2.36656 0
M  V30 10171 H 990.851 -0.880926 1.13911 0
M  V30 10172 H 992.804 -4.01503 1.27958 0
M  V30 10173 H 991.528 -3.25233 0.298487 0
M  V30 10174 H 990.187 -2.78845 2.37993 0
M  V30 10175 H 989.835 -4.90819 1.10025 0
M  V30 10176 H 989.535 -5.14389 2.84038 0
M  V30 10177 H 991.059 -5.7284 2.11391 0
M  V30 10178 H 992.473 -4.25476 3.84243 0
M  V30 10179 H 990.87 -3.90836 4.55376 0
M  V30 10180 H 991.94 -2.56452 4.11534 0
M  V30 10181 N 993.283 -1.25346 -0.955304 0
M  V30 10182 C 994.233 -1.02358 -2.03732 0
M  V30 10183 C 995.217 0.0392941 -1.60852 0
M  V30 10184 O 996.409 -0.175959 -1.76123 0
M  V30 10185 C 993.538 -0.643552 -3.37214 0
M  V30 10186 C 992.624 -1.74315 -3.8662 0
M  V30 10187 N 993.015 -2.97816 -4.08827 0
M  V30 10188 C 991.313 -1.62351 -4.15401 0
M  V30 10189 C 992.014 -3.69185 -4.4953 0
M  V30 10190 N 990.99 -2.96803 -4.55422 0
M  V30 10191 H 994.792 -1.96119 -2.18894 0
M  V30 10192 H 992.306 -1.15655 -1.14007 0
M  V30 10193 H 994.303 -0.460053 -4.14354 0
M  V30 10194 H 992.963 0.286738 -3.23431 0
M  V30 10195 H 993.974 -3.33868 -3.95919 0
M  V30 10196 H 990.651 -0.762133 -4.10485 0
M  V30 10197 H 992.041 -4.7519 -4.7502 0
M  V30 10198 N 994.761 1.15782 -1.06922 0
M  V30 10199 C 995.691 2.22538 -0.707045 0
M  V30 10200 C 996.672 1.67371 0.303471 0
M  V30 10201 O 997.857 1.9339 0.177189 0
M  V30 10202 C 994.987 3.47158 -0.0994269 0
M  V30 10203 C 993.941 4.15257 -1.03661 0
M  V30 10204 C 993.267 5.33902 -0.291974 0
M  V30 10205 C 994.567 4.65516 -2.36837 0
M  V30 10206 H 996.261 2.53089 -1.59958 0
M  V30 10207 H 993.807 1.21649 -0.770552 0
M  V30 10208 H 995.76 4.21073 0.165852 0
M  V30 10209 H 994.484 3.15926 0.828155 0
M  V30 10210 H 993.143 3.43276 -1.28674 0
M  V30 10211 H 992.791 4.98926 0.638928 0
M  V30 10212 H 992.491 5.80407 -0.916613 0
M  V30 10213 H 994.015 6.1059 -0.0343915 0
M  V30 10214 H 995.429 5.30981 -2.16175 0
M  V30 10215 H 993.826 5.22666 -2.94856 0
M  V30 10216 H 994.896 3.81387 -2.99453 0
M  V30 10217 N 996.239 0.8527 1.3254 0
M  V30 10218 C 997.202 0.300959 2.27215 0
M  V30 10219 C 998.202 -0.538235 1.51525 0
M  V30 10220 O 999.392 -0.350027 1.70647 0
M  V30 10221 C 996.524 -0.574428 3.36025 0
M  V30 10222 H 997.717 1.13655 2.77529 0
M  V30 10223 H 995.27 0.626878 1.43178 0
M  V30 10224 H 996.005 -1.43191 2.90976 0
M  V30 10225 H 995.79 0.0262265 3.92091 0
M  V30 10226 H 997.28 -0.9533 4.06573 0
M  V30 10227 N 997.718 -1.45297 0.610449 0
M  V30 10228 C 998.681 -2.28995 -0.0968194 0
M  V30 10229 C 999.681 -1.39923 -0.792353 0
M  V30 10230 O 1000.87 -1.62014 -0.64008 0
M  V30 10231 C 998.003 -3.21013 -1.14731 0
M  V30 10232 H 999.196 -2.93012 0.639082 0
M  V30 10233 H 996.749 -1.51867 0.369624 0
M  V30 10234 H 997.484 -2.61803 -1.91388 0
M  V30 10235 H 997.269 -3.86628 -0.652753 0
M  V30 10236 H 998.759 -3.8394 -1.64256 0
M  V30 10237 N 999.196 -0.349774 -1.5367 0
M  V30 10238 C 1000.44 0.244343 -2.00617 0
M  V30 10239 C 1000.76 1.50567 -1.23914 0
M  V30 10240 O 1000.03 1.92784 -0.348016 0
M  V30 10241 H 998.615 0.0932792 -0.741153 0
M  V30 10242 H 1001.28 -0.472367 -1.89089 0
M  V30 10243 H 1000.37 0.482433 -3.08349 0
M  V30 10244 N 1000.67 1.57404 -0.0785433 0
M  V30 10245 C 1001.6 2.16131 0.883726 0
M  V30 10246 C 1002.58 1.09015 1.30575 0
M  V30 10247 O 1003.77 1.3708 1.37559 0
M  V30 10248 C 1000.9 2.72836 2.1489 0
M  V30 10249 C 999.854 3.85178 1.86605 0
M  V30 10250 C 999.18 4.28516 3.1981 0
M  V30 10251 C 1000.48 5.09118 1.16601 0
M  V30 10252 H 1002.17 2.9679 0.394484 0
M  V30 10253 H 999.72 1.42763 0.188304 0
M  V30 10254 H 1001.67 3.12567 2.8263 0
M  V30 10255 H 1000.4 1.89408 2.66068 0
M  V30 10256 H 999.056 3.45962 1.21268 0
M  V30 10257 H 998.704 3.42 3.68843 0
M  V30 10258 H 998.404 5.04249 3.01674 0
M  V30 10259 H 999.928 4.70868 3.88737 0
M  V30 10260 H 1001.34 5.46123 1.74422 0
M  V30 10261 H 999.739 5.90173 1.087 0
M  V30 10262 H 1000.81 4.8468 0.146138 0
M  V30 10263 N 1002.15 -0.195058 1.56388 0
M  V30 10264 C 1003.4 -0.913636 1.8027 0
M  V30 10265 C 1003.72 -1.83791 0.651606 0
M  V30 10266 O 1002.99 -1.931 -0.330057 0
M  V30 10267 H 1001.57 -0.34036 0.664954 0
M  V30 10268 H 1004.23 -0.200559 1.93865 0
M  V30 10269 H 1003.33 -1.50473 2.7343 0
M  V30 10270 N 1003.63 -1.50653 -0.462772 0
M  V30 10271 C 1004.86 -1.65586 -1.23551 0
M  V30 10272 C 1005.27 -0.342012 -1.86083 0
M  V30 10273 O 1004.61 0.686893 -1.70374 0
M  V30 10274 C 1004.67 -2.69555 -2.37867 0
M  V30 10275 C 1004.34 -4.1288 -1.95906 0
M  V30 10276 C 1005.33 -4.98483 -1.47685 0
M  V30 10277 C 1003.02 -4.58843 -2.04373 0
M  V30 10278 C 1005.01 -6.281 -1.08484 0
M  V30 10279 C 1002.7 -5.88464 -1.64783 0
M  V30 10280 C 1003.7 -6.72918 -1.16918 0
M  V30 10281 O 1003.39 -8.00119 -0.778798 0
M  V30 10282 H 1003.12 -0.559438 -0.37948 0
M  V30 10283 H 1005.67 -1.9768 -0.557816 0
M  V30 10284 H 1003.9 -2.3272 -3.08834 0
M  V30 10285 H 1005.59 -2.73624 -2.99808 0
M  V30 10286 H 1006.36 -4.64186 -1.40558 0
M  V30 10287 H 1002.24 -3.93247 -2.40577 0
M  V30 10288 H 1005.78 -6.93972 -0.710524 0
M  V30 10289 H 1001.68 -6.22281 -1.71571 0
M  V30 10290 H 1002.44 -8.1346 -0.906911 0
M  V30 10291 N 1005.11 0.71652 -1.4037 0
M  V30 10292 C 1006.52 1.29562 -1.34427 0
M  V30 10293 C 1006.87 1.96192 -0.0173106 0
M  V30 10294 O 1006 1.97488 0.884719 0
M  V30 10295 C 1006.59 2.35601 -2.4347 0
M  V30 10296 C 1005.15 2.89138 -2.4099 0
M  V30 10297 C 1004.3 1.62915 -2.24397 0
M  V30 10298 H 1007.25 0.512715 -1.5019 0
M  V30 10299 H 1007.27 3.16422 -2.11323 0
M  V30 10300 H 1006.78 1.87077 -3.40035 0
M  V30 10301 H 1004.88 3.41894 -1.4812 0
M  V30 10302 H 1004.99 3.40995 -3.3654 0
M  V30 10303 H 1003.36 1.87947 -1.71896 0
M  V30 10304 H 1004.14 1.16417 -3.22958 0
M  V30 10305 N 1006.59 1.25851 0.948643 0
M  V30 10306 C 1007.81 1.13711 1.72851 0
M  V30 10307 C 1008.23 -0.308471 1.86263 0
M  V30 10308 O 1007.59 -1.21175 1.36465 0
M  V30 10309 C 1007.64 1.79271 3.13918 0
M  V30 10310 O 1007.36 3.18179 3.01154 0
M  V30 10311 C 1008.86 1.72988 4.08154 0
M  V30 10312 H 1006.08 0.396334 0.541443 0
M  V30 10313 H 1008.62 1.66329 1.18974 0
M  V30 10314 H 1006.78 1.30609 3.64719 0
M  V30 10315 H 1007.19 3.50507 3.90186 0
M  V30 10316 H 1008.67 2.2351 5.04725 0
M  V30 10317 H 1009.14 0.694866 4.33668 0
M  V30 10318 H 1009.75 2.21166 3.63271 0
M  V30 10319 N 1008.06 -1.15214 1.07534 0
M  V30 10320 C 1008.99 -2.2216 0.718837 0
M  V30 10321 C 1009.98 -1.6753 -0.29459 0
M  V30 10322 O 1011.16 -1.93481 -0.166931 0
M  V30 10323 C 1008.29 -3.471 0.117836 0
M  V30 10324 C 1007.24 -4.14701 1.05862 0
M  V30 10325 C 1006.57 -5.3374 0.320284 0
M  V30 10326 C 1007.87 -4.64254 2.39302 0
M  V30 10327 H 1009.56 -2.52237 1.61297 0
M  V30 10328 H 1007.11 -1.21239 0.776992 0
M  V30 10329 H 1009.06 -4.21156 -0.143519 0
M  V30 10330 H 1007.79 -3.16361 -0.811389 0
M  V30 10331 H 1006.45 -3.42589 1.30493 0
M  V30 10332 H 1006.09 -4.99257 -0.61246 0
M  V30 10333 H 1005.79 -5.79912 0.947381 0
M  V30 10334 H 1007.32 -6.10563 0.0667721 0
M  V30 10335 H 1008.73 -5.29827 2.18988 0
M  V30 10336 H 1007.13 -5.21095 2.97623 0
M  V30 10337 H 1008.2 -3.79793 3.01472 0
M  V30 10338 N 1009.54 -0.859717 -1.32086 0
M  V30 10339 C 1010.77 -0.479724 -2.01262 0
M  V30 10340 C 1011.19 0.924985 -1.64589 0
M  V30 10341 O 1010.54 1.60439 -0.869803 0
M  V30 10342 C 1010.59 -0.615128 -3.56228 0
M  V30 10343 O 1010.31 -1.96451 -3.91585 0
M  V30 10344 C 1011.82 -0.234804 -4.42678 0
M  V30 10345 H 1009.04 -0.188007 -0.644123 0
M  V30 10346 H 1011.58 -1.15805 -1.68551 0
M  V30 10347 H 1009.73 0.0155268 -3.87397 0
M  V30 10348 H 1010.15 -1.96491 -4.86304 0
M  V30 10349 H 1011.62 -0.380534 -5.50687 0
M  V30 10350 H 1012.1 0.825189 -4.31378 0
M  V30 10351 H 1012.71 -0.840739 -4.16907 0
M  V30 10352 N 1011.02 1.44971 -0.618145 0
M  V30 10353 C 1012.44 1.57077 -0.282666 0
M  V30 10354 C 1012.64 1.60782 1.21456 0
M  V30 10355 O 1011.69 1.54382 1.99806 0
M  V30 10356 C 1013.01 2.84858 -0.963148 0
M  V30 10357 C 1014.55 2.9855 -0.940062 0
M  V30 10358 C 1015.03 4.29115 -1.60076 0
M  V30 10359 N 1016.52 4.35899 -1.56674 0
M  V30 10360 C 1017.25 5.35617 -2.04701 0
M  V30 10361 N 1016.75 6.41813 -2.6086 0
M  V30 10362 N 1018.54 5.27042 -1.95406 0
M  V30 10363 H 1010.69 1.4081 -1.59017 0
M  V30 10364 H 1012.96 0.673914 -0.666741 0
M  V30 10365 H 1012.66 2.88059 -2.0178 0
M  V30 10366 H 1012.54 3.73966 -0.492901 0
M  V30 10367 H 1014.92 2.94909 0.10607 0
M  V30 10368 H 1015.01 2.10825 -1.44868 0
M  V30 10369 H 1014.65 4.33514 -2.64627 0
M  V30 10370 H 1014.58 5.15675 -1.06708 0
M  V30 10371 H 1017.07 3.59766 -1.15659 0
M  V30 10372 H 1017.38 7.14166 -2.95273 0
M  V30 10373 H 1015.73 6.42534 -2.64905 0
M  V30 10374 H 1018.92 4.42987 -1.51263 0
M  V30 10375 H 1019.09 6.04604 -2.33147 0
M  V30 10376 N 1012.5 0.357919 1.53482 0
M  V30 10377 C 1013.43 -0.484231 2.28424 0
M  V30 10378 C 1014.41 -1.09046 1.30548 0
M  V30 10379 O 1015.59 -1.10916 1.59409 0
M  V30 10380 C 1012.72 -1.62803 3.06778 0
M  V30 10381 C 1011.68 -1.14943 4.12277 0
M  V30 10382 C 1011 -2.38287 4.78669 0
M  V30 10383 C 1012.3 -0.239627 5.2175 0
M  V30 10384 H 1014 0.140979 2.99068 0
M  V30 10385 H 1011.54 0.069244 1.43833 0
M  V30 10386 H 1013.5 -2.22374 3.57949 0
M  V30 10387 H 1012.22 -2.28036 2.3381 0
M  V30 10388 H 1010.88 -0.576442 3.6204 0
M  V30 10389 H 1010.53 -3.01959 4.02281 0
M  V30 10390 H 1010.23 -2.06939 5.49955 0
M  V30 10391 H 1011.75 -2.98558 5.32631 0
M  V30 10392 H 1013.17 -0.742597 5.6847 0
M  V30 10393 H 1011.56 -0.0173747 6.00097 0
M  V30 10394 H 1012.63 0.720333 4.7952 0
M  V30 10395 N 1013.98 -1.5736 0.0868897 0
M  V30 10396 C 1014.91 -2.16596 -0.872252 0
M  V30 10397 C 1015.89 -1.09706 -1.29995 0
M  V30 10398 O 1017.07 -1.37808 -1.36831 0
M  V30 10399 C 1014.2 -2.73972 -2.1344 0
M  V30 10400 C 1013.16 -3.86163 -1.8456 0
M  V30 10401 C 1012.48 -4.30206 -3.17533 0
M  V30 10402 C 1013.78 -5.0973 -1.13899 0
M  V30 10403 H 1015.48 -2.96995 -0.378738 0
M  V30 10404 H 1013.02 -1.42861 -0.18073 0
M  V30 10405 H 1014.98 -3.14062 -2.80968 0
M  V30 10406 H 1013.7 -1.90817 -2.6506 0
M  V30 10407 H 1012.36 -3.466 -1.19432 0
M  V30 10408 H 1012.01 -3.43951 -3.67024 0
M  V30 10409 H 1011.71 -5.05841 -2.98996 0
M  V30 10410 H 1013.23 -4.72922 -3.86234 0
M  V30 10411 H 1014.64 -5.4704 -1.71523 0
M  V30 10412 H 1013.04 -5.90741 -1.05569 0
M  V30 10413 H 1014.11 -4.8475 -0.120432 0
M  V30 10414 N 1015.45 0.186762 -1.56489 0
M  V30 10415 C 1016.38 1.23395 -1.98232 0
M  V30 10416 C 1017.37 1.4702 -0.855526 0
M  V30 10417 O 1018.55 1.58616 -1.12048 0
M  V30 10418 C 1015.68 2.57635 -2.32898 0
M  V30 10419 C 1014.63 2.48607 -3.48394 0
M  V30 10420 C 1013.96 3.87196 -3.68759 0
M  V30 10421 C 1015.26 2.00398 -4.82325 0
M  V30 10422 H 1016.95 0.887026 -2.85958 0
M  V30 10423 H 1014.5 0.42525 -1.37578 0
M  V30 10424 H 1016.45 3.31082 -2.60696 0
M  V30 10425 H 1015.18 2.94084 -1.42064 0
M  V30 10426 H 1013.84 1.77615 -3.207 0
M  V30 10427 H 1013.48 4.21012 -2.75241 0
M  V30 10428 H 1013.18 3.82029 -4.46462 0
M  V30 10429 H 1014.71 4.62253 -3.98941 0
M  V30 10430 H 1016.12 2.6361 -5.091 0
M  V30 10431 H 1014.52 2.06214 -5.63556 0
M  V30 10432 H 1015.59 0.957562 -4.75351 0
M  V30 10433 N 1016.93 1.50896 0.454776 0
M  V30 10434 C 1017.88 1.70947 1.55067 0
M  V30 10435 C 1018.85 0.550899 1.56698 0
M  V30 10436 O 1020.03 0.783352 1.73978 0
M  V30 10437 C 1017.17 1.82455 2.92924 0
M  V30 10438 C 1016.29 3.09919 3.00956 0
M  V30 10439 C 1015.42 3.12125 4.29827 0
M  V30 10440 C 1014.46 4.33975 4.31662 0
M  V30 10441 N 1013.6 4.33828 5.5203 0
M  V30 10442 H 1018.44 2.645 1.37273 0
M  V30 10443 H 1015.98 1.31101 0.667148 0
M  V30 10444 H 1017.93 1.87108 3.72889 0
M  V30 10445 H 1016.56 0.92327 3.09315 0
M  V30 10446 H 1015.62 3.14659 2.13761 0
M  V30 10447 H 1016.93 3.99869 2.98172 0
M  V30 10448 H 1016.08 3.15598 5.18154 0
M  V30 10449 H 1014.82 2.20033 4.35243 0
M  V30 10450 H 1013.83 4.30697 3.41731 0
M  V30 10451 H 1015.05 5.27312 4.27924 0
M  V30 10452 H 1013 3.44598 5.58201 0
M  V30 10453 H 1012.91 5.17566 5.51055 0
M  V30 10454 H 1014.18 4.4147 6.42437 0
M  V30 10455 N 1018.41 -0.709066 1.40748 0
M  V30 10456 C 1019.37 -1.80485 1.41272 0
M  V30 10457 C 1020.37 -1.57872 0.305463 0
M  V30 10458 O 1021.56 -1.64793 0.564691 0
M  V30 10459 C 1018.7 -3.1867 1.21087 0
M  V30 10460 H 1019.89 -1.81417 2.38805 0
M  V30 10461 H 1017.44 -0.915356 1.26692 0
M  V30 10462 H 1018.18 -3.23385 0.243406 0
M  V30 10463 H 1017.96 -3.36484 2.01299 0
M  V30 10464 H 1019.45 -3.98685 1.24257 0
M  V30 10465 N 1019.89 -1.26353 -0.941956 0
M  V30 10466 C 1021.14 -1.1163 -1.68473 0
M  V30 10467 C 1021.46 0.34108 -1.91994 0
M  V30 10468 O 1020.73 1.24065 -1.51607 0
M  V30 10469 H 1019.31 -0.410113 -0.624353 0
M  V30 10470 H 1021.97 -1.58669 -1.13182 0
M  V30 10471 H 1021.07 -1.63445 -2.6588 0
M  V30 10472 N 1021.37 1.14642 -1.08144 0
M  V30 10473 C 1022.33 2.17834 -0.712799 0
M  V30 10474 C 1023.33 1.58828 0.251041 0
M  V30 10475 O 1024.52 1.74173 0.0309381 0
M  V30 10476 C 1021.65 3.4086 -0.0519477 0
M  V30 10477 H 1022.85 2.51961 -1.62653 0
M  V30 10478 H 1020.4 1.29243 -0.878971 0
M  V30 10479 H 1021.13 3.12311 0.873636 0
M  V30 10480 H 1020.92 3.84952 -0.745286 0
M  V30 10481 H 1022.41 4.17163 0.191031 0
M  V30 10482 N 1022.85 0.866709 1.31628 0
M  V30 10483 C 1024.12 0.396828 1.91532 0
M  V30 10484 C 1024.5 -1.12081 1.78889 0
M  V30 10485 O 1023.85 -1.94791 1.19452 0
M  V30 10486 C 1024.06 0.874578 3.37864 0
M  V30 10487 C 1025.41 0.8988 4.14978 0
M  V30 10488 O 1026.43 0.820014 3.46633 0
M  V30 10489 O 1025.29 1.01223 5.37044 0
M  V30 10490 H 1022.39 0.1181 0.818524 0
M  V30 10491 H 1024.93 0.954407 1.40318 0
M  V30 10492 H 1023.7 1.91807 3.41066 0
M  V30 10493 H 1023.33 0.295126 3.96503 0
M  V30 10494 N 1024.32 -1.44642 0.625825 0
M  V30 10495 C 1025.57 -2.01308 0.125682 0
M  V30 10496 C 1025.89 -1.49773 -1.25807 0
M  V30 10497 O 1027.09 -1.98533 -1.85194 0
M  V30 10498 C 1025.55 -3.59479 0.17395 0
M  V30 10499 C 1025.16 -4.20011 1.55868 0
M  V30 10500 C 1026.9 -4.2364 -0.270005 0
M  V30 10501 C 1024.81 -5.7039 1.56235 0
M  V30 10502 H 1023.74 -0.75276 0.0432194 0
M  V30 10503 H 1026.39 -1.65916 0.783842 0
M  V30 10504 H 1024.77 -3.92145 -0.551212 0
M  V30 10505 H 1025.94 -3.98891 2.307 0
M  V30 10506 H 1024.26 -3.68116 1.94627 0
M  V30 10507 H 1026.86 -5.33931 -0.28672 0
M  V30 10508 H 1027.2 -3.95603 -1.29629 0
M  V30 10509 H 1027.73 -3.95759 0.402487 0
M  V30 10510 H 1024.47 -6.03154 2.56683 0
M  V30 10511 H 1023.99 -5.93648 0.856881 0
M  V30 10512 H 1025.67 -6.33929 1.29396 0
M  V30 10513 N 1025.8 -0.366053 -1.5329 0
M  V30 10514 C 1026.75 0.496656 -2.22525 0
M  V30 10515 C 1027.74 1.0483 -1.22063 0
M  V30 10516 O 1028.93 0.978266 -1.47509 0
M  V30 10517 C 1026.06 1.63559 -3.01833 0
M  V30 10518 C 1025.14 1.0968 -4.09672 0
M  V30 10519 N 1025.53 0.28104 -5.05019 0
M  V30 10520 C 1023.83 1.37157 -4.24387 0
M  V30 10521 C 1024.53 -0.0140071 -5.81698 0
M  V30 10522 N 1023.51 0.583743 -5.40457 0
M  V30 10523 H 1027.31 -0.133408 -2.93597 0
M  V30 10524 H 1024.82 -0.174095 -1.61464 0
M  V30 10525 H 1026.82 2.26582 -3.49952 0
M  V30 10526 H 1025.48 2.26871 -2.32292 0
M  V30 10527 H 1026.49 -0.0797947 -5.17839 0
M  V30 10528 H 1023.17 2.00743 -3.66072 0
M  V30 10529 H 1024.56 -0.673508 -6.68516 0
M  V30 10530 N 1027.28 1.57312 -0.0952337 0
M  V30 10531 C 1028.24 2.12889 0.849161 0
M  V30 10532 C 1029.24 1.05819 1.21075 0
M  V30 10533 O 1030.43 1.31704 1.14016 0
M  V30 10534 C 1027.56 2.6496 2.14498 0
M  V30 10535 H 1028.76 2.97651 0.366566 0
M  V30 10536 H 1026.31 1.55542 0.153762 0
M  V30 10537 H 1027.05 1.83718 2.67242 0
M  V30 10538 H 1026.83 3.43244 1.89542 0
M  V30 10539 H 1028.32 3.07952 2.82056 0
M  V30 10540 N 1028.76 -0.17846 1.56586 0
M  V30 10541 C 1029.67 -1.24115 1.9908 0
M  V30 10542 C 1030.68 -1.48854 0.901031 0
M  V30 10543 O 1031.86 -1.61142 1.2081 0
M  V30 10544 C 1028.92 -2.56187 2.33601 0
M  V30 10545 C 1027.99 -2.39373 3.56369 0
M  V30 10546 C 1027.22 -3.65147 3.89234 0
M  V30 10547 O 1027.44 -4.70024 3.23162 0
M  V30 10548 O 1026.38 -3.59683 4.82609 0
M  V30 10549 H 1030.2 -0.910482 2.89731 0
M  V30 10550 H 1027.79 -0.38477 1.4436 0
M  V30 10551 H 1029.67 -3.34109 2.56806 0
M  V30 10552 H 1028.34 -2.88847 1.46113 0
M  V30 10553 H 1027.25 -1.59506 3.38391 0
M  V30 10554 H 1028.58 -2.1164 4.44375 0
M  V30 10555 N 1030.24 -1.51135 -0.446768 0
M  V30 10556 C 1031.18 -1.72328 -1.56224 0
M  V30 10557 C 1032.18 -0.589411 -1.58815 0
M  V30 10558 O 1033.38 -0.770554 -1.62673 0
M  V30 10559 H 1029.76 -0.544339 -0.518844 0
M  V30 10560 H 1031.73 -2.65851 -1.3552 0
M  V30 10561 C 1030.48 -1.85686 -2.93966 0
M  V30 10562 H 1029.8 -2.72336 -2.927 0
M  V30 10563 H 1031.24 -2.0453 -3.71407 0
M  V30 10564 C 1029.7 -0.614328 -3.31252 0
M  V30 10565 O 1030.23 0.235369 -4.0101 0
M  V30 10566 N 1028.44 -0.461181 -2.86917 0
M  V30 10567 H 1027.98 -1.15369 -2.30321 0
M  V30 10568 H 1027.94 0.368966 -3.12227 0
M  V30 10569 N 1031.71 0.701592 -1.41122 0
M  V30 10570 C 1032.62 1.84548 -1.44841 0
M  V30 10571 C 1033.64 1.70654 -0.339594 0
M  V30 10572 O 1034.82 1.92675 -0.586378 0
M  V30 10573 C 1031.88 3.20477 -1.3227 0
M  V30 10574 C 1030.94 3.46524 -2.53415 0
M  V30 10575 C 1030.17 4.75968 -2.41434 0
M  V30 10576 O 1030.4 5.52037 -1.43566 0
M  V30 10577 O 1029.33 5.02664 -3.31078 0
M  V30 10578 H 1033.16 1.84367 -2.41335 0
M  V30 10579 H 1030.74 0.853863 -1.22595 0
M  V30 10580 H 1032.62 4.01642 -1.2752 0
M  V30 10581 H 1031.3 3.21355 -0.388889 0
M  V30 10582 H 1030.21 2.65313 -2.63742 0
M  V30 10583 H 1031.54 3.50455 -3.45604 0
M  V30 10584 N 1033.19 1.2685 0.935242 0
M  V30 10585 C 1034.1 1.10716 2.06831 0
M  V30 10586 C 1035.12 0.0391222 1.73956 0
M  V30 10587 O 1036.29 0.244071 1.99916 0
M  V30 10588 C 1033.36 0.748093 3.38533 0
M  V30 10589 C 1032.42 1.89619 3.85153 0
M  V30 10590 C 1031.65 1.55416 5.1057 0
M  V30 10591 O 1031.88 0.458596 5.68553 0
M  V30 10592 O 1030.81 2.39087 5.52378 0
M  V30 10593 H 1034.64 2.05785 2.23352 0
M  V30 10594 H 1032.22 1.05967 1.05315 0
M  V30 10595 H 1034.1 0.560841 4.17651 0
M  V30 10596 H 1032.78 -0.173142 3.23237 0
M  V30 10597 H 1031.68 2.13845 3.06954 0
M  V30 10598 H 1033.02 2.79737 4.04979 0
M  V30 10599 N 1034.67 -1.14067 1.0875 0
M  V30 10600 C 1036.08 -1.66747 0.839778 0
M  V30 10601 C 1036.43 -1.85711 -0.632909 0
M  V30 10602 O 1035.56 -1.57084 -1.48841 0
M  V30 10603 C 1036.15 -3.02896 1.51787 0
M  V30 10604 C 1034.71 -3.52596 1.3173 0
M  V30 10605 C 1033.86 -2.27994 1.57841 0
M  V30 10606 H 1036.81 -0.980838 1.24761 0
M  V30 10607 H 1036.83 -3.68526 0.947057 0
M  V30 10608 H 1036.34 -2.89062 2.58969 0
M  V30 10609 H 1034.44 -3.71647 0.266339 0
M  V30 10610 H 1034.56 -4.33151 2.04736 0
M  V30 10611 H 1032.92 -2.34241 1.00015 0
M  V30 10612 H 1033.7 -2.16732 2.66237 0
M  V30 10613 N 1036.15 -0.873678 -1.31166 0
M  V30 10614 C 1037.08 -0.348011 -2.30892 0
M  V30 10615 C 1038.06 0.563092 -1.60509 0
M  V30 10616 O 1039.24 0.479332 -1.88192 0
M  V30 10617 C 1036.37 0.448158 -3.44396 0
M  V30 10618 C 1035.33 -0.370179 -4.26396 0
M  V30 10619 C 1034.65 0.551903 -5.31844 0
M  V30 10620 C 1035.95 -1.60624 -4.96988 0
M  V30 10621 H 1037.65 -1.18134 -2.75109 0
M  V30 10622 H 1035.19 -0.569502 -1.3226 0
M  V30 10623 H 1037.15 0.826458 -4.13216 0
M  V30 10624 H 1035.87 1.31503 -2.98956 0
M  V30 10625 H 1034.53 -0.730472 -3.59249 0
M  V30 10626 H 1034.18 1.41616 -4.82653 0
M  V30 10627 H 1033.88 0.00823478 -5.87599 0
M  V30 10628 H 1035.4 0.926965 -6.03523 0
M  V30 10629 H 1036.82 -1.29917 -5.58386 0
M  V30 10630 H 1035.21 -2.08926 -5.62557 0
M  V30 10631 H 1036.28 -2.357 -4.23761 0
M  V30 10632 N 1037.63 1.44308 -0.633487 0
M  V30 10633 C 1038.87 2.03904 -0.14226 0
M  V30 10634 C 1039.23 1.48768 1.21376 0
M  V30 10635 O 1040.43 1.99882 1.79724 0
M  V30 10636 C 1038.7 3.5716 -0.130975 0
M  V30 10637 S 1040.26 4.37805 0.295287 0
M  V30 10638 H 1037.08 0.70827 -0.0622429 0
M  V30 10639 H 1039.68 1.76657 -0.837405 0
M  V30 10640 H 1038.39 3.94794 -1.12096 0
M  V30 10641 H 1037.92 3.89021 0.585342 0
M  V30 10642 H 1039.93 4.71732 1.53894 0
M  V30 10643 N 1039.1 0.374177 1.53094 0
M  V30 10644 C 1040.52 -0.103172 1.86415 0
M  V30 10645 C 1040.87 -1.47439 1.29446 0
M  V30 10646 O 1039.99 -2.07333 0.619853 0
M  V30 10647 C 1040.59 -0.193988 3.38244 0
M  V30 10648 C 1039.15 -0.615605 3.71332 0
M  V30 10649 C 1038.29 0.23186 2.76329 0
M  V30 10650 H 1041.24 0.592644 1.47219 0
M  V30 10651 H 1041.26 -1.01597 3.66686 0
M  V30 10652 H 1040.78 0.80414 3.79678 0
M  V30 10653 H 1038.88 -1.62165 3.3546 0
M  V30 10654 H 1038.99 -0.38425 4.77557 0
M  V30 10655 H 1037.35 -0.300579 2.5292 0
M  V30 10656 H 1038.14 1.22769 3.20597 0
M  V30 10657 N 1040.58 -1.57259 0.103575 0
M  V30 10658 C 1041.51 -2.17509 -0.84923 0
M  V30 10659 C 1042.49 -1.11079 -1.28824 0
M  V30 10660 O 1043.68 -1.39252 -1.35361 0
M  V30 10661 C 1040.81 -2.76221 -2.10522 0
M  V30 10662 C 1039.76 -3.88098 -1.80454 0
M  V30 10663 C 1039.09 -4.33549 -3.12952 0
M  V30 10664 C 1040.39 -5.10909 -1.08486 0
M  V30 10665 H 1042.08 -2.9738 -0.347217 0
M  V30 10666 H 1039.63 -1.43045 -0.165568 0
M  V30 10667 H 1041.58 -3.17024 -2.77621 0
M  V30 10668 H 1040.31 -1.93617 -2.63021 0
M  V30 10669 H 1038.96 -3.47847 -1.15749 0
M  V30 10670 H 1038.61 -3.47825 -3.63355 0
M  V30 10671 H 1038.31 -5.08984 -2.93614 0
M  V30 10672 H 1039.84 -4.76992 -3.81196 0
M  V30 10673 H 1041.25 -5.48828 -1.65711 0
M  V30 10674 H 1039.65 -5.91828 -0.992973 0
M  V30 10675 H 1040.72 -4.84851 -0.0690108 0
M  V30 10676 N 1042.06 0.170153 -1.56679 0
M  V30 10677 C 1043.47 0.732502 -1.7173 0
M  V30 10678 C 1043.82 1.82736 -0.71428 0
M  V30 10679 O 1042.95 2.16044 0.124102 0
M  V30 10680 C 1043.54 1.33548 -3.11368 0
M  V30 10681 C 1042.1 1.84464 -3.281 0
M  V30 10682 C 1041.25 0.724069 -2.6768 0
M  V30 10683 H 1044.2 -0.0552543 -1.58604 0
M  V30 10684 H 1044.22 2.20519 -3.10083 0
M  V30 10685 H 1043.73 0.5384 -3.84347 0
M  V30 10686 H 1041.83 2.66813 -2.6008 0
M  V30 10687 H 1041.95 1.98928 -4.35849 0
M  V30 10688 H 1040.31 1.14481 -2.27522 0
M  V30 10689 H 1041.09 -0.0611861 -3.43245 0
M  V30 10690 N 1043.54 1.5137 0.438746 0
M  V30 10691 C 1044.76 1.68058 1.21537 0
M  V30 10692 C 1045.19 0.376787 1.84288 0
M  V30 10693 O 1044.55 -0.662911 1.68746 0
M  V30 10694 C 1044.59 2.79684 2.27616 0
M  V30 10695 O 1043.7 2.43189 3.33066 0
M  V30 10696 H 1043.04 0.560408 0.356144 0
M  V30 10697 H 1045.57 1.97926 0.518311 0
M  V30 10698 H 1045.58 3.03726 2.72423 0
M  V30 10699 H 1044.25 3.74293 1.81321 0
M  V30 10700 H 1042.83 2.29713 2.93746 0
M  V30 10701 N 1045.02 -0.694098 1.41492 0
M  V30 10702 C 1046.43 -1.27407 1.36471 0
M  V30 10703 C 1046.78 -1.9614 0.0485209 0
M  V30 10704 O 1045.9 -1.98871 -0.853188 0
M  V30 10705 C 1046.5 -2.31698 2.47188 0
M  V30 10706 C 1045.06 -2.85268 2.45559 0
M  V30 10707 C 1044.2 -1.59325 2.2696 0
M  V30 10708 H 1047.16 -0.488756 1.50986 0
M  V30 10709 H 1047.18 -3.1302 2.1633 0
M  V30 10710 H 1046.69 -1.81644 3.42968 0
M  V30 10711 H 1044.79 -3.39494 1.5354 0
M  V30 10712 H 1044.9 -3.35598 3.41922 0
M  V30 10713 H 1043.27 -1.85188 1.74864 0
M  V30 10714 H 1044.05 -1.11265 3.24769 0
M  V30 10715 N 1046.49 -1.27344 -0.928501 0
M  V30 10716 C 1047.91 -1.12361 -1.49103 0
M  V30 10717 C 1048.26 0.291667 -1.9402 0
M  V30 10718 O 1047.38 1.18449 -1.81104 0
M  V30 10719 C 1047.98 -2.03358 -2.70981 0
M  V30 10720 C 1046.54 -1.92483 -3.23461 0
M  V30 10721 C 1045.68 -1.95961 -1.962 0
M  V30 10722 H 1048.63 -1.40249 -0.742689 0
M  V30 10723 H 1048.65 -1.58892 -3.45736 0
M  V30 10724 H 1048.17 -3.06356 -2.38259 0
M  V30 10725 H 1046.27 -0.924676 -3.60944 0
M  V30 10726 H 1046.38 -2.78682 -3.89709 0
M  V30 10727 H 1044.74 -1.40175 -2.12657 0
M  V30 10728 H 1045.53 -3.00612 -1.65793 0
M  V30 10729 N 1047.97 1.13488 -1.09353 0
M  V30 10730 C 1049.2 1.88592 -0.850915 0
M  V30 10731 C 1049.62 1.79087 0.597761 0
M  V30 10732 O 1048.97 1.15695 1.41142 0
M  V30 10733 C 1049.02 3.38219 -1.27633 0
M  V30 10734 O 1048.74 3.47476 -2.66819 0
M  V30 10735 C 1050.25 4.30293 -1.06598 0
M  V30 10736 H 1047.47 0.597069 -0.306185 0
M  V30 10737 H 1050.01 1.43668 -1.45533 0
M  V30 10738 H 1048.16 3.80729 -0.715828 0
M  V30 10739 H 1048.58 4.40485 -2.84733 0
M  V30 10740 H 1050.05 5.33611 -1.41293 0
M  V30 10741 H 1050.53 4.392 -0.0037135 0
M  V30 10742 H 1051.14 3.9355 -1.6124 0
M  V30 10743 N 1049.45 0.880621 1.30701 0
M  V30 10744 C 1050.68 0.510909 2.01009 0
M  V30 10745 C 1051.1 -0.892041 1.65603 0
M  V30 10746 O 1050.46 -1.59045 0.870309 0
M  V30 10747 C 1050.51 0.687759 3.53981 0
M  V30 10748 O 1049.61 -0.268275 4.11526 0
M  V30 10749 H 1048.95 0.201864 0.632572 0
M  V30 10750 H 1051.48 1.18697 1.6665 0
M  V30 10751 H 1051.49 0.585095 4.03783 0
M  V30 10752 H 1050.17 1.71068 3.79089 0
M  V30 10753 H 1048.74 -0.119673 3.72708 0
M  V30 10754 N 1050.93 -1.4397 0.641131 0
M  V30 10755 C 1052.21 -1.95436 0.0800918 0
M  V30 10756 C 1052.59 -1.58282 -1.39678 0
M  V30 10757 O 1051.93 -0.861867 -2.11623 0
M  V30 10758 C 1052.14 -3.47589 0.313531 0
M  V30 10759 C 1053.49 -4.2407 0.212034 0
M  V30 10760 O 1054.52 -3.55353 0.245434 0
M  V30 10761 O 1053.38 -5.46356 0.125455 0
M  V30 10762 H 1050.47 -0.826834 -0.0165735 0
M  V30 10763 H 1053.02 -1.5397 0.71353 0
M  V30 10764 H 1051.79 -3.67716 1.33793 0
M  V30 10765 H 1051.41 -3.96025 -0.353563 0
M  V30 10766 N 1052.41 -0.382291 -1.52893 0
M  V30 10767 C 1053.63 0.204961 -2.06385 0
M  V30 10768 C 1054.06 1.40316 -1.25271 0
M  V30 10769 O 1053.42 1.79187 -0.275969 0
M  V30 10770 C 1053.46 0.560205 -3.56222 0
M  V30 10771 O 1052.57 1.65515 -3.77728 0
M  V30 10772 H 1051.91 0.0258798 -0.663495 0
M  V30 10773 H 1054.44 -0.547733 -1.97132 0
M  V30 10774 H 1054.45 0.826501 -3.99541 0
M  V30 10775 H 1053.12 -0.31584 -4.14699 0
M  V30 10776 H 1051.7 1.38311 -3.46301 0
M  V30 10777 N 1053.89 1.57202 -0.111913 0
M  V30 10778 C 1055.16 1.86459 0.590972 0
M  V30 10779 C 1055.54 1.01182 1.85271 0
M  V30 10780 O 1054.89 0.0887891 2.28327 0
M  V30 10781 C 1055.1 3.37455 0.890225 0
M  V30 10782 C 1056.45 4.05895 1.24638 0
M  V30 10783 O 1057.47 3.42433 0.980713 0
M  V30 10784 O 1056.33 5.17903 1.74466 0
M  V30 10785 H 1053.43 0.771652 0.297459 0
M  V30 10786 H 1055.97 1.69072 -0.145882 0
M  V30 10787 H 1054.74 3.913 -0.00419012 0
M  V30 10788 H 1054.37 3.60248 1.68248 0
M  V30 10789 N 1055.36 -0.161842 1.56767 0
M  V30 10790 C 1056.59 -0.896274 1.87034 0
M  V30 10791 C 1057.01 -1.74617 0.699314 0
M  V30 10792 O 1056.37 -1.77861 -0.351435 0
M  V30 10793 C 1056.42 -1.74105 3.15784 0
M  V30 10794 O 1055.52 -2.84372 2.98674 0
M  V30 10795 H 1054.86 -0.250523 0.614926 0
M  V30 10796 H 1057.39 -0.157127 2.03996 0
M  V30 10797 H 1057.4 -2.13907 3.4743 0
M  V30 10798 H 1056.08 -1.11684 4.00624 0
M  V30 10799 H 1054.66 -2.48084 2.78404 0
M  V30 10800 N 1056.84 -1.516 -0.430713 0
M  V30 10801 C 1058.12 -1.55142 -1.19123 0
M  V30 10802 C 1058.5 -0.319596 -2.08667 0
M  V30 10803 O 1057.85 0.694927 -2.17676 0
M  V30 10804 C 1058.06 -2.86891 -1.98732 0
M  V30 10805 C 1059.4 -3.39089 -2.55546 0
M  V30 10806 O 1060.43 -2.88486 -2.08936 0
M  V30 10807 O 1059.29 -4.27401 -3.40574 0
M  V30 10808 H 1056.38 -0.624019 -0.542705 0
M  V30 10809 H 1058.93 -1.63917 -0.439244 0
M  V30 10810 H 1057.7 -3.68002 -1.33005 0
M  V30 10811 H 1057.32 -2.81309 -2.80982 0
M  V30 10812 N 1058.32 0.686584 -1.41858 0
M  V30 10813 C 1059.54 1.4802 -1.45275 0
M  V30 10814 C 1059.97 1.87997 -0.0621297 0
M  V30 10815 O 1059.33 1.55226 0.936733 0
M  V30 10816 C 1059.38 2.7133 -2.37513 0
M  V30 10817 O 1058.48 3.69159 -1.83836 0
M  V30 10818 H 1057.82 0.445152 -0.492682 0
M  V30 10819 H 1060.35 0.843161 -1.86419 0
M  V30 10820 H 1060.36 3.19537 -2.53693 0
M  V30 10821 H 1059.04 2.41571 -3.3855 0
M  V30 10822 H 1057.61 3.28134 -1.77151 0
M  V30 10823 N 1059.8 1.27835 0.921735 0
M  V30 10824 C 1060.71 1.12904 2.05645 0
M  V30 10825 C 1061.72 0.0575704 1.73905 0
M  V30 10826 O 1062.9 0.265261 1.99645 0
M  V30 10827 C 1059.96 0.783957 3.3772 0
M  V30 10828 C 1059.03 1.93694 3.8312 0
M  V30 10829 C 1058.26 1.60823 5.08893 0
M  V30 10830 O 1058.48 0.518873 5.68035 0
M  V30 10831 O 1057.42 2.44932 5.49811 0
M  V30 10832 H 1061.24 2.08143 2.21157 0
M  V30 10833 H 1058.83 1.07078 1.04185 0
M  V30 10834 H 1060.71 0.605107 4.17033 0
M  V30 10835 H 1059.38 -0.138849 3.23402 0
M  V30 10836 H 1058.29 2.17089 3.04669 0
M  V30 10837 H 1059.62 2.84016 4.0199 0
M  V30 10838 N 1061.28 -1.12907 1.09954 0
M  V30 10839 C 1062.52 -1.83941 0.837255 0
M  V30 10840 C 1062.84 -1.84234 -0.638984 0
M  V30 10841 O 1062.11 -1.30193 -1.46378 0
M  V30 10842 H 1060.69 -0.681115 0.306743 0
M  V30 10843 H 1063.36 -1.36743 1.38879 0
M  V30 10844 H 1062.45 -2.88289 1.19565 0
M  V30 10845 N 1062.75 -0.88754 -1.30232 0
M  V30 10846 C 1064.16 -0.55745 -1.78184 0
M  V30 10847 C 1064.52 0.926474 -1.72948 0
M  V30 10848 O 1063.64 1.72403 -1.3079 0
M  V30 10849 C 1064.24 -1.00512 -3.23547 0
M  V30 10850 C 1062.79 -0.726402 -3.69324 0
M  V30 10851 C 1061.94 -1.18666 -2.50627 0
M  V30 10852 H 1064.89 -1.07151 -1.17066 0
M  V30 10853 H 1064.91 -0.335185 -3.79021 0
M  V30 10854 H 1064.43 -2.08517 -3.27326 0
M  V30 10855 H 1062.53 0.341548 -3.71031 0
M  V30 10856 H 1062.64 -1.31575 -4.60679 0
M  V30 10857 H 1061 -0.605936 -2.47387 0
M  V30 10858 H 1061.79 -2.2745 -2.57141 0
M  V30 10859 N 1064.23 1.43628 -0.648757 0
M  V30 10860 C 1065.14 2.34554 0.0463037 0
M  V30 10861 C 1066.16 1.53629 0.816952 0
M  V30 10862 O 1067.33 1.86297 0.765212 0
M  V30 10863 C 1064.4 3.3185 1.00381 0
M  V30 10864 C 1063.46 4.2868 0.230589 0
M  V30 10865 C 1062.69 5.21328 1.14249 0
M  V30 10866 O 1062.92 5.18298 2.38166 0
M  V30 10867 O 1061.85 5.98726 0.617296 0
M  V30 10868 H 1065.68 2.95475 -0.702008 0
M  V30 10869 H 1063.26 1.43694 -0.408942 0
M  V30 10870 H 1065.14 3.91692 1.5542 0
M  V30 10871 H 1063.82 2.73439 1.73243 0
M  V30 10872 H 1062.73 3.72332 -0.363282 0
M  V30 10873 H 1064.06 4.90061 -0.458368 0
M  V30 10874 N 1065.71 0.390394 1.52688 0
M  V30 10875 C 1066.66 -0.444229 2.26485 0
M  V30 10876 C 1067.63 -1.05688 1.28138 0
M  V30 10877 O 1068.81 -1.0847 1.56968 0
M  V30 10878 C 1065.95 -1.56501 3.07574 0
M  V30 10879 C 1065.07 -0.975111 4.20851 0
M  V30 10880 C 1064.2 -2.06704 4.89333 0
M  V30 10881 C 1063.24 -1.45309 5.94602 0
M  V30 10882 N 1062.38 -2.48437 6.56676 0
M  V30 10883 H 1067.22 0.191535 2.97384 0
M  V30 10884 H 1064.75 0.106287 1.46716 0
M  V30 10885 H 1066.71 -2.22558 3.52879 0
M  V30 10886 H 1065.34 -2.17107 2.38881 0
M  V30 10887 H 1064.39 -0.204109 3.79852 0
M  V30 10888 H 1065.71 -0.486465 4.96422 0
M  V30 10889 H 1064.86 -2.80528 5.37949 0
M  V30 10890 H 1063.6 -2.58928 4.13289 0
M  V30 10891 H 1062.6 -0.700091 5.45324 0
M  V30 10892 H 1063.83 -0.938775 6.7258 0
M  V30 10893 H 1061.77 -2.99829 5.83471 0
M  V30 10894 H 1061.69 -2.04331 7.27863 0
M  V30 10895 H 1062.96 -3.21888 7.09935 0
M  V30 10896 N 1067.19 -1.57141 0.120249 0
M  V30 10897 C 1068.47 -1.8677 -0.581075 0
M  V30 10898 C 1068.85 -1.02163 -1.84732 0
M  V30 10899 O 1068.19 -0.100897 -2.28277 0
M  V30 10900 C 1068.4 -3.37923 -0.872316 0
M  V30 10901 C 1069.75 -4.0655 -1.22483 0
M  V30 10902 O 1070.78 -3.42948 -0.962539 0
M  V30 10903 O 1069.63 -5.18821 -1.71717 0
M  V30 10904 H 1066.73 -0.773219 -0.293362 0
M  V30 10905 H 1069.27 -1.68992 0.154846 0
M  V30 10906 H 1068.05 -3.91292 0.0249416 0
M  V30 10907 H 1067.67 -3.61135 -1.66335 0
M  V30 10908 N 1068.67 0.153526 -1.5685 0
M  V30 10909 C 1069.89 0.882335 -1.87143 0
M  V30 10910 C 1070.31 1.75034 -0.707702 0
M  V30 10911 O 1069.67 1.79624 0.32273 0
M  V30 10912 C 1069.72 1.74444 -3.16625 0
M  V30 10913 O 1069.44 0.911419 -4.28515 0
M  V30 10914 C 1070.94 2.58139 -3.60388 0
M  V30 10915 H 1068.16 0.25546 -0.620469 0
M  V30 10916 H 1070.7 0.148275 -2.03962 0
M  V30 10917 H 1068.86 2.43163 -3.0158 0
M  V30 10918 H 1069.27 1.50268 -5.02513 0
M  V30 10919 H 1070.75 3.14215 -4.53842 0
M  V30 10920 H 1071.22 3.33865 -2.85361 0
M  V30 10921 H 1071.83 1.94721 -3.78105 0
M  V30 10922 N 1070.14 1.51827 0.422667 0
M  V30 10923 C 1071.56 1.40328 0.760275 0
M  V30 10924 C 1071.76 0.497119 1.95272 0
M  V30 10925 O 1070.82 -0.0422083 2.52465 0
M  V30 10926 C 1072.13 2.82622 1.02689 0
M  V30 10927 C 1073.68 2.91874 1.13044 0
M  V30 10928 C 1074.15 4.35107 1.4299 0
M  V30 10929 N 1075.64 4.3828 1.49883 0
M  V30 10930 C 1076.38 5.46153 1.74655 0
M  V30 10931 N 1075.87 6.64165 1.9712 0
M  V30 10932 N 1077.67 5.33651 1.76558 0
M  V30 10933 H 1069.82 2.09285 -0.362455 0
M  V30 10934 H 1072.08 0.94273 -0.0998161 0
M  V30 10935 H 1071.79 3.50991 0.223226 0
M  V30 10936 H 1071.66 3.22844 1.95068 0
M  V30 10937 H 1074.05 2.23694 1.92471 0
M  V30 10938 H 1074.13 2.55128 0.185326 0
M  V30 10939 H 1073.77 5.03841 0.640848 0
M  V30 10940 H 1073.7 4.69377 2.38731 0
M  V30 10941 H 1076.19 3.53206 1.34366 0
M  V30 10942 H 1076.51 7.42165 2.15434 0
M  V30 10943 H 1074.85 6.67255 1.94413 0
M  V30 10944 H 1078.04 4.40436 1.58536 0
M  V30 10945 H 1078.22 6.17798 1.95525 0
M  V30 10946 N 1071.62 -0.679052 1.4222 0
M  V30 10947 C 1072.85 -1.47248 1.46058 0
M  V30 10948 C 1073.27 -1.87962 0.0720987 0
M  V30 10949 O 1072.63 -1.5572 -0.928488 0
M  V30 10950 C 1072.68 -2.70067 2.38948 0
M  V30 10951 O 1071.78 -3.68178 1.85791 0
M  V30 10952 H 1071.12 -0.442533 0.495036 0
M  V30 10953 H 1073.65 -0.833263 1.86863 0
M  V30 10954 H 1073.66 -3.18187 2.55385 0
M  V30 10955 H 1072.34 -2.39773 3.39826 0
M  V30 10956 H 1070.92 -3.2719 1.78889 0
M  V30 10957 N 1073.1 -1.28322 -0.914942 0
M  V30 10958 C 1074.33 -1.1837 -1.70304 0
M  V30 10959 C 1074.75 0.254291 -1.86373 0
M  V30 10960 O 1074.11 1.18398 -1.37301 0
M  V30 10961 C 1074.16 -1.88603 -3.07346 0
M  V30 10962 O 1073.26 -1.19268 -3.94777 0
M  V30 10963 H 1072.6 -0.410978 -0.52153 0
M  V30 10964 H 1075.13 -1.69622 -1.14409 0
M  V30 10965 H 1075.14 -1.96463 -3.57584 0
M  V30 10966 H 1073.82 -2.93201 -2.94967 0
M  V30 10967 H 1072.39 -1.19563 -3.53212 0
M  V30 10968 N 1074.58 1.12322 -1.10551 0
M  V30 10969 C 1075.83 1.83858 -0.848674 0
M  V30 10970 C 1076.15 1.84159 0.62575 0
M  V30 10971 O 1075.41 1.28341 1.4774 0
M  V30 10972 C 1075.71 3.31177 -1.34375 0
M  V30 10973 C 1075.37 3.51046 -2.8298 0
M  V30 10974 C 1074.04 3.56177 -3.23561 0
M  V30 10975 C 1076.39 3.58061 -3.78737 0
M  V30 10976 C 1073.72 3.65868 -4.58647 0
M  V30 10977 C 1076.07 3.69283 -5.13627 0
M  V30 10978 C 1074.73 3.7267 -5.53781 0
M  V30 10979 H 1074 0.672784 -0.310552 0
M  V30 10980 H 1076.65 1.3253 -1.38232 0
M  V30 10981 H 1074.95 3.84937 -0.730144 0
M  V30 10982 H 1076.65 3.84998 -1.12148 0
M  V30 10983 H 1073.24 3.47716 -2.50582 0
M  V30 10984 H 1077.42 3.53366 -3.48491 0
M  V30 10985 H 1072.68 3.66763 -4.89178 0
M  V30 10986 H 1076.85 3.73654 -5.8767 0
M  V30 10987 H 1074.48 3.79932 -6.58449 0
M  V30 10988 N 1076.06 0.894434 1.2976 0
M  V30 10989 C 1077.47 0.589778 1.48303 0
M  V30 10990 C 1077.67 -0.870085 1.81746 0
M  V30 10991 O 1076.73 -1.65065 1.91076 0
M  V30 10992 C 1078.04 1.51107 2.59975 0
M  V30 10993 C 1079.59 1.51571 2.73853 0
M  V30 10994 C 1080.06 2.42316 3.88648 0
M  V30 10995 N 1081.56 2.40333 3.95973 0
M  V30 10996 C 1082.29 3.07254 4.84131 0
M  V30 10997 N 1081.79 3.83435 5.77018 0
M  V30 10998 N 1083.58 2.96438 4.77578 0
M  V30 10999 H 1075.73 1.83871 1.06327 0
M  V30 11000 H 1077.99 0.78758 0.527657 0
M  V30 11001 H 1077.7 2.55097 2.42112 0
M  V30 11002 H 1077.57 1.22767 3.56662 0
M  V30 11003 H 1079.96 0.483277 2.91116 0
M  V30 11004 H 1080.04 1.83946 1.77757 0
M  V30 11005 H 1079.69 3.4565 3.72141 0
M  V30 11006 H 1079.62 2.07252 4.84101 0
M  V30 11007 H 1082.11 1.84979 3.29532 0
M  V30 11008 H 1082.42 4.31565 6.4107 0
M  V30 11009 H 1080.76 3.87542 5.7692 0
M  V30 11010 H 1083.96 2.36442 4.03996 0
M  V30 11011 H 1084.13 3.48867 5.46073 0
M  V30 11012 N 1077.53 -1.43282 0.656365 0
M  V30 11013 C 1078.78 -2.01378 0.170702 0
M  V30 11014 C 1079.1 -1.52063 -1.22073 0
M  V30 11015 O 1078.37 -0.73456 -1.81607 0
M  V30 11016 H 1076.95 -0.744577 0.0601168 0
M  V30 11017 H 1079.62 -1.75449 0.848739 0
M  V30 11018 H 1078.71 -3.11701 0.157745 0
M  V30 11019 N 1079.01 -0.398486 -1.52479 0
M  V30 11020 C 1079.96 0.449343 -2.23528 0
M  V30 11021 C 1080.95 1.02218 -1.24259 0
M  V30 11022 O 1082.14 0.946757 -1.49551 0
M  V30 11023 C 1079.27 1.5712 -3.05235 0
M  V30 11024 C 1078.35 1.00966 -4.11906 0
M  V30 11025 N 1078.75 0.173855 -5.05501 0
M  V30 11026 C 1077.04 1.28124 -4.272 0
M  V30 11027 C 1077.74 -0.137391 -5.81538 0
M  V30 11028 N 1076.72 0.468972 -5.41573 0
M  V30 11029 H 1080.52 -0.195654 -2.93248 0
M  V30 11030 H 1078.04 -0.208305 -1.61059 0
M  V30 11031 H 1080.03 2.19108 -3.54679 0
M  V30 11032 H 1078.69 2.21893 -2.37052 0
M  V30 11033 H 1079.7 -0.189618 -5.17553 0
M  V30 11034 H 1076.38 1.92933 -3.70247 0
M  V30 11035 H 1077.77 -0.815159 -6.66937 0
M  V30 11036 N 1080.49 1.57075 -0.12858 0
M  V30 11037 C 1081.72 1.99876 0.534544 0
M  V30 11038 C 1082.13 1.00843 1.59612 0
M  V30 11039 O 1081.49 0.00268947 1.825 0
M  V30 11040 C 1081.54 3.42654 1.15198 0
M  V30 11041 O 1081.26 4.37899 0.132823 0
M  V30 11042 C 1082.76 4.00637 1.8975 0
M  V30 11043 H 1079.98 0.656073 0.140744 0
M  V30 11044 H 1082.53 2.03337 -0.217742 0
M  V30 11045 H 1080.68 3.40101 1.85499 0
M  V30 11046 H 1081.1 5.21253 0.582682 0
M  V30 11047 H 1082.57 5.02592 2.28266 0
M  V30 11048 H 1083.05 3.40313 2.7764 0
M  V30 11049 H 1083.65 4.06764 1.2419 0
M  V30 11050 N 1081.97 -0.145205 1.5693 0
M  V30 11051 C 1083.38 -0.705089 1.72874 0
M  V30 11052 C 1083.73 -1.81577 0.743261 0
M  V30 11053 O 1082.86 -2.16214 -0.0897153 0
M  V30 11054 C 1083.45 -1.28578 3.13454 0
M  V30 11055 C 1082.01 -1.79221 3.30994 0
M  V30 11056 C 1081.16 -0.681392 2.68798 0
M  V30 11057 H 1084.11 0.0804798 1.58496 0
M  V30 11058 H 1084.13 -2.15558 3.13552 0
M  V30 11059 H 1083.64 -0.477186 3.85155 0
M  V30 11060 H 1081.74 -2.62642 2.64292 0
M  V30 11061 H 1081.86 -1.91969 4.38959 0
M  V30 11062 H 1080.22 -1.10847 2.29314 0
M  V30 11063 H 1081 0.115786 3.43105 0
M  V30 11064 N 1083.45 -1.52049 -0.414609 0
M  V30 11065 C 1084.38 -1.77956 -1.51175 0
M  V30 11066 C 1085.36 -0.630282 -1.57992 0
M  V30 11067 O 1086.54 -0.875324 -1.73354 0
M  V30 11068 C 1083.67 -1.92527 -2.89051 0
M  V30 11069 C 1082.63 -3.08096 -2.97087 0
M  V30 11070 C 1081.95 -3.07882 -4.37164 0
M  V30 11071 C 1083.25 -4.47656 -2.69075 0
M  V30 11072 H 1084.95 -2.69827 -1.29746 0
M  V30 11073 H 1082.49 -1.29839 -0.62273 0
M  V30 11074 H 1084.45 -2.09234 -3.65786 0
M  V30 11075 H 1083.17 -0.973235 -3.11762 0
M  V30 11076 H 1081.83 -2.91131 -2.22797 0
M  V30 11077 H 1081.48 -2.10411 -4.56877 0
M  V30 11078 H 1081.18 -3.85501 -4.43467 0
M  V30 11079 H 1082.7 -3.26712 -5.15841 0
M  V30 11080 H 1084.12 -4.64855 -3.35534 0
M  V30 11081 H 1082.51 -5.27151 -2.8676 0
M  V30 11082 H 1083.58 -4.56129 -1.64544 0
M  V30 11083 N 1084.93 0.6715 -1.42579 0
M  V30 11084 C 1086.2 1.42766 -1.33706 0
M  V30 11085 C 1086.58 2.11086 0.0239748 0
M  V30 11086 O 1085.93 2.03479 1.03964 0
M  V30 11087 C 1086.14 2.42739 -2.50756 0
M  V30 11088 C 1087.49 3.07284 -2.93021 0
M  V30 11089 O 1088.51 2.53066 -2.50671 0
M  V30 11090 O 1087.37 4.05541 -3.66331 0
M  V30 11091 H 1084.47 0.636955 -0.527463 0
M  V30 11092 H 1087.01 0.699946 -1.54593 0
M  V30 11093 H 1085.78 1.91076 -3.41476 0
M  V30 11094 H 1085.41 3.22986 -2.31874 0
M  V30 11095 N 1086.4 1.28806 0.908124 0
M  V30 11096 C 1087.33 1.15758 2.02787 0
M  V30 11097 C 1088.31 0.053911 1.70015 0
M  V30 11098 O 1089.5 0.231901 1.9281 0
M  V30 11099 C 1086.63 0.824526 3.37371 0
M  V30 11100 C 1085.58 1.88359 3.84324 0
M  V30 11101 C 1084.91 1.40404 5.15937 0
M  V30 11102 C 1086.21 3.29108 4.05568 0
M  V30 11103 H 1087.9 2.09431 2.13961 0
M  V30 11104 H 1085.45 1.00831 1.02806 0
M  V30 11105 H 1087.4 0.71999 4.15204 0
M  V30 11106 H 1086.13 -0.147902 3.26265 0
M  V30 11107 H 1084.79 1.97736 3.087 0
M  V30 11108 H 1084.43 0.420515 5.01239 0
M  V30 11109 H 1084.13 2.11224 5.48323 0
M  V30 11110 H 1085.66 1.31283 5.9632 0
M  V30 11111 H 1087.07 3.2262 4.73909 0
M  V30 11112 H 1085.47 3.97812 4.49294 0
M  V30 11113 H 1086.54 3.72709 3.10187 0
M  V30 11114 N 1087.88 -1.11734 1.11145 0
M  V30 11115 C 1089.11 -1.87215 0.880811 0
M  V30 11116 C 1089.52 -1.80016 -0.569195 0
M  V30 11117 O 1088.88 -1.17926 -1.39283 0
M  V30 11118 C 1088.93 -3.36146 1.32998 0
M  V30 11119 O 1088.65 -3.43187 2.72313 0
M  V30 11120 C 1090.15 -4.28542 1.1343 0
M  V30 11121 H 1087.37 -0.592123 0.315645 0
M  V30 11122 H 1089.92 -1.41335 1.478 0
M  V30 11123 H 1088.07 -3.79542 0.776308 0
M  V30 11124 H 1088.49 -4.359 2.91705 0
M  V30 11125 H 1089.96 -5.31295 1.49764 0
M  V30 11126 H 1090.44 -4.39138 0.0735859 0
M  V30 11127 H 1091.04 -3.90935 1.67481 0
M  V30 11128 N 1089.36 -0.901303 -1.29284 0
M  V30 11129 C 1090.6 -0.534971 -1.97275 0
M  V30 11130 C 1090.96 0.902226 -1.69481 0
M  V30 11131 O 1092.16 1.37551 -2.3094 0
M  V30 11132 C 1090.44 -0.821095 -3.4784 0
M  V30 11133 S 1091.99 -0.559312 -4.35221 0
M  V30 11134 H 1088.81 -0.198409 -0.682755 0
M  V30 11135 H 1091.41 -1.16408 -1.57065 0
M  V30 11136 H 1090.12 -1.86527 -3.65562 0
M  V30 11137 H 1089.65 -0.18016 -3.92987 0
M  V30 11138 H 1091.66 0.59494 -4.9262 0
M  V30 11139 N 1090.84 1.42931 -0.663954 0
M  V30 11140 C 1092.06 2.06544 -0.188201 0
M  V30 11141 C 1092.49 1.495 1.14155 0
M  V30 11142 O 1091.85 0.609164 1.7076 0
M  V30 11143 C 1091.89 3.60393 -0.122105 0
M  V30 11144 O 1091 4.02176 0.91258 0
M  V30 11145 H 1090.34 0.656458 -0.0997967 0
M  V30 11146 H 1092.87 1.83253 -0.909909 0
M  V30 11147 H 1092.88 4.07959 0.0576568 0
M  V30 11148 H 1091.55 4.01287 -1.09276 0
M  V30 11149 H 1090.13 3.6618 0.704738 0
M  V30 11150 N 1092.32 0.406567 1.52266 0
M  V30 11151 C 1093.54 -0.169624 2.06204 0
M  V30 11152 C 1093.96 -1.39076 1.27684 0
M  V30 11153 O 1093.32 -1.79528 0.328023 0
M  V30 11154 C 1093.37 -0.522611 3.57702 0
M  V30 11155 O 1093.09 0.650028 4.33251 0
M  V30 11156 C 1094.59 -1.15281 4.28048 0
M  V30 11157 H 1091.81 -0.0215191 0.670655 0
M  V30 11158 H 1094.35 0.576781 1.96198 0
M  V30 11159 H 1092.51 -1.21891 3.67725 0
M  V30 11160 H 1092.92 0.355989 5.23291 0
M  V30 11161 H 1094.4 -1.35002 5.35237 0
M  V30 11162 H 1094.87 -2.12517 3.84361 0
M  V30 11163 H 1095.48 -0.496786 4.22389 0
M  V30 11164 N 1093.79 -1.57004 0.136909 0
M  V30 11165 C 1094.74 -2.16246 -0.806607 0
M  V30 11166 C 1095.71 -1.09246 -1.25118 0
M  V30 11167 O 1096.9 -1.3724 -1.32551 0
M  V30 11168 C 1094.04 -2.78031 -2.04433 0
M  V30 11169 C 1093.15 -3.99393 -1.64649 0
M  V30 11170 C 1092.28 -4.49208 -2.83524 0
M  V30 11171 C 1091.32 -5.63059 -2.40064 0
M  V30 11172 N 1090.46 -6.07537 -3.51913 0
M  V30 11173 H 1095.3 -2.9654 -0.294596 0
M  V30 11174 H 1092.84 -1.46491 -0.133705 0
M  V30 11175 H 1094.8 -3.11992 -2.76978 0
M  V30 11176 H 1093.43 -2.00398 -2.53062 0
M  V30 11177 H 1092.48 -3.71477 -0.819077 0
M  V30 11178 H 1093.79 -4.81904 -1.28723 0
M  V30 11179 H 1092.94 -4.85171 -3.64271 0
M  V30 11180 H 1091.68 -3.65683 -3.22688 0
M  V30 11181 H 1090.69 -5.26682 -1.57754 0
M  V30 11182 H 1091.91 -6.48362 -2.01997 0
M  V30 11183 H 1089.86 -5.2695 -3.90717 0
M  V30 11184 H 1089.78 -6.84949 -3.1997 0
M  V30 11185 H 1091.04 -6.48143 -4.33048 0
M  V30 11186 N 1095.27 0.136881 -1.57004 0
M  V30 11187 C 1096.52 0.849031 -1.84172 0
M  V30 11188 C 1096.85 1.80359 -0.720027 0
M  V30 11189 O 1096.13 1.92538 0.275584 0
M  V30 11190 C 1096.41 1.61465 -3.21871 0
M  V30 11191 C 1096.26 0.680902 -4.44616 0
M  V30 11192 C 1097.58 2.57488 -3.56914 0
M  V30 11193 H 1094.7 0.307209 -0.669919 0
M  V30 11194 H 1097.34 0.113862 -1.89659 0
M  V30 11195 H 1095.49 2.24137 -3.17325 0
M  V30 11196 H 1097.16 0.0644094 -4.61255 0
M  V30 11197 H 1095.41 -0.00883629 -4.33799 0
M  V30 11198 H 1096.08 1.25286 -5.37594 0
M  V30 11199 H 1098.55 2.0493 -3.62136 0
M  V30 11200 H 1097.43 3.08101 -4.54274 0
M  V30 11201 H 1097.69 3.39321 -2.83397 0
M  V30 11202 N 1096.75 1.52266 0.40654 0
M  V30 11203 C 1097.7 1.75794 1.4955 0
M  V30 11204 C 1098.67 0.600472 1.54866 0
M  V30 11205 O 1099.85 0.838305 1.71397 0
M  V30 11206 C 1096.99 1.91682 2.86971 0
M  V30 11207 C 1096.11 3.19337 2.90943 0
M  V30 11208 C 1095.24 3.25641 4.1968 0
M  V30 11209 C 1094.28 4.47488 4.17637 0
M  V30 11210 N 1093.42 4.51171 5.37949 0
M  V30 11211 H 1098.26 2.68733 1.28789 0
M  V30 11212 H 1095.79 1.33157 0.625102 0
M  V30 11213 H 1097.75 1.98877 3.66748 0
M  V30 11214 H 1096.38 1.02121 3.06221 0
M  V30 11215 H 1095.43 3.21301 2.03642 0
M  V30 11216 H 1096.75 4.09153 2.85299 0
M  V30 11217 H 1095.9 3.31922 5.07851 0
M  V30 11218 H 1094.64 2.33769 4.28023 0
M  V30 11219 H 1093.64 4.41351 3.27856 0
M  V30 11220 H 1094.87 5.40659 4.10932 0
M  V30 11221 H 1092.81 3.62182 5.46955 0
M  V30 11222 H 1092.73 5.34835 5.3431 0
M  V30 11223 H 1094 4.61685 6.28066 0
M  V30 11224 N 1098.23 -0.663929 1.42933 0
M  V30 11225 C 1099.46 -1.45192 1.474 0
M  V30 11226 C 1099.87 -1.88592 0.0886014 0
M  V30 11227 O 1099.23 -1.58824 -0.898962 0
M  V30 11228 C 1099.28 -2.69394 2.41059 0
M  V30 11229 O 1099 -2.27812 3.7421 0
M  V30 11230 C 1100.5 -3.62855 2.54659 0
M  V30 11231 H 1097.72 -0.446394 0.500973 0
M  V30 11232 H 1100.27 -0.814875 1.87563 0
M  V30 11233 H 1098.42 -3.29262 2.0412 0
M  V30 11234 H 1098.83 -3.08095 4.24474 0
M  V30 11235 H 1100.31 -4.46698 3.24291 0
M  V30 11236 H 1100.79 -4.09487 1.58799 0
M  V30 11237 H 1101.39 -3.08874 2.92364 0
M  V30 11238 N 1099.71 -1.29285 -0.901281 0
M  V30 11239 C 1100.64 -1.16832 -2.0217 0
M  V30 11240 C 1101.62 -0.0629265 -1.69984 0
M  V30 11241 O 1102.8 -0.242123 -1.92685 0
M  V30 11242 C 1099.93 -0.842406 -3.36929 0
M  V30 11243 C 1098.89 -1.90394 -3.8332 0
M  V30 11244 C 1098.21 -1.43138 -5.15185 0
M  V30 11245 C 1099.51 -3.31254 -4.03817 0
M  V30 11246 H 1101.21 -2.10562 -2.12847 0
M  V30 11247 H 1098.75 -1.01375 -1.0227 0
M  V30 11248 H 1100.71 -0.741999 -4.14816 0
M  V30 11249 H 1099.43 0.130598 -3.26339 0
M  V30 11250 H 1098.09 -1.99371 -3.07647 0
M  V30 11251 H 1097.74 -0.447091 -5.01009 0
M  V30 11252 H 1097.44 -2.14129 -5.47195 0
M  V30 11253 H 1098.96 -1.34444 -5.95615 0
M  V30 11254 H 1100.37 -3.25129 -4.72191 0
M  V30 11255 H 1098.77 -4.00189 -4.47178 0
M  V30 11256 H 1099.84 -3.74349 -3.08206 0
M  V30 11257 N 1101.18 1.11143 -1.11736 0
M  V30 11258 C 1102.11 2.19339 -0.800795 0
M  V30 11259 C 1103.1 1.68508 0.23221 0
M  V30 11260 O 1104.28 1.93967 0.0950063 0
M  V30 11261 C 1101.41 3.46424 -0.246579 0
M  V30 11262 C 1100.36 4.10487 -1.21181 0
M  V30 11263 C 1099.69 5.32183 -0.518158 0
M  V30 11264 C 1100.99 4.55052 -2.56368 0
M  V30 11265 H 1102.68 2.46077 -1.70548 0
M  V30 11266 H 1100.23 1.18271 -0.821454 0
M  V30 11267 H 1102.18 4.21398 -0.0128889 0
M  V30 11268 H 1100.91 3.19154 0.693415 0
M  V30 11269 H 1099.57 3.3751 -1.43118 0
M  V30 11270 H 1099.21 5.01187 0.426742 0
M  V30 11271 H 1098.91 5.75997 -1.16196 0
M  V30 11272 H 1100.44 6.09895 -0.293333 0
M  V30 11273 H 1101.85 5.21335 -2.38501 0
M  V30 11274 H 1100.25 5.0969 -3.16758 0
M  V30 11275 H 1101.32 3.68343 -3.1536 0
M  V30 11276 N 1102.66 0.908147 1.28804 0
M  V30 11277 C 1103.59 0.409106 2.29888 0
M  V30 11278 C 1104.57 -0.520338 1.61946 0
M  V30 11279 O 1105.76 -0.429268 1.89396 0
M  V30 11280 C 1102.89 -0.35669 3.45463 0
M  V30 11281 C 1101.84 0.4831 4.25265 0
M  V30 11282 C 1101.17 -0.4107 5.3312 0
M  V30 11283 C 1102.47 1.73744 4.92555 0
M  V30 11284 H 1104.16 1.25386 2.7188 0
M  V30 11285 H 1101.71 0.604368 1.30703 0
M  V30 11286 H 1103.66 -0.71661 4.15262 0
M  V30 11287 H 1102.39 -1.2353 3.02337 0
M  V30 11288 H 1101.04 0.825464 3.57186 0
M  V30 11289 H 1100.69 -1.28769 4.86238 0
M  V30 11290 H 1100.39 0.14756 5.87415 0
M  V30 11291 H 1101.92 -0.766626 6.05768 0
M  V30 11292 H 1103.33 1.44676 5.54745 0
M  V30 11293 H 1101.73 2.23767 5.5682 0
M  V30 11294 H 1102.8 2.46853 4.17363 0
M  V30 11295 N 1104.14 -1.42577 0.671525 0
M  V30 11296 C 1105.09 -2.32591 -0.0205354 0
M  V30 11297 C 1106.08 -1.4964 -0.793993 0
M  V30 11298 O 1107.29 -1.65733 -0.702327 0
M  V30 11299 H 1103.66 -0.75157 -0.0254344 0
M  V30 11300 H 1105.63 -2.88662 0.756082 0
M  V30 11301 C 1104.38 -3.34175 -0.960316 0
M  V30 11302 H 1103.71 -3.98041 -0.374577 0
M  V30 11303 H 1105.15 -3.99752 -1.4133 0
M  V30 11304 C 1103.61 -2.66184 -2.06513 0
M  V30 11305 O 1104.14 -2.49125 -3.15119 0
M  V30 11306 N 1102.34 -2.25261 -1.83591 0
M  V30 11307 H 1101.89 -2.39336 -0.952689 0
M  V30 11308 H 1101.85 -1.80101 -2.57703 0
M  V30 11309 N 1105.62 -0.414636 -1.52048 0
M  V30 11310 C 1106.58 0.396285 -2.25748 0
M  V30 11311 C 1107.58 0.969003 -1.28324 0
M  V30 11312 O 1108.77 0.847016 -1.52221 0
M  V30 11313 C 1105.9 1.55838 -3.03195 0
M  V30 11314 H 1107.1 -0.249311 -2.98862 0
M  V30 11315 H 1104.65 -0.167276 -1.55402 0
M  V30 11316 H 1105.38 2.24068 -2.34444 0
M  V30 11317 H 1105.17 1.15414 -3.74729 0
M  V30 11318 H 1106.66 2.13187 -3.59084 0
M  V30 11319 N 1107.1 1.56929 -0.145233 0
M  V30 11320 C 1108.06 2.15483 0.781002 0
M  V30 11321 C 1109.06 1.09617 1.17647 0
M  V30 11322 O 1110.25 1.35265 1.09768 0
M  V30 11323 C 1107.38 2.7165 2.05959 0
M  V30 11324 H 1108.57 2.98667 0.271685 0
M  V30 11325 H 1106.13 1.55952 0.1042 0
M  V30 11326 H 1106.86 1.92127 2.61262 0
M  V30 11327 H 1106.65 3.491 1.78526 0
M  V30 11328 H 1108.14 3.16769 2.72116 0
M  V30 11329 N 1108.58 -0.128553 1.57075 0
M  V30 11330 C 1109.51 -1.18362 1.96273 0
M  V30 11331 C 1110.52 -1.3818 0.860818 0
M  V30 11332 O 1111.71 -1.37424 1.13916 0
M  V30 11333 C 1108.81 -2.54533 2.23755 0
M  V30 11334 C 1107.98 -2.55446 3.55058 0
M  V30 11335 C 1107.04 -3.73291 3.70864 0
M  V30 11336 O 1106.07 -3.57315 4.43074 0
M  V30 11337 N 1107.27 -4.91481 3.08912 0
M  V30 11338 H 1110.03 -0.850276 2.87385 0
M  V30 11339 H 1107.6 -0.317931 1.58748 0
M  V30 11340 H 1109.59 -3.31912 2.31553 0
M  V30 11341 H 1108.16 -2.80087 1.38816 0
M  V30 11342 H 1107.38 -1.6385 3.58534 0
M  V30 11343 H 1108.67 -2.53104 4.4138 0
M  V30 11344 H 1108.06 -5.07364 2.50196 0
M  V30 11345 H 1106.62 -5.6657 3.22245 0
M  V30 11346 N 1110.05 -1.5248 -0.398459 0
M  V30 11347 C 1111 -1.77211 -1.50662 0
M  V30 11348 C 1112 -0.639638 -1.5686 0
M  V30 11349 O 1113.2 -0.821917 -1.60139 0
M  V30 11350 H 1109.58 -0.56057 -0.501264 0
M  V30 11351 H 1111.55 -2.70028 -1.26993 0
M  V30 11352 C 1110.3 -1.94944 -2.8791 0
M  V30 11353 H 1109.62 -2.8151 -2.83888 0
M  V30 11354 H 1111.06 -2.16243 -3.64712 0
M  V30 11355 C 1109.52 -0.719402 -3.29129 0
M  V30 11356 O 1110.05 0.107671 -4.01556 0
M  V30 11357 N 1108.25 -0.552228 -2.85305 0
M  V30 11358 H 1107.8 -1.22638 -2.26534 0
M  V30 11359 H 1107.76 0.269447 -3.13243 0
M  V30 11360 N 1111.53 0.65634 -1.43283 0
M  V30 11361 C 1112.76 1.44408 -1.48168 0
M  V30 11362 C 1113.17 1.88542 -0.0986016 0
M  V30 11363 O 1112.53 1.59298 0.890527 0
M  V30 11364 C 1112.58 2.68111 -2.42484 0
M  V30 11365 O 1112.3 2.25824 -3.75413 0
M  V30 11366 C 1113.8 3.61499 -2.56579 0
M  V30 11367 H 1111.02 0.443731 -0.503333 0
M  V30 11368 H 1113.57 0.804917 -1.87993 0
M  V30 11369 H 1111.72 3.28175 -2.05863 0
M  V30 11370 H 1112.14 3.05839 -4.26102 0
M  V30 11371 H 1113.61 4.44972 -3.26655 0
M  V30 11372 H 1114.09 4.08639 -1.60969 0
M  V30 11373 H 1114.69 3.07319 -2.93998 0
M  V30 11374 N 1113.01 1.29761 0.894412 0
M  V30 11375 C 1113.94 1.09666 2.00121 0
M  V30 11376 C 1114.92 0.00700077 1.62598 0
M  V30 11377 O 1116.1 0.158728 1.87831 0
M  V30 11378 C 1113.23 0.670588 3.31995 0
M  V30 11379 C 1112.28 1.75974 3.88504 0
M  V30 11380 S 1113.11 3.36013 4.1696 0
M  V30 11381 C 1114.27 2.95285 5.51867 0
M  V30 11382 H 1114.5 2.03369 2.1686 0
M  V30 11383 H 1112.03 1.13968 1.04166 0
M  V30 11384 H 1113.99 0.431481 4.08226 0
M  V30 11385 H 1112.65 -0.246924 3.13128 0
M  V30 11386 H 1111.84 1.41367 4.83768 0
M  V30 11387 H 1111.45 1.95264 3.1898 0
M  V30 11388 H 1113.74 2.42659 6.32553 0
M  V30 11389 H 1114.68 3.8942 5.91403 0
M  V30 11390 H 1115.09 2.33426 5.13977 0
M  V30 11391 N 1114.49 -1.10549 1.12324 0
M  V30 11392 C 1115.4 -2.20428 0.803032 0
M  V30 11393 C 1116.41 -1.72756 -0.207674 0
M  V30 11394 O 1117.59 -2.01357 -0.0415623 0
M  V30 11395 C 1114.65 -3.45716 0.261032 0
M  V30 11396 C 1113.72 -4.08129 1.33152 0
M  V30 11397 C 1112.95 -5.27436 0.815288 0
M  V30 11398 O 1113.17 -5.69317 -0.351361 0
M  V30 11399 O 1112.11 -5.80674 1.58434 0
M  V30 11400 H 1115.93 -2.50249 1.72073 0
M  V30 11401 H 1113.52 -1.19263 0.899815 0
M  V30 11402 H 1115.4 -4.21384 -0.0364007 0
M  V30 11403 H 1114.07 -3.17525 -0.629249 0
M  V30 11404 H 1112.98 -3.3415 1.6821 0
M  V30 11405 H 1114.31 -4.4052 2.19552 0
M  V30 11406 N 1115.97 -0.914965 -1.28321 0
M  V30 11407 C 1117.38 -0.59512 -1.76961 0
M  V30 11408 C 1117.73 0.88958 -1.74874 0
M  V30 11409 O 1116.85 1.6959 -1.34418 0
M  V30 11410 C 1117.45 -1.07353 -3.21342 0
M  V30 11411 C 1116.01 -0.804577 -3.677 0
M  V30 11412 C 1115.15 -1.23955 -2.48053 0
M  V30 11413 H 1118.1 -1.0961 -1.14767 0
M  V30 11414 H 1118.13 -0.415506 -3.78225 0
M  V30 11415 H 1117.64 -2.15413 -3.22829 0
M  V30 11416 H 1115.74 0.26277 -3.71672 0
M  V30 11417 H 1115.85 -1.41317 -4.57784 0
M  V30 11418 H 1114.22 -0.658274 -2.46046 0
M  V30 11419 H 1115 -2.32853 -2.52258 0
M  V30 11420 N 1117.44 1.42219 -0.679077 0
M  V30 11421 C 1118.85 1.8459 -0.279877 0
M  V30 11422 C 1119.21 1.56839 1.17881 0
M  V30 11423 O 1118.33 1.03039 1.90294 0
M  V30 11424 C 1118.93 3.35072 -0.501185 0
M  V30 11425 C 1117.48 3.76076 -0.156065 0
M  V30 11426 C 1116.63 2.65763 -0.791549 0
M  V30 11427 H 1119.58 1.32005 -0.880932 0
M  V30 11428 H 1119.6 3.79708 0.245349 0
M  V30 11429 H 1119.12 3.55239 -1.56291 0
M  V30 11430 H 1117.22 3.61516 0.90205 0
M  V30 11431 H 1117.33 4.75334 -0.599572 0
M  V30 11432 H 1115.69 2.53726 -0.222514 0
M  V30 11433 H 1116.48 2.88751 -1.85682 0
M  V30 11434 N 1118.92 0.422693 1.51826 0
M  V30 11435 C 1119.85 -0.386913 2.30272 0
M  V30 11436 C 1120.83 -1.03411 1.35056 0
M  V30 11437 O 1122.02 -1.04055 1.6397 0
M  V30 11438 C 1119.15 -1.49645 3.13407 0
M  V30 11439 C 1118.1 -0.973532 4.16781 0
M  V30 11440 C 1117.43 -2.1777 4.88344 0
M  V30 11441 C 1118.73 -0.0181194 5.22297 0
M  V30 11442 H 1120.42 0.267697 2.98201 0
M  V30 11443 H 1117.97 0.130186 1.4341 0
M  V30 11444 H 1119.92 -2.06993 3.67059 0
M  V30 11445 H 1118.64 -2.17914 2.43272 0
M  V30 11446 H 1117.3 -0.42237 3.64159 0
M  V30 11447 H 1116.95 -2.84625 4.14726 0
M  V30 11448 H 1116.65 -1.83427 5.58237 0
M  V30 11449 H 1118.18 -2.75699 5.44814 0
M  V30 11450 H 1119.59 -0.500822 5.71108 0
M  V30 11451 H 1117.99 0.237163 5.99631 0
M  V30 11452 H 1119.06 0.923065 4.76033 0
M  V30 11453 N 1120.4 -1.5685 0.153553 0
M  V30 11454 C 1121.63 -2.00701 -0.502678 0
M  V30 11455 C 1122.04 -1.0337 -1.57988 0
M  V30 11456 O 1121.4 -0.0317233 -1.82472 0
M  V30 11457 C 1121.45 -3.44443 -1.09732 0
M  V30 11458 O 1121.17 -4.38054 -0.0631405 0
M  V30 11459 C 1122.67 -4.03605 -1.83352 0
M  V30 11460 H 1119.89 -0.658229 -0.130289 0
M  V30 11461 H 1122.44 -2.02965 0.250063 0
M  V30 11462 H 1120.59 -3.43009 -1.80065 0
M  V30 11463 H 1121.01 -5.22114 -0.499681 0
M  V30 11464 H 1122.48 -5.0616 -2.20241 0
M  V30 11465 H 1122.96 -3.44687 -2.7219 0
M  V30 11466 H 1123.56 -4.08688 -1.17703 0
M  V30 11467 N 1121.88 0.120221 -1.57141 0
M  V30 11468 C 1123.29 0.677497 -1.73974 0
M  V30 11469 C 1123.64 1.80371 -0.772055 0
M  V30 11470 O 1122.76 2.16329 0.0553062 0
M  V30 11471 C 1123.36 1.23575 -3.1546 0
M  V30 11472 C 1121.92 1.73933 -3.33803 0
M  V30 11473 C 1121.07 0.638542 -2.69848 0
M  V30 11474 H 1124.02 -0.105685 -1.58348 0
M  V30 11475 H 1124.04 2.10542 -3.16942 0
M  V30 11476 H 1123.55 0.415851 -3.85866 0
M  V30 11477 H 1121.65 2.58404 -2.68437 0
M  V30 11478 H 1121.76 1.84961 -4.41957 0
M  V30 11479 H 1120.13 1.07185 -2.31049 0
M  V30 11480 H 1120.91 -0.170356 -3.42877 0
M  V30 11481 N 1123.36 1.52689 0.390367 0
M  V30 11482 C 1124.77 1.59623 0.968366 0
M  V30 11483 C 1125.12 0.44824 1.91011 0
M  V30 11484 O 1124.24 -0.428868 2.12108 0
M  V30 11485 C 1124.84 2.89312 1.76306 0
M  V30 11486 C 1123.4 2.98664 2.29079 0
M  V30 11487 C 1122.54 2.54725 1.09593 0
M  V30 11488 H 1125.5 1.57787 0.169959 0
M  V30 11489 H 1125.52 2.75721 2.62217 0
M  V30 11490 H 1125.03 3.72846 1.07738 0
M  V30 11491 H 1123.13 2.19665 3.00962 0
M  V30 11492 H 1123.24 4.03277 2.58659 0
M  V30 11493 H 1121.61 2.09012 1.45554 0
M  V30 11494 H 1122.39 3.40651 0.425625 0
M  V30 11495 N 1124.83 -0.648732 1.43629 0
M  V30 11496 C 1126.06 -1.44117 1.49148 0
M  V30 11497 C 1126.48 -1.87767 0.111952 0
M  V30 11498 O 1125.84 -1.57655 -0.895249 0
M  V30 11499 C 1125.89 -2.64938 2.44623 0
M  V30 11500 O 1124.99 -3.64155 1.93559 0
M  V30 11501 H 1124.34 -0.431933 0.504312 0
M  V30 11502 H 1126.87 -0.793439 1.88589 0
M  V30 11503 H 1126.88 -3.12698 2.62076 0
M  V30 11504 H 1125.55 -2.3251 3.44836 0
M  V30 11505 H 1124.13 -3.23322 1.85789 0
M  V30 11506 N 1126.31 -1.30234 -0.887518 0
M  V30 11507 C 1127.72 -1.17048 -1.45453 0
M  V30 11508 C 1128.07 0.229793 -1.9485 0
M  V30 11509 O 1127.2 1.12628 -1.84781 0
M  V30 11510 C 1127.79 -2.11876 -2.64375 0
M  V30 11511 C 1126.35 -2.02676 -3.17174 0
M  V30 11512 C 1125.5 -2.02104 -1.89866 0
M  V30 11513 H 1128.45 -1.42541 -0.697694 0
M  V30 11514 H 1128.47 -1.69811 -3.40506 0
M  V30 11515 H 1127.98 -3.13781 -2.28392 0
M  V30 11516 H 1126.09 -1.03904 -3.57819 0
M  V30 11517 H 1126.2 -2.90939 -3.80646 0
M  V30 11518 H 1124.56 -1.4687 -2.0809 0
M  V30 11519 H 1125.35 -3.05735 -1.56145 0
M  V30 11520 N 1127.79 1.09952 -1.12909 0
M  V30 11521 C 1128.75 2.14615 -0.804548 0
M  V30 11522 C 1129.75 1.5975 0.18345 0
M  V30 11523 O 1130.94 1.74147 -0.0429623 0
M  V30 11524 C 1128.08 3.40333 -0.196471 0
M  V30 11525 H 1129.27 2.44835 -1.73193 0
M  V30 11526 H 1126.82 1.25399 -0.932997 0
M  V30 11527 H 1127.56 3.15735 0.740388 0
M  V30 11528 H 1127.34 3.81444 -0.907886 0
M  V30 11529 H 1128.83 4.17598 0.0139264 0
M  V30 11530 N 1129.27 0.921757 1.27833 0
M  V30 11531 C 1130.52 0.557974 1.94245 0
M  V30 11532 C 1130.84 -0.90268 1.72849 0
M  V30 11533 O 1130.11 -1.63915 1.07279 0
M  V30 11534 H 1128.69 0.203364 0.718785 0
M  V30 11535 H 1131.35 1.17286 1.5566 0
M  V30 11536 H 1130.45 0.759202 3.02725 0
M  V30 11537 N 1130.75 -1.41857 0.686609 0
M  V30 11538 C 1132.16 -1.84439 0.289662 0
M  V30 11539 C 1132.51 -1.57462 -1.17047 0
M  V30 11540 O 1131.63 -1.04046 -1.89745 0
M  V30 11541 C 1132.23 -3.34802 0.518948 0
M  V30 11542 C 1130.79 -3.75988 0.176007 0
M  V30 11543 C 1129.93 -2.65339 0.805632 0
M  V30 11544 H 1132.89 -1.31536 0.88792 0
M  V30 11545 H 1132.91 -3.79833 -0.225209 0
M  V30 11546 H 1132.42 -3.54405 1.58173 0
M  V30 11547 H 1130.52 -3.61989 -0.882865 0
M  V30 11548 H 1130.63 -4.75009 0.624772 0
M  V30 11549 H 1129 -2.53605 0.235966 0
M  V30 11550 H 1129.78 -2.87762 1.8721 0
M  V30 11551 N 1132.22 -0.430739 -1.51599 0
M  V30 11552 C 1133.47 0.137657 -2.01631 0
M  V30 11553 C 1133.79 1.43787 -1.31721 0
M  V30 11554 O 1133.06 1.90668 -0.449717 0
M  V30 11555 H 1131.64 0.0538611 -0.745056 0
M  V30 11556 H 1134.31 -0.571935 -1.86319 0
M  V30 11557 H 1133.4 0.318305 -3.10473 0
M  V30 11558 N 1133.7 1.56767 -0.161869 0
M  V30 11559 C 1134.63 2.20511 0.767918 0
M  V30 11560 C 1135.61 1.15783 1.24612 0
M  V30 11561 O 1136.8 1.44179 1.301 0
M  V30 11562 C 1133.93 2.83844 2.00125 0
M  V30 11563 C 1132.88 3.94528 1.65926 0
M  V30 11564 C 1132.21 4.44866 2.96646 0
M  V30 11565 C 1133.51 5.14583 0.894497 0
M  V30 11566 H 1135.2 2.98464 0.236607 0
M  V30 11567 H 1132.75 1.43561 0.112363 0
M  V30 11568 H 1134.7 3.27109 2.65664 0
M  V30 11569 H 1133.43 2.03246 2.55654 0
M  V30 11570 H 1132.08 3.51904 1.02759 0
M  V30 11571 H 1131.73 3.61071 3.50196 0
M  V30 11572 H 1131.43 5.19531 2.74521 0
M  V30 11573 H 1132.96 4.90812 3.6323 0
M  V30 11574 H 1134.37 5.54601 1.45228 0
M  V30 11575 H 1132.77 5.95105 0.772636 0
M  V30 11576 H 1133.84 4.84773 -0.110986 0
M  V30 11577 N 1135.18 -0.111886 1.57202 0
M  V30 11578 C 1136.41 -0.836317 1.89791 0
M  V30 11579 C 1136.83 -1.72304 0.754513 0
M  V30 11580 O 1136.19 -1.78889 -0.294672 0
M  V30 11581 C 1136.24 -1.63971 3.21164 0
M  V30 11582 O 1135.34 -2.74726 3.0757 0
M  V30 11583 H 1134.68 -0.230833 0.622585 0
M  V30 11584 H 1137.21 -0.0921478 2.04392 0
M  V30 11585 H 1137.22 -2.02746 3.54059 0
M  V30 11586 H 1135.9 -0.98882 4.03974 0
M  V30 11587 H 1134.47 -2.39101 2.86156 0
M  V30 11588 N 1136.66 -1.52894 -0.382264 0
M  V30 11589 C 1137.59 -1.81122 -1.47367 0
M  V30 11590 C 1138.57 -0.663653 -1.56619 0
M  V30 11591 O 1139.75 -0.911898 -1.71459 0
M  V30 11592 C 1136.88 -1.98615 -2.84902 0
M  V30 11593 C 1135.84 -3.14328 -2.90485 0
M  V30 11594 C 1135.16 -3.17086 -4.30535 0
M  V30 11595 C 1136.46 -4.53263 -2.59519 0
M  V30 11596 H 1138.16 -2.72518 -1.23993 0
M  V30 11597 H 1135.7 -1.3113 -0.595049 0
M  V30 11598 H 1137.66 -2.16946 -3.61265 0
M  V30 11599 H 1136.38 -1.03915 -3.09628 0
M  V30 11600 H 1135.04 -2.95791 -2.16572 0
M  V30 11601 H 1134.69 -2.20055 -4.52311 0
M  V30 11602 H 1134.39 -3.94821 -4.3519 0
M  V30 11603 H 1135.91 -3.3758 -5.08795 0
M  V30 11604 H 1137.33 -4.71867 -3.25598 0
M  V30 11605 H 1135.72 -5.33115 -2.75514 0
M  V30 11606 H 1136.79 -4.59516 -1.54831 0
M  V30 11607 N 1138.14 0.641106 -1.43971 0
M  V30 11608 C 1139.39 1.39807 -1.4594 0
M  V30 11609 C 1139.71 1.94795 -0.0893874 0
M  V30 11610 O 1138.98 1.75175 0.876962 0
M  V30 11611 H 1137.56 0.518908 -0.537349 0
M  V30 11612 H 1140.22 0.755278 -1.79671 0
M  V30 11613 H 1139.31 2.23439 -2.17903 0
M  V30 11614 N 1139.62 1.30703 0.880598 0
M  V30 11615 C 1140.89 1.1043 1.61445 0
M  V30 11616 C 1141.27 -0.344837 2.08264 0
M  V30 11617 O 1140.62 -1.33711 1.85293 0
M  V30 11618 C 1140.83 2.10908 2.78063 0
M  V30 11619 C 1142.18 2.42861 3.48287 0
M  V30 11620 O 1143.2 2.09252 2.88257 0
M  V30 11621 O 1142.06 3.00369 4.56553 0
M  V30 11622 H 1139.16 0.424419 0.709787 0
M  V30 11623 H 1141.7 1.42144 0.926991 0
M  V30 11624 H 1140.47 3.08431 2.40803 0
M  V30 11625 H 1140.1 1.80036 3.54503 0
M  V30 11626 N 1141.09 -1.09351 1.1349 0
M  V30 11627 C 1142.32 -1.85304 0.920324 0
M  V30 11628 C 1142.74 -1.81182 -0.530883 0
M  V30 11629 O 1142.09 -1.20853 -1.36751 0
M  V30 11630 C 1142.14 -3.33249 1.40098 0
M  V30 11631 O 1141.87 -3.37333 2.79531 0
M  V30 11632 C 1143.37 -4.2604 1.22495 0
M  V30 11633 H 1140.59 -0.585294 0.328134 0
M  V30 11634 H 1143.13 -1.38168 1.50765 0
M  V30 11635 H 1141.29 -3.7781 0.85664 0
M  V30 11636 H 1141.7 -4.29614 3.00885 0
M  V30 11637 H 1143.17 -5.27999 1.61 0
M  V30 11638 H 1143.65 -4.38883 0.166717 0
M  V30 11639 H 1144.26 -3.87295 1.75735 0
M  V30 11640 N 1142.57 -0.928524 -1.27343 0
M  V30 11641 C 1143.53 -0.43292 -2.25074 0
M  V30 11642 C 1144.53 0.448976 -1.54405 0
M  V30 11643 O 1145.72 0.249939 -1.72398 0
M  V30 11644 C 1142.86 0.377539 -3.38803 0
M  V30 11645 H 1144.05 -1.29642 -2.70431 0
M  V30 11646 H 1141.6 -0.709289 -1.3928 0
M  V30 11647 H 1142.34 1.25982 -2.98829 0
M  V30 11648 H 1142.12 -0.254782 -3.91271 0
M  V30 11649 H 1143.61 0.714634 -4.1144 0
M  V30 11650 N 1144.05 1.41491 -0.694123 0
M  V30 11651 C 1144.98 2.33462 -0.0422169 0
M  V30 11652 C 1145.96 1.51739 0.76872 0
M  V30 11653 O 1147.15 1.8028 0.721985 0
M  V30 11654 C 1144.28 3.35545 0.895925 0
M  V30 11655 C 1143.23 4.27568 0.192188 0
M  V30 11656 C 1142.56 5.20014 1.24459 0
M  V30 11657 C 1143.86 5.1376 -0.940626 0
M  V30 11658 H 1145.55 2.88225 -0.810363 0
M  V30 11659 H 1143.1 1.38586 -0.39114 0
M  V30 11660 H 1145.05 3.9881 1.36121 0
M  V30 11661 H 1143.77 2.79129 1.69572 0
M  V30 11662 H 1142.43 3.65726 -0.25305 0
M  V30 11663 H 1142.08 4.59913 2.03687 0
M  V30 11664 H 1141.78 5.82417 0.778734 0
M  V30 11665 H 1143.3 5.86155 1.71041 0
M  V30 11666 H 1144.72 5.70601 -0.555692 0
M  V30 11667 H 1143.11 5.85097 -1.33349 0
M  V30 11668 H 1144.18 4.51011 -1.78093 0
M  V30 11669 N 1145.53 0.438773 1.51369 0
M  V30 11670 C 1146.46 -0.407771 2.25543 0
M  V30 11671 C 1147.47 -0.985065 1.29616 0
M  V30 11672 O 1148.66 -0.878961 1.55359 0
M  V30 11673 C 1145.76 -1.58257 2.9968 0
M  V30 11674 C 1144.93 -1.12389 4.22714 0
M  V30 11675 C 1143.99 -2.16897 4.79418 0
M  V30 11676 O 1143.02 -1.76273 5.41218 0
M  V30 11677 N 1144.22 -3.49396 4.63576 0
M  V30 11678 H 1146.99 0.227963 2.98832 0
M  V30 11679 H 1144.55 0.267741 1.59671 0
M  V30 11680 H 1146.54 -2.27796 3.34501 0
M  V30 11681 H 1145.11 -2.12362 2.29393 0
M  V30 11682 H 1144.33 -0.255509 3.93371 0
M  V30 11683 H 1145.62 -0.794848 5.02553 0
M  V30 11684 H 1145.02 -3.85132 4.14355 0
M  V30 11685 H 1143.57 -4.14826 5.02755 0
M  V30 11686 N 1147.01 -1.56678 0.170181 0
M  V30 11687 C 1147.95 -2.19222 -0.777459 0
M  V30 11688 C 1148.95 -1.15592 -1.23834 0
M  V30 11689 O 1150.15 -1.33794 -1.20412 0
M  V30 11690 H 1146.53 -0.702244 -0.268992 0
M  V30 11691 H 1148.5 -2.97543 -0.225989 0
M  V30 11692 C 1147.25 -2.84631 -1.997 0
M  V30 11693 H 1146.57 -3.641 -1.65139 0
M  V30 11694 H 1148.01 -3.31864 -2.63898 0
M  V30 11695 C 1146.47 -1.84345 -2.81991 0
M  V30 11696 O 1147 -1.32821 -3.79106 0
M  V30 11697 N 1145.21 -1.53127 -2.46983 0
M  V30 11698 H 1144.75 -1.95219 -1.6807 0
M  V30 11699 H 1144.71 -0.862787 -3.0233 0
M  V30 11700 N 1148.48 0.103547 -1.57259 0
M  V30 11701 C 1149.41 1.12714 -2.04494 0
M  V30 11702 C 1150.39 1.42278 -0.932255 0
M  V30 11703 O 1151.58 1.52453 -1.20298 0
M  V30 11704 C 1148.71 2.44927 -2.46228 0
M  V30 11705 C 1147.66 2.2979 -3.61082 0
M  V30 11706 C 1146.99 3.67105 -3.88765 0
M  V30 11707 C 1148.29 1.7455 -4.9227 0
M  V30 11708 H 1149.98 0.734198 -2.90258 0
M  V30 11709 H 1147.53 0.351725 -1.39638 0
M  V30 11710 H 1149.48 3.16798 -2.77879 0
M  V30 11711 H 1148.21 2.8614 -1.57453 0
M  V30 11712 H 1146.87 1.60366 -3.29664 0
M  V30 11713 H 1146.51 4.05831 -2.97171 0
M  V30 11714 H 1146.21 3.57825 -4.66084 0
M  V30 11715 H 1147.74 4.40456 -4.22884 0
M  V30 11716 H 1149.15 2.36253 -5.22358 0
M  V30 11717 H 1147.55 1.76051 -5.73695 0
M  V30 11718 H 1148.62 0.704242 -4.79759 0
M  V30 11719 N 1149.96 1.53094 0.37415 0
M  V30 11720 C 1150.87 1.81872 1.48188 0
M  V30 11721 C 1151.89 0.706487 1.59012 0
M  V30 11722 O 1153.06 0.995648 1.75068 0
M  V30 11723 C 1150.13 1.99494 2.83554 0
M  V30 11724 C 1149.19 3.23402 2.82329 0
M  V30 11725 C 1148.42 3.40174 4.11239 0
M  V30 11726 O 1148.65 2.61425 5.06965 0
M  V30 11727 O 1147.58 4.33493 4.17573 0
M  V30 11728 H 1151.41 2.75965 1.26795 0
M  V30 11729 H 1148.99 1.38368 0.56343 0
M  V30 11730 H 1150.87 2.12705 3.63778 0
M  V30 11731 H 1149.55 1.08591 3.04942 0
M  V30 11732 H 1148.45 3.15621 2.00834 0
M  V30 11733 H 1149.79 4.14199 2.65894 0
M  V30 11734 N 1151.44 -0.633461 1.44309 0
M  V30 11735 C 1152.37 -1.75868 1.4698 0
M  V30 11736 C 1153.38 -1.58691 0.363469 0
M  V30 11737 O 1154.57 -1.67048 0.629075 0
M  V30 11738 C 1151.67 -3.1356 1.28582 0
M  V30 11739 C 1150.85 -3.57217 2.52418 0
M  V30 11740 C 1149.91 -4.73779 2.28954 0
M  V30 11741 O 1148.93 -4.8221 3.02428 0
M  V30 11742 N 1150.13 -5.65324 1.31866 0
M  V30 11743 H 1152.9 -1.74048 2.43983 0
M  V30 11744 H 1150.46 -0.817952 1.39718 0
M  V30 11745 H 1152.45 -3.89255 1.10736 0
M  V30 11746 H 1151.02 -3.10036 0.399529 0
M  V30 11747 H 1150.24 -2.71755 2.85557 0
M  V30 11748 H 1151.53 -3.83136 3.3479 0
M  V30 11749 H 1150.93 -5.61204 0.71179 0
M  V30 11750 H 1149.48 -6.40659 1.19998 0
M  V30 11751 N 1152.92 -1.31168 -0.873655 0
M  V30 11752 C 1153.85 -1.21094 -1.99646 0
M  V30 11753 C 1154.83 -0.0989684 -1.69812 0
M  V30 11754 O 1156.01 -0.282939 -1.92128 0
M  V30 11755 C 1153.14 -0.913684 -3.35066 0
M  V30 11756 C 1152.1 -1.98482 -3.79195 0
M  V30 11757 C 1151.42 -1.54033 -5.12033 0
M  V30 11758 C 1152.72 -3.39745 -3.96699 0
M  V30 11759 H 1154.42 -2.1503 -2.08333 0
M  V30 11760 H 1151.96 -1.03521 -1.00097 0
M  V30 11761 H 1153.92 -0.829821 -4.13149 0
M  V30 11762 H 1152.64 0.0613471 -3.26542 0
M  V30 11763 H 1151.3 -2.05851 -3.03349 0
M  V30 11764 H 1150.95 -0.553261 -4.99948 0
M  V30 11765 H 1150.65 -2.25688 -5.4253 0
M  V30 11766 H 1152.17 -1.47047 -5.92629 0
M  V30 11767 H 1153.59 -3.35071 -4.65188 0
M  V30 11768 H 1151.98 -4.09585 -4.38589 0
M  V30 11769 H 1153.05 -3.80802 -3.00196 0
M  V30 11770 N 1154.4 1.08748 -1.14068 0
M  V30 11771 C 1155.33 2.17591 -0.84714 0
M  V30 11772 C 1156.31 1.68962 0.196415 0
M  V30 11773 O 1157.49 1.94125 0.0538415 0
M  V30 11774 C 1154.62 3.45823 -0.320005 0
M  V30 11775 C 1153.58 4.07824 -1.2986 0
M  V30 11776 C 1152.9 5.30965 -0.630925 0
M  V30 11777 C 1154.2 4.49512 -2.65963 0
M  V30 11778 H 1155.9 2.42404 -1.75729 0
M  V30 11779 H 1153.44 1.16502 -0.846356 0
M  V30 11780 H 1155.4 4.21276 -0.102271 0
M  V30 11781 H 1154.12 3.20553 0.625561 0
M  V30 11782 H 1152.78 3.34398 -1.50245 0
M  V30 11783 H 1152.43 5.01979 0.320337 0
M  V30 11784 H 1152.13 5.73402 -1.28388 0
M  V30 11785 H 1153.65 6.09136 -0.422635 0
M  V30 11786 H 1155.06 5.16159 -2.49506 0
M  V30 11787 H 1153.46 5.02857 -3.27498 0
M  V30 11788 H 1154.53 3.6157 -3.23102 0
M  V30 11789 N 1155.87 0.935264 1.26849 0
M  V30 11790 C 1157.15 0.497797 1.8916 0
M  V30 11791 C 1157.53 -1.02441 1.84578 0
M  V30 11792 O 1156.88 -1.88185 1.29609 0
M  V30 11793 C 1157.09 1.05244 3.32753 0
M  V30 11794 C 1158.44 1.11751 4.0963 0
M  V30 11795 O 1159.46 1.0026 3.41799 0
M  V30 11796 O 1158.32 1.29548 5.30923 0
M  V30 11797 H 1155.41 0.161322 0.811113 0
M  V30 11798 H 1157.96 1.02744 1.35062 0
M  V30 11799 H 1156.73 2.09617 3.30419 0
M  V30 11800 H 1156.36 0.504889 3.94381 0
M  V30 11801 N 1157.35 -1.41121 0.701616 0
M  V30 11802 C 1158.6 -2.00733 0.234682 0
M  V30 11803 C 1158.92 -1.55869 -1.17174 0
M  V30 11804 O 1158.19 -0.791965 -1.79178 0
M  V30 11805 H 1156.77 -0.742288 0.0837745 0
M  V30 11806 H 1159.43 -1.7266 0.904127 0
M  V30 11807 H 1158.53 -3.11041 0.256831 0
M  V30 11808 N 1158.83 -0.446794 -1.51134 0
M  V30 11809 C 1160.24 0.0141132 -1.86695 0
M  V30 11810 C 1160.59 1.41095 -1.36333 0
M  V30 11811 O 1159.72 2.04139 -0.718068 0
M  V30 11812 C 1160.31 0.0323866 -3.38785 0
M  V30 11813 C 1158.87 0.437737 -3.73846 0
M  V30 11814 C 1158.02 -0.363436 -2.74908 0
M  V30 11815 H 1160.97 -0.66221 -1.44224 0
M  V30 11816 H 1160.99 0.839865 -3.71115 0
M  V30 11817 H 1160.5 -0.984374 -3.75409 0
M  V30 11818 H 1158.6 1.45975 -3.42815 0
M  V30 11819 H 1158.72 0.155964 -4.78846 0
M  V30 11820 H 1157.08 0.179566 -2.54066 0
M  V30 11821 H 1157.86 -1.37925 -3.14375 0
M  V30 11822 N 1160.31 1.56586 -0.178487 0
M  V30 11823 C 1161.22 2.21903 0.761321 0
M  V30 11824 C 1162.23 1.21289 1.2476 0
M  V30 11825 O 1163.41 1.53974 1.29823 0
M  V30 11826 C 1160.48 2.85259 1.97048 0
M  V30 11827 C 1159.54 4.01095 1.53039 0
M  V30 11828 C 1158.77 4.61421 2.68191 0
M  V30 11829 O 1158.99 4.20644 3.85247 0
M  V30 11830 O 1157.93 5.51171 2.41855 0
M  V30 11831 H 1161.75 3.02788 0.235141 0
M  V30 11832 H 1159.34 1.49316 0.0500442 0
M  V30 11833 H 1161.22 3.25404 2.6775 0
M  V30 11834 H 1159.89 2.07366 2.48558 0
M  V30 11835 H 1158.8 3.65606 0.792661 0
M  V30 11836 H 1160.13 4.80603 1.06213 0
M  V30 11837 N 1161.79 -0.095206 1.57312 0
M  V30 11838 C 1162.75 -1.09974 2.01093 0
M  V30 11839 C 1163.75 -1.32954 0.904424 0
M  V30 11840 O 1164.94 -1.29069 1.16991 0
M  V30 11841 C 1162.07 -2.4489 2.37153 0
M  V30 11842 H 1163.26 -0.722906 2.91057 0
M  V30 11843 H 1160.82 -0.340249 1.52552 0
M  V30 11844 H 1161.55 -2.8745 1.50143 0
M  V30 11845 H 1161.34 -2.29559 3.17876 0
M  V30 11846 H 1162.83 -3.17141 2.71683 0
M  V30 11847 N 1163.26 -1.53291 -0.366026 0
M  V30 11848 C 1164.2 -1.75981 -1.46845 0
M  V30 11849 C 1165.21 -0.640574 -1.49668 0
M  V30 11850 O 1166.4 -0.916823 -1.53155 0
M  V30 11851 C 1163.5 -1.82426 -2.85611 0
M  V30 11852 C 1162.67 -3.12062 -3.0649 0
M  V30 11853 C 1161.73 -3.09755 -4.25368 0
M  V30 11854 O 1160.76 -3.83555 -4.20564 0
M  V30 11855 N 1161.96 -2.30544 -5.32757 0
M  V30 11856 H 1164.72 -2.71104 -1.2776 0
M  V30 11857 H 1162.28 -1.52063 -0.555745 0
M  V30 11858 H 1164.28 -1.78361 -3.63276 0
M  V30 11859 H 1162.85 -0.945888 -2.97946 0
M  V30 11860 H 1162.07 -3.29433 -2.16489 0
M  V30 11861 H 1163.35 -3.97735 -3.17308 0
M  V30 11862 H 1162.75 -1.70095 -5.39522 0
M  V30 11863 H 1161.31 -2.32298 -6.09 0
M  V30 11864 N 1164.74 0.6258 -1.44643 0
M  V30 11865 C 1165.99 1.38251 -1.47414 0
M  V30 11866 C 1166.31 1.94689 -0.110043 0
M  V30 11867 O 1165.58 1.76095 0.858333 0
M  V30 11868 H 1164.16 0.513179 -0.542823 0
M  V30 11869 H 1166.82 0.736179 -1.80462 0
M  V30 11870 H 1165.92 2.21115 -2.2026 0
M  V30 11871 N 1166.22 1.31629 0.866686 0
M  V30 11872 C 1167.45 1.24609 1.65793 0
M  V30 11873 C 1167.87 -0.184944 1.87189 0
M  V30 11874 O 1167.23 -1.1322 1.41601 0
M  V30 11875 C 1167.28 1.9988 3.00134 0
M  V30 11876 O 1166.38 1.33838 3.90079 0
M  V30 11877 H 1165.72 0.430051 0.505917 0
M  V30 11878 H 1168.25 1.73752 1.08035 0
M  V30 11879 H 1168.26 2.09599 3.50046 0
M  V30 11880 H 1166.94 3.03947 2.83882 0
M  V30 11881 H 1165.51 1.3259 3.48532 0
M  V30 11882 N 1167.7 -1.08142 1.14644 0
M  V30 11883 C 1168.95 -1.81015 0.927648 0
M  V30 11884 C 1169.3 -1.8467 -0.539885 0
M  V30 11885 O 1168.59 -1.31353 -1.39488 0
M  V30 11886 C 1168.79 -3.25962 1.46573 0
M  V30 11887 C 1168.62 -3.36429 2.98405 0
M  V30 11888 C 1167.39 -3.4746 3.66878 0
M  V30 11889 C 1169.58 -3.27855 3.96252 0
M  V30 11890 N 1167.57 -3.46746 5.06597 0
M  V30 11891 C 1168.94 -3.34165 5.22239 0
M  V30 11892 C 1170.99 -3.11611 3.88334 0
M  V30 11893 C 1169.7 -3.25903 6.41233 0
M  V30 11894 C 1171.72 -3.04679 5.06877 0
M  V30 11895 C 1171.08 -3.11594 6.31735 0
M  V30 11896 H 1167.18 -0.676065 0.393014 0
M  V30 11897 H 1169.77 -1.29145 1.45704 0
M  V30 11898 H 1167.94 -3.7627 0.96308 0
M  V30 11899 H 1169.67 -3.86914 1.18659 0
M  V30 11900 H 1166.42 -3.51466 3.17441 0
M  V30 11901 H 1166.85 -3.49939 5.79544 0
M  V30 11902 H 1171.49 -3.05125 2.92675 0
M  V30 11903 H 1169.21 -3.3115 7.37133 0
M  V30 11904 H 1172.79 -2.93226 5.02503 0
M  V30 11905 H 1171.67 -3.06264 7.21922 0
M  V30 11906 N 1169.18 -0.941978 -1.26351 0
M  V30 11907 C 1170.14 -0.456768 -2.24602 0
M  V30 11908 C 1171.14 0.432574 -1.54872 0
M  V30 11909 O 1172.33 0.23164 -1.72653 0
M  V30 11910 C 1169.46 0.341583 -3.39184 0
M  V30 11911 H 1170.66 -1.32503 -2.69041 0
M  V30 11912 H 1168.21 -0.724021 -1.38519 0
M  V30 11913 H 1168.94 1.22806 -3.00149 0
M  V30 11914 H 1168.73 -0.296268 -3.90979 0
M  V30 11915 H 1170.22 0.670955 -4.12175 0
M  V30 11916 N 1170.66 1.40747 -0.709091 0
M  V30 11917 C 1171.57 2.3454 -0.0532205 0
M  V30 11918 C 1172.58 1.56956 0.751057 0
M  V30 11919 O 1173.76 1.89375 0.685509 0
M  V30 11920 C 1170.82 3.35809 0.862157 0
M  V30 11921 C 1169.88 4.29273 0.0485632 0
M  V30 11922 C 1169.12 5.25705 0.920345 0
M  V30 11923 O 1169.34 5.27933 2.15969 0
M  V30 11924 O 1168.27 6.00806 0.3628 0
M  V30 11925 H 1172.1 2.92232 -0.826698 0
M  V30 11926 H 1169.68 1.4183 -0.469519 0
M  V30 11927 H 1171.57 3.97931 1.38668 0
M  V30 11928 H 1170.24 2.8054 1.61489 0
M  V30 11929 H 1169.15 3.70456 -0.520873 0
M  V30 11930 H 1170.48 4.87676 -0.665807 0
M  V30 11931 N 1172.13 0.454803 1.50895 0
M  V30 11932 C 1173.06 -0.337982 2.31041 0
M  V30 11933 C 1174.04 -1.00523 1.37219 0
M  V30 11934 O 1175.23 -1.00553 1.66141 0
M  V30 11935 C 1172.36 -1.42964 3.1651 0
M  V30 11936 C 1171.31 -0.884907 4.18752 0
M  V30 11937 C 1170.64 -2.07363 4.92854 0
M  V30 11938 C 1171.94 0.0926716 5.22218 0
M  V30 11939 H 1173.63 0.33089 2.97566 0
M  V30 11940 H 1171.18 0.160577 1.43102 0
M  V30 11941 H 1173.13 -1.9916 3.71367 0
M  V30 11942 H 1171.86 -2.12705 2.47839 0
M  V30 11943 H 1170.52 -0.345031 3.64973 0
M  V30 11944 H 1170.16 -2.75764 4.2067 0
M  V30 11945 H 1169.86 -1.71545 5.62002 0
M  V30 11946 H 1171.39 -2.6408 5.5054 0
M  V30 11947 H 1172.8 -0.379568 5.72042 0
M  V30 11948 H 1171.2 0.3643 5.98993 0
M  V30 11949 H 1172.27 1.02383 4.73968 0
M  V30 11950 N 1173.61 -1.56489 0.186789 0
M  V30 11951 C 1174.57 -2.17478 -0.723596 0
M  V30 11952 C 1175.57 -1.12698 -1.14699 0
M  V30 11953 O 1176.76 -1.38128 -1.06143 0
M  V30 11954 C 1173.9 -2.77015 -1.98685 0
M  V30 11955 H 1175.09 -2.99282 -0.192403 0
M  V30 11956 H 1172.64 -1.56174 -0.0628153 0
M  V30 11957 H 1173.38 -1.98987 -2.56076 0
M  V30 11958 H 1173.16 -3.53711 -1.69207 0
M  V30 11959 H 1174.65 -3.23872 -2.63622 0
M  V30 11960 N 1175.09 0.086862 -1.5736 0
M  V30 11961 C 1176 1.12297 -2.05977 0
M  V30 11962 C 1177.02 1.43347 -0.986284 0
M  V30 11963 O 1178.19 1.53825 -1.3 0
M  V30 11964 C 1175.26 2.42131 -2.4814 0
M  V30 11965 C 1174.32 2.18189 -3.69719 0
M  V30 11966 C 1173.55 3.41833 -4.09861 0
M  V30 11967 O 1173.77 4.50383 -3.50016 0
M  V30 11968 O 1172.71 3.30934 -5.02759 0
M  V30 11969 H 1176.53 0.740012 -2.94546 0
M  V30 11970 H 1174.12 0.29995 -1.46358 0
M  V30 11971 H 1176 3.18568 -2.75848 0
M  V30 11972 H 1174.68 2.79837 -1.62705 0
M  V30 11973 H 1173.58 1.39506 -3.47115 0
M  V30 11974 H 1174.92 1.85372 -4.55959 0
M  V30 11975 N 1176.57 1.53483 0.357892 0
M  V30 11976 C 1177.98 1.43426 0.700073 0
M  V30 11977 C 1178.18 0.579493 1.92987 0
M  V30 11978 O 1177.24 0.0649086 2.52417 0
M  V30 11979 C 1178.55 2.86723 0.906099 0
M  V30 11980 C 1180.1 2.96405 1.00563 0
M  V30 11981 C 1180.58 4.4078 1.24407 0
M  V30 11982 N 1182.07 4.44243 1.3116 0
M  V30 11983 C 1182.8 5.53069 1.51333 0
M  V30 11984 N 1182.3 6.71928 1.68774 0
M  V30 11985 N 1184.09 5.40659 1.53765 0
M  V30 11986 H 1176.24 2.07559 -0.450894 0
M  V30 11987 H 1178.5 0.937649 -0.139711 0
M  V30 11988 H 1178.21 3.51622 0.0741579 0
M  V30 11989 H 1178.08 3.30827 1.81199 0
M  V30 11990 H 1180.47 2.31656 1.8281 0
M  V30 11991 H 1180.55 2.55684 0.0769512 0
M  V30 11992 H 1180.2 5.06105 0.426575 0
M  V30 11993 H 1180.13 4.7908 2.18608 0
M  V30 11994 H 1182.62 3.58587 1.19265 0
M  V30 11995 H 1182.93 7.50634 1.83762 0
M  V30 11996 H 1181.28 6.749 1.65937 0
M  V30 11997 H 1184.47 4.46764 1.39713 0
M  V30 11998 H 1184.64 6.25535 1.69146 0
M  V30 11999 N 1178.05 -0.61812 1.44973 0
M  V30 12000 C 1178.98 -1.74035 1.55673 0
M  V30 12001 C 1179.96 -1.65112 0.4089 0
M  V30 12002 O 1181.14 -1.83673 0.630698 0
M  V30 12003 C 1178.27 -3.1261 1.51303 0
M  V30 12004 C 1177.23 -3.36334 2.64696 0
M  V30 12005 C 1176.55 -4.75072 2.45378 0
M  V30 12006 C 1177.85 -3.27618 4.06772 0
M  V30 12007 H 1179.55 -1.65336 2.49608 0
M  V30 12008 H 1177.09 -0.794003 1.20132 0
M  V30 12009 H 1179.04 -3.90906 1.57388 0
M  V30 12010 H 1177.77 -3.22123 0.538914 0
M  V30 12011 H 1176.43 -2.60423 2.58022 0
M  V30 12012 H 1176.08 -4.81306 1.46129 0
M  V30 12013 H 1175.78 -4.91903 3.21412 0
M  V30 12014 H 1177.3 -5.55582 2.53301 0
M  V30 12015 H 1178.71 -3.95802 4.14746 0
M  V30 12016 H 1177.11 -3.55981 4.83113 0
M  V30 12017 H 1178.18 -2.25219 4.29423 0
M  V30 12018 N 1179.52 -1.32087 -0.859693 0
M  V30 12019 C 1180.77 -1.22119 -1.61033 0
M  V30 12020 C 1181.09 0.218289 -1.93774 0
M  V30 12021 O 1180.36 1.14172 -1.5919 0
M  V30 12022 H 1178.94 -0.448989 -0.597008 0
M  V30 12023 H 1181.6 -1.65545 -1.02863 0
M  V30 12024 H 1180.7 -1.80023 -2.54947 0
M  V30 12025 N 1181 1.07532 -1.15215 0
M  V30 12026 C 1181.93 2.1668 -0.870171 0
M  V30 12027 C 1182.91 1.69161 0.178483 0
M  V30 12028 O 1184.1 1.94172 0.0332489 0
M  V30 12029 C 1181.23 3.45464 -0.356666 0
M  V30 12030 C 1180.18 4.06424 -1.34179 0
M  V30 12031 C 1179.51 5.30266 -0.687206 0
M  V30 12032 C 1180.81 4.46666 -2.70715 0
M  V30 12033 H 1182.5 2.40526 -1.7829 0
M  V30 12034 H 1180.05 1.15598 -0.858665 0
M  V30 12035 H 1182 4.21144 -0.146947 0
M  V30 12036 H 1180.72 3.21199 0.591527 0
M  V30 12037 H 1179.38 3.32786 -1.53783 0
M  V30 12038 H 1179.03 5.0229 0.267077 0
M  V30 12039 H 1178.73 5.72009 -1.34462 0
M  V30 12040 H 1180.26 6.08653 -0.487218 0
M  V30 12041 H 1181.67 5.13483 -2.54966 0
M  V30 12042 H 1180.07 4.99355 -3.32813 0
M  V30 12043 H 1181.14 3.58123 -3.26919 0
M  V30 12044 N 1182.48 0.948665 1.2585 0
M  V30 12045 C 1183.9 0.652147 1.45668 0
M  V30 12046 C 1184.1 -0.792217 1.85273 0
M  V30 12047 O 1183.15 -1.56812 1.97905 0
M  V30 12048 C 1184.47 1.61998 2.53332 0
M  V30 12049 C 1186.01 1.6305 2.67178 0
M  V30 12050 C 1186.49 2.58582 3.78021 0
M  V30 12051 N 1187.98 2.56911 3.85423 0
M  V30 12052 C 1188.71 3.27511 4.70664 0
M  V30 12053 N 1188.21 4.07563 5.60236 0
M  V30 12054 N 1190 3.16427 4.64576 0
M  V30 12055 H 1182.15 1.88215 0.984325 0
M  V30 12056 H 1184.42 0.809251 0.493778 0
M  V30 12057 H 1184.12 2.65137 2.31075 0
M  V30 12058 H 1184 1.37784 3.51134 0
M  V30 12059 H 1186.38 0.606315 2.88804 0
M  V30 12060 H 1186.47 1.9132 1.69795 0
M  V30 12061 H 1186.11 3.61122 3.57146 0
M  V30 12062 H 1186.04 2.27598 4.74875 0
M  V30 12063 H 1188.53 1.9879 3.21389 0
M  V30 12064 H 1188.84 4.58367 6.22189 0
M  V30 12065 H 1187.19 4.11662 5.59964 0
M  V30 12066 H 1190.38 2.53364 3.93604 0
M  V30 12067 H 1190.55 3.71714 5.30785 0
M  V30 12068 N 1183.96 -1.40369 0.716545 0
M  V30 12069 C 1185.18 -2.05704 0.264729 0
M  V30 12070 C 1185.61 -1.53634 -1.08527 0
M  V30 12071 O 1184.97 -0.67212 -1.68381 0
M  V30 12072 C 1185.01 -3.59692 0.255778 0
M  V30 12073 O 1184.12 -4.05286 -0.762686 0
M  V30 12074 H 1183.46 -0.652301 0.124092 0
M  V30 12075 H 1185.99 -1.7975 0.977295 0
M  V30 12076 H 1186 -4.07892 0.0937944 0
M  V30 12077 H 1184.67 -3.96955 1.24095 0
M  V30 12078 H 1183.25 -3.68543 -0.568347 0
M  V30 12079 N 1185.44 -0.462799 -1.50652 0
M  V30 12080 C 1186.37 0.325724 -2.31217 0
M  V30 12081 C 1187.35 0.997942 -1.3775 0
M  V30 12082 O 1188.53 0.996707 -1.66671 0
M  V30 12083 C 1185.66 1.41283 -3.17264 0
M  V30 12084 C 1184.62 0.862687 -4.19216 0
M  V30 12085 C 1183.94 2.04746 -4.93946 0
M  V30 12086 C 1185.24 -0.120365 -5.22161 0
M  V30 12087 H 1186.94 -0.346666 -2.97386 0
M  V30 12088 H 1184.48 -0.168163 -1.43015 0
M  V30 12089 H 1186.44 1.97188 -3.72418 0
M  V30 12090 H 1185.16 2.11387 -2.48964 0
M  V30 12091 H 1183.82 0.325671 -3.65151 0
M  V30 12092 H 1183.47 2.73529 -4.22127 0
M  V30 12093 H 1183.17 1.68562 -5.62904 0
M  V30 12094 H 1184.69 2.61157 -5.51932 0
M  V30 12095 H 1186.1 0.349226 -5.72235 0
M  V30 12096 H 1184.5 -0.396061 -5.98792 0
M  V30 12097 H 1185.57 -1.04895 -4.73418 0
M  V30 12098 N 1186.91 1.56388 -0.195085 0
M  V30 12099 C 1188.16 1.97872 0.444344 0
M  V30 12100 C 1188.49 1.0819 1.61271 0
M  V30 12101 O 1187.77 0.133904 1.94039 0
M  V30 12102 C 1188.05 3.48556 0.90449 0
M  V30 12103 C 1187.9 4.49015 -0.265693 0
M  V30 12104 C 1189.22 4.02938 1.76999 0
M  V30 12105 H 1186.34 0.719413 0.160041 0
M  V30 12106 H 1188.98 1.87835 -0.286005 0
M  V30 12107 H 1187.13 3.5724 1.52682 0
M  V30 12108 H 1188.81 4.52368 -0.903363 0
M  V30 12109 H 1187.05 4.23987 -0.917462 0
M  V30 12110 H 1187.72 5.51912 0.0987834 0
M  V30 12111 H 1190.2 3.97033 1.24514 0
M  V30 12112 H 1189.07 5.08741 2.06092 0
M  V30 12113 H 1189.33 3.48197 2.72418 0
M  V30 12114 N 1188.39 -0.0785156 1.57404 0
M  V30 12115 C 1189.67 -0.811557 1.77969 0
M  V30 12116 C 1190.05 -1.96123 0.780966 0
M  V30 12117 O 1189.4 -2.27731 -0.18726 0
M  V30 12118 C 1189.61 -1.29075 3.24254 0
M  V30 12119 C 1190.96 -1.72685 3.87898 0
M  V30 12120 O 1191.98 -1.38658 3.28104 0
M  V30 12121 O 1190.84 -2.3566 4.93079 0
M  V30 12122 H 1187.93 -0.388361 0.73014 0
M  V30 12123 H 1190.48 -0.0591118 1.69597 0
M  V30 12124 H 1189.25 -0.467813 3.88494 0
M  V30 12125 H 1188.87 -2.10472 3.37324 0
M  V30 12126 N 1189.87 -1.5367 -0.349747 0
M  V30 12127 C 1191.1 -1.74547 -1.11089 0
M  V30 12128 C 1191.51 -0.481741 -1.82551 0
M  V30 12129 O 1190.87 0.546272 -1.74132 0
M  V30 12130 C 1190.92 -2.92148 -2.12913 0
M  V30 12131 O 1190.64 -4.13633 -1.44358 0
M  V30 12132 C 1192.14 -3.25027 -3.01451 0
M  V30 12133 H 1189.36 -0.583376 -0.331532 0
M  V30 12134 H 1191.91 -2.00473 -0.403841 0
M  V30 12135 H 1190.06 -2.68572 -2.79192 0
M  V30 12136 H 1190.48 -4.79601 -2.12329 0
M  V30 12137 H 1191.95 -4.10679 -3.68845 0
M  V30 12138 H 1192.43 -2.41064 -3.67131 0
M  V30 12139 H 1193.03 -3.50586 -2.40768 0
M  V30 12140 N 1191.35 0.610423 -1.45298 0
M  V30 12141 C 1192.58 1.39419 -1.52466 0
M  V30 12142 C 1192.99 1.88563 -0.1551 0
M  V30 12143 O 1192.33 1.62692 0.853061 0
M  V30 12144 C 1192.39 2.63515 -2.44541 0
M  V30 12145 C 1192.06 2.36028 -3.91331 0
M  V30 12146 C 1193.05 1.96567 -4.81308 0
M  V30 12147 C 1190.74 2.49028 -4.36223 0
M  V30 12148 C 1192.73 1.70461 -6.14184 0
M  V30 12149 C 1190.42 2.22536 -5.6914 0
M  V30 12150 C 1191.42 1.83314 -6.5794 0
M  V30 12151 O 1191.1 1.57131 -7.88394 0
M  V30 12152 H 1190.84 0.433278 -0.518889 0
M  V30 12153 H 1193.39 0.751803 -1.91147 0
M  V30 12154 H 1191.62 3.30463 -2.00826 0
M  V30 12155 H 1193.31 3.25554 -2.42424 0
M  V30 12156 H 1194.08 1.86062 -4.4789 0
M  V30 12157 H 1189.95 2.78524 -3.67349 0
M  V30 12158 H 1193.5 1.39773 -6.83454 0
M  V30 12159 H 1189.4 2.32657 -6.02114 0
M  V30 12160 H 1190.16 1.71207 -8.00394 0
M  V30 12161 N 1192.83 1.32541 0.852676 0
M  V30 12162 C 1194.24 1.11575 1.14119 0
M  V30 12163 C 1194.44 -0.102469 2.01239 0
M  V30 12164 O 1193.5 -0.786786 2.39929 0
M  V30 12165 C 1194.81 2.39624 1.81661 0
M  V30 12166 C 1196.36 2.454 1.94288 0
M  V30 12167 C 1196.83 3.73375 2.65245 0
M  V30 12168 N 1198.33 3.74368 2.72769 0
M  V30 12169 C 1199.06 4.70094 3.28328 0
M  V30 12170 N 1198.56 5.76187 3.84682 0
M  V30 12171 N 1200.35 4.57588 3.26449 0
M  V30 12172 H 1192.5 2.10644 0.272544 0
M  V30 12173 H 1194.76 0.930094 0.183385 0
M  V30 12174 H 1194.47 3.28698 1.25102 0
M  V30 12175 H 1194.34 2.50734 2.81802 0
M  V30 12176 H 1196.73 1.56784 2.50005 0
M  V30 12177 H 1196.81 2.38241 0.931379 0
M  V30 12178 H 1196.46 4.62366 2.10191 0
M  V30 12179 H 1196.39 3.77806 3.66838 0
M  V30 12180 H 1198.88 2.97685 2.32791 0
M  V30 12181 H 1199.19 6.45285 4.25238 0
M  V30 12182 H 1197.53 5.79939 3.83008 0
M  V30 12183 H 1200.73 3.7387 2.81672 0
M  V30 12184 H 1200.9 5.32365 3.69448 0
M  V30 12185 N 1194.3 -1.0692 1.15784 0
M  V30 12186 C 1195.24 -2.14168 0.816375 0
M  V30 12187 C 1196.25 -1.61872 -0.17357 0
M  V30 12188 O 1197.44 -1.78429 0.0502973 0
M  V30 12189 C 1194.54 -3.38346 0.193682 0
M  V30 12190 C 1193.71 -4.19979 1.22215 0
M  V30 12191 C 1192.77 -5.2253 0.620424 0
M  V30 12192 O 1191.8 -5.54446 1.28757 0
M  V30 12193 N 1193 -5.77434 -0.595811 0
M  V30 12194 H 1195.76 -2.44062 1.73937 0
M  V30 12195 H 1193.32 -1.22865 1.05431 0
M  V30 12196 H 1195.32 -4.04092 -0.22174 0
M  V30 12197 H 1193.89 -3.06129 -0.632735 0
M  V30 12198 H 1193.11 -3.49984 1.81397 0
M  V30 12199 H 1194.39 -4.71329 1.91641 0
M  V30 12200 H 1193.79 -5.5376 -1.15611 0
M  V30 12201 H 1192.35 -6.44788 -0.953529 0
M  V30 12202 N 1195.78 -0.955326 -1.25345 0
M  V30 12203 C 1197.01 -0.627693 -1.97149 0
M  V30 12204 C 1197.43 0.800349 -1.70997 0
M  V30 12205 O 1196.78 1.53545 -0.986417 0
M  V30 12206 C 1196.83 -0.877675 -3.50684 0
M  V30 12207 O 1196.55 -2.24957 -3.75934 0
M  V30 12208 C 1198.06 -0.562524 -4.39716 0
M  V30 12209 H 1195.28 -0.235269 -0.628402 0
M  V30 12210 H 1197.82 -1.27989 -1.59496 0
M  V30 12211 H 1195.97 -0.271878 -3.86445 0
M  V30 12212 H 1196.39 -2.32022 -4.70389 0
M  V30 12213 H 1197.86 -0.787972 -5.46347 0
M  V30 12214 H 1198.34 0.50293 -4.36311 0
M  V30 12215 H 1198.95 -1.14767 -4.09522 0
M  V30 12216 N 1197.26 1.39987 -0.723979 0
M  V30 12217 C 1198.49 2.05037 -0.27702 0
M  V30 12218 C 1198.9 1.54565 1.08421 0
M  V30 12219 O 1198.26 0.705795 1.683 0
M  V30 12220 C 1198.31 3.60582 -0.25751 0
M  V30 12221 O 1198.03 4.09194 -1.565 0
M  V30 12222 C 1199.53 4.42817 0.206972 0
M  V30 12223 H 1196.75 0.659637 -0.122963 0
M  V30 12224 H 1199.3 1.7924 -0.98454 0
M  V30 12225 H 1197.45 3.85319 0.401037 0
M  V30 12226 H 1197.87 5.03447 -1.47112 0
M  V30 12227 H 1199.34 5.5174 0.16947 0
M  V30 12228 H 1199.82 4.21023 1.25045 0
M  V30 12229 H 1200.42 4.23205 -0.421604 0
M  V30 12230 N 1198.74 0.470782 1.50404 0
M  V30 12231 C 1199.96 -0.084284 2.07229 0
M  V30 12232 C 1200.39 -1.32774 1.33239 0
M  V30 12233 O 1199.75 -1.77274 0.379971 0
M  V30 12234 C 1199.8 -0.351565 3.58882 0
M  V30 12235 O 1198.9 -1.43211 3.86736 0
M  V30 12236 H 1198.24 0.0128479 0.663876 0
M  V30 12237 H 1200.77 0.661735 1.93603 0
M  V30 12238 H 1200.78 -0.592151 4.0368 0
M  V30 12239 H 1199.46 0.557084 4.12152 0
M  V30 12240 H 1198.03 -1.17886 3.53776 0
M  V30 12241 N 1200.22 -1.56282 0.203376 0
M  V30 12242 C 1201.63 -1.84146 -0.307752 0
M  V30 12243 C 1201.98 -1.12429 -1.60792 0
M  V30 12244 O 1201.1 -0.387852 -2.12896 0
M  V30 12245 C 1201.7 -3.34053 -0.565152 0
M  V30 12246 C 1200.26 -3.62298 -1.02063 0
M  V30 12247 C 1199.41 -2.77202 -0.0737343 0
M  V30 12248 H 1202.36 -1.52848 0.426983 0
M  V30 12249 H 1202.38 -3.53273 -1.41345 0
M  V30 12250 H 1201.89 -3.86222 0.381301 0
M  V30 12251 H 1199.99 -3.1557 -1.98107 0
M  V30 12252 H 1200.1 -4.70424 -0.907614 0
M  V30 12253 H 1198.47 -2.48074 -0.577169 0
M  V30 12254 H 1199.25 -3.32164 0.86731 0
M  V30 12255 N 1201.7 0.070167 -1.57444 0
M  V30 12256 C 1202.92 0.785703 -1.91941 0
M  V30 12257 C 1203.35 1.70243 -0.799932 0
M  V30 12258 O 1202.7 1.79608 0.247139 0
M  V30 12259 C 1202.75 1.55398 -3.25398 0
M  V30 12260 O 1201.86 2.66475 -3.14746 0
M  V30 12261 H 1201.2 0.214245 -0.628486 0
M  V30 12262 H 1203.73 0.0379243 -2.04565 0
M  V30 12263 H 1203.74 1.93287 -3.5931 0
M  V30 12264 H 1202.41 0.881366 -4.06454 0
M  V30 12265 H 1200.99 2.3143 -2.92394 0
M  V30 12266 N 1203.17 1.53854 0.341593 0
M  V30 12267 C 1204.42 1.70856 1.07948 0
M  V30 12268 C 1204.74 0.475474 1.89114 0
M  V30 12269 O 1204.01 -0.510592 1.89129 0
M  V30 12270 H 1202.59 0.629914 0.401519 0
M  V30 12271 H 1205.25 1.91112 0.382393 0
M  V30 12272 H 1204.35 2.5803 1.75575 0
M  V30 12273 N 1204.65 -0.602709 1.4562 0
M  V30 12274 C 1205.88 -1.39299 1.53657 0
M  V30 12275 C 1206.3 -1.87315 0.171632 0
M  V30 12276 O 1205.66 -1.60423 -0.844639 0
M  V30 12277 C 1205.71 -2.57021 2.52928 0
M  V30 12278 O 1204.81 -3.57812 2.05047 0
M  V30 12279 H 1204.15 -0.41567 0.517798 0
M  V30 12280 H 1206.68 -0.73304 1.91018 0
M  V30 12281 H 1206.69 -3.04202 2.71892 0
M  V30 12282 H 1205.37 -2.21422 3.52058 0
M  V30 12283 H 1203.94 -3.17247 1.95981 0
M  V30 12284 N 1206.13 -1.32992 -0.845635 0
M  V30 12285 C 1207.06 -1.25301 -1.97033 0
M  V30 12286 C 1208.04 -0.134966 -1.69564 0
M  V30 12287 O 1209.23 -0.323629 -1.91484 0
M  V30 12288 C 1206.36 -0.984551 -3.33052 0
M  V30 12289 C 1205.31 -2.06481 -3.749 0
M  V30 12290 C 1204.64 -1.6486 -5.08651 0
M  V30 12291 C 1205.94 -3.48083 -3.89404 0
M  V30 12292 H 1207.63 -2.194 -2.03725 0
M  V30 12293 H 1205.18 -1.05621 -0.978783 0
M  V30 12294 H 1207.13 -0.917269 -4.11296 0
M  V30 12295 H 1205.85 -0.00793116 -3.26599 0
M  V30 12296 H 1204.51 -2.1224 -2.98915 0
M  V30 12297 H 1204.16 -0.659183 -4.98662 0
M  V30 12298 H 1203.86 -2.37145 -5.37621 0
M  V30 12299 H 1205.38 -1.59585 -5.89377 0
M  V30 12300 H 1206.8 -3.44863 -4.57976 0
M  V30 12301 H 1205.19 -4.18796 -4.29802 0
M  V30 12302 H 1206.26 -3.87084 -2.92051 0
M  V30 12303 N 1207.61 1.06304 -1.1635 0
M  V30 12304 C 1208.54 2.15745 -0.893103 0
M  V30 12305 C 1209.52 1.69341 0.160531 0
M  V30 12306 O 1210.7 1.94196 0.0126526 0
M  V30 12307 C 1207.83 3.45066 -0.393287 0
M  V30 12308 C 1206.79 4.04978 -1.38482 0
M  V30 12309 C 1206.11 5.29507 -0.743409 0
M  V30 12310 C 1207.41 4.4377 -2.75438 0
M  V30 12311 H 1209.11 2.38622 -1.80831 0
M  V30 12312 H 1206.65 1.14681 -0.870878 0
M  V30 12313 H 1208.61 4.20964 -0.191607 0
M  V30 12314 H 1207.33 3.21808 0.557426 0
M  V30 12315 H 1205.99 3.31136 -1.57304 0
M  V30 12316 H 1205.64 5.02545 0.213787 0
M  V30 12317 H 1205.34 5.7055 -1.40521 0
M  V30 12318 H 1206.86 6.08102 -0.551746 0
M  V30 12319 H 1208.28 5.1075 -2.60398 0
M  V30 12320 H 1206.67 4.95797 -3.38091 0
M  V30 12321 H 1207.74 3.54636 -3.30699 0
M  V30 12322 N 1209.09 0.96196 1.24836 0
M  V30 12323 C 1210.5 0.667561 1.44968 0
M  V30 12324 C 1210.7 -0.772521 1.86103 0
M  V30 12325 O 1209.76 -1.54704 1.99557 0
M  V30 12326 C 1211.07 1.64675 2.516 0
M  V30 12327 C 1212.62 1.65874 2.65433 0
M  V30 12328 C 1213.09 2.62576 3.75257 0
M  V30 12329 N 1214.58 2.60984 3.82677 0
M  V30 12330 C 1215.32 3.32484 4.67163 0
M  V30 12331 N 1214.82 4.13482 5.55882 0
M  V30 12332 N 1216.61 3.21336 4.61193 0
M  V30 12333 H 1208.76 1.89248 0.964307 0
M  V30 12334 H 1211.02 0.814443 0.485167 0
M  V30 12335 H 1210.73 2.67572 2.2825 0
M  V30 12336 H 1210.6 1.415 3.49653 0
M  V30 12337 H 1212.99 0.636912 2.88145 0
M  V30 12338 H 1213.07 1.9311 1.67756 0
M  V30 12339 H 1212.71 3.6489 3.53295 0
M  V30 12340 H 1212.64 2.32622 4.72435 0
M  V30 12341 H 1215.14 2.02187 3.19263 0
M  V30 12342 H 1215.45 4.6494 6.17293 0
M  V30 12343 H 1213.79 4.17578 5.55566 0
M  V30 12344 H 1216.98 2.57524 3.90895 0
M  V30 12345 H 1217.16 3.77323 5.26812 0
M  V30 12346 N 1210.56 -1.39601 0.731392 0
M  V30 12347 C 1211.79 -2.05411 0.286532 0
M  V30 12348 C 1212.21 -1.54777 -1.06892 0
M  V30 12349 O 1211.57 -0.689942 -1.67659 0
M  V30 12350 C 1211.62 -3.594 0.293914 0
M  V30 12351 O 1210.72 -4.06072 -0.719657 0
M  V30 12352 H 1210.06 -0.650949 0.131004 0
M  V30 12353 H 1212.59 -1.78703 0.996305 0
M  V30 12354 H 1212.6 -4.0777 0.137052 0
M  V30 12355 H 1211.28 -3.95617 1.28298 0
M  V30 12356 H 1209.86 -3.69125 -0.529226 0
M  V30 12357 N 1212.04 -0.478751 -1.50152 0
M  V30 12358 C 1213.27 0.0709455 -2.06478 0
M  V30 12359 C 1213.68 1.33376 -1.34192 0
M  V30 12360 O 1213.02 1.79133 -0.40707 0
M  V30 12361 C 1213.09 0.417322 -3.5707 0
M  V30 12362 C 1212.75 -0.744563 -4.50894 0
M  V30 12363 C 1213.75 -1.62879 -4.93727 0
M  V30 12364 C 1211.43 -0.937062 -4.93482 0
M  V30 12365 C 1213.43 -2.68985 -5.77863 0
M  V30 12366 C 1211.11 -2.00134 -5.77399 0
M  V30 12367 C 1212.11 -2.87609 -6.19492 0
M  V30 12368 O 1211.8 -3.92203 -7.01735 0
M  V30 12369 H 1211.53 -0.00720177 -0.675962 0
M  V30 12370 H 1214.08 -0.668797 -1.94207 0
M  V30 12371 H 1212.31 1.21036 -3.6727 0
M  V30 12372 H 1214 0.903002 -3.95728 0
M  V30 12373 H 1214.77 -1.49179 -4.61488 0
M  V30 12374 H 1210.65 -0.265636 -4.60234 0
M  V30 12375 H 1214.19 -3.37293 -6.10639 0
M  V30 12376 H 1210.09 -2.13837 -6.09052 0
M  V30 12377 H 1210.86 -3.89284 -7.2 0
M  V30 12378 N 1213.52 1.56172 -0.211661 0
M  V30 12379 C 1214.43 2.23468 0.714081 0
M  V30 12380 C 1215.45 1.23908 1.22159 0
M  V30 12381 O 1216.62 1.56693 1.26528 0
M  V30 12382 C 1213.69 2.89375 1.90953 0
M  V30 12383 C 1212.75 4.04251 1.44497 0
M  V30 12384 C 1211.98 4.67006 2.58343 0
M  V30 12385 O 1212.2 4.28721 3.76237 0
M  V30 12386 O 1211.14 5.56177 2.3011 0
M  V30 12387 H 1214.96 3.03219 0.170862 0
M  V30 12388 H 1212.55 1.49389 0.0183607 0
M  V30 12389 H 1214.43 3.3101 2.60787 0
M  V30 12390 H 1213.11 2.12591 2.44104 0
M  V30 12391 H 1212.01 3.67205 0.714932 0
M  V30 12392 H 1213.35 4.82748 0.959947 0
M  V30 12393 N 1215 -0.0618163 1.57479 0
M  V30 12394 C 1215.93 -1.07252 2.07411 0
M  V30 12395 C 1216.91 -1.39756 0.969649 0
M  V30 12396 O 1218.09 -1.4921 1.24298 0
M  V30 12397 C 1215.22 -2.38313 2.52635 0
M  V30 12398 C 1214.18 -2.20136 3.67048 0
M  V30 12399 C 1213.5 -3.56668 3.98361 0
M  V30 12400 C 1214.8 -1.61437 4.96725 0
M  V30 12401 H 1216.5 -0.656983 2.92103 0
M  V30 12402 H 1214.04 -0.314579 1.40522 0
M  V30 12403 H 1216 -3.09319 2.86181 0
M  V30 12404 H 1214.72 -2.81865 1.64984 0
M  V30 12405 H 1213.38 -1.51569 3.338 0
M  V30 12406 H 1213.03 -3.97809 3.07826 0
M  V30 12407 H 1212.73 -3.45342 4.75408 0
M  V30 12408 H 1214.25 -4.2909 4.34413 0
M  V30 12409 H 1215.67 -2.2232 5.28438 0
M  V30 12410 H 1214.06 -1.60779 5.78161 0
M  V30 12411 H 1215.13 -0.576795 4.81457 0
M  V30 12412 N 1216.48 -1.54033 -0.333429 0
M  V30 12413 C 1217.44 -1.82021 -1.39288 0
M  V30 12414 C 1218.44 -0.691623 -1.45166 0
M  V30 12415 O 1219.63 -0.959925 -1.45365 0
M  V30 12416 C 1216.76 -1.97136 -2.78119 0
M  V30 12417 H 1217.95 -2.76671 -1.1573 0
M  V30 12418 H 1215.51 -1.45599 -0.568376 0
M  V30 12419 H 1216.24 -1.04663 -3.06946 0
M  V30 12420 H 1216.03 -2.79251 -2.75247 0
M  V30 12421 H 1217.52 -2.20271 -3.54782 0
M  V30 12422 N 1217.95 0.594978 -1.45938 0
M  V30 12423 C 1219.2 1.35093 -1.50314 0
M  V30 12424 C 1219.52 1.94412 -0.151315 0
M  V30 12425 O 1218.79 1.77876 0.820787 0
M  V30 12426 H 1217.37 0.501549 -0.553586 0
M  V30 12427 H 1220.04 0.697735 -1.81983 0
M  V30 12428 H 1219.13 2.16393 -2.24901 0
M  V30 12429 N 1219.43 1.33438 0.838571 0
M  V30 12430 C 1220.68 1.24665 1.59069 0
M  V30 12431 C 1221 -0.187433 1.94097 0
M  V30 12432 O 1220.27 -1.11625 1.60987 0
M  V30 12433 H 1218.85 0.45843 0.589789 0
M  V30 12434 H 1221.51 1.67161 1.00216 0
M  V30 12435 H 1220.61 1.84057 2.52051 0
M  V30 12436 N 1220.91 -1.05686 1.16912 0
M  V30 12437 C 1222.19 -1.7546 0.864483 0
M  V30 12438 C 1222.57 -2.0128 -0.636359 0
M  V30 12439 O 1221.92 -1.64485 -1.58609 0
M  V30 12440 C 1222.13 -3.05134 1.69395 0
M  V30 12441 C 1223.47 -3.79176 1.91079 0
M  V30 12442 O 1224.5 -3.1499 1.66312 0
M  V30 12443 O 1223.36 -4.94496 2.32671 0
M  V30 12444 H 1220.45 -0.762748 0.319601 0
M  V30 12445 H 1223 -1.11899 1.27581 0
M  V30 12446 H 1221.77 -2.82063 2.71212 0
M  V30 12447 H 1221.39 -3.76431 1.28007 0
M  V30 12448 N 1222.39 -0.968567 -1.24324 0
M  V30 12449 C 1223.32 -0.518323 -2.27674 0
M  V30 12450 C 1224.3 0.442479 -1.64244 0
M  V30 12451 O 1225.48 0.338416 -1.91229 0
M  V30 12452 C 1222.61 0.191459 -3.46772 0
M  V30 12453 C 1221.57 -0.685449 -4.22476 0
M  V30 12454 C 1220.89 0.155873 -5.34473 0
M  V30 12455 C 1222.19 -1.97047 -4.83704 0
M  V30 12456 H 1223.89 -1.38215 -2.65588 0
M  V30 12457 H 1221.43 -0.66604 -1.27671 0
M  V30 12458 H 1223.39 0.517667 -4.18208 0
M  V30 12459 H 1222.11 1.08965 -3.07887 0
M  V30 12460 H 1220.77 -0.994942 -3.52841 0
M  V30 12461 H 1220.42 1.05424 -4.91828 0
M  V30 12462 H 1220.12 -0.427655 -5.86042 0
M  V30 12463 H 1221.64 0.476733 -6.08736 0
M  V30 12464 H 1223.06 -1.70979 -5.4721 0
M  V30 12465 H 1221.45 -2.50079 -5.45509 0
M  V30 12466 H 1222.52 -2.66484 -4.0511 0
M  V30 12467 N 1223.87 1.39211 -0.738786 0
M  V30 12468 C 1224.83 2.28937 -0.109746 0
M  V30 12469 C 1225.83 1.46488 0.663157 0
M  V30 12470 O 1227.02 1.67119 0.491614 0
M  V30 12471 C 1224.15 3.30039 0.853633 0
M  V30 12472 H 1225.34 2.86068 -0.900295 0
M  V30 12473 H 1222.9 1.47922 -0.504853 0
M  V30 12474 H 1223.63 2.77971 1.6704 0
M  V30 12475 H 1223.42 3.90935 0.302007 0
M  V30 12476 H 1224.91 3.97169 1.29022 0
M  V30 12477 N 1225.34 0.486708 1.49896 0
M  V30 12478 C 1226.59 -0.0627279 2.02003 0
M  V30 12479 C 1226.91 -1.38799 1.36967 0
M  V30 12480 O 1226.18 -1.88868 0.520173 0
M  V30 12481 H 1224.76 -0.0261718 0.746541 0
M  V30 12482 H 1227.43 0.640692 1.84068 0
M  V30 12483 H 1226.52 -0.202856 3.1144 0
M  V30 12484 N 1226.82 -1.56058 0.219941 0
M  V30 12485 C 1227.75 -2.2321 -0.685547 0
M  V30 12486 C 1228.73 -1.20328 -1.20229 0
M  V30 12487 O 1229.92 -1.48909 -1.24659 0
M  V30 12488 C 1227.05 -2.91076 -1.89452 0
M  V30 12489 C 1226 -4.00415 -1.51169 0
M  V30 12490 C 1225.33 -4.55569 -2.79931 0
M  V30 12491 C 1226.63 -5.17549 -0.702896 0
M  V30 12492 H 1228.32 -2.99136 -0.125671 0
M  V30 12493 H 1225.87 -1.43879 -0.0590043 0
M  V30 12494 H 1227.82 -3.36744 -2.53341 0
M  V30 12495 H 1226.55 -2.12594 -2.47934 0
M  V30 12496 H 1225.21 -3.55475 -0.896275 0
M  V30 12497 H 1224.85 -3.73819 -3.36553 0
M  V30 12498 H 1224.55 -5.29361 -2.55049 0
M  V30 12499 H 1226.08 -5.03955 -3.44764 0
M  V30 12500 H 1227.49 -5.59608 -1.24544 0
M  V30 12501 H 1225.89 -5.97563 -0.551234 0
M  V30 12502 H 1226.96 -4.84027 0.29083 0
M  V30 12503 N 1228.3 0.053464 -1.57509 0
M  V30 12504 C 1229.23 1.06151 -2.07977 0
M  V30 12505 C 1230.21 1.3924 -0.977047 0
M  V30 12506 O 1231.4 1.48549 -1.25087 0
M  V30 12507 C 1228.53 2.36969 -2.53895 0
M  V30 12508 C 1227.48 2.18186 -3.6821 0
M  V30 12509 C 1226.81 3.54551 -4.00247 0
M  V30 12510 C 1228.11 1.588 -4.97574 0
M  V30 12511 H 1229.8 0.641483 -2.92447 0
M  V30 12512 H 1227.35 0.307122 -1.40687 0
M  V30 12513 H 1229.3 3.07797 -2.87817 0
M  V30 12514 H 1228.02 2.80986 -1.66476 0
M  V30 12515 H 1226.68 1.49796 -3.34599 0
M  V30 12516 H 1226.33 3.96171 -3.09932 0
M  V30 12517 H 1226.03 3.42816 -4.77232 0
M  V30 12518 H 1227.56 4.2678 -4.36682 0
M  V30 12519 H 1228.97 2.19515 -5.29609 0
M  V30 12520 H 1227.37 1.57711 -5.79006 0
M  V30 12521 H 1228.44 0.551254 -4.81756 0
M  V30 12522 N 1229.78 1.54207 0.325255 0
M  V30 12523 C 1230.69 1.86495 1.42326 0
M  V30 12524 C 1231.71 0.756718 1.56684 0
M  V30 12525 O 1232.88 1.05084 1.71812 0
M  V30 12526 C 1229.95 2.08414 2.77064 0
M  V30 12527 C 1229.01 3.32221 2.71897 0
M  V30 12528 C 1228.24 3.53085 4.00209 0
M  V30 12529 O 1228.46 2.77421 4.98391 0
M  V30 12530 O 1227.4 4.46559 4.0357 0
M  V30 12531 H 1231.22 2.79859 1.17951 0
M  V30 12532 H 1228.81 1.40091 0.519124 0
M  V30 12533 H 1230.69 2.24171 3.56827 0
M  V30 12534 H 1229.37 1.18238 3.01333 0
M  V30 12535 H 1228.27 3.21851 1.90691 0
M  V30 12536 H 1229.61 4.22449 2.52582 0
M  V30 12537 N 1231.26 -0.58723 1.46251 0
M  V30 12538 C 1232.22 -1.67863 1.5606 0
M  V30 12539 C 1233.22 -1.54715 0.438162 0
M  V30 12540 O 1234.41 -1.59415 0.702323 0
M  V30 12541 C 1231.54 -3.07262 1.47659 0
M  V30 12542 H 1232.74 -1.60525 2.53321 0
M  V30 12543 H 1230.29 -0.804691 1.33994 0
M  V30 12544 H 1231.02 -3.20159 0.5166 0
M  V30 12545 H 1230.81 -3.18213 2.29092 0
M  V30 12546 H 1232.3 -3.8672 1.57599 0
M  V30 12547 N 1232.74 -1.33881 -0.831482 0
M  V30 12548 C 1233.67 -1.27384 -1.95693 0
M  V30 12549 C 1234.65 -0.152943 -1.69411 0
M  V30 12550 O 1235.83 -0.34392 -1.9113 0
M  V30 12551 C 1232.96 -1.01982 -3.31989 0
M  V30 12552 C 1231.92 -2.10445 -3.72689 0
M  V30 12553 C 1231.24 -1.70245 -5.06873 0
M  V30 12554 C 1232.54 -3.52194 -3.8569 0
M  V30 12555 H 1234.24 -2.21549 -2.01386 0
M  V30 12556 H 1231.78 -1.06653 -0.967526 0
M  V30 12557 H 1233.73 -0.960841 -4.103 0
M  V30 12558 H 1232.46 -0.0425709 -3.26572 0
M  V30 12559 H 1231.12 -2.15398 -2.96647 0
M  V30 12560 H 1230.77 -0.712036 -4.97935 0
M  V30 12561 H 1230.47 -2.42834 -5.35075 0
M  V30 12562 H 1231.99 -1.65827 -5.87651 0
M  V30 12563 H 1233.4 -3.49701 -4.54293 0
M  V30 12564 H 1231.8 -4.23331 -4.25336 0
M  V30 12565 H 1232.87 -3.9016 -2.87929 0
M  V30 12566 N 1234.21 1.05064 -1.1747 0
M  V30 12567 C 1235.44 1.82299 -0.98903 0
M  V30 12568 C 1235.86 1.82441 0.457907 0
M  V30 12569 O 1235.22 1.23433 1.32793 0
M  V30 12570 C 1235.27 3.26239 -1.53624 0
M  V30 12571 O 1234.37 4.05507 -0.750857 0
M  V30 12572 H 1233.71 0.563601 -0.35107 0
M  V30 12573 H 1236.24 1.32386 -1.55997 0
M  V30 12574 H 1236.25 3.77038 -1.55906 0
M  V30 12575 H 1234.93 3.25451 -2.58949 0
M  V30 12576 H 1233.51 3.64227 -0.799548 0
M  V30 12577 N 1235.69 0.975146 1.23809 0
M  V30 12578 C 1236.97 0.557725 1.8748 0
M  V30 12579 C 1237.35 -0.965164 1.87744 0
M  V30 12580 O 1236.7 -1.83966 1.35531 0
M  V30 12581 C 1236.91 1.15777 3.29236 0
M  V30 12582 C 1238.25 1.24726 4.05868 0
M  V30 12583 O 1239.28 1.11084 3.38436 0
M  V30 12584 O 1238.14 1.46373 5.26533 0
M  V30 12585 H 1235.23 0.187045 0.80557 0
M  V30 12586 H 1237.78 1.06989 1.31725 0
M  V30 12587 H 1236.55 2.20023 3.23583 0
M  V30 12588 H 1236.17 0.630103 3.92575 0
M  V30 12589 N 1237.17 -1.38817 0.746158 0
M  V30 12590 C 1238.1 -2.28116 0.0620717 0
M  V30 12591 C 1239.08 -1.44984 -0.736097 0
M  V30 12592 O 1240.26 -1.7436 -0.7163 0
M  V30 12593 C 1237.39 -3.25992 -0.919065 0
M  V30 12594 C 1236.44 -4.25992 -0.208033 0
M  V30 12595 S 1237.27 -5.24374 1.08593 0
M  V30 12596 C 1238.43 -6.25807 0.107674 0
M  V30 12597 H 1238.66 -2.85787 0.819331 0
M  V30 12598 H 1236.19 -1.44708 0.538422 0
M  V30 12599 H 1238.15 -3.82899 -1.47982 0
M  V30 12600 H 1236.81 -2.67318 -1.64924 0
M  V30 12601 H 1236 -4.9495 -0.95084 0
M  V30 12602 H 1235.61 -3.72943 0.280998 0
M  V30 12603 H 1237.9 -6.73568 -0.728905 0
M  V30 12604 H 1238.84 -7.03959 0.764698 0
M  V30 12605 H 1239.25 -5.63855 -0.269706 0
M  V30 12606 N 1238.65 -0.49465 -1.49636 0
M  V30 12607 C 1239.9 0.0520143 -2.02033 0
M  V30 12608 C 1240.22 1.38071 -1.37701 0
M  V30 12609 O 1239.49 1.88589 -0.530181 0
M  V30 12610 H 1238.07 0.0222123 -0.74667 0
M  V30 12611 H 1240.73 -0.650445 -1.83726 0
M  V30 12612 H 1239.82 0.186337 -3.11543 0
M  V30 12613 N 1240.13 1.55939 -0.228214 0
M  V30 12614 C 1241.06 2.2357 0.6737 0
M  V30 12615 C 1242.04 1.20964 1.1959 0
M  V30 12616 O 1243.22 1.49568 1.23867 0
M  V30 12617 C 1240.35 2.92076 1.87906 0
M  V30 12618 C 1239.31 4.01211 1.49043 0
M  V30 12619 C 1238.63 4.57047 2.77511 0
M  V30 12620 C 1239.93 5.17914 0.67544 0
M  V30 12621 H 1241.63 2.99199 0.109806 0
M  V30 12622 H 1239.17 1.43908 0.0513732 0
M  V30 12623 H 1241.12 3.38083 2.51551 0
M  V30 12624 H 1239.85 2.13906 2.46803 0
M  V30 12625 H 1238.51 3.55945 0.877411 0
M  V30 12626 H 1238.16 3.75599 3.34566 0
M  V30 12627 H 1237.86 5.30707 2.52239 0
M  V30 12628 H 1239.38 5.05776 3.42087 0
M  V30 12629 H 1240.79 5.60261 1.21575 0
M  V30 12630 H 1239.19 5.97847 0.519536 0
M  V30 12631 H 1240.26 4.83866 -0.316495 0
M  V30 12632 N 1241.6 -0.0451101 1.57535 0
M  V30 12633 C 1242.51 -1.06796 2.08882 0
M  V30 12634 C 1243.53 -1.40682 1.02394 0
M  V30 12635 O 1244.71 -1.50324 1.34033 0
M  V30 12636 C 1241.77 -2.35467 2.54472 0
M  V30 12637 C 1240.83 -2.0831 3.75374 0
M  V30 12638 C 1240.07 -3.30846 4.1878 0
M  V30 12639 O 1240.29 -4.40945 3.61834 0
M  V30 12640 O 1239.22 -3.17488 5.11356 0
M  V30 12641 H 1243.05 -0.661658 2.96405 0
M  V30 12642 H 1240.63 -0.26104 1.47102 0
M  V30 12643 H 1242.52 -3.11143 2.84198 0
M  V30 12644 H 1241.19 -2.75425 1.70068 0
M  V30 12645 H 1240.1 -1.30254 3.50692 0
M  V30 12646 H 1241.43 -1.73218 4.60713 0
M  V30 12647 N 1243.08 -1.54377 -0.317073 0
M  V30 12648 C 1243.99 -1.87247 -1.41335 0
M  V30 12649 C 1245.01 -0.765017 -1.5628 0
M  V30 12650 O 1246.18 -1.05994 -1.71252 0
M  V30 12651 C 1243.25 -2.0988 -2.75955 0
M  V30 12652 C 1242.31 -3.33658 -2.70131 0
M  V30 12653 C 1241.54 -3.55202 -3.9833 0
M  V30 12654 O 1241.77 -2.80061 -4.96913 0
M  V30 12655 O 1240.7 -4.48693 -4.01196 0
M  V30 12656 H 1244.53 -2.80481 -1.16465 0
M  V30 12657 H 1242.11 -1.40364 -0.511687 0
M  V30 12658 H 1243.99 -2.2606 -3.55633 0
M  V30 12659 H 1242.67 -1.19834 -3.00702 0
M  V30 12660 H 1241.58 -3.22857 -1.88981 0
M  V30 12661 H 1242.91 -4.23782 -2.50338 0
M  V30 12662 N 1244.56 0.579466 -1.4656 0
M  V30 12663 C 1245.81 1.33492 -1.51738 0
M  V30 12664 C 1246.13 1.94241 -0.171926 0
M  V30 12665 O 1245.4 1.78737 0.801875 0
M  V30 12666 H 1243.98 0.49565 -0.558874 0
M  V30 12667 H 1246.64 0.678394 -1.82712 0
M  V30 12668 H 1245.74 2.13995 -2.27183 0
M  V30 12669 N 1246.04 1.3432 0.824371 0
M  V30 12670 C 1247.28 1.26783 1.58284 0
M  V30 12671 C 1247.62 -0.162282 1.93521 0
M  V30 12672 O 1246.89 -1.1073 1.59903 0
M  V30 12673 C 1247.18 2.15725 2.88331 0
M  V30 12674 C 1247.03 3.67266 2.59684 0
M  V30 12675 C 1248.35 2.04141 3.8989 0
M  V30 12676 H 1245.47 0.461893 0.574303 0
M  V30 12677 H 1248.11 1.64558 0.949769 0
M  V30 12678 H 1246.26 1.83639 3.42358 0
M  V30 12679 H 1247.93 4.09711 2.11978 0
M  V30 12680 H 1246.17 3.88426 1.93151 0
M  V30 12681 H 1246.84 4.24863 3.52414 0
M  V30 12682 H 1249.32 2.3231 3.45212 0
M  V30 12683 H 1248.2 2.68601 4.7869 0
M  V30 12684 H 1248.46 1.01795 4.30221 0
M  V30 12685 N 1247.52 -1.0444 1.18026 0
M  V30 12686 C 1248.93 -1.29766 0.929143 0
M  V30 12687 C 1249.13 -1.97338 -0.407436 0
M  V30 12688 O 1248.19 -2.25166 -1.14265 0
M  V30 12689 C 1249.5 -2.16002 2.09197 0
M  V30 12690 C 1251.05 -2.29361 2.12985 0
M  V30 12691 C 1251.52 -3.18962 3.28675 0
M  V30 12692 N 1253.02 -3.26549 3.28512 0
M  V30 12693 C 1253.75 -3.96025 4.14671 0
M  V30 12694 N 1253.25 -4.67863 5.10956 0
M  V30 12695 N 1255.04 -3.92266 4.02597 0
M  V30 12696 H 1247.19 -0.58984 2.04046 0
M  V30 12697 H 1249.45 -0.322752 0.891367 0
M  V30 12698 H 1249.16 -1.73653 3.05839 0
M  V30 12699 H 1249.03 -3.16667 2.04943 0
M  V30 12700 H 1251.42 -2.70948 1.16924 0
M  V30 12701 H 1251.5 -1.28299 2.21298 0
M  V30 12702 H 1251.15 -2.78087 4.25006 0
M  V30 12703 H 1251.08 -4.20047 3.17598 0
M  V30 12704 H 1253.57 -2.75371 2.58804 0
M  V30 12705 H 1253.88 -5.1846 5.73079 0
M  V30 12706 H 1252.22 -4.6678 5.14919 0
M  V30 12707 H 1255.42 -3.35273 3.26665 0
M  V30 12708 H 1255.59 -4.4614 4.69961 0
M  V30 12709 N 1248.99 -0.981699 -1.2329 0
M  V30 12710 C 1249.92 -0.542441 -2.27112 0
M  V30 12711 C 1250.91 0.425034 -1.64704 0
M  V30 12712 O 1252.09 0.318114 -1.91577 0
M  V30 12713 C 1249.22 0.154668 -3.46955 0
M  V30 12714 C 1248.17 -0.73022 -4.21725 0
M  V30 12715 C 1247.5 0.0991766 -5.34608 0
M  V30 12716 C 1248.8 -2.02166 -4.81587 0
M  V30 12717 H 1250.49 -1.41024 -2.64107 0
M  V30 12718 H 1248.04 -0.679544 -1.26957 0
M  V30 12719 H 1249.99 0.473281 -4.18734 0
M  V30 12720 H 1248.72 1.05693 -3.09025 0
M  V30 12721 H 1247.38 -1.03231 -3.51765 0
M  V30 12722 H 1247.02 1.00201 -4.92919 0
M  V30 12723 H 1246.72 -0.489788 -5.85555 0
M  V30 12724 H 1248.25 0.412141 -6.09207 0
M  V30 12725 H 1249.66 -1.76773 -5.45366 0
M  V30 12726 H 1248.06 -2.55851 -5.42826 0
M  V30 12727 H 1249.13 -2.70766 -4.02261 0
M  V30 12728 N 1250.47 1.3842 -0.753509 0
M  V30 12729 C 1251.4 2.33073 -0.141198 0
M  V30 12730 C 1252.38 1.54863 0.70367 0
M  V30 12731 O 1253.57 1.8318 0.644872 0
M  V30 12732 C 1250.7 3.39043 0.752802 0
M  V30 12733 C 1249.65 4.27999 0.0106692 0
M  V30 12734 C 1248.98 5.24824 1.02291 0
M  V30 12735 C 1250.28 5.09308 -1.15768 0
M  V30 12736 H 1251.97 2.84528 -0.93188 0
M  V30 12737 H 1249.52 1.36802 -0.449567 0
M  V30 12738 H 1251.47 4.04224 1.19083 0
M  V30 12739 H 1250.2 2.8607 1.57581 0
M  V30 12740 H 1248.85 3.64323 -0.407939 0
M  V30 12741 H 1248.5 4.68139 1.83998 0
M  V30 12742 H 1248.2 5.85196 0.53101 0
M  V30 12743 H 1249.73 5.92882 1.46026 0
M  V30 12744 H 1251.14 5.6773 -0.797203 0
M  V30 12745 H 1249.54 5.78914 -1.58044 0
M  V30 12746 H 1250.61 4.43051 -1.97062 0
M  V30 12747 N 1251.95 0.502579 1.49372 0
M  V30 12748 C 1253.37 0.158641 1.5881 0
M  V30 12749 C 1253.57 -1.33688 1.50764 0
M  V30 12750 O 1252.62 -2.11295 1.38241 0
M  V30 12751 C 1253.94 0.736843 2.91532 0
M  V30 12752 C 1255.48 0.703093 3.05001 0
M  V30 12753 C 1255.96 1.25938 4.40345 0
M  V30 12754 N 1257.45 1.22015 4.46841 0
M  V30 12755 C 1258.18 1.62076 5.50017 0
M  V30 12756 N 1257.68 2.09736 6.6029 0
M  V30 12757 N 1259.47 1.53482 5.4074 0
M  V30 12758 H 1251.62 1.47487 1.52844 0
M  V30 12759 H 1253.89 0.611851 0.724115 0
M  V30 12760 H 1253.59 1.78573 3.02992 0
M  V30 12761 H 1253.47 0.198178 3.76679 0
M  V30 12762 H 1255.85 -0.336965 2.9317 0
M  V30 12763 H 1255.94 1.27892 2.21534 0
M  V30 12764 H 1255.58 2.29823 4.52928 0
M  V30 12765 H 1255.51 0.659481 5.22454 0
M  V30 12766 H 1258 0.870957 3.67726 0
M  V30 12767 H 1258.31 2.3837 7.35119 0
M  V30 12768 H 1256.66 2.13712 6.61326 0
M  V30 12769 H 1259.85 1.16065 4.53483 0
M  V30 12770 H 1260.02 1.85026 6.21023 0
M  V30 12771 N 1253.43 -1.55816 0.23648 0
M  V30 12772 C 1254.68 -1.98294 -0.390373 0
M  V30 12773 C 1255 -1.12573 -1.59224 0
M  V30 12774 O 1254.27 -0.206128 -1.94813 0
M  V30 12775 H 1252.85 -0.732349 -0.14722 0
M  V30 12776 H 1255.51 -1.92037 0.332848 0
M  V30 12777 H 1254.61 -3.03996 -0.706595 0
M  V30 12778 N 1254.91 0.036755 -1.57557 0
M  V30 12779 C 1256.32 0.584324 -1.7732 0
M  V30 12780 C 1256.67 1.76025 -0.86658 0
M  V30 12781 O 1255.79 2.16318 -0.059443 0
M  V30 12782 C 1256.39 1.06679 -3.21566 0
M  V30 12783 C 1254.95 1.55994 -3.42553 0
M  V30 12784 C 1254.09 0.494604 -2.72853 0
M  V30 12785 H 1257.05 -0.189473 -1.57565 0
M  V30 12786 H 1257.07 1.93446 -3.27657 0
M  V30 12787 H 1256.58 0.210727 -3.87527 0
M  V30 12788 H 1254.68 2.43811 -2.81757 0
M  V30 12789 H 1254.79 1.61274 -4.5114 0
M  V30 12790 H 1253.16 0.947865 -2.36406 0
M  V30 12791 H 1253.94 -0.351868 -3.41492 0
M  V30 12792 N 1256.39 1.54543 0.308881 0
M  V30 12793 C 1257.3 1.87994 1.4034 0
M  V30 12794 C 1258.31 0.773294 1.55872 0
M  V30 12795 O 1259.49 1.069 1.70688 0
M  V30 12796 C 1256.55 2.11341 2.74838 0
M  V30 12797 C 1255.61 3.35086 2.68358 0
M  V30 12798 C 1254.85 3.5731 3.96441 0
M  V30 12799 O 1255.07 2.82692 4.9542 0
M  V30 12800 O 1254 4.50814 3.98811 0
M  V30 12801 H 1257.83 2.81094 1.14976 0
M  V30 12802 H 1255.41 1.40634 0.504236 0
M  V30 12803 H 1257.3 2.27943 3.54429 0
M  V30 12804 H 1255.97 1.21427 3.00062 0
M  V30 12805 H 1254.88 3.23855 1.87267 0
M  V30 12806 H 1256.21 4.25104 2.48087 0
M  V30 12807 N 1257.86 -0.571685 1.46866 0
M  V30 12808 C 1259.09 -1.35524 1.56336 0
M  V30 12809 C 1259.51 -1.87647 0.208359 0
M  V30 12810 O 1258.86 -1.64219 -0.796136 0
M  V30 12811 C 1258.91 -2.53518 2.57703 0
M  V30 12812 O 1258.64 -2.03552 3.87941 0
M  V30 12813 C 1260.14 -3.45925 2.77219 0
M  V30 12814 H 1257.36 -0.41363 0.528348 0
M  V30 12815 H 1259.9 -0.693943 1.92366 0
M  V30 12816 H 1258.06 -3.15615 2.24647 0
M  V30 12817 H 1258.47 -2.80476 4.43208 0
M  V30 12818 H 1259.94 -4.2517 3.52043 0
M  V30 12819 H 1260.42 -3.98559 1.8452 0
M  V30 12820 H 1261.03 -2.89655 3.11416 0
M  V30 12821 N 1259.34 -1.34755 -0.817236 0
M  V30 12822 C 1260.76 -1.14561 -1.11121 0
M  V30 12823 C 1260.96 0.0490776 -2.0144 0
M  V30 12824 O 1260.01 0.722897 -2.41931 0
M  V30 12825 C 1261.33 -2.44356 -1.75244 0
M  V30 12826 C 1262.87 -2.50465 -1.87713 0
M  V30 12827 C 1263.35 -3.80276 -2.55253 0
M  V30 12828 N 1264.84 -3.81468 -2.62747 0
M  V30 12829 C 1265.58 -4.78634 -3.15749 0
M  V30 12830 N 1265.07 -5.86184 -3.6927 0
M  V30 12831 N 1266.86 -4.66083 -3.14203 0
M  V30 12832 H 1259.02 -2.11293 -0.2166 0
M  V30 12833 H 1261.28 -0.934629 -0.158661 0
M  V30 12834 H 1260.98 -3.31899 -1.16344 0
M  V30 12835 H 1260.86 -2.58117 -2.75055 0
M  V30 12836 H 1263.25 -1.63358 -2.45761 0
M  V30 12837 H 1263.33 -2.40627 -0.867887 0
M  V30 12838 H 1262.97 -4.67776 -1.97858 0
M  V30 12839 H 1262.9 -3.87399 -3.56693 0
M  V30 12840 H 1265.39 -3.03753 -2.24817 0
M  V30 12841 H 1265.7 -6.56332 -4.0798 0
M  V30 12842 H 1264.05 -5.8989 -3.67498 0
M  V30 12843 H 1267.24 -3.81206 -2.7166 0
M  V30 12844 H 1267.41 -5.41973 -3.55203 0
M  V30 12845 N 1260.82 1.03812 -1.18578 0
M  V30 12846 C 1262.1 1.74062 -0.892288 0
M  V30 12847 C 1262.48 2.02267 0.604256 0
M  V30 12848 O 1261.82 1.66988 1.55972 0
M  V30 12849 C 1262.03 3.024 -1.74228 0
M  V30 12850 C 1263.38 3.76088 -1.97087 0
M  V30 12851 O 1264.41 3.12305 -1.71302 0
M  V30 12852 O 1263.27 4.90732 -2.40509 0
M  V30 12853 H 1260.36 0.757567 -0.331695 0
M  V30 12854 H 1262.91 1.09855 -1.29345 0
M  V30 12855 H 1261.68 2.77713 -2.75665 0
M  V30 12856 H 1261.3 3.74346 -1.3398 0
M  V30 12857 N 1262.3 0.988223 1.22768 0
M  V30 12858 C 1263.24 0.534605 2.24523 0
M  V30 12859 C 1264.21 -0.430615 1.60421 0
M  V30 12860 O 1265.4 -0.336417 1.87811 0
M  V30 12861 C 1262.54 -0.149195 3.44777 0
M  V30 12862 C 1261.65 0.85721 4.2341 0
M  V30 12863 C 1260.79 0.147411 5.30995 0
M  V30 12864 C 1259.83 1.1425 6.01343 0
M  V30 12865 N 1258.96 0.461327 7.00583 0
M  V30 12866 H 1263.8 1.40708 2.62689 0
M  V30 12867 H 1261.34 0.704918 1.2911 0
M  V30 12868 H 1263.3 -0.562527 4.1339 0
M  V30 12869 H 1261.93 -0.985485 3.07389 0
M  V30 12870 H 1260.98 1.38889 3.54138 0
M  V30 12871 H 1262.29 1.61517 4.71926 0
M  V30 12872 H 1261.45 -0.32289 6.0584 0
M  V30 12873 H 1260.19 -0.643085 4.83442 0
M  V30 12874 H 1259.19 1.62348 5.25284 0
M  V30 12875 H 1260.42 1.93379 6.50985 0
M  V30 12876 H 1258.36 -0.309818 6.55268 0
M  V30 12877 H 1258.28 1.15781 7.47082 0
M  V30 12878 H 1259.55 0.0136734 7.79499 0
M  V30 12879 N 1263.78 -1.38018 0.760839 0
M  V30 12880 C 1264.71 -2.32995 0.153557 0
M  V30 12881 C 1265.69 -1.55234 -0.695448 0
M  V30 12882 O 1266.87 -1.8352 -0.635148 0
M  V30 12883 C 1264 -3.39437 -0.734811 0
M  V30 12884 C 1262.96 -4.27998 0.0120287 0
M  V30 12885 C 1262.28 -5.25359 -0.995067 0
M  V30 12886 C 1263.58 -5.08687 1.18468 0
M  V30 12887 H 1265.28 -2.8403 0.946956 0
M  V30 12888 H 1262.82 -1.36562 0.456816 0
M  V30 12889 H 1264.77 -4.0485 -1.16938 0
M  V30 12890 H 1263.5 -2.86901 -1.56061 0
M  V30 12891 H 1262.16 -3.64102 0.427254 0
M  V30 12892 H 1261.81 -4.69108 -1.81512 0
M  V30 12893 H 1261.51 -5.85469 -0.499969 0
M  V30 12894 H 1263.03 -5.93648 -1.4288 0
M  V30 12895 H 1264.44 -5.67299 0.8273 0
M  V30 12896 H 1262.84 -5.78068 1.61112 0
M  V30 12897 H 1263.91 -4.42 1.99409 0
M  V30 12898 N 1265.25 -0.510493 -1.49103 0
M  V30 12899 C 1266.66 -0.0650831 -1.86587 0
M  V30 12900 C 1267.02 1.35185 -1.42195 0
M  V30 12901 O 1266.14 2.0091 -0.804004 0
M  V30 12902 C 1266.74 -0.111333 -3.38617 0
M  V30 12903 C 1265.29 0.278782 -3.75366 0
M  V30 12904 C 1264.44 -0.479707 -2.73119 0
M  V30 12905 H 1267.39 -0.722784 -1.41285 0
M  V30 12906 H 1267.41 0.681706 -3.74343 0
M  V30 12907 H 1266.93 -1.14271 -3.70896 0
M  V30 12908 H 1265.03 1.31304 -3.48698 0
M  V30 12909 H 1265.14 -0.047271 -4.79077 0
M  V30 12910 H 1263.5 0.0716459 -2.54599 0
M  V30 12911 H 1264.29 -1.51135 -3.08242 0
M  V30 12912 N 1266.73 1.55688 -0.24474 0
M  V30 12913 C 1267.96 2.03743 0.387776 0
M  V30 12914 C 1268.38 1.1229 1.50906 0
M  V30 12915 O 1267.74 0.115445 1.80932 0
M  V30 12916 C 1267.79 3.49825 0.874927 0
M  V30 12917 O 1266.89 3.61504 1.98466 0
M  V30 12918 H 1266.23 0.658561 0.0848107 0
M  V30 12919 H 1268.76 2.01224 -0.370165 0
M  V30 12920 H 1268.77 3.90603 1.17871 0
M  V30 12921 H 1267.45 4.15864 0.0543852 0
M  V30 12922 H 1266.02 3.32622 1.68574 0
M  V30 12923 N 1268.21 -0.0283989 1.57574 0
M  V30 12924 C 1269.44 -0.730831 1.93563 0
M  V30 12925 C 1269.85 -1.68857 0.844556 0
M  V30 12926 O 1269.21 -1.8162 -0.178971 0
M  V30 12927 C 1269.26 -1.48731 3.29486 0
M  V30 12928 O 1268.98 -0.568017 4.34402 0
M  V30 12929 C 1270.48 -2.28684 3.79761 0
M  V30 12930 H 1267.7 -0.205346 0.638807 0
M  V30 12931 H 1270.25 0.0142728 2.04495 0
M  V30 12932 H 1268.4 -2.18429 3.19949 0
M  V30 12933 H 1268.82 -1.09861 5.12865 0
M  V30 12934 H 1270.29 -2.77157 4.77376 0
M  V30 12935 H 1270.77 -3.10133 3.10989 0
M  V30 12936 H 1271.37 -1.64059 3.92383 0
M  V30 12937 N 1269.69 -1.54705 -0.300681 0
M  V30 12938 C 1270.65 -1.84934 -1.35395 0
M  V30 12939 C 1271.65 -0.72226 -1.43666 0
M  V30 12940 O 1272.84 -0.990543 -1.43296 0
M  V30 12941 C 1269.97 -2.02991 -2.73875 0
M  V30 12942 H 1271.17 -2.79063 -1.09835 0
M  V30 12943 H 1268.72 -1.46772 -0.537365 0
M  V30 12944 H 1269.45 -1.11151 -3.04657 0
M  V30 12945 H 1269.24 -2.85027 -2.69262 0
M  V30 12946 H 1270.73 -2.27747 -3.5003 0
M  V30 12947 N 1271.17 0.563888 -1.47167 0
M  V30 12948 C 1272.08 1.69903 -1.61772 0
M  V30 12949 C 1273.09 1.6664 -0.500705 0
M  V30 12950 O 1274.27 1.86209 -0.767354 0
M  V30 12951 C 1271.33 3.06411 -1.62213 0
M  V30 12952 C 1270.39 3.20793 -2.8529 0
M  V30 12953 C 1269.63 4.50789 -2.85701 0
M  V30 12954 O 1269.85 5.3584 -1.95529 0
M  V30 12955 O 1268.78 4.68819 -3.77481 0
M  V30 12956 H 1272.61 1.60525 -2.57809 0
M  V30 12957 H 1270.2 0.733125 -1.30175 0
M  V30 12958 H 1272.08 3.87659 -1.65221 0
M  V30 12959 H 1270.75 3.16186 -0.693415 0
M  V30 12960 H 1269.66 2.38967 -2.87829 0
M  V30 12961 H 1270.99 3.15918 -3.77434 0
M  V30 12962 N 1272.64 1.35187 0.810078 0
M  V30 12963 C 1273.89 1.28454 1.56931 0
M  V30 12964 C 1274.22 -0.141747 1.93682 0
M  V30 12965 O 1273.5 -1.09028 1.61069 0
M  V30 12966 C 1273.78 2.18771 2.86027 0
M  V30 12967 C 1273.63 3.69999 2.55774 0
M  V30 12968 C 1274.95 2.08265 3.87703 0
M  V30 12969 H 1272.07 0.467959 0.569371 0
M  V30 12970 H 1274.71 1.65556 0.932262 0
M  V30 12971 H 1272.86 1.8726 3.40391 0
M  V30 12972 H 1274.54 4.11936 2.07621 0
M  V30 12973 H 1272.78 3.90453 1.89021 0
M  V30 12974 H 1273.45 4.28577 3.47888 0
M  V30 12975 H 1275.93 2.35958 3.42729 0
M  V30 12976 H 1274.8 2.73663 4.75815 0
M  V30 12977 H 1275.06 1.06352 4.29117 0
M  V30 12978 N 1274.12 -1.03182 1.19127 0
M  V30 12979 C 1275.07 -2.11394 0.926339 0
M  V30 12980 C 1276.04 -1.65528 -0.137703 0
M  V30 12981 O 1277.22 -1.908 0.00381804 0
M  V30 12982 C 1274.36 -3.41913 0.467894 0
M  V30 12983 C 1273.48 -4.01343 1.59837 0
M  V30 12984 C 1272.61 -5.1986 1.09175 0
M  V30 12985 C 1271.65 -5.71339 2.19632 0
M  V30 12986 N 1270.79 -6.81133 1.703 0
M  V30 12987 H 1275.63 -2.33393 1.85288 0
M  V30 12988 H 1273.17 -1.14473 0.923811 0
M  V30 12989 H 1275.12 -4.16796 0.183513 0
M  V30 12990 H 1273.75 -3.20034 -0.421656 0
M  V30 12991 H 1272.81 -3.23702 1.99803 0
M  V30 12992 H 1274.12 -4.35568 2.43068 0
M  V30 12993 H 1273.27 -6.0189 0.762427 0
M  V30 12994 H 1272.01 -4.87161 0.22914 0
M  V30 12995 H 1271.02 -4.87923 2.53399 0
M  V30 12996 H 1272.24 -6.06078 3.06344 0
M  V30 12997 H 1270.19 -6.50293 0.863415 0
M  V30 12998 H 1270.1 -7.1447 2.47122 0
M  V30 12999 H 1271.37 -7.66766 1.40321 0
M  V30 13000 N 1275.6 -0.99472 -1.22242 0
M  V30 13001 C 1276.51 -0.555502 -2.27928 0
M  V30 13002 C 1277.53 0.396584 -1.6942 0
M  V30 13003 O 1278.7 0.262965 -1.99676 0
M  V30 13004 C 1275.77 0.121121 -3.46488 0
M  V30 13005 C 1274.83 -0.874155 -4.20306 0
M  V30 13006 C 1274.06 -0.229726 -5.33205 0
M  V30 13007 O 1274.28 0.975935 -5.61989 0
M  V30 13008 O 1273.22 -0.935501 -5.94586 0
M  V30 13009 H 1277.04 -1.4348 -2.6767 0
M  V30 13010 H 1274.63 -0.763061 -1.28444 0
M  V30 13011 H 1276.51 0.500043 -4.18423 0
M  V30 13012 H 1275.19 0.974959 -3.08668 0
M  V30 13013 H 1274.09 -1.30404 -3.50636 0
M  V30 13014 H 1275.43 -1.69725 -4.62011 0
M  V30 13015 N 1277.08 1.37613 -0.768148 0
M  V30 13016 C 1278.36 1.93921 -0.255724 0
M  V30 13017 C 1278.74 1.70215 1.2486 0
M  V30 13018 O 1278.08 1.0489 2.03003 0
M  V30 13019 C 1278.29 3.43354 -0.625204 0
M  V30 13020 C 1279.64 4.20439 -0.592978 0
M  V30 13021 O 1280.67 3.51701 -0.564375 0
M  V30 13022 O 1279.52 5.43008 -0.616849 0
M  V30 13023 H 1276.62 0.824968 -0.0579366 0
M  V30 13024 H 1279.16 1.46921 -0.849257 0
M  V30 13025 H 1277.94 3.54177 -1.66356 0
M  V30 13026 H 1277.56 3.976 -0.00442816 0
M  V30 13027 N 1278.56 0.518393 1.4883 0
M  V30 13028 C 1279.78 -0.0183131 2.07392 0
M  V30 13029 C 1280.21 -1.28468 1.37396 0
M  V30 13030 O 1279.56 -1.75975 0.436177 0
M  V30 13031 C 1279.61 -0.237211 3.59819 0
M  V30 13032 O 1278.72 -1.30835 3.91096 0
M  V30 13033 H 1278.06 0.0339621 0.663131 0
M  V30 13034 H 1280.59 0.722993 1.914 0
M  V30 13035 H 1280.6 -0.463424 4.0536 0
M  V30 13036 H 1279.27 0.687925 4.10171 0
M  V30 13037 H 1277.85 -1.06571 3.57347 0
M  V30 13038 N 1280.03 -1.55556 0.252993 0
M  V30 13039 C 1281 -2.20351 -0.630705 0
M  V30 13040 C 1282 -1.17461 -1.09816 0
M  V30 13041 O 1283.19 -1.42505 -1.00189 0
M  V30 13042 C 1280.32 -2.85192 -1.86757 0
M  V30 13043 H 1281.51 -2.99829 -0.0652939 0
M  V30 13044 H 1279.07 -1.563 0.00347982 0
M  V30 13045 H 1279.8 -2.09669 -2.47406 0
M  V30 13046 H 1279.59 -3.60569 -1.54053 0
M  V30 13047 H 1281.08 -3.34762 -2.49648 0
M  V30 13048 N 1281.51 0.0200419 -1.57587 0
M  V30 13049 C 1282.74 0.719511 -1.93666 0
M  V30 13050 C 1283.15 1.68934 -0.85193 0
M  V30 13051 O 1282.49 1.8282 0.179593 0
M  V30 13052 C 1282.56 1.52382 -3.25607 0
M  V30 13053 C 1282.22 0.717784 -4.51328 0
M  V30 13054 C 1283.22 0.0141272 -5.19898 0
M  V30 13055 C 1280.9 0.669662 -4.97816 0
M  V30 13056 C 1282.9 -0.726853 -6.33242 0
M  V30 13057 C 1280.58 -0.0750577 -6.11054 0
M  V30 13058 C 1281.58 -0.772067 -6.78622 0
M  V30 13059 O 1281.27 -1.50468 -7.89693 0
M  V30 13060 H 1281 0.206681 -0.643629 0
M  V30 13061 H 1283.55 -0.0211203 -2.05389 0
M  V30 13062 H 1281.78 2.30848 -3.10236 0
M  V30 13063 H 1283.47 2.10675 -3.46945 0
M  V30 13064 H 1284.24 0.0422784 -4.84982 0
M  V30 13065 H 1280.12 1.20169 -4.45062 0
M  V30 13066 H 1283.66 -1.27143 -6.85916 0
M  V30 13067 H 1279.56 -0.1051 -6.45414 0
M  V30 13068 H 1280.33 -1.41929 -8.06101 0
M  V30 13069 N 1282.99 1.54862 0.292472 0
M  V30 13070 C 1284.24 1.74203 1.02458 0
M  V30 13071 C 1284.56 0.535398 1.87506 0
M  V30 13072 O 1283.83 -0.450164 1.90658 0
M  V30 13073 H 1282.41 0.642369 0.381276 0
M  V30 13074 H 1285.07 1.92232 0.321398 0
M  V30 13075 H 1284.17 2.63486 1.67277 0
M  V30 13076 N 1284.47 -0.556076 1.47464 0
M  V30 13077 C 1285.69 -1.3434 1.58011 0
M  V30 13078 C 1286.12 -1.86674 0.231138 0
M  V30 13079 O 1285.48 -1.63029 -0.793174 0
M  V30 13080 C 1285.52 -2.48844 2.60977 0
M  V30 13081 O 1284.63 -3.51108 2.16326 0
M  V30 13082 H 1283.97 -0.398986 0.53076 0
M  V30 13083 H 1286.5 -0.671898 1.93253 0
M  V30 13084 H 1286.51 -2.95398 2.81432 0
M  V30 13085 H 1285.18 -2.10109 3.58925 0
M  V30 13086 H 1283.76 -3.10852 2.05975 0
M  V30 13087 N 1285.95 -1.35615 -0.802897 0
M  V30 13088 C 1286.88 -1.24695 -1.92312 0
M  V30 13089 C 1287.89 -0.169409 -1.61916 0
M  V30 13090 O 1289.08 -0.422995 -1.73416 0
M  V30 13091 C 1286.18 -0.898229 -3.2678 0
M  V30 13092 C 1285.35 -2.07489 -3.85054 0
M  V30 13093 C 1284.41 -1.70137 -4.97936 0
M  V30 13094 O 1283.44 -2.42057 -5.15167 0
M  V30 13095 N 1284.64 -0.627153 -5.77102 0
M  V30 13096 H 1287.41 -2.21208 -2.02205 0
M  V30 13097 H 1284.97 -1.28832 -0.980503 0
M  V30 13098 H 1286.96 -0.629766 -3.9977 0
M  V30 13099 H 1285.53 -0.0226571 -3.12592 0
M  V30 13100 H 1284.75 -2.50694 -3.04214 0
M  V30 13101 H 1286.04 -2.86133 -4.2072 0
M  V30 13102 H 1285.44 -0.0296879 -5.65692 0
M  V30 13103 H 1283.99 -0.41848 -6.50455 0
M  V30 13104 N 1287.43 1.02549 -1.19673 0
M  V30 13105 C 1288.65 1.8016 -1.02748 0
M  V30 13106 C 1289.08 1.83372 0.419105 0
M  V30 13107 O 1288.43 1.26222 1.30144 0
M  V30 13108 C 1288.48 3.22907 -1.60509 0
M  V30 13109 O 1287.59 4.03823 -0.836702 0
M  V30 13110 H 1286.93 0.556027 -0.362946 0
M  V30 13111 H 1289.46 1.29047 -1.5877 0
M  V30 13112 H 1289.47 3.73646 -1.63868 0
M  V30 13113 H 1288.14 3.19885 -2.65794 0
M  V30 13114 H 1286.72 3.6245 -0.876626 0
M  V30 13115 N 1288.9 1.00119 1.21713 0
M  V30 13116 C 1290.15 0.682733 1.90962 0
M  V30 13117 C 1290.48 -0.784131 1.77665 0
M  V30 13118 O 1289.76 -1.56799 1.15084 0
M  V30 13119 C 1290.04 1.09975 3.42896 0
M  V30 13120 C 1289.89 2.62578 3.65202 0
M  V30 13121 C 1291.21 0.659247 4.35134 0
M  V30 13122 H 1288.33 0.249501 0.693483 0
M  V30 13123 H 1290.97 1.24619 1.43423 0
M  V30 13124 H 1289.12 0.620334 3.83515 0
M  V30 13125 H 1290.8 3.18254 3.33934 0
M  V30 13126 H 1289.04 3.04268 3.09198 0
M  V30 13127 H 1289.71 2.86809 4.7164 0
M  V30 13128 H 1292.19 1.07116 4.02076 0
M  V30 13129 H 1291.06 0.979241 5.40095 0
M  V30 13130 H 1291.32 -0.439777 4.39907 0
M  V30 13131 N 1290.38 -1.37203 0.775435 0
M  V30 13132 C 1291.29 -2.34019 0.165062 0
M  V30 13133 C 1292.31 -1.6036 -0.675316 0
M  V30 13134 O 1293.48 -1.9243 -0.594375 0
M  V30 13135 C 1290.55 -3.3954 -0.700957 0
M  V30 13136 C 1289.61 -4.29015 0.156304 0
M  V30 13137 C 1288.84 -5.29497 -0.668476 0
M  V30 13138 O 1289.07 -5.37636 -1.90535 0
M  V30 13139 O 1288 -6.01852 -0.0757351 0
M  V30 13140 H 1291.83 -2.87955 0.965184 0
M  V30 13141 H 1289.41 -1.39429 0.536654 0
M  V30 13142 H 1291.29 -4.04094 -1.19524 0
M  V30 13143 H 1289.97 -2.87926 -1.4792 0
M  V30 13144 H 1288.87 -3.67549 0.69703 0
M  V30 13145 H 1290.21 -4.83944 0.897725 0
M  V30 13146 N 1291.86 -0.526279 -1.48553 0
M  V30 13147 C 1292.79 0.275579 -2.27537 0
M  V30 13148 C 1293.8 0.90782 -1.35139 0
M  V30 13149 O 1294.99 0.786887 -1.6022 0
M  V30 13150 C 1292.09 1.40515 -3.08397 0
M  V30 13151 C 1291.27 0.875523 -4.28548 0
M  V30 13152 C 1290.33 1.88577 -4.91249 0
M  V30 13153 O 1289.35 1.44419 -5.50574 0
M  V30 13154 N 1290.55 3.21774 -4.83158 0
M  V30 13155 H 1293.32 -0.401803 -2.96994 0
M  V30 13156 H 1290.88 -0.360378 -1.57838 0
M  V30 13157 H 1292.87 2.07907 -3.47213 0
M  V30 13158 H 1291.44 1.98626 -2.41384 0
M  V30 13159 H 1290.66 0.025728 -3.94192 0
M  V30 13160 H 1291.95 0.500493 -5.06332 0
M  V30 13161 H 1291.35 3.60319 -4.36104 0
M  V30 13162 H 1289.9 3.84808 -5.26085 0
M  V30 13163 N 1293.34 1.5542 -0.261239 0
M  V30 13164 C 1294.25 2.25627 0.642625 0
M  V30 13165 C 1295.26 1.27732 1.18155 0
M  V30 13166 O 1296.44 1.60639 1.21479 0
M  V30 13167 C 1293.5 2.95303 1.8165 0
M  V30 13168 C 1292.57 4.08644 1.31563 0
M  V30 13169 C 1291.8 4.74988 2.43355 0
M  V30 13170 O 1292.02 4.40474 3.62407 0
M  V30 13171 O 1290.96 5.63217 2.12299 0
M  V30 13172 H 1294.78 3.03609 0.0743091 0
M  V30 13173 H 1292.37 1.49372 -0.0291754 0
M  V30 13174 H 1294.25 3.3914 2.50125 0
M  V30 13175 H 1292.92 2.2025 2.37217 0
M  V30 13176 H 1291.83 3.69294 0.597746 0
M  V30 13177 H 1293.16 4.85558 0.805878 0
M  V30 13178 N 1294.82 -0.0116844 1.57596 0
M  V30 13179 C 1295.78 -0.991601 2.0664 0
M  V30 13180 C 1296.78 -1.27973 0.973629 0
M  V30 13181 O 1297.97 -1.22686 1.23668 0
M  V30 13182 C 1295.1 -2.31975 2.49801 0
M  V30 13183 H 1296.29 -0.567607 2.9448 0
M  V30 13184 H 1293.85 -0.258906 1.54141 0
M  V30 13185 H 1294.58 -2.79087 1.65169 0
M  V30 13186 H 1294.37 -2.12386 3.29598 0
M  V30 13187 H 1295.86 -3.02294 2.88112 0
M  V30 13188 N 1296.29 -1.55015 -0.284256 0
M  V30 13189 C 1297.2 -1.90203 -1.37332 0
M  V30 13190 C 1298.22 -0.797994 -1.54622 0
M  V30 13191 O 1299.4 -1.09602 -1.68965 0
M  V30 13192 C 1296.46 -2.15687 -2.71441 0
M  V30 13193 C 1295.52 -3.39313 -2.62993 0
M  V30 13194 C 1294.75 -3.63571 -3.90707 0
M  V30 13195 O 1294.98 -2.90538 -4.9086 0
M  V30 13196 O 1293.91 -4.57102 -3.91589 0
M  V30 13197 H 1297.74 -2.82888 -1.1049 0
M  V30 13198 H 1295.32 -1.41418 -0.481798 0
M  V30 13199 H 1297.2 -2.33553 -3.50758 0
M  V30 13200 H 1295.88 -1.26185 -2.98092 0
M  V30 13201 H 1294.79 -3.26793 -1.82091 0
M  V30 13202 H 1296.12 -4.28997 -2.41293 0
M  V30 13203 N 1297.77 0.548248 -1.47757 0
M  V30 13204 C 1298.72 1.65453 -1.60916 0
M  V30 13205 C 1299.69 1.59836 -0.451831 0
M  V30 13206 O 1300.87 1.78536 -0.673023 0
M  V30 13207 C 1298.01 3.0376 -1.6378 0
M  V30 13208 C 1297.13 3.19747 -2.90492 0
M  V30 13209 C 1296.26 4.48505 -2.84635 0
M  V30 13210 C 1295.3 4.57956 -4.06132 0
M  V30 13211 N 1294.44 5.78079 -3.98458 0
M  V30 13212 H 1299.28 1.53545 -2.55398 0
M  V30 13213 H 1296.81 0.747826 -1.26673 0
M  V30 13214 H 1298.77 3.8386 -1.63424 0
M  V30 13215 H 1297.4 3.14483 -0.728036 0
M  V30 13216 H 1296.45 2.3302 -3.00676 0
M  V30 13217 H 1297.77 3.22594 -3.8044 0
M  V30 13218 H 1296.92 5.36875 -2.82577 0
M  V30 13219 H 1295.66 4.48151 -1.92385 0
M  V30 13220 H 1294.66 3.67995 -4.08484 0
M  V30 13221 H 1295.89 4.60062 -4.9952 0
M  V30 13222 H 1293.84 5.78657 -3.09017 0
M  V30 13223 H 1293.75 5.82342 -4.82093 0
M  V30 13224 H 1295.02 6.68786 -4.00431 0
M  V30 13225 N 1299.25 1.36039 0.795694 0
M  V30 13226 C 1300.18 1.32528 1.92246 0
M  V30 13227 C 1301.16 0.197805 1.68946 0
M  V30 13228 O 1302.35 0.394474 1.90151 0
M  V30 13229 C 1299.48 1.10748 3.29169 0
M  V30 13230 C 1298.43 2.20253 3.66978 0
M  V30 13231 C 1297.76 1.83624 5.02181 0
M  V30 13232 C 1299.06 3.62296 3.76216 0
M  V30 13233 H 1300.75 2.2681 1.95442 0
M  V30 13234 H 1298.3 1.09181 0.938908 0
M  V30 13235 H 1300.25 1.06929 4.07608 0
M  V30 13236 H 1298.97 0.129141 3.26345 0
M  V30 13237 H 1297.63 2.23187 2.90832 0
M  V30 13238 H 1297.28 0.843804 4.95872 0
M  V30 13239 H 1296.98 2.56935 5.28449 0
M  V30 13240 H 1298.5 1.81349 5.83048 0
M  V30 13241 H 1299.92 3.61623 4.44861 0
M  V30 13242 H 1298.31 4.34459 4.13963 0
M  V30 13243 H 1299.38 3.97657 2.77483 0
M  V30 13244 N 1300.73 -1.01913 1.20215 0
M  V30 13245 C 1301.98 -1.75124 1.00876 0
M  V30 13246 C 1302.3 -1.89485 -0.460475 0
M  V30 13247 O 1301.57 -1.43552 -1.33302 0
M  V30 13248 H 1300.15 -0.648777 0.370266 0
M  V30 13249 H 1302.81 -1.22883 1.5128 0
M  V30 13250 H 1301.91 -2.7558 1.46499 0
M  V30 13251 N 1302.21 -1.00763 -1.2118 0
M  V30 13252 C 1303.62 -0.724746 -1.72059 0
M  V30 13253 C 1303.97 0.757413 -1.80991 0
M  V30 13254 O 1303.09 1.59152 -1.46627 0
M  V30 13255 C 1303.69 -1.30893 -3.12494 0
M  V30 13256 C 1302.25 -1.07511 -3.60719 0
M  V30 13257 C 1301.39 -1.42014 -2.38175 0
M  V30 13258 H 1304.35 -1.17821 -1.0632 0
M  V30 13259 H 1304.37 -0.694919 -3.741 0
M  V30 13260 H 1303.88 -2.38767 -3.05961 0
M  V30 13261 H 1301.98 -0.0136518 -3.72597 0
M  V30 13262 H 1302.09 -1.74885 -4.4604 0
M  V30 13263 H 1300.46 -0.838972 -2.40486 0
M  V30 13264 H 1301.24 -2.50924 -2.34291 0
M  V30 13265 N 1303.68 1.3679 -0.7827 0
M  V30 13266 C 1305.1 1.82006 -0.41603 0
M  V30 13267 C 1305.45 1.65151 1.05922 0
M  V30 13268 O 1304.57 1.1687 1.82127 0
M  V30 13269 C 1305.17 3.30432 -0.748353 0
M  V30 13270 C 1303.73 3.73883 -0.4346 0
M  V30 13271 C 1302.87 2.59159 -0.986505 0
M  V30 13272 H 1305.82 1.25107 -0.976423 0
M  V30 13273 H 1305.84 3.80482 -0.036985 0
M  V30 13274 H 1305.36 3.42667 -1.82212 0
M  V30 13275 H 1303.46 3.67211 0.631401 0
M  V30 13276 H 1303.57 4.69577 -0.950511 0
M  V30 13277 H 1301.93 2.51377 -0.410108 0
M  V30 13278 H 1302.72 2.74182 -2.06589 0
M  V30 13279 N 1305.16 0.53415 1.48272 0
M  V30 13280 C 1306.57 0.0947592 1.86459 0
M  V30 13281 C 1306.92 -1.32906 1.44328 0
M  V30 13282 O 1306.05 -1.99605 0.835866 0
M  V30 13283 C 1306.64 0.16519 3.38397 0
M  V30 13284 C 1305.2 -0.219029 3.75762 0
M  V30 13285 C 1304.35 0.523097 2.72321 0
M  V30 13286 H 1307.3 0.74517 1.40117 0
M  V30 13287 H 1307.32 -0.622065 3.75381 0
M  V30 13288 H 1306.83 1.20157 3.69031 0
M  V30 13289 H 1304.94 -1.2574 3.50742 0
M  V30 13290 H 1305.05 0.123482 4.78941 0
M  V30 13291 H 1303.41 -0.0311323 2.54681 0
M  V30 13292 H 1304.2 1.56019 3.05799 0
M  V30 13293 N 1306.64 -1.55279 0.269478 0
M  V30 13294 C 1307.55 -2.25965 -0.63065 0
M  V30 13295 C 1308.57 -1.28357 -1.17476 0
M  V30 13296 O 1309.74 -1.61281 -1.20625 0
M  V30 13297 C 1306.81 -2.96263 -1.80081 0
M  V30 13298 C 1305.87 -4.09336 -1.29394 0
M  V30 13299 C 1305.1 -4.76272 -2.40833 0
M  V30 13300 O 1305.32 -4.42389 -3.60066 0
M  V30 13301 O 1304.26 -5.64334 -2.09309 0
M  V30 13302 H 1308.08 -3.03644 -0.0582069 0
M  V30 13303 H 1305.67 -1.49354 0.0370966 0
M  V30 13304 H 1307.55 -3.40461 -2.48322 0
M  V30 13305 H 1306.23 -2.21505 -2.36045 0
M  V30 13306 H 1305.13 -3.69605 -0.578154 0
M  V30 13307 H 1306.47 -4.85978 -0.780117 0
M  V30 13308 N 1308.12 0.00332656 -1.576 0
M  V30 13309 C 1309.53 0.546581 -1.7852 0
M  V30 13310 C 1309.88 1.74147 -0.903722 0
M  V30 13311 O 1309.01 2.16144 -0.105314 0
M  V30 13312 C 1309.6 0.998344 -3.23757 0
M  V30 13313 C 1308.16 1.48693 -3.45785 0
M  V30 13314 C 1307.31 0.436617 -2.73841 0
M  V30 13315 H 1310.26 -0.222852 -1.57128 0
M  V30 13316 H 1310.28 1.86452 -3.31686 0
M  V30 13317 H 1309.79 0.128479 -3.87887 0
M  V30 13318 H 1307.89 2.3778 -2.86865 0
M  V30 13319 H 1308 1.51668 -4.5446 0
M  V30 13320 H 1306.37 0.897506 -2.38363 0
M  V30 13321 H 1307.15 -0.424225 -3.40669 0
M  V30 13322 N 1309.6 1.55164 0.276031 0
M  V30 13323 C 1311.01 1.66367 0.847293 0
M  V30 13324 C 1311.36 0.588692 1.8716 0
M  V30 13325 O 1310.48 -0.27035 2.14705 0
M  V30 13326 C 1311.08 3.01593 1.5436 0
M  V30 13327 C 1309.64 3.14833 2.06293 0
M  V30 13328 C 1308.78 2.62152 0.903959 0
M  V30 13329 H 1311.74 1.58613 0.0524478 0
M  V30 13330 H 1311.76 2.94412 2.41043 0
M  V30 13331 H 1311.27 3.7981 0.797849 0
M  V30 13332 H 1309.37 2.41384 2.83839 0
M  V30 13333 H 1309.48 4.21353 2.28032 0
M  V30 13334 H 1307.85 2.19233 1.29649 0
M  V30 13335 H 1308.63 3.4287 0.171765 0
M  V30 13336 N 1311.07 -0.540404 1.48045 0
M  V30 13337 C 1312.32 -1.29422 1.55224 0
M  V30 13338 C 1312.64 -1.93716 0.223365 0
M  V30 13339 O 1311.91 -1.808 -0.754204 0
M  V30 13340 H 1310.49 -0.480658 0.571819 0
M  V30 13341 H 1313.16 -0.629712 1.84447 0
M  V30 13342 H 1312.25 -2.07897 2.32777 0
M  V30 13343 N 1312.55 -1.36459 -0.788468 0
M  V30 13344 C 1313.8 -1.30483 -1.54333 0
M  V30 13345 C 1314.12 0.115266 -1.94659 0
M  V30 13346 O 1313.39 1.05573 -1.65019 0
M  V30 13347 H 1311.97 -0.480004 -0.572368 0
M  V30 13348 H 1314.63 -1.70765 -0.939428 0
M  V30 13349 H 1313.73 -1.93284 -2.45046 0
M  V30 13350 N 1314.03 1.01274 -1.20754 0
M  V30 13351 C 1314.96 2.11763 -0.983805 0
M  V30 13352 C 1315.94 1.69869 0.0885635 0
M  V30 13353 O 1317.13 1.94075 -0.0697239 0
M  V30 13354 C 1314.26 3.43087 -0.539287 0
M  V30 13355 C 1313.21 3.9874 -1.55534 0
M  V30 13356 C 1312.54 5.25877 -0.967322 0
M  V30 13357 C 1313.84 4.31688 -2.94012 0
M  V30 13358 H 1315.53 2.30737 -1.90789 0
M  V30 13359 H 1313.08 1.10884 -0.918734 0
M  V30 13360 H 1315.03 4.19773 -0.369979 0
M  V30 13361 H 1313.75 3.23883 0.420435 0
M  V30 13362 H 1312.41 3.24166 -1.71207 0
M  V30 13363 H 1312.06 5.03 0.000448307 0
M  V30 13364 H 1311.76 5.64077 -1.64594 0
M  V30 13365 H 1313.28 6.05215 -0.809167 0
M  V30 13366 H 1314.7 4.99246 -2.81827 0
M  V30 13367 H 1313.1 4.81011 -3.58815 0
M  V30 13368 H 1314.17 3.4029 -3.45442 0
M  V30 13369 N 1315.51 1.01404 1.20644 0
M  V30 13370 C 1316.75 0.710412 1.91657 0
M  V30 13371 C 1317.11 -0.745972 1.76916 0
M  V30 13372 O 1318.31 -1.162 2.42386 0
M  V30 13373 C 1316.59 1.13093 3.39035 0
M  V30 13374 S 1318.14 0.948885 4.28418 0
M  V30 13375 H 1314.96 0.259074 0.662119 0
M  V30 13376 H 1317.56 1.30077 1.45946 0
M  V30 13377 H 1316.27 2.18682 3.47284 0
M  V30 13378 H 1315.8 0.533248 3.89769 0
M  V30 13379 H 1317.81 -0.149 4.95976 0
M  V30 13380 N 1316.99 -1.36373 0.789944 0
M  V30 13381 C 1317.94 -2.27425 0.161798 0
M  V30 13382 C 1318.92 -1.46983 -0.654583 0
M  V30 13383 O 1320.11 -1.69355 -0.51457 0
M  V30 13384 C 1317.24 -3.36043 -0.702128 0
M  V30 13385 C 1316.33 -4.23921 0.123071 0
M  V30 13386 N 1316.72 -4.91895 1.17784 0
M  V30 13387 C 1315.02 -4.45892 -0.0980072 0
M  V30 13388 C 1315.72 -5.56905 1.68023 0
M  V30 13389 N 1314.69 -5.34521 0.989371 0
M  V30 13390 H 1318.5 -2.77463 0.969093 0
M  V30 13391 H 1316.01 -1.49705 0.629458 0
M  V30 13392 H 1318.01 -4.00203 -1.16805 0
M  V30 13393 H 1316.67 -2.8756 -1.50796 0
M  V30 13394 H 1317.68 -4.93838 1.56027 0
M  V30 13395 H 1314.36 -4.08243 -0.874307 0
M  V30 13396 H 1315.75 -6.21185 2.56085 0
M  V30 13397 N 1318.47 -0.542005 -1.47987 0
M  V30 13398 C 1319.71 -0.0122873 -2.02096 0
M  V30 13399 C 1320.03 1.3362 -1.42024 0
M  V30 13400 O 1319.3 1.86807 -0.589911 0
M  V30 13401 H 1317.88 -0.00155365 -0.746998 0
M  V30 13402 H 1320.55 -0.708566 -1.81564 0
M  V30 13403 H 1319.64 0.0871275 -3.11978 0
M  V30 13404 N 1319.94 1.55134 -0.277709 0
M  V30 13405 C 1320.89 2.19317 0.623216 0
M  V30 13406 C 1321.88 1.15863 1.11645 0
M  V30 13407 O 1323.07 1.41668 1.0611 0
M  V30 13408 C 1320.2 2.91976 1.80568 0
M  V30 13409 C 1319.28 4.02722 1.3295 0
M  V30 13410 N 1319.68 5.02582 0.569654 0
M  V30 13411 C 1317.97 4.1584 1.61224 0
M  V30 13412 C 1318.67 5.80825 0.318983 0
M  V30 13413 N 1317.65 5.36229 0.892145 0
M  V30 13414 H 1321.45 2.93879 0.0348669 0
M  V30 13415 H 1318.97 1.62196 -0.0813871 0
M  V30 13416 H 1320.96 3.36408 2.46242 0
M  V30 13417 H 1319.62 2.18925 2.39796 0
M  V30 13418 H 1320.63 5.17446 0.216749 0
M  V30 13419 H 1317.31 3.53981 2.21368 0
M  V30 13420 H 1318.7 6.71275 -0.289742 0
M  V30 13421 N 1321.42 0.00503138 1.57599 0
M  V30 13422 C 1322.83 -0.537106 1.78807 0
M  V30 13423 C 1323.18 -1.73666 0.912945 0
M  V30 13424 O 1322.31 -2.16085 0.116775 0
M  V30 13425 C 1322.9 -0.98116 3.24282 0
M  V30 13426 C 1321.46 -1.46857 3.46569 0
M  V30 13427 C 1320.61 -0.422088 2.74069 0
M  V30 13428 H 1323.56 0.231182 1.57007 0
M  V30 13429 H 1323.58 -1.8469 3.32671 0
M  V30 13430 H 1323.09 -0.107907 3.8795 0
M  V30 13431 H 1321.19 -2.36255 2.88122 0
M  V30 13432 H 1321.31 -1.49256 4.55258 0
M  V30 13433 H 1319.67 -0.884853 2.38836 0
M  V30 13434 H 1320.45 0.442285 3.40439 0
M  V30 13435 N 1322.9 -1.55308 -0.267798 0
M  V30 13436 C 1323.83 -1.84963 -1.35356 0
M  V30 13437 C 1324.84 -0.73446 -1.45291 0
M  V30 13438 O 1326.03 -1.01237 -1.47015 0
M  V30 13439 C 1323.13 -2.00221 -2.73432 0
M  V30 13440 C 1322.31 -3.30922 -2.86024 0
M  V30 13441 C 1321.37 -3.3618 -4.04808 0
M  V30 13442 O 1320.39 -4.09525 -3.9532 0
M  V30 13443 N 1321.59 -2.63958 -5.17017 0
M  V30 13444 H 1324.36 -2.7868 -1.1026 0
M  V30 13445 H 1321.92 -1.55289 -0.457914 0
M  V30 13446 H 1323.91 -2.01103 -3.51197 0
M  V30 13447 H 1322.48 -1.13346 -2.91327 0
M  V30 13448 H 1321.7 -3.42534 -1.951 0
M  V30 13449 H 1322.99 -4.17109 -2.91371 0
M  V30 13450 H 1322.39 -2.04062 -5.27613 0
M  V30 13451 H 1320.94 -2.70558 -5.92994 0
M  V30 13452 N 1324.38 0.532545 -1.4833 0
M  V30 13453 C 1325.79 1.11451 -1.49785 0
M  V30 13454 C 1326.14 1.94386 -0.266207 0
M  V30 13455 O 1325.26 2.07121 0.62688 0
M  V30 13456 C 1325.86 2.0279 -2.71407 0
M  V30 13457 C 1324.42 2.56209 -2.75742 0
M  V30 13458 C 1323.57 1.33114 -2.43261 0
M  V30 13459 H 1326.52 0.317924 -1.55483 0
M  V30 13460 H 1326.54 2.87038 -2.49779 0
M  V30 13461 H 1326.05 1.42401 -3.61031 0
M  V30 13462 H 1324.15 3.20327 -1.9032 0
M  V30 13463 H 1324.26 2.95518 -3.77102 0
M  V30 13464 H 1322.63 1.64607 -1.94362 0
M  V30 13465 H 1323.41 0.744809 -3.35123 0
M  V30 13466 N 1325.86 1.36875 0.78122 0
M  V30 13467 C 1326.79 1.27738 1.90304 0
M  V30 13468 C 1327.8 0.195147 1.61626 0
M  V30 13469 O 1328.99 0.450531 1.72721 0
M  V30 13470 C 1326.09 0.950103 3.25309 0
M  V30 13471 C 1325.26 2.13589 3.81705 0
M  V30 13472 C 1324.32 1.78037 4.95166 0
M  V30 13473 O 1323.35 2.50223 5.11251 0
M  V30 13474 N 1324.55 0.718886 5.76031 0
M  V30 13475 H 1327.31 2.24397 1.98661 0
M  V30 13476 H 1324.88 1.30376 0.959883 0
M  V30 13477 H 1326.87 0.693286 3.98717 0
M  V30 13478 H 1325.44 0.0723849 3.12516 0
M  V30 13479 H 1324.66 2.55502 3.00187 0
M  V30 13480 H 1325.95 2.9279 4.16114 0
M  V30 13481 H 1325.34 0.119681 5.65573 0
M  V30 13482 H 1323.9 0.521909 6.49707 0
M  V30 13483 N 1327.33 -1.00632 1.21289 0
M  V30 13484 C 1328.58 -1.74647 1.03084 0
M  V30 13485 C 1328.91 -1.89271 -0.43476 0
M  V30 13486 O 1328.19 -1.42607 -1.32263 0
M  V30 13487 C 1328.47 -3.15981 1.72709 0
M  V30 13488 C 1328.32 -3.09088 3.2678 0
M  V30 13489 C 1329.64 -4.14875 1.46857 0
M  V30 13490 H 1326.76 -0.633938 0.375889 0
M  V30 13491 H 1329.4 -1.17328 1.49446 0
M  V30 13492 H 1327.55 -3.64918 1.33294 0
M  V30 13493 H 1329.23 -2.67875 3.75554 0
M  V30 13494 H 1327.47 -2.46223 3.57151 0
M  V30 13495 H 1328.14 -4.09041 3.70661 0
M  V30 13496 H 1330.62 -3.74637 1.81069 0
M  V30 13497 H 1329.49 -5.1191 1.98088 0
M  V30 13498 H 1329.75 -4.40302 0.398296 0
M  V30 13499 N 1328.81 -1.02043 -1.20104 0
M  V30 13500 C 1329.76 -0.564679 -2.20897 0
M  V30 13501 C 1330.75 0.382041 -1.56299 0
M  V30 13502 O 1331.94 0.204384 -1.75816 0
M  V30 13503 C 1329.07 0.0917516 -3.43177 0
M  V30 13504 C 1328.15 -0.876903 -4.14935 0
M  V30 13505 N 1328.54 -2.03596 -4.63014 0
M  V30 13506 C 1326.84 -0.698538 -4.40496 0
M  V30 13507 C 1327.54 -2.64621 -5.18026 0
M  V30 13508 N 1326.52 -1.92651 -5.08317 0
M  V30 13509 H 1330.32 -1.44825 -2.5574 0
M  V30 13510 H 1327.83 -0.88628 -1.36084 0
M  V30 13511 H 1329.83 0.43582 -4.14616 0
M  V30 13512 H 1328.49 0.971116 -3.09838 0
M  V30 13513 H 1329.5 -2.41573 -4.58108 0
M  V30 13514 H 1326.18 0.132449 -4.1729 0
M  V30 13515 H 1327.57 -3.62732 -5.65575 0
M  V30 13516 O 1330.33 1.31809 -0.933195 0
M  V30 13517 H 1331.02 1.85497 -0.557724 0
M  V30 END ATOM
M  V30 BEGIN BOND
M  V30 END BOND
M  V30 END CTAB
M  END
$$$$
