drugbank_target|Q00987 E3 ubiquitin-protein ligase Mdm2 (DB01593; DB02872; DB04144; DB14487; DB14533; DB14548)
 OpenBabel12092119453D

  0  0  0     0  0            999 V3000
M  V30 BEGIN CTAB
M  V30 COUNTS 7535 7599 0 0 0
M  V30 BEGIN ATOM
M  V30 1 H -0.908 1.98254 -0.117106 0
M  V30 2 N 0 1.576 0 0
M  V30 3 C 0.933 2.03868 1.02534 0
M  V30 4 C 1.911 0.928543 1.3348 0
M  V30 5 O 3.095 1.19667 1.45644 0
M  V30 6 C 0.222 2.43627 2.35294 0
M  V30 7 C -0.732 3.65373 2.2001 0
M  V30 8 S 0.101 5.13292 1.52614 0
M  V30 9 C 1.257 5.56322 2.86805 0
M  V30 10 H 1.49 2.90518 0.631377 0
M  V30 11 H -0.977 1.52953 0.210867 0
M  V30 12 H 0.981 2.67203 3.11629 0
M  V30 13 H -0.358 1.57376 2.7183 0
M  V30 14 H -1.165 3.90944 3.18086 0
M  V30 15 H -1.563 3.418 1.51819 0
M  V30 16 H 0.729 5.58782 3.83104 0
M  V30 17 H 1.672 6.56266 2.65933 0
M  V30 18 H 2.08 4.83886 2.90714 0
M  V30 19 N 1.4781 -0.272755 1.55222 0
M  V30 20 C 2.7181 -1.01197 1.77591 0
M  V30 21 C 3.0821 -1.8349 0.565294 0
M  V30 22 O 4.2831 -2.60387 0.667242 0
M  V30 23 C 2.5541 -1.87096 3.04516 0
M  V30 24 S 4.1131 -2.67279 3.48004 0
M  V30 25 H 0.9311 -0.340836 0.62398 0
M  V30 26 H 3.5331 -0.282374 1.9345 0
M  V30 27 H 2.2371 -1.25565 3.90719 0
M  V30 28 H 1.7681 -2.64376 2.91323 0
M  V30 29 H 3.7831 -3.89593 3.07297 0
M  V30 30 N 2.9562 -1.48159 -0.537278 0
M  V30 31 C 3.9042 -1.62573 -1.66352 0
M  V30 32 C 4.8982 -0.492366 -1.62087 0
M  V30 33 O 6.1042 -0.670847 -1.67032 0
M  V30 34 H 2.4792 -0.511992 -0.550789 0
M  V30 35 H 4.4502 -2.57176 -1.51337 0
M  V30 36 C 3.1992 -1.67583 -3.04649 0
M  V30 37 H 2.5222 -2.54151 -3.08622 0
M  V30 38 H 3.9622 -1.81713 -3.83088 0
M  V30 39 C 2.4212 -0.413039 -3.34358 0
M  V30 40 O 2.9512 0.477259 -3.98855 0
M  V30 41 N 1.1572 -0.286961 -2.8918 0
M  V30 42 H 0.7042 -1.01241 -2.36871 0
M  V30 43 H 0.6622 0.556963 -3.09427 0
M  V30 44 N 4.4343 0.785586 -1.36625 0
M  V30 45 C 5.6623 1.57448 -1.3423 0
M  V30 46 C 6.0773 1.88649 0.0755653 0
M  V30 47 O 5.4343 1.50414 1.03354 0
M  V30 48 C 5.4853 2.89316 -2.16745 0
M  V30 49 O 5.2063 2.59459 -3.53005 0
M  V30 50 C 6.7073 3.83606 -2.22174 0
M  V30 51 H 3.9273 0.488226 -0.4603 0
M  V30 52 H 6.4713 0.974733 -1.79775 0
M  V30 53 H 4.6263 3.4575 -1.74745 0
M  V30 54 H 5.0403 3.43804 -3.96105 0
M  V30 55 H 6.5143 4.73181 -2.8426 0
M  V30 56 H 6.9913 4.21734 -1.22627 0
M  V30 57 H 7.5973 3.33104 -2.64427 0
M  V30 58 N 5.9124 1.20967 1.01018 0
M  V30 59 C 6.8604 0.961223 2.1181 0
M  V30 60 C 7.8544 -0.0897034 1.69162 0
M  V30 61 O 9.0604 0.0612271 1.79896 0
M  V30 62 H 5.4354 0.29355 0.692338 0
M  V30 63 H 7.4064 1.90178 2.29946 0
M  V30 64 C 6.1554 0.536854 3.4353 0
M  V30 65 H 5.4784 1.33713 3.76777 0
M  V30 66 H 6.9184 0.402286 4.22087 0
M  V30 67 C 5.3774 -0.751574 3.2841 0
M  V30 68 O 5.9074 -1.80841 3.58691 0
M  V30 69 N 4.1134 -0.716079 2.81639 0
M  V30 70 H 3.6604 0.144236 2.57196 0
M  V30 71 H 3.6184 -1.57847 2.71904 0
M  V30 72 N 7.3905 -1.2043 1.01659 0
M  V30 73 C 8.3235 -2.21924 0.531521 0
M  V30 74 C 9.3015 -1.57054 -0.421032 0
M  V30 75 O 10.4855 -1.85389 -0.341035 0
M  V30 76 C 7.6125 -3.37942 -0.226496 0
M  V30 77 C 6.6585 -4.21115 0.67561 0
M  V30 78 S 7.4915 -4.90674 2.14475 0
M  V30 79 C 8.6475 -6.10113 1.3969 0
M  V30 80 H 8.8805 -2.62725 1.3915 0
M  V30 81 H 6.4135 -1.30481 0.825479 0
M  V30 82 H 8.3715 -4.05196 -0.657738 0
M  V30 83 H 7.0325 -2.956 -1.06205 0
M  V30 84 H 6.2255 -5.03918 0.091108 0
M  V30 85 H 5.8275 -3.59115 1.04463 0
M  V30 86 H 8.1195 -6.7411 0.676897 0
M  V30 87 H 9.0625 -6.73022 2.20107 0
M  V30 88 H 9.4705 -5.57283 0.899786 0
M  V30 89 N 8.8686 -0.792821 -1.36206 0
M  V30 90 C 10.0936 -0.377701 -2.03932 0
M  V30 91 C 10.5186 0.998947 -1.59382 0
M  V30 92 O 9.8766 1.64421 -0.763903 0
M  V30 93 C 9.9246 -0.453635 -3.57735 0
M  V30 94 O 9.0286 0.538151 -4.08874 0
M  V30 95 H 8.3696 -0.159855 -0.644471 0
M  V30 96 H 10.8996 -1.07488 -1.7409 0
M  V30 97 H 10.9096 -0.318464 -4.06755 0
M  V30 98 H 9.5846 -1.45784 -3.89512 0
M  V30 99 H 8.1616 0.364359 -3.71116 0
M  V30 100 N 10.3467 1.47872 -0.545128 0
M  V30 101 C 11.5927 2.02793 -0.0166104 0
M  V30 102 C 11.9257 1.41987 1.32489 0
M  V30 103 O 11.2007 0.571045 1.85928 0
M  V30 104 C 11.4837 3.59989 0.0893294 0
M  V30 105 C 11.3367 4.3125 -1.27841 0
M  V30 106 C 12.6557 4.32606 0.808724 0
M  V30 107 H 9.7747 0.736962 -0.00751035 0
M  V30 108 H 12.4167 1.76433 -0.705085 0
M  V30 109 H 10.5667 3.82579 0.675681 0
M  V30 110 H 12.2387 4.20035 -1.90704 0
M  V30 111 H 10.4817 3.92076 -1.85632 0
M  V30 112 H 11.1527 5.39736 -1.15713 0
M  V30 113 H 13.6287 4.14936 0.310992 0
M  V30 114 H 12.5047 5.42251 0.851782 0
M  V30 115 H 12.7657 4.00963 1.86229 0
M  V30 116 N 11.8248 0.280983 1.55075 0
M  V30 117 C 13.2358 -0.215629 1.85451 0
M  V30 118 C 13.5868 -1.54991 1.203 0
M  V30 119 O 12.7118 -2.10699 0.493435 0
M  V30 120 C 13.3068 -0.398026 3.36454 0
M  V30 121 C 11.8658 -0.838866 3.66933 0
M  V30 122 C 11.0128 0.064458 2.77225 0
M  V30 123 H 13.9638 0.502601 1.50531 0
M  V30 124 H 13.9848 -1.23569 3.59876 0
M  V30 125 H 13.4968 0.573241 3.83843 0
M  V30 126 H 11.5978 -1.8214 3.25048 0
M  V30 127 H 11.7108 -0.672123 4.74362 0
M  V30 128 H 10.0748 -0.452863 2.50642 0
M  V30 129 H 10.8578 1.03172 3.2743 0
M  V30 130 N 13.3029 -1.57598 0.00835791 0
M  V30 131 C 14.5309 -1.95214 -0.68549 0
M  V30 132 C 14.9459 -0.883706 -1.66841 0
M  V30 133 O 14.3029 0.136565 -1.81988 0
M  V30 134 C 14.3539 -3.32865 -1.41007 0
M  V30 135 O 14.0749 -4.35609 -0.466552 0
M  V30 136 C 15.5759 -3.84991 -2.19765 0
M  V30 137 H 12.7959 -0.643422 -0.190392 0
M  V30 138 H 15.3399 -2.04406 0.0619607 0
M  V30 139 H 13.4949 -3.24956 -2.10908 0
M  V30 140 H 13.9089 -5.15288 -0.978699 0
M  V30 141 H 15.3829 -4.8371 -2.65948 0
M  V30 142 H 15.8599 -3.18137 -3.02796 0
M  V30 143 H 16.4659 -3.96103 -1.54864 0
M  V30 144 N 14.781 0.264519 -1.55364 0
M  V30 145 C 16.058 1.01677 -1.67096 0
M  V30 146 C 16.438 2.03996 -0.543015 0
M  V30 147 O 15.786 2.23907 0.45585 0
M  V30 148 C 15.996 1.66596 -3.0667 0
M  V30 149 C 17.344 2.17442 -3.64697 0
M  V30 150 O 18.368 1.76568 -3.09358 0
M  V30 151 O 17.227 2.92439 -4.61673 0
M  V30 152 H 14.321 0.472161 -0.678965 0
M  V30 153 H 16.867 0.259703 -1.67701 0
M  V30 154 H 15.639 0.924962 -3.80211 0
M  V30 155 H 15.262 2.48968 -3.10001 0
M  V30 156 N 16.2591 1.48442 0.529413 0
M  V30 157 C 17.5071 1.56179 1.28267 0
M  V30 158 C 17.8281 0.237721 1.93546 0
M  V30 159 O 17.0981 -0.740779 1.81354 0
M  V30 160 H 15.6781 0.575367 0.476405 0
M  V30 161 H 18.3401 1.84909 0.61602 0
M  V30 162 H 17.4361 2.34312 2.06165 0
M  V30 163 N 17.7372 -0.778329 1.37039 0
M  V30 164 C 18.7002 -1.87301 1.32102 0
M  V30 165 C 19.7002 -1.59198 0.226405 0
M  V30 166 O 20.8902 -1.67403 0.481861 0
M  V30 167 C 18.0222 -3.24309 1.05055 0
M  V30 168 H 19.2152 -1.93093 2.29467 0
M  V30 169 H 16.7682 -0.977358 1.21973 0
M  V30 170 H 17.5032 -3.24196 0.0819373 0
M  V30 171 H 17.2882 -3.46098 1.84279 0
M  V30 172 H 18.7782 -4.04382 1.04234 0
M  V30 173 N 19.2153 -1.21501 -1.00376 0
M  V30 174 C 20.4613 -1.03452 -1.74429 0
M  V30 175 C 20.7943 0.430764 -1.89362 0
M  V30 176 O 20.0693 1.31962 -1.42886 0
M  V30 177 C 20.3523 -1.73375 -3.15615 0
M  V30 178 C 20.2053 -3.27431 -3.08397 0
M  V30 179 C 21.5243 -1.47732 -4.14564 0
M  V30 180 H 18.6433 -0.377226 -0.633143 0
M  V30 181 H 21.2853 -1.49693 -1.17013 0
M  V30 182 H 19.4353 -1.34064 -3.64636 0
M  V30 183 H 21.1073 -3.76119 -2.67081 0
M  V30 184 H 19.3503 -3.5767 -2.45468 0
M  V30 185 H 20.0213 -3.71524 -4.08258 0
M  V30 186 H 22.4973 -1.8186 -3.74254 0
M  V30 187 H 21.3733 -1.99169 -5.11491 0
M  V30 188 H 21.6343 -0.407589 -4.40217 0
M  V30 189 N 20.6934 1.19889 -1.02296 0
M  V30 190 C 21.9214 1.9339 -0.735399 0
M  V30 191 C 22.3364 1.75148 0.704887 0
M  V30 192 O 21.6934 1.06954 1.47875 0
M  V30 193 C 21.7444 3.45313 -1.06962 0
M  V30 194 O 21.4654 3.62964 -2.45334 0
M  V30 195 C 22.9664 4.35948 -0.804021 0
M  V30 196 H 20.1864 0.61448 -0.269546 0
M  V30 197 H 22.7304 1.522 -1.36585 0
M  V30 198 H 20.8854 3.84359 -0.484455 0
M  V30 199 H 21.2994 4.56886 -2.57595 0
M  V30 200 H 22.7734 5.41174 -1.0879 0
M  V30 201 H 23.2504 4.3842 0.261691 0
M  V30 202 H 23.8564 4.02574 -1.37164 0
M  V30 203 N 22.1715 0.800033 1.35784 0
M  V30 204 C 23.3995 0.389606 2.03199 0
M  V30 205 C 23.8145 -0.997375 1.60306 0
M  V30 206 O 23.1715 -1.64154 0.797481 0
M  V30 207 C 23.2225 0.455855 3.58614 0
M  V30 208 O 22.9435 1.78815 3.99946 0
M  V30 209 C 24.4445 0.0374032 4.43284 0
M  V30 210 H 21.6645 0.159132 0.651857 0
M  V30 211 H 24.2085 1.08183 1.73541 0
M  V30 212 H 22.3635 -0.188057 3.86943 0
M  V30 213 H 22.7775 1.74636 4.94573 0
M  V30 214 H 24.2515 0.134882 5.51835 0
M  V30 215 H 24.7285 -1.01651 4.27275 0
M  V30 216 H 25.3345 0.654215 4.20238 0
M  V30 217 N 23.6496 -1.47581 0.552962 0
M  V30 218 C 24.8746 -2.07378 0.0300593 0
M  V30 219 C 25.2996 -1.40355 -1.25229 0
M  V30 220 O 24.6576 -0.477099 -1.7491 0
M  V30 221 C 24.7056 -3.60274 -0.153231 0
M  V30 222 O 23.8096 -3.94041 -1.21678 0
M  V30 223 H 23.1506 -0.662158 0.0494182 0
M  V30 224 H 25.6806 -1.89662 0.767434 0
M  V30 225 H 25.6906 -4.0633 -0.368761 0
M  V30 226 H 24.3656 -4.08455 0.783397 0
M  V30 227 H 22.9426 -3.59735 -0.982079 0
M  V30 228 N 25.1277 -0.289203 -1.54924 0
M  V30 229 C 26.0597 0.625583 -2.20497 0
M  V30 230 C 27.0727 1.10667 -1.19402 0
M  V30 231 O 28.2617 1.02615 -1.46056 0
M  V30 232 C 25.3617 1.86702 -2.82835 0
M  V30 233 C 24.5347 1.5304 -4.09753 0
M  V30 234 C 23.5937 2.62576 -4.56005 0
M  V30 235 O 22.6197 2.28167 -5.21468 0
M  V30 236 N 23.8217 3.92901 -4.27328 0
M  V30 237 H 26.5867 0.0642801 -2.99631 0
M  V30 238 H 24.1477 -0.110896 -1.6152 0
M  V30 239 H 26.1397 2.59304 -3.10715 0
M  V30 240 H 24.7097 2.33702 -2.07611 0
M  V30 241 H 23.9297 0.637564 -3.8901 0
M  V30 242 H 25.2177 1.28072 -4.92418 0
M  V30 243 H 24.6157 4.23671 -3.74859 0
M  V30 244 H 23.1727 4.61837 -4.59946 0
M  V30 245 N 26.6058 1.57591 -0.0167156 0
M  V30 246 C 27.8548 1.90461 0.663877 0
M  V30 247 C 28.1678 0.893515 1.73999 0
M  V30 248 O 29.3738 1.11302 2.47637 0
M  V30 249 C 27.8298 3.38155 1.23204 0
M  V30 250 C 27.4378 4.47597 0.189866 0
M  V30 251 C 29.1818 3.80111 1.88986 0
M  V30 252 C 27.0888 5.86379 0.768964 0
M  V30 253 H 26.0188 0.710738 0.251729 0
M  V30 254 H 28.6698 1.83326 -0.0799926 0
M  V30 255 H 27.0518 3.40182 2.02712 0
M  V30 256 H 28.2258 4.57112 -0.581846 0
M  V30 257 H 26.5408 4.14766 -0.368475 0
M  V30 258 H 29.1378 4.81145 2.33247 0
M  V30 259 H 29.4808 3.14511 2.72743 0
M  V30 260 H 30.0138 3.80454 1.16187 0
M  V30 261 H 26.7528 6.55493 -0.0301957 0
M  V30 262 H 26.2728 5.80496 1.50945 0
M  V30 263 H 27.9518 6.34563 1.26251 0
M  V30 264 N 28.0839 -0.256276 1.55502 0
M  V30 265 C 29.4949 -0.826068 1.67431 0
M  V30 266 C 29.8459 -1.86396 0.612446 0
M  V30 267 O 28.9709 -2.15031 -0.243025 0
M  V30 268 C 29.5659 -1.50512 3.03532 0
M  V30 269 C 28.1249 -2.02273 3.17431 0
M  V30 270 C 27.2719 -0.870548 2.63281 0
M  V30 271 H 30.2229 -0.0322728 1.58667 0
M  V30 272 H 30.2439 -2.37279 2.97454 0
M  V30 273 H 29.7559 -0.749484 3.80794 0
M  V30 274 H 27.8569 -2.80746 2.44974 0
M  V30 275 H 27.9699 -2.22655 4.24219 0
M  V30 276 H 26.3339 -1.26851 2.20864 0
M  V30 277 H 27.1169 -0.128149 3.43061 0
M  V30 278 N 29.562 -1.4872 -0.521534 0
M  V30 279 C 30.525 -1.63379 -1.60748 0
M  V30 280 C 31.525 -0.50661 -1.52611 0
M  V30 281 O 32.715 -0.772601 -1.5613 0
M  V30 282 C 29.847 -1.61192 -3.00383 0
M  V30 283 H 31.04 -2.60217 -1.49087 0
M  V30 284 H 28.593 -1.37444 -0.744235 0
M  V30 285 H 29.328 -0.65863 -3.17541 0
M  V30 286 H 29.113 -2.43032 -3.07698 0
M  V30 287 H 30.603 -1.7466 -3.7932 0
M  V30 288 N 31.0401 0.771051 -1.3745 0
M  V30 289 C 32.2651 1.56529 -1.36065 0
M  V30 290 C 32.6901 1.88029 0.0515859 0
M  V30 291 O 32.0481 1.49282 1.02882 0
M  V30 292 C 32.0961 2.85187 -2.20683 0
M  V30 293 O 31.2001 3.79593 -1.61193 0
M  V30 294 H 30.5411 0.47411 -0.464883 0
M  V30 295 H 33.0711 0.954269 -1.80983 0
M  V30 296 H 33.0811 3.34283 -2.33921 0
M  V30 297 H 31.7561 2.61588 -3.23334 0
M  V30 298 H 30.3331 3.38239 -1.56999 0
M  V30 299 N 32.5182 1.22032 0.997298 0
M  V30 300 C 33.4282 1.00271 2.12092 0
M  V30 301 C 34.4442 -0.047621 1.73935 0
M  V30 302 O 35.6202 0.144136 2.00884 0
M  V30 303 C 32.6852 0.578449 3.4184 0
M  V30 304 C 31.7462 1.70189 3.94125 0
M  V30 305 C 30.9792 1.29778 5.17681 0
M  V30 306 O 31.2022 0.174676 5.70132 0
M  V30 307 O 30.1362 2.11261 5.63607 0
M  V30 308 H 33.9622 1.94398 2.3333 0
M  V30 309 H 31.5472 1.00587 1.10465 0
M  V30 310 H 33.4292 0.351998 4.19927 0
M  V30 311 H 32.1042 -0.334019 3.21972 0
M  V30 312 H 31.0112 1.98282 3.1723 0
M  V30 313 H 32.3442 2.59206 4.18417 0
M  V30 314 N 33.9963 -1.19345 1.0293 0
M  V30 315 C 34.9283 -2.22036 0.56857 0
M  V30 316 C 35.9413 -1.58865 -0.355779 0
M  V30 317 O 37.1303 -1.77851 -0.152103 0
M  V30 318 C 34.2303 -3.38363 -0.190752 0
M  V30 319 C 33.4033 -4.31118 0.738643 0
M  V30 320 C 32.4623 -5.26194 0.0246497 0
M  V30 321 O 31.4883 -5.65461 0.651354 0
M  V30 322 N 32.6903 -5.66971 -1.24594 0
M  V30 323 H 35.4553 -2.6219 1.45177 0
M  V30 324 H 33.0163 -1.34015 0.908381 0
M  V30 325 H 35.0083 -3.98981 -0.677961 0
M  V30 326 H 33.5783 -2.96994 -0.975366 0
M  V30 327 H 32.7983 -3.68276 1.40593 0
M  V30 328 H 34.0863 -4.90001 1.37029 0
M  V30 329 H 33.4843 -5.37104 -1.77583 0
M  V30 330 H 32.0413 -6.2984 -1.67764 0
M  V30 331 N 35.4744 -0.807222 -1.35358 0
M  V30 332 C 36.3844 -0.219594 -2.3357 0
M  V30 333 C 37.4004 0.637734 -1.61892 0
M  V30 334 O 38.5764 0.549336 -1.93763 0
M  V30 335 C 35.6414 0.62158 -3.41083 0
M  V30 336 C 34.7024 -0.256315 -4.28534 0
M  V30 337 C 33.9354 0.544807 -5.30912 0
M  V30 338 O 34.1584 1.77944 -5.41934 0
M  V30 339 O 33.0924 -0.0646478 -6.01865 0
M  V30 340 H 36.9184 -1.03208 -2.85625 0
M  V30 341 H 34.5034 -0.569025 -1.38139 0
M  V30 342 H 36.3854 1.10067 -4.06772 0
M  V30 343 H 35.0604 1.41165 -2.91297 0
M  V30 344 H 33.9674 -0.782559 -3.65823 0
M  V30 345 H 35.3004 -1.01034 -4.81719 0
M  V30 346 N 36.9525 1.47285 -0.560781 0
M  V30 347 C 38.1805 2.06855 -0.0430262 0
M  V30 348 C 38.5955 1.41291 1.25229 0
M  V30 349 O 37.9525 0.510648 1.7521 0
M  V30 350 C 38.0035 3.61178 0.152518 0
M  V30 351 O 37.7245 4.24285 -1.0915 0
M  V30 352 C 39.2255 4.37624 0.707145 0
M  V30 353 H 36.4455 0.669319 -0.0474652 0
M  V30 354 H 38.9895 1.89237 -0.77521 0
M  V30 355 H 37.1445 3.78298 0.834843 0
M  V30 356 H 37.5585 5.16868 -0.891482 0
M  V30 357 H 39.0325 5.46271 0.793244 0
M  V30 358 H 39.5095 4.04152 1.71923 0
M  V30 359 H 40.1155 4.25257 0.0604027 0
M  V30 360 N 38.4306 0.297415 1.54768 0
M  V30 361 C 39.3606 -0.573494 2.26348 0
M  V30 362 C 40.3416 -1.14085 1.26169 0
M  V30 363 O 41.5266 -1.17086 1.54934 0
M  V30 364 C 38.6566 -1.74716 3.00153 0
M  V30 365 C 37.6106 -1.31032 4.07449 0
M  V30 366 C 36.9366 -2.56887 4.68949 0
M  V30 367 C 38.2366 -0.444183 5.20408 0
M  V30 368 H 39.9306 0.0235131 2.99391 0
M  V30 369 H 37.4766 0.0127488 1.43994 0
M  V30 370 H 39.4296 -2.3625 3.48947 0
M  V30 371 H 38.1536 -2.37035 2.24682 0
M  V30 372 H 36.8126 -0.718066 3.59499 0
M  V30 373 H 36.4606 -3.17512 3.90122 0
M  V30 374 H 36.1606 -2.2836 5.41411 0
M  V30 375 H 37.6846 -3.19229 5.20505 0
M  V30 376 H 39.0986 -0.9651 5.65118 0
M  V30 377 H 37.4956 -0.252846 5.99567 0
M  V30 378 H 38.5656 0.531609 4.81977 0
M  V30 379 N 39.9087 -1.5758 0.0250728 0
M  V30 380 C 41.1547 -1.91917 -0.655413 0
M  V30 381 C 41.4877 -0.901433 -1.72011 0
M  V30 382 O 40.7627 0.0764069 -1.9435 0
M  V30 383 C 41.0457 -3.36751 -1.27558 0
M  V30 384 C 40.8987 -4.49258 -0.220719 0
M  V30 385 C 42.2177 -3.81469 -2.19475 0
M  V30 386 H 39.3367 -0.697925 -0.23679 0
M  V30 387 H 41.9787 -1.89825 0.0815036 0
M  V30 388 H 40.1287 -3.38664 -1.90365 0
M  V30 389 H 41.8007 -4.59478 0.409601 0
M  V30 390 H 40.0437 -4.31415 0.454264 0
M  V30 391 H 40.7147 -5.47618 -0.694175 0
M  V30 392 H 43.1907 -3.81266 -1.66659 0
M  V30 393 H 42.0667 -4.83512 -2.59822 0
M  V30 394 H 42.3277 -3.16744 -3.08424 0
M  V30 395 N 41.3868 0.248026 -1.55636 0
M  V30 396 C 42.8028 0.596483 -1.48035 0
M  V30 397 C 43.0028 1.88386 -0.715039 0
M  V30 398 O 42.0588 2.51319 -0.243944 0
M  V30 399 C 43.3718 0.700258 -2.92433 0
M  V30 400 C 44.9198 0.792659 -3.02797 0
M  V30 401 C 45.3948 0.928005 -4.485 0
M  V30 402 N 46.8858 0.992903 -4.52433 0
M  V30 403 C 47.6208 1.11687 -5.62418 0
M  V30 404 N 47.1168 1.20645 -6.82214 0
M  V30 405 N 48.9098 1.14994 -5.50212 0
M  V30 406 H 41.0608 -0.597109 -2.03834 0
M  V30 407 H 43.3238 -0.205925 -0.925364 0
M  V30 408 H 43.0298 -0.175658 -3.51261 0
M  V30 409 H 42.9038 1.57255 -3.42857 0
M  V30 410 H 45.2908 1.65903 -2.4405 0
M  V30 411 H 45.3718 -0.104762 -2.55585 0
M  V30 412 H 45.0158 0.0661971 -5.07857 0
M  V30 413 H 44.9458 1.84045 -4.93391 0
M  V30 414 H 47.4368 0.935064 -3.66149 0
M  V30 415 H 47.7498 1.30008 -7.61786 0
M  V30 416 H 46.0948 1.17605 -6.84977 0
M  V30 417 H 49.2858 1.07643 -4.55555 0
M  V30 418 H 49.4588 1.24311 -6.35965 0
M  V30 419 N 42.8649 1.48995 0.513639 0
M  V30 420 C 44.2759 1.5119 1.09537 0
M  V30 421 C 44.6269 0.290906 1.94031 0
M  V30 422 O 43.7519 -0.60049 2.07902 0
M  V30 423 C 44.3469 2.73964 1.99322 0
M  V30 424 C 42.9059 2.78978 2.52682 0
M  V30 425 C 42.0529 2.44934 1.30009 0
M  V30 426 H 45.0039 1.55875 0.298125 0
M  V30 427 H 45.0249 2.53409 2.83838 0
M  V30 428 H 44.5369 3.62813 1.37799 0
M  V30 429 H 42.6379 1.94378 3.1788 0
M  V30 430 H 42.7509 3.8083 2.90698 0
M  V30 431 H 41.1149 1.9644 1.62122 0
M  V30 432 H 41.8979 3.36043 0.702131 0
M  V30 433 N 44.343 -0.763751 1.37857 0
M  V30 434 C 45.29 -1.87726 1.34267 0
M  V30 435 C 46.26 -1.64807 0.206879 0
M  V30 436 O 47.445 -1.86613 0.397508 0
M  V30 437 C 44.585 -3.24896 1.16346 0
M  V30 438 C 43.698 -3.59716 2.39225 0
M  V30 439 C 42.833 -4.86137 2.14114 0
M  V30 440 C 41.872 -5.13711 3.32817 0
M  V30 441 N 41.009 -6.31323 3.07206 0
M  V30 442 H 45.849 -1.90129 2.29466 0
M  V30 443 H 43.386 -0.929433 1.14017 0
M  V30 444 H 45.344 -4.04036 1.03975 0
M  V30 445 H 43.974 -3.21847 0.247909 0
M  V30 446 H 43.026 -2.75498 2.62307 0
M  V30 447 H 44.338 -3.76027 3.27728 0
M  V30 448 H 43.492 -5.73198 1.9882 0
M  V30 449 H 42.231 -4.71945 1.22961 0
M  V30 450 H 41.236 -4.25123 3.48641 0
M  V30 451 H 42.461 -5.29807 4.24832 0
M  V30 452 H 40.407 -6.18474 2.1869 0
M  V30 453 H 40.324 -6.48087 3.89254 0
M  V30 454 H 41.592 -7.213 2.95546 0
M  V30 455 N 45.8211 -1.22559 -0.990812 0
M  V30 456 C 47.2321 -1.04791 -1.54518 0
M  V30 457 C 47.5831 0.387998 -1.92325 0
M  V30 458 O 46.7081 1.27328 -1.74976 0
M  V30 459 C 47.3031 -1.896 -2.80779 0
M  V30 460 C 45.8621 -1.76124 -3.32652 0
M  V30 461 C 45.0091 -1.8594 -2.05722 0
M  V30 462 H 47.9601 -1.36374 -0.811662 0
M  V30 463 H 47.9811 -1.41464 -3.53225 0
M  V30 464 H 47.4931 -2.94101 -2.53231 0
M  V30 465 H 45.5941 -0.743643 -3.65104 0
M  V30 466 H 45.7071 -2.58913 -4.03114 0
M  V30 467 H 44.0711 -1.29403 -2.19379 0
M  V30 468 H 44.8541 -2.91976 -1.80568 0
M  V30 469 N 47.2992 1.18797 -1.03562 0
M  V30 470 C 48.2292 2.24472 -0.643019 0
M  V30 471 C 49.2102 1.66433 0.351283 0
M  V30 472 O 50.3952 1.92803 0.232505 0
M  V30 473 C 47.5252 3.473 4.24935e-05 0
M  V30 474 C 46.4792 4.18055 -0.917257 0
M  V30 475 C 45.8052 5.34519 -0.138941 0
M  V30 476 C 47.1052 4.72109 -2.23407 0
M  V30 477 H 48.7992 2.57566 -1.52643 0
M  V30 478 H 46.3452 1.23806 -0.735394 0
M  V30 479 H 48.2982 4.20426 0.286383 0
M  V30 480 H 47.0222 3.13424 0.918299 0
M  V30 481 H 45.6812 3.46821 -1.1879 0
M  V30 482 H 45.3292 4.96891 0.781562 0
M  V30 483 H 45.0292 5.82794 -0.750005 0
M  V30 484 H 46.5532 6.10438 0.1405 0
M  V30 485 H 47.9672 5.36955 -2.00879 0
M  V30 486 H 46.3642 5.30897 -2.79765 0
M  V30 487 H 47.4342 3.89807 -2.88407 0
M  V30 488 N 48.7773 0.814389 1.34928 0
M  V30 489 C 49.7073 0.244827 2.32213 0
M  V30 490 C 50.6883 -0.634024 1.57842 0
M  V30 491 O 51.8733 -0.562676 1.8587 0
M  V30 492 C 49.0033 -0.601106 3.42058 0
M  V30 493 C 47.9573 0.179896 4.27622 0
M  V30 494 C 47.2833 -0.788237 5.28858 0
M  V30 495 C 48.5833 1.38329 5.03649 0
M  V30 496 H 50.2773 1.05763 2.80097 0
M  V30 497 H 47.8233 0.510029 1.34665 0
M  V30 498 H 49.7763 -1.00968 4.09125 0
M  V30 499 H 48.5003 -1.44688 2.92802 0
M  V30 500 H 47.1593 0.569739 3.62146 0
M  V30 501 H 46.8073 -1.62973 4.75866 0
M  V30 502 H 46.5073 -0.269942 5.8698 0
M  V30 503 H 48.0313 -1.19485 5.98795 0
M  V30 504 H 49.4453 1.04918 5.63618 0
M  V30 505 H 47.8423 1.83662 5.71304 0
M  V30 506 H 48.9123 2.16592 4.33839 0
M  V30 507 N 50.2554 -1.46986 0.568584 0
M  V30 508 C 51.1854 -2.32946 -0.160753 0
M  V30 509 C 52.1664 -1.44487 -0.897631 0
M  V30 510 O 53.3514 -1.73327 -0.875867 0
M  V30 511 C 50.4814 -3.26494 -1.18403 0
M  V30 512 C 49.4354 -4.24282 -0.562895 0
M  V30 513 C 48.7614 -5.07236 -1.69163 0
M  V30 514 C 50.0614 -5.19989 0.490761 0
M  V30 515 H 51.7554 -2.94175 0.556916 0
M  V30 516 H 49.3014 -1.4146 0.26927 0
M  V30 517 H 51.2544 -3.85477 -1.70251 0
M  V30 518 H 49.9784 -2.63343 -1.93179 0
M  V30 519 H 48.6374 -3.66541 -0.0656164 0
M  V30 520 H 48.2854 -4.4048 -2.42871 0
M  V30 521 H 47.9854 -5.7345 -1.28174 0
M  V30 522 H 49.5094 -5.6908 -2.21314 0
M  V30 523 H 50.9234 -5.73271 0.0579047 0
M  V30 524 H 49.3204 -5.94469 0.820165 0
M  V30 525 H 50.3904 -4.64777 1.3824 0
M  V30 526 N 51.7335 -0.305618 -1.54608 0
M  V30 527 C 52.6805 0.568421 -2.23691 0
M  V30 528 C 53.6505 1.12592 -1.22116 0
M  V30 529 O 54.8355 1.16959 -1.50749 0
M  V30 530 C 51.9755 1.7322 -2.98477 0
M  V30 531 C 51.0885 1.20566 -4.14835 0
M  V30 532 C 50.2235 2.33368 -4.77193 0
M  V30 533 C 49.2625 1.7787 -5.85686 0
M  V30 534 N 48.3995 2.84263 -6.4198 0
M  V30 535 H 53.2395 -0.0272867 -2.97988 0
M  V30 536 H 50.7765 -0.0252363 -1.47078 0
M  V30 537 H 52.7345 2.41675 -3.40072 0
M  V30 538 H 51.3645 2.29947 -2.26548 0
M  V30 539 H 50.4165 0.413223 -3.78149 0
M  V30 540 H 51.7285 0.759417 -4.92985 0
M  V30 541 H 50.8825 3.09761 -5.21664 0
M  V30 542 H 49.6215 2.8132 -3.98385 0
M  V30 543 H 48.6265 0.99968 -5.40635 0
M  V30 544 H 49.8515 1.30816 -6.66381 0
M  V30 545 H 47.7975 3.31541 -5.66053 0
M  V30 546 H 47.7145 2.44149 -7.15491 0
M  V30 547 H 48.9825 3.6054 -6.91109 0
M  V30 548 N 53.2116 1.57565 -0.0334293 0
M  V30 549 C 54.1416 2.13511 0.945265 0
M  V30 550 C 55.1226 1.05231 1.33643 0
M  V30 551 O 56.3076 1.33084 1.41429 0
M  V30 552 C 53.4376 2.6657 2.22616 0
M  V30 553 C 52.3916 3.79676 1.97561 0
M  V30 554 C 51.7176 4.1918 3.31952 0
M  V30 555 C 53.0176 5.0557 1.31135 0
M  V30 556 H 54.7116 2.95538 0.479325 0
M  V30 557 H 52.2576 1.42166 0.229115 0
M  V30 558 H 54.2106 3.04344 2.91466 0
M  V30 559 H 52.9346 1.8171 2.71384 0
M  V30 560 H 51.5936 3.42347 1.31127 0
M  V30 561 H 51.2416 3.31296 3.78487 0
M  V30 562 H 50.9416 4.95402 3.15992 0
M  V30 563 H 52.4656 4.59541 4.02063 0
M  V30 564 H 53.8796 5.40903 1.89992 0
M  V30 565 H 52.2766 5.86818 1.25559 0
M  V30 566 H 53.3466 4.84062 0.284894 0
M  V30 567 N 54.6897 -0.239769 1.55765 0
M  V30 568 C 55.6197 -1.30052 1.9393 0
M  V30 569 C 56.6007 -1.49839 0.805132 0
M  V30 570 O 57.7857 -1.62328 1.06599 0
M  V30 571 C 54.9157 -2.65391 2.2402 0
M  V30 572 C 53.8697 -2.60289 3.39755 0
M  V30 573 C 53.1957 -3.99489 3.55405 0
M  V30 574 C 54.4957 -2.16654 4.75246 0
M  V30 575 H 56.1897 -0.983573 2.82783 0
M  V30 576 H 53.7357 -0.471701 1.36055 0
M  V30 577 H 55.6887 -3.3974 2.49308 0
M  V30 578 H 54.4127 -2.98736 1.32 0
M  V30 579 H 53.0717 -1.88398 3.14487 0
M  V30 580 H 52.7197 -4.30112 2.60793 0
M  V30 581 H 52.4197 -3.96962 4.33238 0
M  V30 582 H 53.9437 -4.75528 3.83022 0
M  V30 583 H 55.3577 -2.80737 4.99859 0
M  V30 584 H 53.7547 -2.25223 5.56232 0
M  V30 585 H 54.8247 -1.11835 4.71827 0
M  V30 586 N 56.1678 -1.49265 -0.50573 0
M  V30 587 C 57.1148 -1.65585 -1.6078 0
M  V30 588 C 58.0848 -0.497396 -1.58478 0
M  V30 589 O 59.2698 -0.72385 -1.76536 0
M  V30 590 C 56.4098 -1.72408 -2.98948 0
M  V30 591 C 55.5228 -2.99525 -3.11301 0
M  V30 592 C 54.6578 -2.97356 -4.40174 0
M  V30 593 C 53.6968 -4.19074 -4.46143 0
M  V30 594 N 52.8338 -4.14841 -5.66437 0
M  V30 595 H 57.6738 -2.59688 -1.46172 0
M  V30 596 H 55.2108 -1.28761 -0.711261 0
M  V30 597 H 57.1688 -1.74344 -3.79025 0
M  V30 598 H 55.7988 -0.817753 -3.1227 0
M  V30 599 H 54.8508 -3.07222 -2.24318 0
M  V30 600 H 56.1628 -3.89518 -3.11572 0
M  V30 601 H 55.3168 -2.97829 -5.28567 0
M  V30 602 H 54.0558 -2.05133 -4.42461 0
M  V30 603 H 53.0608 -4.1885 -3.56153 0
M  V30 604 H 54.2858 -5.12483 -4.45575 0
M  V30 605 H 52.2318 -3.25453 -5.69575 0
M  V30 606 H 52.1488 -4.98564 -5.68304 0
M  V30 607 H 53.4168 -4.1941 -6.57051 0
M  V30 608 N 57.6459 0.756429 -1.3826 0
M  V30 609 C 58.8709 1.55077 -1.37717 0
M  V30 610 C 59.2959 1.88073 0.03164 0
M  V30 611 O 58.6539 1.50364 1.01293 0
M  V30 612 C 58.7019 2.8283 -2.23695 0
M  V30 613 O 57.8059 3.77862 -1.6521 0
M  V30 614 H 57.1469 0.469152 -0.469885 0
M  V30 615 H 59.6769 0.935019 -1.81985 0
M  V30 616 H 59.6869 3.31783 -2.37453 0
M  V30 617 H 58.3619 2.58144 -3.2609 0
M  V30 618 H 56.9389 3.36555 -1.60578 0
M  V30 619 N 59.124 1.23083 0.984299 0
M  V30 620 C 60.37 1.06214 1.72761 0
M  V30 621 C 60.703 -0.400584 1.90024 0
M  V30 622 O 59.978 -1.29672 1.44967 0
M  V30 623 C 60.261 1.78375 3.12817 0
M  V30 624 C 60.114 3.32296 3.03149 0
M  V30 625 C 61.433 1.54309 4.12161 0
M  V30 626 H 58.552 0.387251 0.627061 0
M  V30 627 H 61.194 1.51536 1.14616 0
M  V30 628 H 59.344 1.39848 3.62457 0
M  V30 629 H 61.016 3.8032 2.61064 0
M  V30 630 H 59.259 3.6153 2.39747 0
M  V30 631 H 59.93 3.77972 4.02295 0
M  V30 632 H 62.406 1.87791 3.71314 0
M  V30 633 H 61.282 2.07281 5.08258 0
M  V30 634 H 61.543 0.477572 4.39513 0
M  V30 635 N 60.6021 -1.18246 1.0419 0
M  V30 636 C 61.8501 -1.87886 0.744543 0
M  V30 637 C 62.1711 -1.8082 -0.730006 0
M  V30 638 O 61.4411 -1.22736 -1.52685 0
M  V30 639 H 60.0211 -0.695556 0.272417 0
M  V30 640 H 62.6831 -1.43494 1.31892 0
M  V30 641 H 61.7791 -2.9389 1.05049 0
M  V30 642 N 62.0802 -0.821533 -1.34494 0
M  V30 643 C 63.0432 -0.247847 -2.27856 0
M  V30 644 C 64.0432 0.573453 -1.50227 0
M  V30 645 O 65.2332 0.389759 -1.69784 0
M  V30 646 C 62.3652 0.652698 -3.34593 0
M  V30 647 H 63.5582 -1.07146 -2.80107 0
M  V30 648 H 61.1112 -0.593291 -1.44602 0
M  V30 649 H 61.8462 1.49943 -2.87555 0
M  V30 650 H 61.6312 0.065292 -3.92046 0
M  V30 651 H 63.1212 1.04793 -4.04238 0
M  V30 652 N 63.5583 1.46682 -0.576371 0
M  V30 653 C 64.4903 2.28341 0.198231 0
M  V30 654 C 65.5033 1.38141 0.861453 0
M  V30 655 O 66.6923 1.62797 0.732082 0
M  V30 656 C 63.7923 3.12986 1.29972 0
M  V30 657 C 62.9653 4.31271 0.729639 0
M  V30 658 C 62.0243 4.97363 1.71803 0
M  V30 659 O 61.0503 5.55156 1.25658 0
M  V30 660 N 62.2523 4.93796 3.05198 0
M  V30 661 H 65.0173 2.9546 -0.502324 0
M  V30 662 H 62.5783 1.56525 -0.413715 0
M  V30 663 H 64.5703 3.54066 1.96008 0
M  V30 664 H 63.1403 2.47984 1.90323 0
M  V30 665 H 62.3603 3.94052 -0.108012 0
M  V30 666 H 63.6483 5.07739 0.328438 0
M  V30 667 H 63.0463 4.48077 3.45317 0
M  V30 668 H 61.6033 5.38837 3.6674 0
M  V30 669 N 65.0364 0.313813 1.54444 0
M  V30 670 C 65.9834 -0.55655 2.23989 0
M  V30 671 C 66.9534 -1.11943 1.22711 0
M  V30 672 O 68.1384 -1.16158 1.51367 0
M  V30 673 C 65.2784 -1.71635 2.99392 0
M  V30 674 C 64.3914 -1.18364 4.15468 0
M  V30 675 C 63.5264 -2.30834 4.78424 0
M  V30 676 C 62.5654 -1.74762 5.86622 0
M  V30 677 N 61.7024 -2.80855 6.43479 0
M  V30 678 H 66.5424 0.0430893 2.97969 0
M  V30 679 H 64.0794 0.0330359 1.47063 0
M  V30 680 H 66.0374 -2.39868 3.41349 0
M  V30 681 H 64.6674 -2.28742 2.27765 0
M  V30 682 H 63.7194 -0.393163 3.78363 0
M  V30 683 H 65.0314 -0.733262 4.93381 0
M  V30 684 H 64.1854 -3.0699 5.23299 0
M  V30 685 H 62.9244 -2.79204 3.99871 0
M  V30 686 H 61.9294 -0.970995 5.41158 0
M  V30 687 H 63.1544 -1.2728 6.67066 0
M  V30 688 H 61.1004 -3.28535 5.67804 0
M  V30 689 H 61.0174 -2.40351 7.16776 0
M  V30 690 H 62.2854 -3.5687 6.93011 0
M  V30 691 N 66.5145 -1.57545 0.0417849 0
M  V30 692 C 67.7915 -1.83642 -0.673433 0
M  V30 693 C 68.1715 -0.928298 -1.89594 0
M  V30 694 O 67.5195 0.0129955 -2.28496 0
M  V30 695 C 67.7295 -3.33155 -1.03964 0
M  V30 696 C 69.0775 -3.99941 -1.42592 0
M  V30 697 O 70.1015 -3.37725 -1.13226 0
M  V30 698 O 68.9605 -5.09619 -1.9736 0
M  V30 699 H 66.0545 -0.757638 -0.331533 0
M  V30 700 H 68.6005 -1.69554 0.070433 0
M  V30 701 H 67.3725 -3.9093 -0.170098 0
M  V30 702 H 66.9955 -3.52396 -1.84126 0
M  V30 703 N 67.9926 0.231505 -1.5589 0
M  V30 704 C 69.2206 0.974505 -1.82513 0
M  V30 705 C 69.6356 1.78344 -0.619591 0
M  V30 706 O 68.9926 1.77792 0.411848 0
M  V30 707 C 69.0436 1.90007 -3.07538 0
M  V30 708 O 68.7646 1.12385 -4.2344 0
M  V30 709 C 70.2656 2.75779 -3.47075 0
M  V30 710 H 67.4856 0.286065 -0.606966 0
M  V30 711 H 70.0296 0.249739 -2.02969 0
M  V30 712 H 68.1846 2.57891 -2.89086 0
M  V30 713 H 68.5986 1.75125 -4.944 0
M  V30 714 H 70.0726 3.36443 -4.37619 0
M  V30 715 H 70.5496 3.47672 -2.68367 0
M  V30 716 H 71.1556 2.13323 -3.67931 0
M  V30 717 N 69.4707 1.49531 0.497807 0
M  V30 718 C 70.7007 1.62657 1.27382 0
M  V30 719 C 71.1087 0.298488 1.86831 0
M  V30 720 O 70.4517 -0.72647 1.68725 0
M  V30 721 C 70.5137 2.6393 2.44093 0
M  V30 722 C 70.1777 4.08195 2.05489 0
M  V30 723 C 71.1747 4.949 1.59279 0
M  V30 724 C 68.8597 4.53948 2.15026 0
M  V30 725 C 70.8537 6.25397 1.23113 0
M  V30 726 C 68.5407 5.84458 1.78473 0
M  V30 727 C 69.5387 6.70006 1.32591 0
M  V30 728 O 69.2267 7.98083 0.965327 0
M  V30 729 H 68.9587 0.550429 0.392434 0
M  V30 730 H 71.5127 1.96325 0.603801 0
M  V30 731 H 69.7427 2.25449 3.14181 0
M  V30 732 H 71.4317 2.66552 3.06113 0
M  V30 733 H 72.1977 4.60779 1.51354 0
M  V30 734 H 68.0767 3.87525 2.4969 0
M  V30 735 H 71.6207 6.92125 0.872299 0
M  V30 736 H 67.5177 6.18107 1.86048 0
M  V30 737 H 68.2857 8.11122 1.09652 0
M  V30 738 N 70.9488 -0.749086 1.3866 0
M  V30 739 C 72.1768 -1.53834 1.38358 0
M  V30 740 C 72.5918 -1.88783 -0.0255219 0
M  V30 741 O 71.9488 -1.53101 -0.993292 0
M  V30 742 C 71.9998 -2.83468 2.2434 0
M  V30 743 O 71.7208 -2.50008 3.5976 0
M  V30 744 C 73.2218 -3.7758 2.32267 0
M  V30 745 H 70.4418 -0.47585 0.473083 0
M  V30 746 H 72.9858 -0.926726 1.82297 0
M  V30 747 H 71.1408 -3.40995 1.83851 0
M  V30 748 H 71.5548 -3.33182 4.05081 0
M  V30 749 H 73.0288 -4.65478 2.96706 0
M  V30 750 H 73.5058 -4.18334 1.33765 0
M  V30 751 H 74.1118 -3.25976 2.73166 0
M  V30 752 N 72.4269 -1.23603 -0.977757 0
M  V30 753 C 73.3599 -0.962772 -2.06896 0
M  V30 754 C 74.3379 0.0998743 -1.62293 0
M  V30 755 O 75.5219 -0.0349421 -1.88468 0
M  V30 756 C 72.6489 -0.45095 -3.35685 0
M  V30 757 C 71.6949 -1.50061 -3.99229 0
M  V30 758 S 72.5279 -3.07884 -4.38142 0
M  V30 759 C 73.6839 -2.58378 -5.7008 0
M  V30 760 H 73.9169 -1.88677 -2.29757 0
M  V30 761 H 71.4499 -1.06876 -1.11431 0
M  V30 762 H 73.4079 -0.162261 -4.10179 0
M  V30 763 H 72.0689 0.452179 -3.10828 0
M  V30 764 H 71.2619 -1.09269 -4.92013 0
M  V30 765 H 70.8639 -1.73878 -3.31123 0
M  V30 766 H 73.1559 -2.00563 -6.47133 0
M  V30 767 H 74.0989 -3.49711 -6.15717 0
M  V30 768 H 74.5069 -1.99143 -5.28207 0
M  V30 769 N 73.905 1.17692 -1.04816 0
M  V30 770 C 74.852 2.21581 -0.645797 0
M  V30 771 C 75.822 1.62367 0.350159 0
M  V30 772 O 77.007 1.89254 0.242433 0
M  V30 773 C 74.147 3.45092 -0.0227568 0
M  V30 774 C 73.26 4.18613 -1.06709 0
M  V30 775 C 72.395 5.29602 -0.411767 0
M  V30 776 C 71.434 5.94904 -1.44067 0
M  V30 777 N 70.571 6.97414 -0.809781 0
M  V30 778 H 75.411 2.55353 -1.5362 0
M  V30 779 H 72.948 1.25438 -0.768364 0
M  V30 780 H 74.906 4.15679 0.35588 0
M  V30 781 H 73.536 3.11917 0.831122 0
M  V30 782 H 72.588 3.46779 -1.5636 0
M  V30 783 H 73.9 4.63293 -1.84827 0
M  V30 784 H 73.054 6.06696 0.0206623 0
M  V30 785 H 71.793 4.86045 0.401438 0
M  V30 786 H 70.798 5.16544 -1.88316 0
M  V30 787 H 72.023 6.40542 -2.25571 0
M  V30 788 H 69.969 6.55998 -0.0170186 0
M  V30 789 H 69.886 7.40386 -1.52856 0
M  V30 790 H 71.154 7.78463 -0.401999 0
M  V30 791 N 75.3831 0.828654 1.34056 0
M  V30 792 C 76.2931 0.256725 2.33191 0
M  V30 793 C 77.3091 -0.611898 1.62886 0
M  V30 794 O 78.4851 -0.51844 1.94613 0
M  V30 795 C 75.5501 -0.567238 3.42028 0
M  V30 796 C 74.6111 0.324458 4.28072 0
M  V30 797 C 73.8441 -0.460274 5.31712 0
M  V30 798 O 74.0671 -1.693 5.44696 0
M  V30 799 O 73.0011 0.160391 6.01686 0
M  V30 800 H 76.8271 1.07739 2.83947 0
M  V30 801 H 74.4121 0.59093 1.37217 0
M  V30 802 H 76.2941 -1.03582 4.08471 0
M  V30 803 H 74.9691 -1.36513 2.93506 0
M  V30 804 H 73.8761 0.840659 3.64532 0
M  V30 805 H 75.2091 1.08685 4.8005 0
M  V30 806 N 76.8612 -1.46375 0.584142 0
M  V30 807 C 78.1072 -2.02678 0.0703716 0
M  V30 808 C 78.4402 -1.4545 -1.28678 0
M  V30 809 O 77.7152 -0.62014 -1.84349 0
M  V30 810 C 77.9982 -3.60099 0.00614674 0
M  V30 811 C 77.8512 -4.27709 1.3923 0
M  V30 812 C 79.1702 -4.34598 -0.693742 0
M  V30 813 H 76.2892 -0.736504 0.027047 0
M  V30 814 H 78.9312 -1.74501 0.751615 0
M  V30 815 H 77.0812 -3.84236 -0.574009 0
M  V30 816 H 78.7532 -4.14832 2.01773 0
M  V30 817 H 76.9962 -3.87016 1.95962 0
M  V30 818 H 77.6672 -5.36478 1.29982 0
M  V30 819 H 80.1432 -4.15615 -0.200869 0
M  V30 820 H 79.0192 -5.44318 -0.707714 0
M  V30 821 H 79.2802 -4.05759 -1.75533 0
M  V30 822 N 78.3393 -0.321999 -1.54275 0
M  V30 823 C 79.2693 0.537411 -2.27231 0
M  V30 824 C 80.2503 1.12064 -1.27968 0
M  V30 825 O 81.4353 1.14606 -1.56777 0
M  V30 826 C 78.5653 1.69919 -3.02894 0
M  V30 827 C 77.5193 1.24534 -4.09482 0
M  V30 828 C 76.8453 2.49394 -4.72977 0
M  V30 829 C 78.1453 0.361335 -5.21049 0
M  V30 830 H 79.8393 -0.0711406 -2.99315 0
M  V30 831 H 77.3853 -0.0356555 -1.43956 0
M  V30 832 H 79.3383 2.30668 -3.52662 0
M  V30 833 H 78.0623 2.33431 -2.28424 0
M  V30 834 H 76.7213 0.660782 -3.60596 0
M  V30 835 H 76.3693 3.11265 -3.95124 0
M  V30 836 H 76.0693 2.19718 -5.44975 0
M  V30 837 H 77.5933 3.10908 -5.25517 0
M  V30 838 H 79.0073 0.875072 -5.66582 0
M  V30 839 H 77.4043 0.157428 -5.99893 0
M  V30 840 H 78.4743 -0.60822 -4.8107 0
M  V30 841 N 79.8174 1.5752 -0.0501392 0
M  V30 842 C 81.0644 1.9265 0.623874 0
M  V30 843 C 81.3924 0.928411 1.70912 0
M  V30 844 O 80.6474 -0.0594525 1.9561 0
M  V30 845 C 80.9464 3.34467 1.25963 0
M  V30 846 C 80.6124 4.49883 0.302689 0
M  V30 847 C 79.2744 4.81184 0.0393636 0
M  V30 848 C 81.6264 5.20002 -0.353205 0
M  V30 849 C 78.9544 5.79951 -0.887308 0
M  V30 850 C 81.3064 6.1976 -1.26806 0
M  V30 851 C 79.9704 6.49491 -1.54007 0
M  V30 852 H 79.2404 0.704957 0.228292 0
M  V30 853 H 81.8874 1.91146 -0.116398 0
M  V30 854 H 80.1924 3.32333 2.07514 0
M  V30 855 H 81.8894 3.58928 1.78806 0
M  V30 856 H 78.4794 4.25457 0.518109 0
M  V30 857 H 82.6634 4.96033 -0.162854 0
M  V30 858 H 77.9194 6.01322 -1.10553 0
M  V30 859 H 82.0934 6.73205 -1.78236 0
M  V30 860 H 79.7204 7.25837 -2.25976 0
M  V30 861 N 81.2955 -0.223234 1.56011 0
M  V30 862 C 82.5255 -0.963413 1.82762 0
M  V30 863 C 82.9335 -1.78516 0.626804 0
M  V30 864 O 82.2765 -1.78974 -0.414014 0
M  V30 865 C 82.3385 -1.93126 3.0322 0
M  V30 866 C 82.0025 -1.2942 4.38291 0
M  V30 867 C 82.9995 -0.684916 5.15369 0
M  V30 868 C 80.6845 -1.30647 4.85012 0
M  V30 869 C 82.6785 -0.0963971 6.37327 0
M  V30 870 C 80.3655 -0.71411 6.06913 0
M  V30 871 C 81.3635 -0.110123 6.82911 0
M  V30 872 O 81.0515 0.47303 8.02507 0
M  V30 873 H 80.7835 -0.288011 0.611576 0
M  V30 874 H 83.3375 -0.244103 2.03944 0
M  V30 875 H 81.5675 -2.68952 2.77852 0
M  V30 876 H 83.2565 -2.53685 3.16857 0
M  V30 877 H 84.0225 -0.667774 4.80381 0
M  V30 878 H 79.9015 -1.76598 4.25833 0
M  V30 879 H 83.4455 0.375657 6.96588 0
M  V30 880 H 79.3425 -0.728659 6.41374 0
M  V30 881 H 80.1105 0.367186 8.17676 0
M  V30 882 N 82.7736 -1.49793 -0.48987 0
M  V30 883 C 83.7036 -1.70201 -1.59856 0
M  V30 884 C 84.6846 -0.55076 -1.60937 0
M  V30 885 O 85.8696 -0.787841 -1.77501 0
M  V30 886 C 82.9996 -1.77882 -2.98287 0
M  V30 887 C 81.9536 -2.92907 -3.12073 0
M  V30 888 C 81.2796 -2.85712 -4.51965 0
M  V30 889 C 82.5796 -4.3369 -2.91051 0
M  V30 890 H 84.2736 -2.63025 -1.43032 0
M  V30 891 H 81.8196 -1.26574 -0.686664 0
M  V30 892 H 83.7726 -1.90744 -3.75759 0
M  V30 893 H 82.4966 -0.816653 -3.16225 0
M  V30 894 H 81.1556 -2.79665 -2.37029 0
M  V30 895 H 80.8036 -1.8738 -4.66795 0
M  V30 896 H 80.5036 -3.62921 -4.62128 0
M  V30 897 H 82.0276 -3.00598 -5.31482 0
M  V30 898 H 83.4416 -4.47555 -3.58284 0
M  V30 899 H 81.8386 -5.12205 -3.12675 0
M  V30 900 H 82.9086 -4.47362 -1.87071 0
M  V30 901 N 84.2517 0.741722 -1.39055 0
M  V30 902 C 85.4997 1.49818 -1.35643 0
M  V30 903 C 85.8207 1.94938 0.0491642 0
M  V30 904 O 85.0907 1.68505 0.999141 0
M  V30 905 H 83.6707 0.555755 -0.499144 0
M  V30 906 H 86.3327 0.880957 -1.73854 0
M  V30 907 H 85.4287 2.38348 -2.01486 0
M  V30 908 N 85.7298 1.2412 0.971189 0
M  V30 909 C 86.6618 0.988349 2.06795 0
M  V30 910 C 87.6748 -0.0409541 1.62748 0
M  V30 911 O 88.8638 0.195673 1.77424 0
M  V30 912 C 85.9638 0.469023 3.35639 0
M  V30 913 C 85.1368 1.56065 4.08611 0
M  V30 914 C 84.1958 1.04458 5.15728 0
M  V30 915 O 83.2218 1.73553 5.42096 0
M  V30 916 N 84.4238 -0.122817 5.8037 0
M  V30 917 H 87.1888 1.93265 2.29061 0
M  V30 918 H 84.7498 1.15102 1.13856 0
M  V30 919 H 86.7418 0.108613 4.04554 0
M  V30 920 H 85.3118 -0.380919 3.1027 0
M  V30 921 H 84.5318 2.09341 3.34021 0
M  V30 922 H 85.8198 2.29449 4.54126 0
M  V30 923 H 85.2178 -0.700563 5.61345 0
M  V30 924 H 83.7748 -0.424404 6.50417 0
M  V30 925 N 87.2079 -1.17134 1.05439 0
M  V30 926 C 88.4379 -1.91094 0.785274 0
M  V30 927 C 88.8459 -1.77198 -0.663142 0
M  V30 928 O 88.1889 -1.10835 -1.46497 0
M  V30 929 C 88.2509 -3.42594 1.08949 0
M  V30 930 C 87.9149 -3.80274 2.53458 0
M  V30 931 C 88.9119 -3.82912 3.51673 0
M  V30 932 C 86.5969 -4.11162 2.88532 0
M  V30 933 C 88.5909 -4.15913 4.83006 0
M  V30 934 C 86.2779 -4.43831 4.20068 0
M  V30 935 C 87.2759 -4.46185 5.17115 0
M  V30 936 O 86.9639 -4.78083 6.46291 0
M  V30 937 H 86.6959 -0.613073 0.284811 0
M  V30 938 H 89.2499 -1.49461 1.40893 0
M  V30 939 H 87.4799 -3.84534 0.408741 0
M  V30 940 H 89.1689 -3.97817 0.805991 0
M  V30 941 H 89.9349 -3.5917 3.25917 0
M  V30 942 H 85.8139 -4.085 2.13656 0
M  V30 943 H 89.3579 -4.17665 5.5875 0
M  V30 944 H 85.2549 -4.67037 4.45586 0
M  V30 945 H 86.0229 -4.9593 6.51149 0
M  V30 946 N 88.686 -0.835752 -1.33615 0
M  V30 947 C 89.935 -0.426289 -1.97144 0
M  V30 948 C 90.248 1.01912 -1.66953 0
M  V30 949 O 91.454 1.53311 -2.24072 0
M  V30 950 C 89.91 -0.711321 -3.52801 0
M  V30 951 C 89.518 -2.1712 -3.91871 0
M  V30 952 C 91.262 -0.368654 -4.22896 0
M  V30 953 C 89.169 -2.40044 -5.40493 0
M  V30 954 H 88.099 -0.15567 -0.737755 0
M  V30 955 H 90.75 -1.0239 -1.52278 0
M  V30 956 H 89.132 -0.0433766 -3.95976 0
M  V30 957 H 90.306 -2.87936 -3.59763 0
M  V30 958 H 88.621 -2.47654 -3.34749 0
M  V30 959 H 91.218 -0.517601 -5.32189 0
M  V30 960 H 91.561 0.688078 -4.10574 0
M  V30 961 H 92.094 -0.991702 -3.8524 0
M  V30 962 H 88.833 -3.44271 -5.57815 0
M  V30 963 H 88.353 -1.73785 -5.74072 0
M  V30 964 H 90.032 -2.23042 -6.0734 0
M  V30 965 N 90.1641 1.46063 -0.591896 0
M  V30 966 C 91.0971 2.27452 0.184617 0
M  V30 967 C 92.0751 1.36188 0.888351 0
M  V30 968 O 93.2591 1.65606 0.90039 0
M  V30 969 C 90.3861 3.14162 1.26571 0
M  V30 970 C 89.4321 4.21255 0.666814 0
M  V30 971 S 90.2651 5.33034 -0.513345 0
M  V30 972 C 91.4211 6.23311 0.56872 0
M  V30 973 H 91.6541 2.92963 -0.505939 0
M  V30 974 H 89.1871 1.49676 -0.379014 0
M  V30 975 H 91.1451 3.6468 1.88463 0
M  V30 976 H 89.8061 2.47946 1.92826 0
M  V30 977 H 88.9991 4.81788 1.47974 0
M  V30 978 H 88.6011 3.73797 0.123359 0
M  V30 979 H 90.8931 6.61758 1.45198 0
M  V30 980 H 91.8361 7.081 -7.23824e-05 0
M  V30 981 H 92.2441 5.57646 0.876996 0
M  V30 982 N 91.6422 0.330177 1.54103 0
M  V30 983 C 92.8702 -0.272179 2.05102 0
M  V30 984 C 93.2852 -1.45267 1.20595 0
M  V30 985 O 92.6422 -1.8094 0.238144 0
M  V30 986 C 92.6932 -0.70023 3.54653 0
M  V30 987 O 92.4142 0.433301 4.35952 0
M  V30 988 C 93.9152 -1.3647 4.21771 0
M  V30 989 H 91.1352 -0.0549159 0.668749 0
M  V30 990 H 93.6792 0.478285 1.98828 0
M  V30 991 H 91.8342 -1.40066 3.61193 0
M  V30 992 H 92.2482 0.0947539 5.24414 0
M  V30 993 H 93.7222 -1.61509 5.27843 0
M  V30 994 H 94.1992 -2.31409 3.73292 0
M  V30 995 H 94.8052 -0.706675 4.19388 0
M  V30 996 N 93.1203 -1.57491 0.0584922 0
M  V30 997 C 94.0673 -2.11958 -0.913376 0
M  V30 998 C 95.0373 -1.02875 -1.30407 0
M  V30 999 O 96.2223 -1.30464 -1.39226 0
M  V30 1000 C 93.3623 -2.67497 -2.18035 0
M  V30 1001 C 92.4753 -3.90691 -1.84349 0
M  V30 1002 C 91.6103 -4.3452 -3.05559 0
M  V30 1003 C 90.6493 -5.50395 -2.67827 0
M  V30 1004 N 89.7863 -5.89244 -3.81754 0
M  V30 1005 H 94.6263 -2.94704 -0.442017 0
M  V30 1006 H 92.1633 -1.45643 -0.206545 0
M  V30 1007 H 94.1213 -2.978 -2.92183 0
M  V30 1008 H 92.7513 -1.87537 -2.62735 0
M  V30 1009 H 91.8033 -3.66934 -1.00319 0
M  V30 1010 H 93.1153 -4.7489 -1.5258 0
M  V30 1011 H 92.2693 -4.66414 -3.87998 0
M  V30 1012 H 91.0083 -3.49147 -3.40511 0
M  V30 1013 H 90.0133 -5.18165 -1.83806 0
M  V30 1014 H 91.2383 -6.3749 -2.34059 0
M  V30 1015 H 89.1843 -5.06823 -4.16493 0
M  V30 1016 H 89.1013 -6.68151 -3.53708 0
M  V30 1017 H 90.3693 -6.25756 -4.64811 0
M  V30 1018 N 94.5984 0.214957 -1.56127 0
M  V30 1019 C 96.0144 0.564948 -1.49267 0
M  V30 1020 C 96.2144 1.86827 -0.754838 0
M  V30 1021 O 95.2704 2.50745 -0.297198 0
M  V30 1022 C 96.5834 0.638071 -2.93852 0
M  V30 1023 C 98.1314 0.728253 -3.0441 0
M  V30 1024 C 98.6064 0.832663 -4.50367 0
M  V30 1025 N 100.097 0.896712 -4.54437 0
M  V30 1026 C 100.832 0.997324 -5.6466 0
M  V30 1027 N 100.328 1.06147 -6.8462 0
M  V30 1028 N 102.121 1.03297 -5.52527 0
M  V30 1029 H 94.2724 -0.640211 -2.02522 0
M  V30 1030 H 96.5354 -0.225507 -0.920788 0
M  V30 1031 H 96.2414 -0.250126 -3.50809 0
M  V30 1032 H 96.1154 1.49947 -3.46115 0
M  V30 1033 H 98.5024 1.60689 -2.47514 0
M  V30 1034 H 98.5834 -0.158952 -2.55306 0
M  V30 1035 H 98.2274 -0.0415417 -5.07883 0
M  V30 1036 H 98.1574 1.73538 -4.97184 0
M  V30 1037 H 100.648 0.857188 -3.6805 0
M  V30 1038 H 100.961 1.1382 -7.64372 0
M  V30 1039 H 99.3064 1.03049 -6.87318 0
M  V30 1040 H 102.497 0.979558 -4.57736 0
M  V30 1041 H 102.67 1.10793 -6.38458 0
M  V30 1042 N 96.0765 1.50051 0.48192 0
M  V30 1043 C 97.0065 1.71046 1.58951 0
M  V30 1044 C 97.9875 0.559288 1.60642 0
M  V30 1045 O 99.1725 0.797243 1.77081 0
M  V30 1046 C 96.3025 1.79462 2.97339 0
M  V30 1047 C 95.2565 2.94558 3.10515 0
M  V30 1048 C 94.5825 2.88105 4.50444 0
M  V30 1049 C 95.8825 4.35227 2.88747 0
M  V30 1050 H 97.5765 2.6378 1.41635 0
M  V30 1051 H 95.1225 1.26936 0.679942 0
M  V30 1052 H 97.0755 1.92734 3.74742 0
M  V30 1053 H 95.7995 0.833412 3.15788 0
M  V30 1054 H 94.4585 2.80918 2.35543 0
M  V30 1055 H 94.1065 1.89853 4.65795 0
M  V30 1056 H 93.8065 3.65366 4.60197 0
M  V30 1057 H 95.3305 3.03412 5.29881 0
M  V30 1058 H 96.7445 4.49449 3.55905 0
M  V30 1059 H 95.1415 5.13856 3.09955 0
M  V30 1060 H 96.2115 4.48347 1.84696 0
M  V30 1061 N 97.5546 -0.734337 1.39446 0
M  V30 1062 C 98.7846 -1.52137 1.39778 0
M  V30 1063 C 99.1926 -1.89198 -0.00929312 0
M  V30 1064 O 98.5356 -1.54666 -0.991168 0
M  V30 1065 C 98.5976 -2.83762 2.20724 0
M  V30 1066 C 98.2616 -2.69131 3.69347 0
M  V30 1067 C 99.2586 -2.37635 4.62413 0
M  V30 1068 C 96.9436 -2.85982 4.1294 0
M  V30 1069 C 98.9376 -2.23172 5.97054 0
M  V30 1070 C 96.6246 -2.71137 5.47657 0
M  V30 1071 C 97.6226 -2.39777 6.39528 0
M  V30 1072 O 97.3106 -2.25026 7.71763 0
M  V30 1073 H 97.0426 -0.476717 0.479288 0
M  V30 1074 H 99.5966 -0.915012 1.83893 0
M  V30 1075 H 97.8266 -3.4666 1.71359 0
M  V30 1076 H 99.5156 -3.45383 2.13226 0
M  V30 1077 H 100.282 -2.24267 4.30034 0
M  V30 1078 H 96.1606 -3.09383 3.41765 0
M  V30 1079 H 99.7046 -1.98617 6.68728 0
M  V30 1080 H 95.6016 -2.84083 5.79626 0
M  V30 1081 H 96.3696 -2.40091 7.82495 0
M  V30 1082 N 99.0327 -1.24633 -0.964593 0
M  V30 1083 C 100.31 -0.995809 -1.68354 0
M  V30 1084 C 100.69 0.480964 -2.05548 0
M  V30 1085 O 100.038 1.45599 -1.76105 0
M  V30 1086 C 100.248 -1.92177 -2.91323 0
M  V30 1087 C 101.596 -2.19446 -3.63495 0
M  V30 1088 O 102.62 -1.89855 -3.01386 0
M  V30 1089 O 101.479 -2.69714 -4.75307 0
M  V30 1090 H 98.5727 -0.376854 -0.736146 0
M  V30 1091 H 101.119 -1.35745 -1.0184 0
M  V30 1092 H 99.8907 -2.91938 -2.60553 0
M  V30 1093 H 99.5137 -1.56349 -3.65569 0
M  V30 1094 N 100.511 1.16574 -1.06058 0
M  V30 1095 C 101.421 2.2452 -0.680282 0
M  V30 1096 C 102.437 1.71348 0.302604 0
M  V30 1097 O 103.613 2.00822 0.152513 0
M  V30 1098 C 100.678 3.46629 -0.0700315 0
M  V30 1099 C 99.7388 4.14849 -1.10448 0
M  V30 1100 C 98.9718 5.31129 -0.523256 0
M  V30 1101 O 99.1948 5.66514 0.664709 0
M  V30 1102 O 98.1288 5.88526 -1.26179 0
M  V30 1103 H 101.955 2.59355 -1.58015 0
M  V30 1104 H 99.5398 1.24043 -0.832694 0
M  V30 1105 H 101.422 4.20543 0.268667 0
M  V30 1106 H 100.097 3.13573 0.803353 0
M  V30 1107 H 99.0038 3.42916 -1.49532 0
M  V30 1108 H 100.337 4.51954 -1.94931 0
M  V30 1109 N 101.989 0.842826 1.3317 0
M  V30 1110 C 102.936 0.276885 2.29133 0
M  V30 1111 C 103.906 -0.609527 1.54512 0
M  V30 1112 O 105.091 -0.546955 1.82792 0
M  V30 1113 C 102.231 -0.538707 3.40869 0
M  V30 1114 C 101.344 0.372169 4.30394 0
M  V30 1115 C 100.479 -0.454908 5.29249 0
M  V30 1116 C 99.5179 0.45411 6.10413 0
M  V30 1117 N 98.6549 -0.335075 7.013 0
M  V30 1118 H 103.495 1.10052 2.76934 0
M  V30 1119 H 101.032 0.554161 1.36262 0
M  V30 1120 H 102.99 -1.02709 4.0436 0
M  V30 1121 H 101.62 -1.32727 2.9425 0
M  V30 1122 H 100.672 0.97888 3.6759 0
M  V30 1123 H 101.984 1.0703 4.87182 0
M  V30 1124 H 101.138 -1.00695 5.98285 0
M  V30 1125 H 99.8769 -1.18646 4.73048 0
M  V30 1126 H 98.8819 1.01813 5.40291 0
M  V30 1127 H 100.107 1.18409 6.68697 0
M  V30 1128 H 98.0529 -1.04994 6.47543 0
M  V30 1129 H 97.9699 0.304262 7.55387 0
M  V30 1130 H 99.2379 -0.869224 7.74638 0
M  V30 1131 N 103.467 -1.45747 0.599634 0
M  V30 1132 C 104.399 -2.28628 -0.161879 0
M  V30 1133 C 105.412 -1.39494 -0.839367 0
M  V30 1134 O 106.601 -1.63941 -0.706089 0
M  V30 1135 C 103.701 -3.15014 -1.24976 0
M  V30 1136 C 102.874 -4.32378 -0.660935 0
M  V30 1137 C 101.933 -5.00033 -1.63869 0
M  V30 1138 O 100.959 -5.57085 -1.1681 0
M  V30 1139 N 102.161 -4.98589 -2.97303 0
M  V30 1140 H 104.926 -2.94624 0.549265 0
M  V30 1141 H 102.487 -1.55847 0.438565 0
M  V30 1142 H 104.479 -3.5714 -1.9035 0
M  V30 1143 H 103.049 -2.5098 -1.86354 0
M  V30 1144 H 102.269 -3.9383 0.170688 0
M  V30 1145 H 103.557 -5.08197 -0.247619 0
M  V30 1146 H 102.955 -4.53514 -3.38145 0
M  V30 1147 H 101.512 -5.44603 -3.58121 0
M  V30 1148 N 104.945 -0.338344 -1.53925 0
M  V30 1149 C 105.877 0.555117 -2.22376 0
M  V30 1150 C 106.89 1.06812 -1.22862 0
M  V30 1151 O 108.079 0.979163 -1.49247 0
M  V30 1152 C 105.179 1.77609 -2.88631 0
M  V30 1153 C 104.352 1.39927 -4.14414 0
M  V30 1154 C 103.411 2.47936 -4.64127 0
M  V30 1155 O 102.437 2.11461 -5.28463 0
M  V30 1156 N 103.639 3.79107 -4.39612 0
M  V30 1157 H 106.404 -0.0310778 -2.99684 0
M  V30 1158 H 103.965 -0.162226 -1.61085 0
M  V30 1159 H 105.957 2.49287 -3.18807 0
M  V30 1160 H 104.527 2.26978 -2.14941 0
M  V30 1161 H 103.747 0.513481 -3.90841 0
M  V30 1162 H 105.035 1.12341 -4.96243 0
M  V30 1163 H 104.433 4.11531 -3.88148 0
M  V30 1164 H 102.99 4.4697 -4.74406 0
M  V30 1165 N 106.423 1.57458 -0.0668435 0
M  V30 1166 C 107.373 2.0896 0.912119 0
M  V30 1167 C 108.357 0.998186 1.26195 0
M  V30 1168 O 109.549 1.26133 1.24175 0
M  V30 1169 C 106.678 2.6508 2.18145 0
M  V30 1170 C 105.764 3.81218 1.85832 0
M  V30 1171 N 106.155 4.90378 1.23948 0
M  V30 1172 C 104.453 3.9042 2.15612 0
M  V30 1173 C 105.154 5.71279 1.09616 0
M  V30 1174 N 104.13 5.19389 1.60423 0
M  V30 1175 H 107.932 2.90749 0.42924 0
M  V30 1176 H 105.446 1.6182 0.137184 0
M  V30 1177 H 107.443 3.0029 2.89192 0
M  V30 1178 H 106.103 1.84736 2.67025 0
M  V30 1179 H 107.114 5.09847 0.909731 0
M  V30 1180 H 103.791 3.21043 2.66903 0
M  V30 1181 H 105.181 6.69085 0.614425 0
M  V30 1182 N 107.901 -0.206675 1.56239 0
M  V30 1183 C 109.15 -0.926964 1.79138 0
M  V30 1184 C 109.463 -1.84901 0.638043 0
M  V30 1185 O 110.669 -2.60906 0.751033 0
M  V30 1186 C 109.125 -1.6986 3.17294 0
M  V30 1187 C 108.733 -0.821956 4.40395 0
M  V30 1188 C 110.477 -2.40922 3.4951 0
M  V30 1189 C 108.384 -1.59179 5.69575 0
M  V30 1190 H 107.314 -0.349864 0.667915 0
M  V30 1191 H 109.965 -0.180487 1.8261 0
M  V30 1192 H 108.347 -2.48853 3.08039 0
M  V30 1193 H 109.521 -0.0715019 4.60745 0
M  V30 1194 H 107.836 -0.222741 4.15804 0
M  V30 1195 H 110.433 -2.99047 4.43255 0
M  V30 1196 H 110.776 -3.14542 2.72707 0
M  V30 1197 H 111.309 -1.68905 3.60161 0
M  V30 1198 H 108.048 -0.898589 6.49312 0
M  V30 1199 H 107.568 -2.31648 5.53262 0
M  V30 1200 H 109.247 -2.14862 6.10281 0
M  V30 1201 N 109.379 -1.50304 -0.473955 0
M  V30 1202 C 110.625 -1.61389 -1.22806 0
M  V30 1203 C 110.958 -0.311955 -1.91678 0
M  V30 1204 O 110.233 0.686384 -1.81986 0
M  V30 1205 C 110.516 -2.79219 -2.27396 0
M  V30 1206 C 110.369 -4.19286 -1.62848 0
M  V30 1207 C 111.688 -2.92614 -3.28732 0
M  V30 1208 H 108.807 -0.587399 -0.445119 0
M  V30 1209 H 111.449 -1.82681 -0.522265 0
M  V30 1210 H 109.599 -2.61195 -2.87592 0
M  V30 1211 H 111.271 -4.48892 -1.06271 0
M  V30 1212 H 109.514 -4.23677 -0.931693 0
M  V30 1213 H 110.185 -4.97655 -2.38838 0
M  V30 1214 H 112.661 -3.09105 -2.78556 0
M  V30 1215 H 111.537 -3.76688 -3.99246 0
M  V30 1216 H 111.798 -2.03107 -3.92683 0
M  V30 1217 N 110.857 0.726932 -1.39834 0
M  V30 1218 C 112.087 1.51393 -1.40583 0
M  V30 1219 C 112.495 1.892 -0.000740625 0
M  V30 1220 O 111.838 1.55189 0.982951 0
M  V30 1221 C 111.9 2.82588 -2.22226 0
M  V30 1222 C 111.564 2.67169 -3.70769 0
M  V30 1223 C 112.561 2.3518 -4.63666 0
M  V30 1224 C 110.246 2.83788 -4.14451 0
M  V30 1225 C 112.24 2.20002 -5.98229 0
M  V30 1226 C 109.927 2.68229 -5.49087 0
M  V30 1227 C 110.925 2.36382 -6.4079 0
M  V30 1228 O 110.613 2.2093 -7.72946 0
M  V30 1229 H 110.345 0.474168 -0.48181 0
M  V30 1230 H 112.899 0.905247 -1.84376 0
M  V30 1231 H 111.129 3.45746 -1.73195 0
M  V30 1232 H 112.818 3.44247 -2.15055 0
M  V30 1233 H 113.584 2.21984 -4.31217 0
M  V30 1234 H 109.463 3.07566 -3.43401 0
M  V30 1235 H 113.007 1.95067 -6.69772 0
M  V30 1236 H 108.904 2.81006 -5.81125 0
M  V30 1237 H 109.672 2.35937 -7.83757 0
M  V30 1238 N 112.336 1.25143 0.95797 0
M  V30 1239 C 113.576 1.10893 1.71703 0
M  V30 1240 C 113.94 -0.34478 1.88879 0
M  V30 1241 O 115.141 -0.609014 2.6181 0
M  V30 1242 C 113.412 1.83889 3.06463 0
M  V30 1243 S 114.971 1.85491 3.97666 0
M  V30 1244 H 111.789 0.396428 0.590226 0
M  V30 1245 H 114.391 1.58618 1.14283 0
M  V30 1246 H 113.095 2.88756 2.9163 0
M  V30 1247 H 112.626 1.36538 3.68946 0
M  V30 1248 H 114.641 0.929553 4.87415 0
M  V30 1249 N 113.814 -1.1601 1.06675 0
M  V30 1250 C 115.039 -1.91068 0.806706 0
M  V30 1251 C 115.464 -1.77112 -0.633485 0
M  V30 1252 O 114.822 -1.09908 -1.44187 0
M  V30 1253 C 114.87 -3.39655 1.21106 0
M  V30 1254 O 113.974 -4.10893 0.352189 0
M  V30 1255 H 113.315 -0.595125 0.294486 0
M  V30 1256 H 115.845 -1.46955 1.42356 0
M  V30 1257 H 115.855 -3.90434 1.18428 0
M  V30 1258 H 114.53 -3.49132 2.26008 0
M  V30 1259 H 113.107 -3.70285 0.440868 0
M  V30 1260 N 115.292 -0.849877 -1.32721 0
M  V30 1261 C 116.24 -0.279745 -2.30912 0
M  V30 1262 C 117.234 0.594278 -1.58634 0
M  V30 1263 O 118.44 0.482613 -1.73409 0
M  V30 1264 H 114.815 -0.0717521 -0.748569 0
M  V30 1265 H 116.786 -1.12222 -2.76494 0
M  V30 1266 C 115.535 0.521108 -3.43773 0
M  V30 1267 H 114.858 -0.142141 -3.99547 0
M  V30 1268 H 116.298 0.885693 -4.14646 0
M  V30 1269 C 114.757 1.70442 -2.90605 0
M  V30 1270 O 115.287 2.8034 -2.87702 0
M  V30 1271 N 113.493 1.52991 -2.47067 0
M  V30 1272 H 113.04 0.635914 -2.49628 0
M  V30 1273 H 112.998 2.32311 -2.11847 0
M  V30 1274 N 116.77 1.45427 -0.607355 0
M  V30 1275 C 118.047 1.9557 -0.0344566 0
M  V30 1276 C 118.427 1.54979 1.43334 0
M  V30 1277 O 117.775 0.812241 2.13576 0
M  V30 1278 C 117.985 3.48226 -0.232321 0
M  V30 1279 C 119.333 4.2445 -0.113001 0
M  V30 1280 O 120.357 3.55829 -0.162431 0
M  V30 1281 O 119.216 5.465 0.00209442 0
M  V30 1282 H 116.31 0.826222 0.0358667 0
M  V30 1283 H 118.856 1.55594 -0.6774 0
M  V30 1284 H 117.628 3.70739 -1.25174 0
M  V30 1285 H 117.251 3.95092 0.445896 0
M  V30 1286 N 118.248 0.346503 1.53744 0
M  V30 1287 C 119.178 -0.501193 2.28058 0
M  V30 1288 C 120.159 -1.10014 1.29734 0
M  V30 1289 O 121.344 -1.12097 1.58581 0
M  V30 1290 C 118.474 -1.65078 3.05559 0
M  V30 1291 C 117.428 -1.18003 4.11411 0
M  V30 1292 C 116.754 -2.41837 4.76884 0
M  V30 1293 C 118.054 -0.278394 5.21558 0
M  V30 1294 H 119.748 0.11875 2.99164 0
M  V30 1295 H 117.294 0.0585531 1.43881 0
M  V30 1296 H 119.247 -2.25028 3.56287 0
M  V30 1297 H 117.971 -2.29767 2.32109 0
M  V30 1298 H 116.63 -0.603331 3.61601 0
M  V30 1299 H 116.278 -3.0494 4.00026 0
M  V30 1300 H 115.978 -2.1102 5.48402 0
M  V30 1301 H 117.502 -3.02508 5.30397 0
M  V30 1302 H 118.916 -0.784823 5.67903 0
M  V30 1303 H 117.313 -0.0619707 6.00068 0
M  V30 1304 H 118.383 0.684677 4.80042 0
M  V30 1305 N 119.726 -1.57421 0.075193 0
M  V30 1306 C 120.656 -2.15942 -0.888324 0
M  V30 1307 C 121.637 -1.08737 -1.30806 0
M  V30 1308 O 122.822 -1.36787 -1.37851 0
M  V30 1309 C 119.952 -2.72379 -2.1547 0
M  V30 1310 C 118.906 -3.8478 -1.87425 0
M  V30 1311 C 118.232 -4.27834 -3.20721 0
M  V30 1312 C 119.532 -5.08869 -1.17684 0
M  V30 1313 H 121.226 -2.96705 -0.400799 0
M  V30 1314 H 118.772 -1.42723 -0.191342 0
M  V30 1315 H 120.725 -3.11965 -2.83295 0
M  V30 1316 H 119.449 -1.88841 -2.6647 0
M  V30 1317 H 118.108 -3.45703 -1.22004 0
M  V30 1318 H 117.756 -3.41214 -3.6957 0
M  V30 1319 H 117.456 -5.03605 -3.02746 0
M  V30 1320 H 118.98 -4.70039 -3.89738 0
M  V30 1321 H 120.394 -5.4575 -1.75584 0
M  V30 1322 H 118.791 -5.8994 -1.09956 0
M  V30 1323 H 119.861 -4.84648 -0.156453 0
M  V30 1324 N 121.204 0.198386 -1.56346 0
M  V30 1325 C 122.452 0.91747 -1.80075 0
M  V30 1326 C 122.773 1.83929 -0.647692 0
M  V30 1327 O 122.043 1.93029 0.334166 0
M  V30 1328 H 120.623 0.341774 -0.664228 0
M  V30 1329 H 123.285 0.204684 -1.93822 0
M  V30 1330 H 122.381 1.51055 -2.7311 0
M  V30 1331 N 122.682 1.50554 0.465978 0
M  V30 1332 C 123.959 1.5232 1.22712 0
M  V30 1333 C 124.339 0.270807 2.09356 0
M  V30 1334 O 123.687 -0.745541 2.15995 0
M  V30 1335 C 123.897 2.82175 2.05374 0
M  V30 1336 C 125.245 3.33033 2.6339 0
M  V30 1337 O 126.269 2.83531 2.15612 0
M  V30 1338 O 125.128 4.19336 3.50456 0
M  V30 1339 H 122.222 0.611183 0.557122 0
M  V30 1340 H 124.768 1.62847 0.477381 0
M  V30 1341 H 123.54 3.64797 1.41558 0
M  V30 1342 H 123.163 2.74675 2.87471 0
M  V30 1343 N 124.16 -0.719506 1.40217 0
M  V30 1344 C 125.09 -1.8465 1.42922 0
M  V30 1345 C 126.071 -1.67599 0.29062 0
M  V30 1346 O 127.256 -1.87688 0.498677 0
M  V30 1347 C 124.386 -3.22565 1.28722 0
M  V30 1348 C 123.34 -3.54281 2.40144 0
M  V30 1349 C 122.666 -4.91298 2.11023 0
M  V30 1350 C 123.966 -3.55676 3.82481 0
M  V30 1351 H 125.66 -1.82644 2.37237 0
M  V30 1352 H 123.206 -0.877305 1.1419 0
M  V30 1353 H 125.159 -4.01095 1.29232 0
M  V30 1354 H 123.883 -3.25137 0.308811 0
M  V30 1355 H 122.542 -2.78088 2.38877 0
M  V30 1356 H 122.19 -4.90468 1.11582 0
M  V30 1357 H 121.89 -5.13485 2.8567 0
M  V30 1358 H 123.414 -5.72166 2.13209 0
M  V30 1359 H 124.828 -4.24254 3.85592 0
M  V30 1360 H 123.225 -3.89388 4.56614 0
M  V30 1361 H 124.295 -2.55144 4.12346 0
M  V30 1362 N 125.638 -1.25649 -0.95132 0
M  V30 1363 C 126.885 -1.10594 -1.69633 0
M  V30 1364 C 127.213 0.352515 -1.91279 0
M  V30 1365 O 126.468 1.27601 -1.4838 0
M  V30 1366 C 126.767 -1.80909 -3.08231 0
M  V30 1367 C 126.433 -3.30825 -3.06375 0
M  V30 1368 C 125.095 -3.71722 -3.05576 0
M  V30 1369 C 127.447 -4.26589 -2.99452 0
M  V30 1370 C 124.775 -5.06788 -2.95606 0
M  V30 1371 C 127.127 -5.61683 -2.91024 0
M  V30 1372 C 125.791 -6.01904 -2.88562 0
M  V30 1373 H 125.061 -0.404691 -0.620731 0
M  V30 1374 H 127.708 -1.55964 -1.11119 0
M  V30 1375 H 126.013 -1.27979 -3.70309 0
M  V30 1376 H 127.71 -1.6671 -3.64704 0
M  V30 1377 H 124.3 -2.98287 -3.07771 0
M  V30 1378 H 128.484 -3.95982 -2.99185 0
M  V30 1379 H 123.74 -5.37126 -2.92071 0
M  V30 1380 H 127.914 -6.35578 -2.84629 0
M  V30 1381 H 125.541 -7.06521 -2.80593 0
M  V30 1382 N 127.117 1.15442 -1.07289 0
M  V30 1383 C 128.365 1.85845 -0.794096 0
M  V30 1384 C 128.686 1.82692 0.681809 0
M  V30 1385 O 127.956 1.26741 1.49377 0
M  V30 1386 H 126.536 0.688089 -0.290763 0
M  V30 1387 H 129.198 1.39947 -1.3565 0
M  V30 1388 H 128.294 2.91001 -1.12804 0
M  V30 1389 N 128.595 0.856903 1.32268 0
M  V30 1390 C 129.841 0.462069 1.97466 0
M  V30 1391 C 130.174 -0.980298 1.67642 0
M  V30 1392 O 129.449 -1.68824 0.965858 0
M  V30 1393 C 129.732 0.704336 3.53145 0
M  V30 1394 C 129.585 2.19529 3.9259 0
M  V30 1395 C 130.904 0.1622 4.39801 0
M  V30 1396 H 128.023 0.169357 0.717278 0
M  V30 1397 H 130.665 1.07574 1.56614 0
M  V30 1398 H 128.815 0.181999 3.88073 0
M  V30 1399 H 130.487 2.78387 3.67829 0
M  V30 1400 H 128.73 2.67292 3.41668 0
M  V30 1401 H 129.401 2.31549 5.01088 0
M  V30 1402 H 131.877 0.608905 4.11621 0
M  V30 1403 H 130.753 0.361265 5.4771 0
M  V30 1404 H 131.014 -0.935158 4.32096 0
M  V30 1405 N 130.073 -1.45103 0.615059 0
M  V30 1406 C 131.484 -1.85654 0.197383 0
M  V30 1407 C 131.835 -1.51433 -1.24749 0
M  V30 1408 O 130.96 -0.944608 -1.94695 0
M  V30 1409 C 131.555 -3.36972 0.351448 0
M  V30 1410 C 130.114 -3.76398 -0.011593 0
M  V30 1411 C 129.261 -2.69024 0.672394 0
M  V30 1412 H 132.212 -1.35797 0.821263 0
M  V30 1413 H 132.233 -3.78239 -0.414227 0
M  V30 1414 H 131.745 -3.61847 1.40314 0
M  V30 1415 H 129.846 -3.5714 -1.06217 0
M  V30 1416 H 129.959 -4.77532 0.387265 0
M  V30 1417 H 128.323 -2.54465 0.109284 0
M  V30 1418 H 129.106 -2.96735 1.72636 0
M  V30 1419 N 131.551 -0.354651 -1.53558 0
M  V30 1420 C 132.776 0.242153 -2.05981 0
M  V30 1421 C 133.201 1.42553 -1.2272 0
M  V30 1422 O 132.559 1.79656 -0.243604 0
M  V30 1423 C 132.607 0.624367 -3.55154 0
M  V30 1424 O 131.711 1.72301 -3.74681 0
M  V30 1425 H 131.052 0.0378432 -0.662921 0
M  V30 1426 H 133.582 -0.512087 -1.98088 0
M  V30 1427 H 133.592 0.898433 -3.97985 0
M  V30 1428 H 132.267 -0.240989 -4.15201 0
M  V30 1429 H 130.844 1.44535 -3.4375 0
M  V30 1430 N 133.029 1.57378 -0.0835403 0
M  V30 1431 C 134.276 1.9393 0.58287 0
M  V30 1432 C 134.604 0.964455 1.68904 0
M  V30 1433 O 133.859 -0.0179474 1.95692 0
M  V30 1434 C 134.158 3.37063 1.1884 0
M  V30 1435 C 133.824 4.50424 0.207194 0
M  V30 1436 C 132.486 4.81159 -0.0627115 0
M  V30 1437 C 134.838 5.19136 -0.463426 0
M  V30 1438 C 132.166 5.77939 -1.01012 0
M  V30 1439 C 134.518 6.16931 -1.39924 0
M  V30 1440 C 133.182 6.46078 -1.67749 0
M  V30 1441 H 132.452 0.70964 0.213287 0
M  V30 1442 H 135.099 1.90856 -0.156916 0
M  V30 1443 H 133.404 3.3666 2.00418 0
M  V30 1444 H 135.101 3.6264 1.71153 0
M  V30 1445 H 131.691 4.2646 0.427747 0
M  V30 1446 H 135.875 4.95576 -0.268034 0
M  V30 1447 H 131.131 5.98842 -1.23283 0
M  V30 1448 H 135.305 6.69273 -1.92476 0
M  V30 1449 H 132.932 7.2088 -2.41321 0
M  V30 1450 N 134.507 -0.190092 1.56449 0
M  V30 1451 C 135.732 -0.929864 1.85387 0
M  V30 1452 C 136.157 -1.7585 0.667704 0
M  V30 1453 O 135.515 -1.77198 -0.383459 0
M  V30 1454 C 135.563 -1.79773 3.12593 0
M  V30 1455 O 134.667 -2.89713 2.93496 0
M  V30 1456 H 134.008 -0.261574 0.610307 0
M  V30 1457 H 136.538 -0.193896 2.03679 0
M  V30 1458 H 136.548 -2.20139 3.43515 0
M  V30 1459 H 135.223 -1.18892 3.98544 0
M  V30 1460 H 133.8 -2.53065 2.73884 0
M  V30 1461 N 135.985 -1.50799 -0.457987 0
M  V30 1462 C 137.231 -1.62683 -1.21088 0
M  V30 1463 C 137.564 -0.332268 -1.91336 0
M  V30 1464 O 136.839 0.667043 -1.82704 0
M  V30 1465 C 137.122 -2.81615 -2.24422 0
M  V30 1466 C 136.975 -4.20989 -1.58392 0
M  V30 1467 C 138.294 -2.96085 -3.2561 0
M  V30 1468 H 135.413 -0.592087 -0.438864 0
M  V30 1469 H 138.055 -1.83225 -0.50286 0
M  V30 1470 H 136.205 -2.64231 -2.84806 0
M  V30 1471 H 137.877 -4.49994 -1.01504 0
M  V30 1472 H 136.12 -4.24641 -0.886704 0
M  V30 1473 H 136.791 -5.0016 -2.33547 0
M  V30 1474 H 139.267 -3.12042 -2.75262 0
M  V30 1475 H 138.143 -3.80902 -3.95228 0
M  V30 1476 H 138.404 -2.0726 -3.90507 0
M  V30 1477 N 137.463 0.71206 -1.40597 0
M  V30 1478 C 138.41 1.82613 -1.41142 0
M  V30 1479 C 139.38 1.63925 -0.267903 0
M  V30 1480 O 140.565 1.85009 -0.466495 0
M  V30 1481 C 137.705 3.20354 -1.28324 0
M  V30 1482 C 136.818 3.50589 -2.52411 0
M  V30 1483 C 135.953 4.77855 -2.32009 0
M  V30 1484 C 134.992 5.01005 -3.51654 0
M  V30 1485 N 134.129 6.19487 -3.30425 0
M  V30 1486 H 138.969 1.81482 -2.36365 0
M  V30 1487 H 136.506 0.886475 -1.17388 0
M  V30 1488 H 138.464 3.99899 -1.18899 0
M  V30 1489 H 137.094 3.20705 -0.367189 0
M  V30 1490 H 136.146 2.65573 -2.72351 0
M  V30 1491 H 137.458 3.63604 -3.41458 0
M  V30 1492 H 136.612 5.65424 -2.19956 0
M  V30 1493 H 135.351 4.67056 -1.40392 0
M  V30 1494 H 134.356 4.1189 -3.64179 0
M  V30 1495 H 135.581 5.13674 -4.44202 0
M  V30 1496 H 133.527 6.09932 -2.41494 0
M  V30 1497 H 133.444 6.33194 -4.13039 0
M  V30 1498 H 134.712 7.09834 -3.22113 0
M  V30 1499 N 138.941 1.26152 0.944643 0
M  V30 1500 C 139.851 1.09176 2.07648 0
M  V30 1501 C 140.867 0.0261935 1.7398 0
M  V30 1502 O 142.043 0.229208 2.00091 0
M  V30 1503 C 139.108 0.722915 3.39079 0
M  V30 1504 C 138.169 1.86752 3.86552 0
M  V30 1505 C 137.402 1.51617 5.11711 0
M  V30 1506 O 137.625 0.416331 5.68879 0
M  V30 1507 O 136.559 2.34975 5.54139 0
M  V30 1508 H 140.385 2.0412 2.24875 0
M  V30 1509 H 137.97 1.05182 1.061 0
M  V30 1510 H 139.852 0.529787 4.18056 0
M  V30 1511 H 138.527 -0.197159 3.23099 0
M  V30 1512 H 137.434 2.11558 3.08535 0
M  V30 1513 H 138.767 2.76719 4.07047 0
M  V30 1514 N 140.419 -1.14872 1.07899 0
M  V30 1515 C 141.369 -2.17809 0.674027 0
M  V30 1516 C 142.353 -1.58008 -0.303699 0
M  V30 1517 O 143.545 -1.76616 -0.11654 0
M  V30 1518 C 140.674 -3.43208 0.0793318 0
M  V30 1519 C 139.76 -4.10051 1.08253 0
M  V30 1520 N 140.151 -4.52296 2.2641 0
M  V30 1521 C 138.449 -4.36469 0.917124 0
M  V30 1522 C 139.15 -5.04199 2.901 0
M  V30 1523 N 138.126 -4.98088 2.17736 0
M  V30 1524 H 141.928 -2.48207 1.57386 0
M  V30 1525 H 139.442 -1.315 0.952976 0
M  V30 1526 H 141.439 -4.16272 -0.228719 0
M  V30 1527 H 140.099 -3.14291 -0.815551 0
M  V30 1528 H 141.11 -4.45504 2.64096 0
M  V30 1529 H 137.787 -4.17432 0.0756078 0
M  V30 1530 H 139.177 -5.46802 3.90458 0
M  V30 1531 N 141.898 -0.863906 -1.31812 0
M  V30 1532 C 143.314 -0.555004 -1.49639 0
M  V30 1533 C 143.514 0.912266 -1.79666 0
M  V30 1534 O 142.57 1.69479 -1.87171 0
M  V30 1535 C 143.883 -1.44998 -2.63431 0
M  V30 1536 C 145.431 -1.45138 -2.77316 0
M  V30 1537 C 145.906 -2.33179 -3.94197 0
M  V30 1538 N 147.397 -2.31025 -4.01474 0
M  V30 1539 C 148.132 -2.95871 -4.9117 0
M  V30 1540 N 147.628 -3.69863 -5.8581 0
M  V30 1541 N 149.421 -2.85211 -4.84367 0
M  V30 1542 H 141.572 -1.81339 -1.10589 0
M  V30 1543 H 143.835 -0.77505 -0.545895 0
M  V30 1544 H 143.541 -2.49377 -2.48 0
M  V30 1545 H 143.415 -1.14409 -3.59431 0
M  V30 1546 H 145.802 -0.415201 -2.92164 0
M  V30 1547 H 145.883 -1.79747 -1.82001 0
M  V30 1548 H 145.527 -3.3687 -3.80107 0
M  V30 1549 H 145.457 -1.95897 -4.88807 0
M  V30 1550 H 147.948 -1.77238 -3.33759 0
M  V30 1551 H 148.261 -4.16486 -6.50968 0
M  V30 1552 H 146.606 -3.73971 -5.85808 0
M  V30 1553 H 149.797 -2.26948 -4.09405 0
M  V30 1554 H 149.97 -3.36027 -5.54066 0
M  V30 1555 N 143.376 1.44774 -0.622745 0
M  V30 1556 C 144.323 2.30635 0.0871679 0
M  V30 1557 C 145.293 1.42994 0.845097 0
M  V30 1558 O 146.478 1.71907 0.827812 0
M  V30 1559 C 143.618 3.28144 1.06844 0
M  V30 1560 C 142.731 4.30888 0.309809 0
M  V30 1561 C 141.866 5.15494 1.28215 0
M  V30 1562 C 140.905 6.09953 0.512198 0
M  V30 1563 N 140.042 6.87287 1.43458 0
M  V30 1564 H 144.882 2.90803 -0.650974 0
M  V30 1565 H 142.419 1.43286 -0.33281 0
M  V30 1566 H 144.377 3.83157 1.65066 0
M  V30 1567 H 143.007 2.69695 1.77382 0
M  V30 1568 H 142.059 3.78414 -0.388181 0
M  V30 1569 H 143.371 4.97955 -0.290254 0
M  V30 1570 H 142.525 5.74983 1.93596 0
M  V30 1571 H 141.264 4.48481 1.91614 0
M  V30 1572 H 140.269 5.49581 -0.155151 0
M  V30 1573 H 141.494 6.78999 -0.116958 0
M  V30 1574 H 139.44 6.2295 2.05594 0
M  V30 1575 H 139.357 7.50763 0.888335 0
M  V30 1576 H 140.625 7.51306 2.07749 0
M  V30 1577 N 144.854 0.36279 1.53368 0
M  V30 1578 C 146.103 -0.22888 2.00397 0
M  V30 1579 C 146.416 -1.50096 1.25421 0
M  V30 1580 O 147.622 -2.17106 1.63025 0
M  V30 1581 C 146.078 -0.458417 3.56969 0
M  V30 1582 C 145.686 0.798877 4.4082 0
M  V30 1583 C 147.43 -1.00789 4.12361 0
M  V30 1584 C 145.337 0.539078 5.88938 0
M  V30 1585 H 144.267 -0.089305 0.748693 0
M  V30 1586 H 146.918 0.481099 1.77081 0
M  V30 1587 H 145.3 -1.22959 3.76427 0
M  V30 1588 H 146.474 1.57262 4.33134 0
M  V30 1589 H 144.789 1.27137 3.96516 0
M  V30 1590 H 147.386 -1.21754 5.20653 0
M  V30 1591 H 147.729 -1.9692 3.66781 0
M  V30 1592 H 148.262 -0.296961 3.9669 0
M  V30 1593 H 145.001 1.47064 6.3879 0
M  V30 1594 H 144.521 -0.196222 5.99479 0
M  V30 1595 H 146.2 0.163542 6.46793 0
M  V30 1596 N 146.332 -1.57332 0.0918853 0
M  V30 1597 C 147.562 -1.98286 -0.580205 0
M  V30 1598 C 147.97 -0.969713 -1.6246 0
M  V30 1599 O 147.313 0.0493501 -1.83634 0
M  V30 1600 C 147.375 -3.35603 -1.28882 0
M  V30 1601 C 147.039 -4.55285 -0.395559 0
M  V30 1602 C 148.036 -5.18687 0.355002 0
M  V30 1603 C 145.721 -5.01314 -0.314556 0
M  V30 1604 C 147.715 -6.26484 1.17458 0
M  V30 1605 C 145.402 -6.08979 0.508677 0
M  V30 1606 C 146.4 -6.71429 1.2519 0
M  V30 1607 O 146.088 -7.77018 2.06151 0
M  V30 1608 H 145.82 -0.656678 -0.160466 0
M  V30 1609 H 148.374 -2.04721 0.16688 0
M  V30 1610 H 146.604 -3.25842 -2.08241 0
M  V30 1611 H 148.293 -3.61026 -1.85512 0
M  V30 1612 H 149.059 -4.84058 0.302134 0
M  V30 1613 H 144.938 -4.5247 -0.882697 0
M  V30 1614 H 148.482 -6.75159 1.75518 0
M  V30 1615 H 144.379 -6.4304 0.563037 0
M  V30 1616 H 145.147 -7.93991 1.98799 0
M  V30 1617 N 147.81 0.181792 -1.56548 0
M  V30 1618 C 149.038 0.915947 -1.85521 0
M  V30 1619 C 149.453 1.76282 -0.676016 0
M  V30 1620 O 148.81 1.79012 0.355077 0
M  V30 1621 C 148.861 1.80126 -3.13427 0
M  V30 1622 O 148.582 0.988562 -4.26801 0
M  V30 1623 C 150.083 2.64597 -3.55673 0
M  V30 1624 H 147.303 0.26661 -0.61576 0
M  V30 1625 H 149.847 0.185039 -2.03661 0
M  V30 1626 H 148.002 2.48563 -2.97145 0
M  V30 1627 H 148.416 1.59308 -4.99721 0
M  V30 1628 H 149.89 3.2235 -4.48101 0
M  V30 1629 H 150.367 3.38958 -2.79292 0
M  V30 1630 H 150.973 2.0151 -3.74532 0
M  V30 1631 N 149.288 1.51039 0.449983 0
M  V30 1632 C 150.221 1.66105 1.56474 0
M  V30 1633 C 151.199 0.508776 1.54435 0
M  V30 1634 O 152.383 0.731005 1.73749 0
M  V30 1635 C 149.51 1.66304 2.9506 0
M  V30 1636 C 148.556 2.87346 3.15174 0
M  V30 1637 S 149.389 4.4835 2.92818 0
M  V30 1638 C 150.545 4.51274 4.33708 0
M  V30 1639 H 150.778 2.60397 1.43459 0
M  V30 1640 H 148.311 1.40565 0.638805 0
M  V30 1641 H 150.269 1.67103 3.74949 0
M  V30 1642 H 148.93 0.732108 3.05449 0
M  V30 1643 H 148.123 2.83849 4.16468 0
M  V30 1644 H 147.725 2.84223 2.43091 0
M  V30 1645 H 150.017 4.26136 5.26701 0
M  V30 1646 H 150.96 5.53017 4.42242 0
M  V30 1647 H 151.368 3.80738 4.16772 0
M  V30 1648 N 150.766 -0.704594 1.40972 0
M  V30 1649 C 152.015 -1.46018 1.39146 0
M  V30 1650 C 152.328 -1.956 0.000589254 0
M  V30 1651 O 153.534 -2.71137 -0.1403 0
M  V30 1652 C 151.99 -2.63996 2.4461 0
M  V30 1653 C 151.598 -2.21238 3.89561 0
M  V30 1654 C 153.342 -3.41677 2.51907 0
M  V30 1655 C 151.249 -3.3612 4.86598 0
M  V30 1656 H 150.179 -0.548444 0.517422 0
M  V30 1657 H 152.83 -0.765784 1.66757 0
M  V30 1658 H 151.212 -3.3566 2.10115 0
M  V30 1659 H 152.386 -1.56923 4.33257 0
M  V30 1660 H 150.701 -1.56574 3.85841 0
M  V30 1661 H 153.298 -4.27182 3.2159 0
M  V30 1662 H 153.641 -3.86247 1.55303 0
M  V30 1663 H 154.174 -2.77064 2.85448 0
M  V30 1664 H 150.913 -2.96572 5.84573 0
M  V30 1665 H 150.433 -3.99315 4.47557 0
M  V30 1666 H 152.112 -4.02029 5.06934 0
M  V30 1667 N 152.244 -1.26651 -0.937939 0
M  V30 1668 C 153.474 -1.15006 -1.71631 0
M  V30 1669 C 153.882 0.297026 -1.86854 0
M  V30 1670 O 153.225 1.21493 -1.37786 0
M  V30 1671 C 153.287 -1.74984 -3.14039 0
M  V30 1672 C 152.951 -3.24103 -3.2219 0
M  V30 1673 C 153.948 -4.20877 -3.05219 0
M  V30 1674 C 151.633 -3.64625 -3.45476 0
M  V30 1675 C 153.627 -5.56151 -3.11408 0
M  V30 1676 C 151.314 -5.00032 -3.513 0
M  V30 1677 C 152.312 -5.95604 -3.34282 0
M  V30 1678 O 152 -7.28545 -3.3982 0
M  V30 1679 H 151.732 -0.401183 -0.544085 0
M  V30 1680 H 154.286 -1.67832 -1.18413 0
M  V30 1681 H 152.516 -1.16624 -3.68695 0
M  V30 1682 H 154.205 -1.58199 -3.73802 0
M  V30 1683 H 154.971 -3.90908 -2.87081 0
M  V30 1684 H 150.85 -2.90718 -3.57777 0
M  V30 1685 H 154.394 -6.30727 -2.98043 0
M  V30 1686 H 150.291 -5.29659 -3.68959 0
M  V30 1687 H 151.059 -7.3686 -3.56343 0
M  V30 1688 N 153.722 1.14298 -1.08507 0
M  V30 1689 C 155.138 1.37347 -0.812901 0
M  V30 1690 C 155.338 1.93052 0.577325 0
M  V30 1691 O 154.394 2.14389 1.33393 0
M  V30 1692 C 155.707 2.33359 -1.89642 0
M  V30 1693 C 157.255 2.46996 -1.92255 0
M  V30 1694 C 157.73 3.46309 -2.99724 0
M  V30 1695 N 159.221 3.53853 -2.98902 0
M  V30 1696 C 159.956 4.3055 -3.787 0
M  V30 1697 N 159.452 5.10482 -4.6838 0
M  V30 1698 N 161.245 4.25757 -3.66998 0
M  V30 1699 H 153.396 0.764867 -1.9815 0
M  V30 1700 H 155.659 0.398966 -0.859959 0
M  V30 1701 H 155.365 1.99565 -2.89597 0
M  V30 1702 H 155.239 3.33274 -1.76659 0
M  V30 1703 H 157.626 2.80081 -0.929445 0
M  V30 1704 H 157.707 1.47039 -2.09316 0
M  V30 1705 H 157.351 3.13957 -3.99241 0
M  V30 1706 H 157.281 4.46049 -2.79907 0
M  V30 1707 H 159.772 2.96812 -2.33904 0
M  V30 1708 H 160.085 5.66284 -5.25873 0
M  V30 1709 H 158.43 5.09747 -4.72422 0
M  V30 1710 H 161.621 3.62383 -2.96304 0
M  V30 1711 H 161.794 4.85279 -4.29427 0
M  V30 1712 N 155.201 0.870884 1.31352 0
M  V30 1713 C 156.149 0.316445 2.30437 0
M  V30 1714 C 157.143 -0.568965 1.59559 0
M  V30 1715 O 158.349 -0.454964 1.74155 0
M  V30 1716 H 154.724 0.0836521 0.747333 0
M  V30 1717 H 156.695 1.16606 2.74673 0
M  V30 1718 C 155.444 -0.46635 3.44558 0
M  V30 1719 H 154.767 0.205687 3.99271 0
M  V30 1720 H 156.207 -0.819614 4.16003 0
M  V30 1721 C 154.666 -1.65797 2.9328 0
M  V30 1722 O 155.196 -2.75728 2.92125 0
M  V30 1723 N 153.402 -1.49041 2.4947 0
M  V30 1724 H 152.949 -0.59612 2.50608 0
M  V30 1725 H 152.907 -2.28911 2.15516 0
M  V30 1726 N 156.679 -1.44442 0.630414 0
M  V30 1727 C 157.609 -2.33418 -0.0618083 0
M  V30 1728 C 158.59 -1.48165 -0.835541 0
M  V30 1729 O 159.775 -1.76886 -0.801564 0
M  V30 1730 C 156.905 -3.31222 -1.04449 0
M  V30 1731 C 155.859 -4.26288 -0.382436 0
M  V30 1732 C 155.185 -5.13954 -1.47497 0
M  V30 1733 C 156.485 -5.1744 0.710865 0
M  V30 1734 H 158.179 -2.91548 0.681184 0
M  V30 1735 H 155.725 -1.40191 0.329026 0
M  V30 1736 H 157.678 -3.92351 -1.53748 0
M  V30 1737 H 156.402 -2.71299 -1.81836 0
M  V30 1738 H 155.061 -3.6649 0.0899054 0
M  V30 1739 H 154.709 -4.50385 -2.2397 0
M  V30 1740 H 154.409 -5.7837 -1.03737 0
M  V30 1741 H 155.933 -5.77955 -1.96979 0
M  V30 1742 H 157.347 -5.72509 0.300996 0
M  V30 1743 H 155.744 -5.90455 1.07156 0
M  V30 1744 H 156.814 -4.58496 1.57829 0
M  V30 1745 N 158.157 -0.370918 -1.53173 0
M  V30 1746 C 159.403 0.217423 -2.01631 0
M  V30 1747 C 159.736 1.47983 -1.25756 0
M  V30 1748 O 159.011 1.91274 -0.352764 0
M  V30 1749 C 159.294 0.503982 -3.56556 0
M  V30 1750 C 159.147 -0.77243 -4.43118 0
M  V30 1751 C 160.466 1.30234 -4.20389 0
M  V30 1752 H 157.585 0.0775486 -0.732909 0
M  V30 1753 H 160.227 -0.496863 -1.83388 0
M  V30 1754 H 158.377 1.11248 -3.72231 0
M  V30 1755 H 160.049 -1.4098 -4.39229 0
M  V30 1756 H 158.292 -1.39167 -4.10871 0
M  V30 1757 H 158.963 -0.526815 -5.4948 0
M  V30 1758 H 161.439 0.787546 -4.08579 0
M  V30 1759 H 160.315 1.47158 -5.28806 0
M  V30 1760 H 160.576 2.31237 -3.76805 0
M  V30 1761 N 159.635 1.57281 -0.100228 0
M  V30 1762 C 160.881 1.94826 0.563101 0
M  V30 1763 C 161.214 0.982475 1.67514 0
M  V30 1764 O 160.489 0.0164069 1.94493 0
M  V30 1765 C 160.772 3.42453 1.11346 0
M  V30 1766 C 160.625 4.498 0.00612081 0
M  V30 1767 C 161.944 3.91506 2.01024 0
M  V30 1768 H 159.063 0.708428 0.203221 0
M  V30 1769 H 161.705 1.8922 -0.171979 0
M  V30 1770 H 159.855 3.47361 1.7399 0
M  V30 1771 H 161.527 4.57 -0.628357 0
M  V30 1772 H 159.77 4.28756 -0.659581 0
M  V30 1773 H 160.441 5.50306 0.432109 0
M  V30 1774 H 162.917 3.88784 1.48278 0
M  V30 1775 H 161.793 4.95358 2.36457 0
M  V30 1776 H 162.054 3.31099 2.92961 0
M  V30 1777 N 161.113 -0.173488 1.56642 0
M  V30 1778 C 162.359 -0.891784 1.8214 0
M  V30 1779 C 162.692 -1.8199 0.677736 0
M  V30 1780 O 161.967 -1.91842 -0.320446 0
M  V30 1781 C 162.25 -1.68933 3.18015 0
M  V30 1782 C 162.103 -0.784487 4.42906 0
M  V30 1783 C 163.422 -2.65748 3.50808 0
M  V30 1784 H 160.541 -0.322761 0.662567 0
M  V30 1785 H 163.183 -0.158095 1.89341 0
M  V30 1786 H 161.333 -2.31482 3.12007 0
M  V30 1787 H 163.005 -0.172046 4.60979 0
M  V30 1788 H 161.248 -0.0924117 4.33702 0
M  V30 1789 H 161.919 -1.37799 5.34524 0
M  V30 1790 H 164.395 -2.13327 3.57255 0
M  V30 1791 H 163.271 -3.18619 4.4696 0
M  V30 1792 H 163.532 -3.45842 2.75401 0
M  V30 1793 N 162.591 -1.51276 -0.441967 0
M  V30 1794 C 163.539 -1.72823 -1.55676 0
M  V30 1795 C 164.533 -0.59445 -1.58627 0
M  V30 1796 O 165.739 -0.775715 -1.62427 0
M  V30 1797 H 162.114 -0.545983 -0.517113 0
M  V30 1798 H 164.085 -2.6628 -1.34675 0
M  V30 1799 C 162.834 -1.86619 -2.93375 0
M  V30 1800 H 162.157 -2.73264 -2.91834 0
M  V30 1801 H 163.597 -2.05709 -3.70756 0
M  V30 1802 C 162.056 -0.624842 -3.31055 0
M  V30 1803 O 162.586 0.222636 -4.01083 0
M  V30 1804 N 160.792 -0.470288 -2.86769 0
M  V30 1805 H 160.339 -1.161 -2.29953 0
M  V30 1806 H 160.297 0.359051 -3.12343 0
M  V30 1807 N 164.069 0.697108 -1.41344 0
M  V30 1808 C 165.001 1.8224 -1.39001 0
M  V30 1809 C 166.014 1.60152 -0.292428 0
M  V30 1810 O 167.203 1.69684 -0.554048 0
M  V30 1811 C 164.303 3.18976 -1.14489 0
M  V30 1812 C 163.476 3.68105 -2.36258 0
M  V30 1813 C 162.535 4.83506 -2.07625 0
M  V30 1814 O 161.561 4.95201 -2.8065 0
M  V30 1815 N 162.763 5.70637 -1.06555 0
M  V30 1816 H 165.528 1.84742 -2.35988 0
M  V30 1817 H 163.089 0.87937 -1.35936 0
M  V30 1818 H 165.081 3.93801 -0.932885 0
M  V30 1819 H 163.651 3.11508 -0.261043 0
M  V30 1820 H 162.871 2.84204 -2.7317 0
M  V30 1821 H 164.159 3.97667 -3.17393 0
M  V30 1822 H 163.557 5.63817 -0.461125 0
M  V30 1823 H 162.114 6.45368 -0.913444 0
M  V30 1824 N 165.547 1.27147 0.931209 0
M  V30 1825 C 166.479 1.05364 2.03546 0
M  V30 1826 C 167.492 0.0108438 1.62796 0
M  V30 1827 O 168.681 0.25202 1.76712 0
M  V30 1828 C 165.781 0.575566 3.33977 0
M  V30 1829 C 164.954 1.68985 4.03439 0
M  V30 1830 C 164.013 1.20813 5.12143 0
M  V30 1831 O 163.039 1.90712 5.363 0
M  V30 1832 N 164.241 0.0618851 5.80467 0
M  V30 1833 H 167.006 2.00454 2.22796 0
M  V30 1834 H 164.567 1.18666 1.10136 0
M  V30 1835 H 166.559 0.237264 4.04004 0
M  V30 1836 H 165.129 -0.282016 3.11325 0
M  V30 1837 H 164.349 2.19861 3.27192 0
M  V30 1838 H 165.637 2.4378 4.46597 0
M  V30 1839 H 165.035 -0.521621 5.6329 0
M  V30 1840 H 163.592 -0.217264 6.51438 0
M  V30 1841 N 167.025 -1.13721 1.09112 0
M  V30 1842 C 167.935 -2.22638 0.73957 0
M  V30 1843 C 168.951 -1.72091 -0.257068 0
M  V30 1844 O 170.127 -2.01155 -0.0992154 0
M  V30 1845 C 167.192 -3.46322 0.16191 0
M  V30 1846 C 166.253 -4.11775 1.21408 0
M  V30 1847 C 165.486 -5.29555 0.663891 0
M  V30 1848 O 165.709 -5.68077 -0.514274 0
M  V30 1849 O 164.643 -5.84973 1.41738 0
M  V30 1850 H 168.469 -2.55074 1.64836 0
M  V30 1851 H 166.054 -1.21791 0.865289 0
M  V30 1852 H 167.936 -4.21107 -0.157073 0
M  V30 1853 H 166.611 -3.15593 -0.719932 0
M  V30 1854 H 165.518 -3.3883 1.58571 0
M  V30 1855 H 166.851 -4.46627 2.06845 0
M  V30 1856 N 168.503 -0.877838 -1.30888 0
M  V30 1857 C 169.728 -0.506629 -2.01117 0
M  V30 1858 C 170.153 0.895564 -1.65412 0
M  V30 1859 O 169.511 1.5923 -0.866922 0
M  V30 1860 C 169.559 -0.680223 -3.54126 0
M  V30 1861 O 168.663 0.277033 -4.11468 0
M  V30 1862 H 168.004 -0.200518 -0.633 0
M  V30 1863 H 170.534 -1.18342 -1.66902 0
M  V30 1864 H 170.544 -0.5765 -4.03907 0
M  V30 1865 H 169.219 -1.70261 -3.79452 0
M  V30 1866 H 167.796 0.127606 -3.72682 0
M  V30 1867 N 169.982 1.44106 -0.638065 0
M  V30 1868 C 171.207 2.0685 -0.150916 0
M  V30 1869 C 171.632 1.47417 1.16833 0
M  V30 1870 O 170.99 0.578264 1.71831 0
M  V30 1871 C 171.038 3.60555 -0.05708 0
M  V30 1872 O 170.142 4.00465 0.984972 0
M  V30 1873 H 169.483 0.658151 -0.0879399 0
M  V30 1874 H 172.013 1.84865 -0.876707 0
M  V30 1875 H 172.023 4.07789 0.131232 0
M  V30 1876 H 170.698 4.03193 -1.02021 0
M  V30 1877 H 169.275 3.64849 0.770672 0
M  V30 1878 N 171.46 0.379036 1.52974 0
M  V30 1879 C 172.737 -0.263479 1.93817 0
M  V30 1880 C 173.117 -1.65244 1.31368 0
M  V30 1881 O 172.465 -2.23448 0.477856 0
M  V30 1882 C 172.675 -0.300166 3.47707 0
M  V30 1883 C 174.023 -0.534061 4.21228 0
M  V30 1884 O 175.047 -0.38081 3.54159 0
M  V30 1885 O 173.906 -0.833501 5.40106 0
M  V30 1886 H 171 -0.161149 0.811147 0
M  V30 1887 H 173.546 0.432798 1.64088 0
M  V30 1888 H 172.318 0.673138 3.85467 0
M  V30 1889 H 171.941 -1.04179 3.83709 0
M  V30 1890 N 172.938 -1.57226 0.108567 0
M  V30 1891 C 174.163 -1.99604 -0.563303 0
M  V30 1892 C 174.588 -0.987563 -1.6009 0
M  V30 1893 O 173.946 0.0421687 -1.81251 0
M  V30 1894 C 173.994 -3.40902 -1.17552 0
M  V30 1895 O 173.098 -3.42896 -2.2912 0
M  V30 1896 H 172.439 -0.648704 -0.1417 0
M  V30 1897 H 174.969 -2.03679 0.193961 0
M  V30 1898 H 174.979 -3.78886 -1.51357 0
M  V30 1899 H 173.654 -4.1382 -0.415445 0
M  V30 1900 H 172.231 -3.1672 -1.96832 0
M  V30 1901 N 174.416 0.165178 -1.56732 0
M  V30 1902 C 175.664 0.879068 -1.8198 0
M  V30 1903 C 175.985 1.82514 -0.686561 0
M  V30 1904 O 175.255 1.93694 0.293146 0
M  V30 1905 H 173.835 0.327608 -0.671329 0
M  V30 1906 H 176.497 0.163526 -1.94213 0
M  V30 1907 H 175.593 1.45228 -2.76252 0
M  V30 1908 N 175.894 1.51508 0.433938 0
M  V30 1909 C 177.122 1.68157 1.20543 0
M  V30 1910 C 177.537 0.380362 1.84929 0
M  V30 1911 O 176.894 -0.641446 1.70856 0
M  V30 1912 C 176.945 2.79965 2.28696 0
M  V30 1913 O 176.666 4.05045 1.66943 0
M  V30 1914 C 178.167 3.07912 3.18912 0
M  V30 1915 H 175.387 0.56421 0.363191 0
M  V30 1916 H 177.931 1.97941 0.513754 0
M  V30 1917 H 176.086 2.5277 2.93574 0
M  V30 1918 H 176.5 4.67165 2.38448 0
M  V30 1919 H 177.974 3.89719 3.90926 0
M  V30 1920 H 178.451 2.20456 3.79863 0
M  V30 1921 H 179.057 3.36779 2.59731 0
M  V30 1922 N 177.372 -0.689602 1.41712 0
M  V30 1923 C 178.597 -1.48329 1.44959 0
M  V30 1924 C 179.022 -1.8801 0.0581283 0
M  V30 1925 O 178.38 -1.55026 -0.940035 0
M  V30 1926 C 178.428 -2.71835 2.36935 0
M  V30 1927 O 177.532 -3.69549 1.8305 0
M  V30 1928 H 176.873 -0.446199 0.491734 0
M  V30 1929 H 179.403 -0.847127 1.86239 0
M  V30 1930 H 179.413 -3.20076 2.53013 0
M  V30 1931 H 178.088 -2.42291 3.38035 0
M  V30 1932 H 176.665 -3.2851 1.76452 0
M  V30 1933 N 178.85 -1.27639 -0.924453 0
M  V30 1934 C 180.096 -1.14336 -1.67497 0
M  V30 1935 C 180.429 0.309465 -1.91718 0
M  V30 1936 O 179.704 1.22608 -1.50989 0
M  V30 1937 C 179.987 -1.93096 -3.0395 0
M  V30 1938 C 179.84 -3.46381 -2.8695 0
M  V30 1939 C 181.159 -1.73798 -4.0433 0
M  V30 1940 H 178.278 -0.416728 -0.607871 0
M  V30 1941 H 180.92 -1.56832 -1.07256 0
M  V30 1942 H 179.07 -1.56982 -3.55372 0
M  V30 1943 H 180.742 -3.92343 -2.42621 0
M  V30 1944 H 178.985 -3.72557 -2.22225 0
M  V30 1945 H 179.656 -3.96735 -3.83804 0
M  V30 1946 H 182.132 -2.05293 -3.61931 0
M  V30 1947 H 181.008 -2.31294 -4.97789 0
M  V30 1948 H 181.269 -0.686725 -4.36734 0
M  V30 1949 N 180.328 1.1314 -1.09713 0
M  V30 1950 C 181.553 1.88862 -0.857081 0
M  V30 1951 C 181.978 1.78729 0.586304 0
M  V30 1952 O 181.336 1.13692 1.41222 0
M  V30 1953 C 181.384 3.36325 -1.30069 0
M  V30 1954 O 180.488 4.09815 -0.461007 0
M  V30 1955 H 179.829 0.587108 -0.310162 0
M  V30 1956 H 182.359 1.43129 -1.46203 0
M  V30 1957 H 182.369 3.87157 -1.28738 0
M  V30 1958 H 181.044 3.43017 -2.35185 0
M  V30 1959 H 179.621 3.68986 -0.538888 0
M  V30 1960 N 181.806 0.884767 1.30421 0
M  V30 1961 C 182.716 0.355398 2.31892 0
M  V30 1962 C 183.732 -0.542261 1.65335 0
M  V30 1963 O 184.908 -0.435432 1.96637 0
M  V30 1964 C 181.973 -0.421661 3.44126 0
M  V30 1965 C 181.034 0.505727 4.26311 0
M  V30 1966 C 180.267 -0.234343 5.33185 0
M  V30 1967 O 180.49 -1.46045 5.51386 0
M  V30 1968 O 179.424 0.415443 6.00465 0
M  V30 1969 H 183.25 1.19685 2.79122 0
M  V30 1970 H 180.835 0.648596 1.34587 0
M  V30 1971 H 182.717 -0.861641 4.12497 0
M  V30 1972 H 181.392 -1.23942 2.99032 0
M  V30 1973 H 180.299 0.994513 3.60639 0
M  V30 1974 H 181.632 1.28948 4.75009 0
M  V30 1975 N 183.284 -1.43765 0.645699 0
M  V30 1976 C 184.232 -2.32516 -0.0624849 0
M  V30 1977 C 185.226 -1.48183 -0.820855 0
M  V30 1978 O 186.432 -1.64439 -0.732106 0
M  V30 1979 H 182.807 -0.750989 -0.0389864 0
M  V30 1980 H 184.778 -2.89979 0.703892 0
M  V30 1981 C 183.527 -3.32389 -1.02044 0
M  V30 1982 H 182.85 -3.97301 -0.446312 0
M  V30 1983 H 184.29 -3.97138 -1.48517 0
M  V30 1984 C 182.749 -2.62416 -2.11281 0
M  V30 1985 O 183.279 -2.434 -3.19561 0
M  V30 1986 N 181.485 -2.21913 -1.87624 0
M  V30 1987 H 181.032 -2.37578 -0.995703 0
M  V30 1988 H 180.99 -1.75424 -2.6091 0
M  V30 1989 N 184.763 -0.387143 -1.52771 0
M  V30 1990 C 186.179 -0.037007 -1.59557 0
M  V30 1991 C 186.379 1.44801 -1.40124 0
M  V30 1992 O 185.435 2.21227 -1.21716 0
M  V30 1993 C 186.748 -0.512256 -2.96305 0
M  V30 1994 C 188.296 -0.468328 -3.09476 0
M  V30 1995 C 188.771 -0.919731 -4.4867 0
M  V30 1996 N 190.262 -0.875656 -4.54848 0
M  V30 1997 C 190.997 -1.19637 -5.6078 0
M  V30 1998 N 190.493 -1.58745 -6.74368 0
M  V30 1999 N 192.286 -1.11776 -5.50874 0
M  V30 2000 H 184.437 -1.35395 -1.63652 0
M  V30 2001 H 186.7 -0.554818 -0.768688 0
M  V30 2002 H 186.406 -1.54935 -3.15734 0
M  V30 2003 H 186.28 0.089805 -3.77093 0
M  V30 2004 H 188.667 0.559671 -2.89744 0
M  V30 2005 H 188.748 -1.10616 -2.30646 0
M  V30 2006 H 188.392 -1.94595 -4.69143 0
M  V30 2007 H 188.322 -0.258927 -5.25963 0
M  V30 2008 H 190.813 -0.587843 -3.733 0
M  V30 2009 H 191.126 -1.81586 -7.51163 0
M  V30 2010 H 189.471 -1.6263 -6.75705 0
M  V30 2011 H 192.662 -0.811264 -4.61016 0
M  V30 2012 H 192.835 -1.37103 -6.3333 0
M  V30 2013 N 186.241 1.57166 -0.116904 0
M  V30 2014 C 187.481 1.97008 0.544715 0
M  V30 2015 C 187.845 0.998713 1.63981 0
M  V30 2016 O 189.046 1.28644 2.36018 0
M  V30 2017 C 187.317 3.41145 1.06559 0
M  V30 2018 S 188.876 4.02998 1.73603 0
M  V30 2019 H 185.694 0.688587 0.177112 0
M  V30 2020 H 188.296 1.94459 -0.201487 0
M  V30 2021 H 187 4.09592 0.257374 0
M  V30 2022 H 186.531 3.4734 1.84712 0
M  V30 2023 H 188.546 3.93585 3.02168 0
M  V30 2024 N 187.719 -0.156864 1.56817 0
M  V30 2025 C 188.669 -1.19891 1.93934 0
M  V30 2026 C 189.653 -1.39061 0.809372 0
M  V30 2027 O 190.845 -1.40789 1.07273 0
M  V30 2028 C 187.974 -2.53493 2.31508 0
M  V30 2029 C 187.06 -2.37957 3.51052 0
M  V30 2030 N 187.451 -1.92158 4.67877 0
M  V30 2031 C 185.749 -2.68739 3.55943 0
M  V30 2032 C 186.45 -1.8943 5.49992 0
M  V30 2033 N 185.426 -2.32375 4.91429 0
M  V30 2034 H 189.228 -0.836746 2.81737 0
M  V30 2035 H 186.742 -0.365012 1.58245 0
M  V30 2036 H 188.739 -3.28811 2.56299 0
M  V30 2037 H 187.399 -2.905 1.45051 0
M  V30 2038 H 188.41 -1.62274 4.91821 0
M  V30 2039 H 185.087 -3.09687 2.80001 0
M  V30 2040 H 186.477 -1.55596 6.53636 0
M  V30 2041 N 189.197 -1.51736 -0.425897 0
M  V30 2042 C 190.127 -1.76827 -1.52494 0
M  V30 2043 C 191.108 -0.618524 -1.58456 0
M  V30 2044 O 192.293 -0.862416 -1.74 0
M  V30 2045 C 189.423 -1.90374 -2.90474 0
M  V30 2046 C 188.377 -3.0588 -2.99369 0
M  V30 2047 C 187.703 -3.04625 -4.3944 0
M  V30 2048 C 189.003 -4.45644 -2.72394 0
M  V30 2049 H 190.697 -2.68855 -1.31748 0
M  V30 2050 H 188.243 -1.29372 -0.632362 0
M  V30 2051 H 190.196 -2.0651 -3.6733 0
M  V30 2052 H 188.92 -0.95004 -3.12477 0
M  V30 2053 H 187.579 -2.89467 -2.24954 0
M  V30 2054 H 187.227 -2.0701 -4.58428 0
M  V30 2055 H 186.927 -3.82195 -4.46319 0
M  V30 2056 H 188.451 -3.22869 -5.18255 0
M  V30 2057 H 189.865 -4.62348 -3.38979 0
M  V30 2058 H 188.262 -5.25006 -2.9067 0
M  V30 2059 H 189.332 -4.54893 -1.67929 0
M  V30 2060 N 190.675 0.682077 -1.42076 0
M  V30 2061 C 191.585 1.82535 -1.47371 0
M  V30 2062 C 192.601 1.7017 -0.363079 0
M  V30 2063 O 193.777 1.91848 -0.612875 0
M  V30 2064 C 190.842 3.18624 -1.36674 0
M  V30 2065 C 189.903 3.42999 -2.58167 0
M  V30 2066 C 189.136 4.72595 -2.4797 0
M  V30 2067 O 189.359 5.50006 -1.5116 0
M  V30 2068 O 188.293 4.98054 -3.37974 0
M  V30 2069 H 192.119 1.81023 -2.43853 0
M  V30 2070 H 189.704 0.836887 -1.2376 0
M  V30 2071 H 191.586 3.99847 -1.33043 0
M  V30 2072 H 190.261 3.20789 -0.433138 0
M  V30 2073 H 189.168 2.61653 -2.67373 0
M  V30 2074 H 190.501 3.45659 -3.50401 0
M  V30 2075 N 192.153 1.28127 0.917671 0
M  V30 2076 C 193.401 1.14825 1.66312 0
M  V30 2077 C 193.722 -0.304379 1.9261 0
M  V30 2078 O 192.992 -1.21149 1.53947 0
M  V30 2079 H 191.572 0.421953 0.616413 0
M  V30 2080 H 194.234 1.608 1.10134 0
M  V30 2081 H 193.33 1.68489 2.62712 0
M  V30 2082 N 193.631 -1.12557 1.10312 0
M  V30 2083 C 194.879 -1.83675 0.843091 0
M  V30 2084 C 195.2 -1.84435 -0.633131 0
M  V30 2085 O 194.47 -1.30657 -1.45964 0
M  V30 2086 H 193.05 -0.680138 0.308904 0
M  V30 2087 H 195.712 -1.36301 1.39313 0
M  V30 2088 H 194.808 -2.87908 1.2048 0
M  V30 2089 N 195.109 -0.891671 -1.2995 0
M  V30 2090 C 196.334 -0.527932 -2.00568 0
M  V30 2091 C 196.759 0.877969 -1.66353 0
M  V30 2092 O 196.117 1.58301 -0.883762 0
M  V30 2093 C 196.165 -0.717745 -3.53385 0
M  V30 2094 O 195.269 0.233376 -4.11739 0
M  V30 2095 H 194.61 -0.20722 -0.630837 0
M  V30 2096 H 197.14 -1.20105 -1.65638 0
M  V30 2097 H 197.15 -0.619307 -4.03272 0
M  V30 2098 H 195.825 -1.74276 -3.77625 0
M  V30 2099 H 194.402 0.0880706 -3.72796 0
M  V30 2100 N 196.587 1.43421 -0.653314 0
M  V30 2101 C 197.864 1.95361 -0.0966581 0
M  V30 2102 C 198.244 1.59461 1.38331 0
M  V30 2103 O 197.592 0.879777 2.10884 0
M  V30 2104 C 197.802 3.47311 -0.342988 0
M  V30 2105 C 199.15 4.23875 -0.24798 0
M  V30 2106 O 200.174 3.55133 -0.275553 0
M  V30 2107 O 199.033 5.4623 -0.171771 0
M  V30 2108 H 196.127 0.826945 0.00956291 0
M  V30 2109 H 198.673 1.5336 -0.726558 0
M  V30 2110 H 197.445 3.66569 -1.36906 0
M  V30 2111 H 197.068 3.9631 0.319975 0
M  V30 2112 N 198.065 0.39524 1.52563 0
M  V30 2113 C 198.997 -0.472201 2.24283 0
M  V30 2114 C 200.01 -1.02178 1.26742 0
M  V30 2115 O 201.199 -0.923097 1.52778 0
M  V30 2116 C 198.299 -1.66775 2.95024 0
M  V30 2117 C 197.472 -1.2445 4.19322 0
M  V30 2118 C 196.531 -2.30539 4.7301 0
M  V30 2119 O 195.557 -1.91702 5.35947 0
M  V30 2120 N 196.759 -3.6253 4.53379 0
M  V30 2121 H 199.524 0.142282 2.99362 0
M  V30 2122 H 197.085 0.2219 1.60372 0
M  V30 2123 H 199.077 -2.37283 3.27839 0
M  V30 2124 H 197.647 -2.18845 2.23217 0
M  V30 2125 H 196.867 -0.368069 3.92478 0
M  V30 2126 H 198.155 -0.938457 5.0007 0
M  V30 2127 H 197.553 -3.96841 4.03154 0
M  V30 2128 H 196.11 -4.29055 4.90668 0
M  V30 2129 N 199.544 -1.57102 0.125237 0
M  V30 2130 C 200.491 -2.15641 -0.822655 0
M  V30 2131 C 201.461 -1.08313 -1.25927 0
M  V30 2132 O 202.646 -1.36251 -1.33567 0
M  V30 2133 C 199.786 -2.76504 -2.06494 0
M  V30 2134 C 198.899 -3.98158 -1.67612 0
M  V30 2135 C 198.034 -4.47088 -2.86854 0
M  V30 2136 C 197.073 -5.6126 -2.44242 0
M  V30 2137 N 196.21 -6.04905 -3.56419 0
M  V30 2138 H 201.05 -2.96313 -0.316625 0
M  V30 2139 H 198.587 -1.46388 -0.144588 0
M  V30 2140 H 200.545 -3.09925 -2.79289 0
M  V30 2141 H 199.175 -1.98512 -2.54545 0
M  V30 2142 H 198.227 -3.70858 -0.846661 0
M  V30 2143 H 199.539 -4.80934 -1.32301 0
M  V30 2144 H 198.693 -4.82451 -3.67867 0
M  V30 2145 H 197.432 -3.63275 -3.25396 0
M  V30 2146 H 196.437 -5.25495 -1.61663 0
M  V30 2147 H 197.662 -6.46843 -2.0681 0
M  V30 2148 H 195.608 -5.24032 -3.94623 0
M  V30 2149 H 195.525 -6.82552 -3.25051 0
M  V30 2150 H 196.793 -6.44907 -4.37853 0
M  V30 2151 N 201.022 0.148545 -1.56898 0
M  V30 2152 C 202.299 0.890019 -1.74178 0
M  V30 2153 C 202.679 1.99407 -0.692839 0
M  V30 2154 O 202.027 2.26671 0.288505 0
M  V30 2155 C 202.237 1.43389 -3.18183 0
M  V30 2156 C 203.585 1.89791 -3.79822 0
M  V30 2157 O 204.609 1.53134 -3.21603 0
M  V30 2158 O 203.468 2.57387 -4.82093 0
M  V30 2159 H 200.562 0.420496 -0.712118 0
M  V30 2160 H 203.108 0.134591 -1.69165 0
M  V30 2161 H 201.88 0.640383 -3.86024 0
M  V30 2162 H 201.503 2.25287 -3.27615 0
M  V30 2163 N 202.5 1.5196 0.417844 0
M  V30 2164 C 203.43 1.77634 1.51554 0
M  V30 2165 C 204.411 0.626918 1.58126 0
M  V30 2166 O 205.596 0.871632 1.7354 0
M  V30 2167 C 202.726 1.91911 2.8946 0
M  V30 2168 C 201.68 3.07463 2.97743 0
M  V30 2169 C 201.006 3.06951 4.37819 0
M  V30 2170 C 202.306 4.47082 2.70027 0
M  V30 2171 H 204 2.6955 1.3032 0
M  V30 2172 H 201.546 1.29706 0.625492 0
M  V30 2173 H 203.499 2.08455 3.6623 0
M  V30 2174 H 202.223 0.966598 3.11969 0
M  V30 2175 H 200.882 2.90656 2.23416 0
M  V30 2176 H 200.53 2.09438 4.57323 0
M  V30 2177 H 200.23 3.84556 4.44286 0
M  V30 2178 H 201.754 3.25613 5.16535 0
M  V30 2179 H 203.168 4.6414 3.36522 0
M  V30 2180 H 201.565 5.2654 2.87881 0
M  V30 2181 H 202.635 4.55777 1.65514 0
M  V30 2182 N 203.978 -0.674533 1.42435 0
M  V30 2183 C 205.224 -1.43671 1.43131 0
M  V30 2184 C 205.557 -1.94142 0.0476021 0
M  V30 2185 O 204.832 -1.70924 -0.928188 0
M  V30 2186 C 205.115 -2.63355 2.45594 0
M  V30 2187 C 204.968 -2.18514 3.93156 0
M  V30 2188 C 206.287 -3.65571 2.45043 0
M  V30 2189 H 203.406 -0.521077 0.521198 0
M  V30 2190 H 206.048 -0.766551 1.7385 0
M  V30 2191 H 204.198 -3.2053 2.19528 0
M  V30 2192 H 205.87 -1.66504 4.30202 0
M  V30 2193 H 204.113 -1.50086 4.07009 0
M  V30 2194 H 204.784 -3.04484 4.60428 0
M  V30 2195 H 207.26 -3.18113 2.68223 0
M  V30 2196 H 206.136 -4.46893 3.18713 0
M  V30 2197 H 206.397 -4.16716 1.47649 0
M  V30 2198 N 205.456 -1.28612 -0.910864 0
M  V30 2199 C 206.388 -1.08589 -2.01844 0
M  V30 2200 C 207.401 -0.0367419 -1.62759 0
M  V30 2201 O 208.59 -0.280101 -1.76289 0
M  V30 2202 C 205.69 -0.628626 -3.33019 0
M  V30 2203 C 204.863 -1.75382 -4.00699 0
M  V30 2204 C 203.922 -1.28945 -5.10156 0
M  V30 2205 O 202.948 -1.9922 -5.33198 0
M  V30 2206 N 204.15 -0.154224 -5.80295 0
M  V30 2207 H 206.915 -2.03973 -2.19579 0
M  V30 2208 H 204.476 -1.20403 -1.08234 0
M  V30 2209 H 206.468 -0.301508 -4.03575 0
M  V30 2210 H 205.038 0.232451 -3.11735 0
M  V30 2211 H 204.258 -2.25039 -3.23653 0
M  V30 2212 H 205.546 -2.50854 -4.42662 0
M  V30 2213 H 204.944 0.43194 -5.64049 0
M  V30 2214 H 203.501 0.113599 -6.51701 0
M  V30 2215 N 206.934 1.1197 -1.10907 0
M  V30 2216 C 207.844 2.21433 -0.774896 0
M  V30 2217 C 208.86 1.72478 0.229657 0
M  V30 2218 O 210.036 2.01288 0.0672008 0
M  V30 2219 C 207.101 3.4602 -0.216986 0
M  V30 2220 C 206.162 4.09791 -1.27944 0
M  V30 2221 C 205.395 5.28431 -0.748055 0
M  V30 2222 O 205.618 5.68823 0.423833 0
M  V30 2223 O 204.552 5.82644 -1.51027 0
M  V30 2224 H 208.378 2.5242 -1.68873 0
M  V30 2225 H 205.963 1.20399 -0.884555 0
M  V30 2226 H 207.845 4.21304 0.090059 0
M  V30 2227 H 206.52 3.16698 0.669633 0
M  V30 2228 H 205.427 3.36265 -1.63941 0
M  V30 2229 H 206.76 4.4328 -2.13925 0
M  V30 2230 N 208.412 0.89855 1.29475 0
M  V30 2231 C 209.342 0.39201 2.30186 0
M  V30 2232 C 210.323 -0.532359 1.61555 0
M  V30 2233 O 211.508 -0.443331 1.89072 0
M  V30 2234 C 208.638 -0.382353 3.45189 0
M  V30 2235 C 207.592 0.451483 4.25612 0
M  V30 2236 C 206.918 -0.450307 5.328 0
M  V30 2237 C 208.218 1.70079 4.93832 0
M  V30 2238 H 209.912 1.23362 2.72804 0
M  V30 2239 H 207.458 0.594638 1.31149 0
M  V30 2240 H 209.411 -0.747451 4.14718 0
M  V30 2241 H 208.135 -1.25774 3.01411 0
M  V30 2242 H 206.794 0.798897 3.57789 0
M  V30 2243 H 206.442 -1.32379 4.85268 0
M  V30 2244 H 206.142 0.103902 5.87508 0
M  V30 2245 H 207.666 -0.811623 6.05182 0
M  V30 2246 H 209.08 1.40549 5.55805 0
M  V30 2247 H 207.477 2.19623 5.58467 0
M  V30 2248 H 208.547 2.43744 4.19186 0
M  V30 2249 N 209.89 -1.43072 0.660911 0
M  V30 2250 C 210.822 -2.29108 -0.0647641 0
M  V30 2251 C 211.835 -1.42928 -0.779448 0
M  V30 2252 O 213.024 -1.66788 -0.635921 0
M  V30 2253 C 210.124 -3.20032 -1.11503 0
M  V30 2254 C 209.297 -4.34792 -0.476955 0
M  V30 2255 C 208.356 -5.06534 -1.42513 0
M  V30 2256 O 207.382 -5.61538 -0.930771 0
M  V30 2257 N 208.584 -5.1075 -2.75889 0
M  V30 2258 H 211.349 -2.92029 0.673731 0
M  V30 2259 H 208.91 -1.53846 0.50427 0
M  V30 2260 H 210.902 -3.64892 -1.75032 0
M  V30 2261 H 209.472 -2.58658 -1.75541 0
M  V30 2262 H 208.692 -3.92752 0.337572 0
M  V30 2263 H 209.98 -5.0879 -0.0318525 0
M  V30 2264 H 209.378 -4.67447 -3.18606 0
M  V30 2265 H 207.935 -5.59302 -3.347 0
M  V30 2266 N 211.368 -0.403325 -1.52352 0
M  V30 2267 C 212.278 0.432009 -2.30588 0
M  V30 2268 C 213.294 1.05884 -1.38075 0
M  V30 2269 O 214.47 1.06161 -1.71148 0
M  V30 2270 C 211.535 1.53669 -3.10784 0
M  V30 2271 C 210.596 0.933525 -4.19027 0
M  V30 2272 C 209.829 1.98557 -4.9539 0
M  V30 2273 O 210.052 3.20283 -4.71991 0
M  V30 2274 O 208.986 1.59504 -5.80381 0
M  V30 2275 H 212.812 -0.205739 -3.03002 0
M  V30 2276 H 210.397 -0.166675 -1.48467 0
M  V30 2277 H 212.279 2.17814 -3.60742 0
M  V30 2278 H 210.954 2.15915 -2.41169 0
M  V30 2279 H 209.861 0.254954 -3.7323 0
M  V30 2280 H 211.194 0.35508 -4.90918 0
M  V30 2281 N 212.846 1.57033 -0.133567 0
M  V30 2282 C 213.756 2.19632 0.824564 0
M  V30 2283 C 214.772 1.17666 1.28182 0
M  V30 2284 O 215.948 1.50193 1.3418 0
M  V30 2285 C 213.013 2.79499 2.05137 0
M  V30 2286 C 212.074 3.96548 1.64464 0
M  V30 2287 C 211.307 4.5355 2.81297 0
M  V30 2288 O 211.53 4.09438 3.97136 0
M  V30 2289 O 210.464 5.44018 2.57542 0
M  V30 2290 H 214.29 3.01991 0.321766 0
M  V30 2291 H 211.875 1.49112 0.0927889 0
M  V30 2292 H 213.757 3.17602 2.7696 0
M  V30 2293 H 212.432 2.00162 2.54395 0
M  V30 2294 H 211.339 3.63186 0.897048 0
M  V30 2295 H 212.672 4.77364 1.19934 0
M  V30 2296 N 214.325 -0.140222 1.56975 0
M  V30 2297 C 215.272 -1.17292 1.98774 0
M  V30 2298 C 216.242 -1.4232 0.856408 0
M  V30 2299 O 217.427 -1.54541 1.119 0
M  V30 2300 C 214.567 -2.49973 2.37923 0
M  V30 2301 C 213.68 -2.32062 3.64378 0
M  V30 2302 C 212.815 -3.57825 3.926 0
M  V30 2303 C 211.854 -3.3498 5.12303 0
M  V30 2304 N 210.991 -4.52891 5.36502 0
M  V30 2305 H 215.831 -0.809472 2.86795 0
M  V30 2306 H 213.368 -0.388237 1.41884 0
M  V30 2307 H 215.326 -3.27346 2.58652 0
M  V30 2308 H 213.956 -2.84252 1.52972 0
M  V30 2309 H 213.008 -1.45711 3.51387 0
M  V30 2310 H 214.32 -2.11145 4.51906 0
M  V30 2311 H 213.474 -4.43624 4.13863 0
M  V30 2312 H 212.213 -3.81753 3.03506 0
M  V30 2313 H 211.218 -2.4757 4.90906 0
M  V30 2314 H 212.443 -3.12444 6.02956 0
M  V30 2315 H 210.389 -4.76979 4.50363 0
M  V30 2316 H 210.306 -4.35001 6.18312 0
M  V30 2317 H 211.574 -5.39884 5.62268 0
M  V30 2318 N 215.803 -1.52179 -0.40978 0
M  V30 2319 C 217.214 -1.58377 -0.988615 0
M  V30 2320 C 217.565 -0.423879 -1.91566 0
M  V30 2321 O 216.69 0.455844 -2.11544 0
M  V30 2322 C 217.285 -2.87044 -1.79976 0
M  V30 2323 C 215.844 -2.95722 -2.32863 0
M  V30 2324 C 214.991 -2.53309 -1.12828 0
M  V30 2325 H 217.942 -1.57558 -0.190039 0
M  V30 2326 H 217.963 -2.7236 -2.65707 0
M  V30 2327 H 217.475 -3.71444 -1.12478 0
M  V30 2328 H 215.576 -2.15814 -3.03735 0
M  V30 2329 H 215.689 -3.99951 -2.63773 0
M  V30 2330 H 214.053 -2.07142 -1.48204 0
M  V30 2331 H 214.836 -3.40082 -0.46897 0
M  V30 2332 N 217.281 0.66697 -1.42791 0
M  V30 2333 C 218.506 1.46004 -1.47301 0
M  V30 2334 C 218.931 1.87894 -0.0880317 0
M  V30 2335 O 218.289 1.56502 0.915253 0
M  V30 2336 C 218.337 2.68031 -2.41229 0
M  V30 2337 O 217.441 3.6659 -1.88906 0
M  V30 2338 H 216.782 0.43832 -0.49877 0
M  V30 2339 H 219.312 0.817391 -1.87563 0
M  V30 2340 H 219.322 3.1601 -2.58073 0
M  V30 2341 H 217.997 2.36883 -3.41847 0
M  V30 2342 H 216.574 3.25661 -1.81656 0
M  V30 2343 N 218.759 1.29093 0.90403 0
M  V30 2344 C 219.984 1.19809 1.69294 0
M  V30 2345 C 220.409 -0.238481 1.86582 0
M  V30 2346 O 219.767 -1.1723 1.383 0
M  V30 2347 C 219.815 1.91202 3.05736 0
M  V30 2348 O 218.919 1.22611 3.93752 0
M  V30 2349 H 218.26 0.415385 0.518027 0
M  V30 2350 H 220.79 1.70586 1.12967 0
M  V30 2351 H 220.8 1.99487 3.55906 0
M  V30 2352 H 219.475 2.95692 2.92471 0
M  V30 2353 H 218.052 1.22554 3.52186 0
M  V30 2354 N 220.237 -1.11381 1.11499 0
M  V30 2355 C 221.462 -1.87475 0.887019 0
M  V30 2356 C 221.887 -1.79639 -0.557796 0
M  V30 2357 O 221.245 -1.15924 -1.39396 0
M  V30 2358 C 221.293 -3.34213 1.35403 0
M  V30 2359 O 220.397 -4.0903 0.526146 0
M  V30 2360 H 219.738 -0.582099 0.319463 0
M  V30 2361 H 222.268 -1.40785 1.48461 0
M  V30 2362 H 222.278 -3.8506 1.34881 0
M  V30 2363 H 220.953 -3.39232 2.40612 0
M  V30 2364 H 219.53 -3.68082 0.597522 0
M  V30 2365 N 221.715 -0.905404 -1.28997 0
M  V30 2366 C 222.665 -0.358713 -2.25161 0
M  V30 2367 C 223.649 0.524449 -1.52113 0
M  V30 2368 O 224.841 0.365534 -1.73184 0
M  V30 2369 C 221.97 0.407609 -3.40872 0
M  V30 2370 C 221.056 -0.490797 -4.21251 0
M  V30 2371 N 221.447 -1.60061 -4.79806 0
M  V30 2372 C 219.745 -0.289636 -4.45059 0
M  V30 2373 C 220.446 -2.15757 -5.40207 0
M  V30 2374 N 219.422 -1.44988 -5.23908 0
M  V30 2375 H 223.224 -1.20642 -2.67998 0
M  V30 2376 H 220.738 -0.757103 -1.43672 0
M  V30 2377 H 222.735 0.816046 -4.08835 0
M  V30 2378 H 221.395 1.25251 -2.9957 0
M  V30 2379 H 222.406 -1.98329 -4.7842 0
M  V30 2380 H 219.083 0.51643 -4.14294 0
M  V30 2381 H 220.473 -3.09069 -5.96595 0
M  V30 2382 N 223.193 1.4272 -0.668489 0
M  V30 2383 C 224.123 2.335 -0.000100175 0
M  V30 2384 C 225.104 1.50328 0.795964 0
M  V30 2385 O 226.289 1.78949 0.754385 0
M  V30 2386 C 223.419 3.33874 0.956302 0
M  V30 2387 C 222.373 4.27152 0.269278 0
M  V30 2388 C 221.699 5.17684 1.33818 0
M  V30 2389 C 222.999 5.15373 -0.847805 0
M  V30 2390 H 224.693 2.89639 -0.758244 0
M  V30 2391 H 222.239 1.39269 -0.366079 0
M  V30 2392 H 224.192 3.9629 1.43292 0
M  V30 2393 H 222.916 2.76025 1.74579 0
M  V30 2394 H 221.575 3.66123 -0.187042 0
M  V30 2395 H 221.223 4.56165 2.1195 0
M  V30 2396 H 220.923 5.80918 0.883659 0
M  V30 2397 H 222.447 5.82974 1.81586 0
M  V30 2398 H 223.861 5.7151 -0.452681 0
M  V30 2399 H 222.258 5.87407 -1.22773 0
M  V30 2400 H 223.328 4.5415 -1.69929 0
M  V30 2401 N 224.671 0.411399 1.52136 0
M  V30 2402 C 225.917 -0.163888 2.02137 0
M  V30 2403 C 226.25 -1.44597 1.29636 0
M  V30 2404 O 225.525 -1.90272 0.403353 0
M  V30 2405 C 225.808 -0.40927 3.57767 0
M  V30 2406 C 225.661 0.889643 4.40914 0
M  V30 2407 C 226.98 -1.19042 4.23694 0
M  V30 2408 H 224.099 -0.0580896 0.734707 0
M  V30 2409 H 226.741 0.54531 1.82007 0
M  V30 2410 H 224.891 -1.0134 3.7505 0
M  V30 2411 H 226.563 1.52575 4.35337 0
M  V30 2412 H 224.806 1.50011 4.07037 0
M  V30 2413 H 225.477 0.672314 5.4789 0
M  V30 2414 H 227.953 -0.678942 4.10524 0
M  V30 2415 H 226.829 -1.33086 5.32522 0
M  V30 2416 H 227.09 -2.21166 3.82803 0
M  V30 2417 N 226.149 -1.5696 0.141893 0
M  V30 2418 C 227.374 -2.00754 -0.520838 0
M  V30 2419 C 227.799 -1.0213 -1.57959 0
M  V30 2420 O 227.157 0.00371324 -1.813 0
M  V30 2421 C 227.205 -3.43318 -1.10294 0
M  V30 2422 O 226.309 -3.47679 -2.21795 0
M  V30 2423 H 225.65 -0.651564 -0.127908 0
M  V30 2424 H 228.18 -2.03221 0.23712 0
M  V30 2425 H 228.19 -3.82012 -1.43287 0
M  V30 2426 H 226.865 -4.14608 -0.327574 0
M  V30 2427 H 225.442 -3.20824 -1.9007 0
M  V30 2428 N 227.627 0.131896 -1.57047 0
M  V30 2429 C 229.043 0.485031 -1.52051 0
M  V30 2430 C 229.243 1.82563 -0.85281 0
M  V30 2431 O 228.299 2.48817 -0.429694 0
M  V30 2432 C 229.612 0.481409 -2.96821 0
M  V30 2433 C 231.16 0.565868 -3.07842 0
M  V30 2434 C 231.635 0.592762 -4.54148 0
M  V30 2435 N 233.126 0.654564 -4.58552 0
M  V30 2436 C 233.861 0.696608 -5.69153 0
M  V30 2437 N 233.357 0.697078 -6.89284 0
M  V30 2438 N 235.15 0.738639 -5.57226 0
M  V30 2439 H 227.301 -0.746664 -1.98843 0
M  V30 2440 H 229.564 -0.273999 -0.90754 0
M  V30 2441 H 229.27 -0.435731 -3.4899 0
M  V30 2442 H 229.144 1.3139 -3.53577 0
M  V30 2443 H 231.531 1.47343 -2.55684 0
M  V30 2444 H 231.612 -0.29406 -2.54104 0
M  V30 2445 H 231.256 -0.310701 -5.06949 0
M  V30 2446 H 231.186 1.46939 -5.05684 0
M  V30 2447 H 233.677 0.660887 -3.72076 0
M  V30 2448 H 233.99 0.731426 -7.69331 0
M  V30 2449 H 232.335 0.66471 -6.91814 0
M  V30 2450 H 235.526 0.735545 -4.62285 0
M  V30 2451 H 235.699 0.767938 -6.43434 0
M  V30 2452 N 229.106 1.52395 0.401703 0
M  V30 2453 C 230.517 1.58899 0.980202 0
M  V30 2454 C 230.868 0.434032 1.91339 0
M  V30 2455 O 229.993 -0.444619 2.11783 0
M  V30 2456 C 230.588 2.87994 1.78451 0
M  V30 2457 C 229.147 2.96953 2.31292 0
M  V30 2458 C 228.294 2.53903 1.11483 0
M  V30 2459 H 231.245 1.57657 0.18168 0
M  V30 2460 H 231.266 2.73765 2.64259 0
M  V30 2461 H 230.778 3.72035 1.10506 0
M  V30 2462 H 228.879 2.17422 3.02586 0
M  V30 2463 H 228.992 4.01344 2.61649 0
M  V30 2464 H 227.356 2.07925 1.47104 0
M  V30 2465 H 228.139 3.40326 0.450928 0
M  V30 2466 N 230.584 -0.659388 1.43143 0
M  V30 2467 C 231.809 -1.45221 1.48073 0
M  V30 2468 C 232.234 -1.87845 0.097995 0
M  V30 2469 O 231.592 -1.56985 -0.90694 0
M  V30 2470 C 231.64 -2.66748 2.42647 0
M  V30 2471 O 230.744 -3.65583 1.90848 0
M  V30 2472 H 230.085 -0.435669 0.501088 0
M  V30 2473 H 232.615 -0.807432 1.87994 0
M  V30 2474 H 232.625 -3.14637 2.59745 0
M  V30 2475 H 231.3 -2.35067 3.43098 0
M  V30 2476 H 229.877 -3.24693 1.83381 0
M  V30 2477 N 232.062 -1.29571 -0.897171 0
M  V30 2478 C 233.29 -1.20583 -1.68129 0
M  V30 2479 C 233.705 0.233181 -1.87354 0
M  V30 2480 O 233.062 1.15579 -1.41236 0
M  V30 2481 C 233.113 -1.91772 -3.06441 0
M  V30 2482 O 232.834 -3.30053 -2.88091 0
M  V30 2483 C 234.335 -1.89291 -4.00854 0
M  V30 2484 H 231.555 -0.417826 -0.525036 0
M  V30 2485 H 234.099 -1.70987 -1.12177 0
M  V30 2486 H 232.254 -1.45196 -3.59161 0
M  V30 2487 H 232.668 -3.65942 -3.75748 0
M  V30 2488 H 234.142 -2.43662 -4.95311 0
M  V30 2489 H 234.619 -0.869014 -4.30517 0
M  V30 2490 H 235.225 -2.35622 -3.54066 0
M  V30 2491 N 233.54 1.10788 -1.12088 0
M  V30 2492 C 234.765 1.87002 -0.896949 0
M  V30 2493 C 235.19 1.79933 0.548261 0
M  V30 2494 O 234.548 1.16662 1.38779 0
M  V30 2495 C 234.596 3.3349 -1.37174 0
M  V30 2496 O 233.7 4.08745 -0.547831 0
M  V30 2497 H 233.041 0.580397 -0.322545 0
M  V30 2498 H 235.571 1.39996 -1.49206 0
M  V30 2499 H 235.581 3.84339 -1.36922 0
M  V30 2500 H 234.256 3.37951 -2.42408 0
M  V30 2501 H 232.833 3.6776 -0.617034 0
M  V30 2502 N 235.018 0.912232 1.28515 0
M  V30 2503 C 236.243 0.559774 1.99703 0
M  V30 2504 C 236.668 -0.851393 1.67729 0
M  V30 2505 O 236.026 -1.56875 0.908834 0
M  V30 2506 C 236.074 0.773874 3.52198 0
M  V30 2507 O 235.178 -0.167842 4.12058 0
M  V30 2508 H 234.519 0.21723 0.627461 0
M  V30 2509 H 237.049 1.22725 1.63706 0
M  V30 2510 H 237.059 0.683386 4.02236 0
M  V30 2511 H 235.734 1.80261 3.74805 0
M  V30 2512 H 234.311 -0.0287509 3.72889 0
M  V30 2513 N 236.496 -1.42363 0.676048 0
M  V30 2514 C 237.912 -1.55811 0.345718 0
M  V30 2515 C 238.112 -1.65544 -1.14879 0
M  V30 2516 O 237.168 -1.62306 -1.93424 0
M  V30 2517 C 238.481 -2.80746 1.07713 0
M  V30 2518 C 240.029 -2.9452 1.05958 0
M  V30 2519 C 240.504 -4.22318 1.77233 0
M  V30 2520 N 241.995 -4.29233 1.74108 0
M  V30 2521 C 242.73 -5.26935 2.26113 0
M  V30 2522 N 242.226 -6.30783 2.86505 0
M  V30 2523 N 244.019 -5.18741 2.1648 0
M  V30 2524 H 236.17 -1.34289 1.6456 0
M  V30 2525 H 238.433 -0.646506 0.69335 0
M  V30 2526 H 238.139 -2.79696 2.13221 0
M  V30 2527 H 238.013 -3.71676 0.64316 0
M  V30 2528 H 240.4 -2.95097 0.0128255 0
M  V30 2529 H 240.481 -2.04817 1.53244 0
M  V30 2530 H 240.125 -4.22502 2.81877 0
M  V30 2531 H 240.055 -5.10958 1.27396 0
M  V30 2532 H 242.546 -3.54814 1.30059 0
M  V30 2533 H 242.859 -7.01691 3.23805 0
M  V30 2534 H 241.204 -6.31341 2.90575 0
M  V30 2535 H 244.395 -4.36533 1.68987 0
M  V30 2536 H 244.568 -5.94721 2.57316 0
M  V30 2537 N 237.974 -0.419461 -1.51915 0
M  V30 2538 C 239.39 -0.0708431 -1.59443 0
M  V30 2539 C 239.59 1.41796 -1.43164 0
M  V30 2540 O 238.646 2.18596 -1.26381 0
M  V30 2541 C 239.959 -0.574991 -2.95151 0
M  V30 2542 C 241.507 -0.533867 -3.08413 0
M  V30 2543 C 241.982 -1.01469 -4.46618 0
M  V30 2544 N 243.473 -0.971939 -4.52888 0
M  V30 2545 C 244.208 -1.31505 -5.58116 0
M  V30 2546 N 243.704 -1.73014 -6.70849 0
M  V30 2547 N 245.497 -1.23436 -5.48379 0
M  V30 2548 H 237.648 -1.38836 -1.60743 0
M  V30 2549 H 239.911 -0.570998 -0.756747 0
M  V30 2550 H 239.617 -1.61597 -3.12377 0
M  V30 2551 H 239.491 0.00979777 -3.77199 0
M  V30 2552 H 241.878 0.498086 -2.90866 0
M  V30 2553 H 241.959 -1.15484 -2.28248 0
M  V30 2554 H 241.603 -2.04502 -4.6491 0
M  V30 2555 H 241.533 -0.370433 -5.25295 0
M  V30 2556 H 244.024 -0.666893 -3.71969 0
M  V30 2557 H 244.337 -1.97479 -7.47143 0
M  V30 2558 H 242.682 -1.76926 -6.72103 0
M  V30 2559 H 245.873 -0.908869 -4.59192 0
M  V30 2560 H 246.046 -1.50506 -6.30279 0
M  V30 2561 N 239.452 1.56882 -0.150215 0
M  V30 2562 C 240.868 1.58263 0.20617 0
M  V30 2563 C 241.068 1.16464 1.64434 0
M  V30 2564 O 240.124 0.866422 2.3717 0
M  V30 2565 C 241.437 3.00649 -0.0555025 0
M  V30 2566 C 242.985 3.12999 0.00795388 0
M  V30 2567 C 243.46 4.5744 -0.226429 0
M  V30 2568 N 244.951 4.62875 -0.173469 0
M  V30 2569 C 245.686 5.72454 -0.329288 0
M  V30 2570 N 245.182 6.90669 -0.543005 0
M  V30 2571 N 246.975 5.61467 -0.266666 0
M  V30 2572 H 239.126 1.82345 -1.08922 0
M  V30 2573 H 241.389 0.844149 -0.431413 0
M  V30 2574 H 241.095 3.3563 -1.05096 0
M  V30 2575 H 240.969 3.71337 0.66246 0
M  V30 2576 H 243.356 2.77857 0.993966 0
M  V30 2577 H 243.437 2.4479 -0.742388 0
M  V30 2578 H 243.081 4.93287 -1.20956 0
M  V30 2579 H 243.011 5.2378 0.544274 0
M  V30 2580 H 245.502 3.77898 -0.0130709 0
M  V30 2581 H 245.815 7.70045 -0.651922 0
M  V30 2582 H 244.16 6.92581 -0.579366 0
M  V30 2583 H 247.351 4.67992 -0.100441 0
M  V30 2584 H 247.524 6.46816 -0.391535 0
M  V30 2585 N 240.93 -0.123565 1.57115 0
M  V30 2586 C 241.893 -1.13583 1.99076 0
M  V30 2587 C 242.893 -1.34564 0.880296 0
M  V30 2588 O 244.083 -1.31158 1.14644 0
M  V30 2589 C 241.215 -2.49128 2.32698 0
M  V30 2590 H 242.408 -0.775287 2.89706 0
M  V30 2591 H 239.961 -0.36771 1.51913 0
M  V30 2592 H 240.696 -2.90111 1.44934 0
M  V30 2593 H 240.481 -2.35255 3.13684 0
M  V30 2594 H 241.971 -3.2199 2.65918 0
M  V30 2595 N 242.408 -1.52605 -0.393616 0
M  V30 2596 C 243.657 -1.66649 -1.13627 0
M  V30 2597 C 243.97 -0.410364 -1.91247 0
M  V30 2598 O 245.176 -0.430854 -2.68059 0
M  V30 2599 C 243.632 -2.9449 -2.06891 0
M  V30 2600 C 243.24 -4.27266 -1.34714 0
M  V30 2601 C 244.984 -3.17899 -2.81319 0
M  V30 2602 C 242.891 -5.46217 -2.26717 0
M  V30 2603 H 241.821 -0.62084 -0.427871 0
M  V30 2604 H 244.472 -1.791 -0.399428 0
M  V30 2605 H 242.854 -2.75774 -2.84191 0
M  V30 2606 H 244.028 -4.56518 -0.626714 0
M  V30 2607 H 242.343 -4.10081 -0.722643 0
M  V30 2608 H 244.94 -4.03949 -3.50328 0
M  V30 2609 H 245.283 -2.32777 -3.45139 0
M  V30 2610 H 245.816 -3.37159 -2.11113 0
M  V30 2611 H 242.555 -6.33733 -1.67521 0
M  V30 2612 H 242.075 -5.21283 -2.96689 0
M  V30 2613 H 243.754 -5.7991 -2.86903 0
M  V30 2614 N 243.887 0.651787 -1.4349 0
M  V30 2615 C 245.112 1.44434 -1.48841 0
M  V30 2616 C 245.537 1.8779 -0.107955 0
M  V30 2617 O 244.895 1.57464 0.898602 0
M  V30 2618 C 244.943 2.65458 -2.44059 0
M  V30 2619 O 244.047 3.64566 -1.92784 0
M  V30 2620 H 243.388 0.433005 -0.503391 0
M  V30 2621 H 245.918 0.797451 -1.88419 0
M  V30 2622 H 245.928 3.13255 -2.6141 0
M  V30 2623 H 244.603 2.33244 -3.4434 0
M  V30 2624 H 243.18 3.23716 -1.851 0
M  V30 2625 N 245.365 1.30045 0.890287 0
M  V30 2626 C 246.275 1.17885 2.02831 0
M  V30 2627 C 247.291 0.0999609 1.73713 0
M  V30 2628 O 248.467 0.313867 1.98939 0
M  V30 2629 C 245.532 0.866079 3.35708 0
M  V30 2630 C 244.593 2.02979 3.78283 0
M  V30 2631 C 243.826 1.73184 5.0482 0
M  V30 2632 O 244.049 0.657237 5.66601 0
M  V30 2633 O 242.983 2.58267 5.43674 0
M  V30 2634 H 246.809 2.13474 2.16015 0
M  V30 2635 H 244.394 1.09587 1.01543 0
M  V30 2636 H 246.276 0.706623 4.15433 0
M  V30 2637 H 244.951 -0.0599443 3.23644 0
M  V30 2638 H 243.858 2.24454 2.99285 0
M  V30 2639 H 245.191 2.93734 3.94944 0
M  V30 2640 N 246.843 -1.10192 1.12674 0
M  V30 2641 C 248.071 -1.85983 0.906527 0
M  V30 2642 C 248.486 -1.80783 -0.544333 0
M  V30 2643 O 247.843 -1.19834 -1.37645 0
M  V30 2644 C 247.894 -3.34281 1.37618 0
M  V30 2645 O 247.615 -3.39401 2.77017 0
M  V30 2646 C 249.116 -4.26938 1.19325 0
M  V30 2647 H 246.336 -0.587716 0.323775 0
M  V30 2648 H 248.88 -1.39284 1.49734 0
M  V30 2649 H 247.035 -3.78436 0.828539 0
M  V30 2650 H 247.449 -4.31838 2.97684 0
M  V30 2651 H 248.923 -5.29181 1.57071 0
M  V30 2652 H 249.4 -4.38995 0.134097 0
M  V30 2653 H 250.006 -3.8859 1.72852 0
M  V30 2654 N 248.321 -0.919034 -1.28029 0
M  V30 2655 C 249.231 -0.416756 -2.30869 0
M  V30 2656 C 250.247 0.498235 -1.66714 0
M  V30 2657 O 251.423 0.383144 -1.97722 0
M  V30 2658 C 248.488 0.330274 -3.45123 0
M  V30 2659 C 247.549 -0.618578 -4.2482 0
M  V30 2660 C 246.782 0.0928959 -5.33619 0
M  V30 2661 O 247.005 1.31375 -5.55065 0
M  V30 2662 O 245.939 -0.574499 -5.99152 0
M  V30 2663 H 249.765 -1.27043 -2.75851 0
M  V30 2664 H 247.35 -0.684052 -1.3282 0
M  V30 2665 H 249.232 0.751972 -4.14636 0
M  V30 2666 H 247.907 1.1597 -3.02213 0
M  V30 2667 H 246.814 -1.08978 -3.57875 0
M  V30 2668 H 248.147 -1.41497 -4.71423 0
M  V30 2669 N 249.799 1.42003 -0.683588 0
M  V30 2670 C 250.709 2.34597 -0.0109075 0
M  V30 2671 C 251.725 1.55576 0.779245 0
M  V30 2672 O 252.901 1.88107 0.719555 0
M  V30 2673 C 249.966 3.34199 0.922588 0
M  V30 2674 C 249.027 4.29115 0.125984 0
M  V30 2675 C 248.26 5.23959 1.01502 0
M  V30 2676 O 248.483 5.23952 2.25456 0
M  V30 2677 O 247.417 6.00053 0.47111 0
M  V30 2678 H 251.243 2.93675 -0.773853 0
M  V30 2679 H 248.828 1.42654 -0.443861 0
M  V30 2680 H 250.71 3.95365 1.45823 0
M  V30 2681 H 249.385 2.77582 1.66523 0
M  V30 2682 H 248.292 3.71335 -0.453969 0
M  V30 2683 H 249.625 4.88798 -0.577736 0
M  V30 2684 N 251.277 0.427512 1.51691 0
M  V30 2685 C 252.225 -0.403359 2.29076 0
M  V30 2686 C 253.219 -1.02962 1.34518 0
M  V30 2687 O 254.425 -0.965715 1.51901 0
M  V30 2688 H 250.8 -0.148879 0.737115 0
M  V30 2689 H 252.771 0.270295 2.97173 0
M  V30 2690 C 251.52 -1.49763 3.13794 0
M  V30 2691 H 250.843 -1.02508 3.86435 0
M  V30 2692 H 252.283 -2.05244 3.71014 0
M  V30 2693 C 250.742 -2.47536 2.28533 0
M  V30 2694 O 251.272 -3.51848 1.93819 0
M  V30 2695 N 249.478 -2.18187 1.91945 0
M  V30 2696 H 249.025 -1.33389 2.20375 0
M  V30 2697 H 248.983 -2.83848 1.35195 0
M  V30 2698 N 252.755 -1.56801 0.158532 0
M  V30 2699 C 253.98 -2.01295 -0.499516 0
M  V30 2700 C 254.405 -1.03799 -1.56867 0
M  V30 2701 O 253.763 -0.0155162 -1.81293 0
M  V30 2702 C 253.811 -3.44469 -1.06647 0
M  V30 2703 O 252.915 -3.50012 -2.18095 0
M  V30 2704 H 252.256 -0.652884 -0.12099 0
M  V30 2705 H 254.786 -2.02958 0.258661 0
M  V30 2706 H 254.796 -3.8351 -1.39227 0
M  V30 2707 H 253.471 -4.14932 -0.283581 0
M  V30 2708 H 252.048 -3.22822 -1.86656 0
M  V30 2709 N 254.233 0.115231 -1.57178 0
M  V30 2710 C 255.51 0.852873 -1.76027 0
M  V30 2711 C 255.89 1.97892 -0.73498 0
M  V30 2712 O 255.238 2.27232 0.24036 0
M  V30 2713 C 255.448 1.36608 -3.21153 0
M  V30 2714 C 256.796 1.81692 -3.83762 0
M  V30 2715 O 257.82 1.46278 -3.24779 0
M  V30 2716 O 256.679 2.47104 -4.87444 0
M  V30 2717 H 253.773 0.405296 -0.720877 0
M  V30 2718 H 256.319 0.0986785 -1.69413 0
M  V30 2719 H 255.091 0.558357 -3.87296 0
M  V30 2720 H 254.714 2.18287 -3.3232 0
M  V30 2721 N 255.711 1.52812 0.385517 0
M  V30 2722 C 256.621 1.80766 1.49535 0
M  V30 2723 C 257.637 0.694651 1.59532 0
M  V30 2724 O 258.813 0.982611 1.75803 0
M  V30 2725 C 255.878 1.97381 2.85029 0
M  V30 2726 C 254.939 3.21295 2.84724 0
M  V30 2727 C 254.172 3.37108 4.13756 0
M  V30 2728 O 254.395 2.5765 5.08893 0
M  V30 2729 O 253.329 4.30378 4.20783 0
M  V30 2730 H 257.155 2.75015 1.28842 0
M  V30 2731 H 254.74 1.37946 0.573697 0
M  V30 2732 H 256.622 2.09996 3.65349 0
M  V30 2733 H 255.297 1.06322 3.05741 0
M  V30 2734 H 254.204 3.1412 2.03174 0
M  V30 2735 H 255.537 4.12212 2.68965 0
M  V30 2736 N 257.189 -0.644168 1.43834 0
M  V30 2737 C 258.119 -1.76814 1.52509 0
M  V30 2738 C 259.1 -1.65823 0.379052 0
M  V30 2739 O 260.285 -1.84781 0.597466 0
M  V30 2740 C 257.415 -3.15288 1.4564 0
M  V30 2741 C 256.369 -3.41053 2.58586 0
M  V30 2742 C 255.695 -4.79421 2.36769 0
M  V30 2743 C 256.995 -3.34902 4.00797 0
M  V30 2744 H 258.689 -1.69812 2.46586 0
M  V30 2745 H 256.235 -0.815542 1.1868 0
M  V30 2746 H 258.188 -3.93681 1.50311 0
M  V30 2747 H 256.912 -3.23043 0.480725 0
M  V30 2748 H 255.571 -2.65035 2.53282 0
M  V30 2749 H 255.219 -4.83863 1.37424 0
M  V30 2750 H 254.919 -4.9762 3.12487 0
M  V30 2751 H 256.443 -5.6006 2.43238 0
M  V30 2752 H 257.857 -4.03218 4.07539 0
M  V30 2753 H 256.254 -3.64637 4.76613 0
M  V30 2754 H 257.324 -2.32928 4.25291 0
M  V30 2755 N 258.668 -1.30515 -0.883378 0
M  V30 2756 C 259.893 -1.22487 -1.67367 0
M  V30 2757 C 260.318 0.208767 -1.86938 0
M  V30 2758 O 259.676 1.15015 -1.40148 0
M  V30 2759 C 259.724 -1.96041 -3.02655 0
M  V30 2760 O 258.828 -1.28859 -3.91751 0
M  V30 2761 H 258.169 -0.423573 -0.511353 0
M  V30 2762 H 260.699 -1.72362 -1.10239 0
M  V30 2763 H 260.709 -2.05124 -3.52687 0
M  V30 2764 H 259.384 -3.00307 -2.8773 0
M  V30 2765 H 257.961 -1.28141 -3.50192 0
M  V30 2766 N 260.146 1.09593 -1.13257 0
M  V30 2767 C 261.394 1.81375 -0.891492 0
M  V30 2768 C 261.715 1.86049 0.584009 0
M  V30 2769 O 260.985 1.34481 1.42449 0
M  V30 2770 H 259.565 0.671708 -0.326828 0
M  V30 2771 H 262.227 1.3256 -1.42877 0
M  V30 2772 H 261.323 2.84612 -1.28071 0
M  V30 2773 N 261.624 0.925811 1.2754 0
M  V30 2774 C 262.534 0.428993 2.30644 0
M  V30 2775 C 263.55 -0.489387 1.66976 0
M  V30 2776 O 264.726 -0.372653 1.97922 0
M  V30 2777 C 261.791 -0.311967 3.45294 0
M  V30 2778 C 260.852 0.641098 4.24486 0
M  V30 2779 C 260.085 -0.0645955 5.33661 0
M  V30 2780 O 260.308 -1.28429 5.55754 0
M  V30 2781 O 259.242 0.606265 5.98839 0
M  V30 2782 H 263.068 1.28504 2.75173 0
M  V30 2783 H 260.653 0.691086 1.32455 0
M  V30 2784 H 262.535 -0.729972 4.15029 0
M  V30 2785 H 261.21 -1.14365 3.02824 0
M  V30 2786 H 260.117 1.10874 3.57292 0
M  V30 2787 H 261.45 1.43995 4.70666 0
M  V30 2788 N 263.102 -1.41638 0.69111 0
M  V30 2789 C 264.518 -1.55435 0.362224 0
M  V30 2790 C 264.718 -1.66754 -1.13117 0
M  V30 2791 O 263.774 -1.64348 -1.91692 0
M  V30 2792 C 265.087 -2.79588 1.10684 0
M  V30 2793 C 266.635 -2.9338 1.09075 0
M  V30 2794 C 267.11 -4.20414 1.81703 0
M  V30 2795 N 268.601 -4.27362 1.7865 0
M  V30 2796 C 269.336 -5.24507 2.31689 0
M  V30 2797 N 268.832 -6.27708 2.93179 0
M  V30 2798 N 270.625 -5.16416 2.2197 0
M  V30 2799 H 262.776 -1.32536 1.65976 0
M  V30 2800 H 265.039 -0.639115 0.700168 0
M  V30 2801 H 264.745 -2.77419 2.16175 0
M  V30 2802 H 264.619 -3.70973 0.682545 0
M  V30 2803 H 267.006 -2.95067 0.0441238 0
M  V30 2804 H 267.087 -2.0318 1.55407 0
M  V30 2805 H 266.731 -4.19488 2.86343 0
M  V30 2806 H 266.661 -5.09578 1.32808 0
M  V30 2807 H 269.152 -3.53415 1.33815 0
M  V30 2808 H 269.465 -6.98217 3.31229 0
M  V30 2809 H 267.81 -6.28223 2.97255 0
M  V30 2810 H 271.001 -4.34716 1.73607 0
M  V30 2811 H 271.174 -5.91958 2.63609 0
M  V30 2812 N 264.58 -0.43555 -1.51462 0
M  V30 2813 C 265.512 0.41257 -2.25456 0
M  V30 2814 C 266.525 0.987822 -1.29406 0
M  V30 2815 O 267.714 0.882266 -1.55172 0
M  V30 2816 C 264.814 1.58894 -2.99342 0
M  V30 2817 C 263.987 1.13288 -4.22474 0
M  V30 2818 C 263.046 2.17917 -4.78956 0
M  V30 2819 O 262.072 1.77425 -5.40841 0
M  V30 2820 N 263.274 3.50382 -4.62832 0
M  V30 2821 H 266.039 -0.221603 -2.9888 0
M  V30 2822 H 263.6 -0.264342 -1.59727 0
M  V30 2823 H 265.592 2.28508 -3.34015 0
M  V30 2824 H 264.162 2.12849 -2.28941 0
M  V30 2825 H 263.382 0.263881 -3.93316 0
M  V30 2826 H 264.67 0.805542 -5.02383 0
M  V30 2827 H 264.068 3.86013 -4.13534 0
M  V30 2828 H 262.625 4.15895 -5.01871 0
M  V30 2829 N 266.058 1.56714 -0.166846 0
M  V30 2830 C 267.474 1.58473 0.189372 0
M  V30 2831 C 267.674 1.18201 1.63189 0
M  V30 2832 O 266.73 0.891528 2.36237 0
M  V30 2833 C 268.043 3.00573 -0.0873872 0
M  V30 2834 C 269.591 3.1299 -0.0252443 0
M  V30 2835 C 270.066 4.57174 -0.274934 0
M  V30 2836 N 271.557 4.62665 -0.222553 0
M  V30 2837 C 272.292 5.72072 -0.389985 0
M  V30 2838 N 271.788 6.90054 -0.616229 0
M  V30 2839 N 273.581 5.61153 -0.326202 0
M  V30 2840 H 265.732 1.8118 -1.10849 0
M  V30 2841 H 267.995 0.839525 -0.440342 0
M  V30 2842 H 267.701 3.34497 -1.0865 0
M  V30 2843 H 267.575 3.72019 0.623037 0
M  V30 2844 H 269.962 2.78895 0.96444 0
M  V30 2845 H 270.043 2.43989 -0.768309 0
M  V30 2846 H 269.687 4.91976 -1.26181 0
M  V30 2847 H 269.617 5.24328 0.48869 0
M  V30 2848 H 272.108 3.77863 -0.0531512 0
M  V30 2849 H 272.421 7.69311 -0.733559 0
M  V30 2850 H 270.766 6.91927 -0.652791 0
M  V30 2851 H 273.957 4.67859 -0.150072 0
M  V30 2852 H 274.13 6.46364 -0.460116 0
M  V30 2853 N 267.536 -0.106894 1.57237 0
M  V30 2854 C 268.483 -1.13049 2.01217 0
M  V30 2855 C 269.453 -1.40471 0.886403 0
M  V30 2856 O 270.638 -1.52133 1.15153 0
M  V30 2857 C 267.778 -2.4487 2.43172 0
M  V30 2858 C 266.891 -2.24281 3.69218 0
M  V30 2859 C 266.026 -3.49417 4.00101 0
M  V30 2860 C 265.065 -3.24038 5.19294 0
M  V30 2861 N 264.202 -4.41409 5.45988 0
M  V30 2862 H 269.042 -0.748456 2.88448 0
M  V30 2863 H 266.579 -0.358054 1.42676 0
M  V30 2864 H 268.537 -3.21786 2.65537 0
M  V30 2865 H 267.167 -2.80944 1.58967 0
M  V30 2866 H 266.219 -1.38224 3.54398 0
M  V30 2867 H 267.531 -2.01512 4.56283 0
M  V30 2868 H 266.685 -4.34746 4.2318 0
M  V30 2869 H 265.424 -3.75229 3.11535 0
M  V30 2870 H 264.429 -2.37102 4.96047 0
M  V30 2871 H 265.654 -2.99584 6.09447 0
M  V30 2872 H 263.6 -4.67319 4.60379 0
M  V30 2873 H 263.517 -4.21788 6.274 0
M  V30 2874 H 264.785 -5.27836 5.73593 0
M  V30 2875 N 269.014 -1.53014 -0.377408 0
M  V30 2876 C 270.43 -1.42523 -0.718281 0
M  V30 2877 C 270.63 -0.55487 -1.9371 0
M  V30 2878 O 269.686 -0.0327593 -2.52479 0
M  V30 2879 C 270.999 -2.85546 -0.942539 0
M  V30 2880 C 272.547 -2.95101 -1.04329 0
M  V30 2881 C 273.022 -4.3916 -1.3001 0
M  V30 2882 N 274.513 -4.42536 -1.36806 0
M  V30 2883 C 275.248 -5.51097 -1.58364 0
M  V30 2884 N 274.744 -6.69724 -1.77317 0
M  V30 2885 N 276.537 -5.38657 -1.60638 0
M  V30 2886 H 268.688 -2.08116 0.424426 0
M  V30 2887 H 270.951 -0.939352 0.127759 0
M  V30 2888 H 270.657 -3.51499 -0.118929 0
M  V30 2889 H 270.531 -3.28493 -1.85397 0
M  V30 2890 H 272.918 -2.29309 -1.85745 0
M  V30 2891 H 272.999 -2.55566 -0.109505 0
M  V30 2892 H 272.643 -5.05521 -0.490991 0
M  V30 2893 H 272.573 -4.76258 -2.24691 0
M  V30 2894 H 275.064 -3.57039 -1.23821 0
M  V30 2895 H 275.377 -7.48233 -1.93306 0
M  V30 2896 H 273.722 -6.72732 -1.74518 0
M  V30 2897 H 276.913 -4.44948 -1.45391 0
M  V30 2898 H 277.086 -6.2333 -1.77098 0
M  V30 2899 N 270.492 0.636531 -1.44174 0
M  V30 2900 C 271.442 1.74233 -1.47061 0
M  V30 2901 C 272.426 1.57331 -0.337034 0
M  V30 2902 O 273.618 1.67159 -0.581973 0
M  V30 2903 C 270.747 3.12897 -1.41246 0
M  V30 2904 C 269.833 3.35288 -2.59698 0
M  V30 2905 N 270.224 3.2807 -3.84972 0
M  V30 2906 C 268.522 3.66065 -2.54778 0
M  V30 2907 C 269.223 3.51001 -4.63867 0
M  V30 2908 N 268.199 3.73616 -3.94857 0
M  V30 2909 H 272.001 1.67103 -2.41773 0
M  V30 2910 H 269.515 0.838806 -1.3906 0
M  V30 2911 H 271.512 3.92189 -1.41398 0
M  V30 2912 H 270.172 3.21197 -0.47569 0
M  V30 2913 H 271.183 3.07109 -4.17019 0
M  V30 2914 H 267.86 3.81379 -1.6987 0
M  V30 2915 H 269.25 3.51059 -5.72894 0
M  V30 2916 N 271.97 1.30982 0.876444 0
M  V30 2917 C 272.917 1.18085 1.98304 0
M  V30 2918 C 273.887 0.0682263 1.6596 0
M  V30 2919 O 275.072 0.239937 1.89285 0
M  V30 2920 C 272.212 0.887475 3.33493 0
M  V30 2921 C 271.325 2.08281 3.78475 0
M  V30 2922 C 270.46 1.72678 5.0235 0
M  V30 2923 C 269.499 2.88657 5.39762 0
M  V30 2924 N 268.636 2.53292 6.54819 0
M  V30 2925 H 273.476 2.1275 2.08666 0
M  V30 2926 H 271.013 1.05839 1.02159 0
M  V30 2927 H 272.971 0.697961 4.1132 0
M  V30 2928 H 271.601 -0.022315 3.22792 0
M  V30 2929 H 270.653 2.3833 2.96484 0
M  V30 2930 H 271.965 2.95108 4.02135 0
M  V30 2931 H 271.119 1.50151 5.87826 0
M  V30 2932 H 269.858 0.830327 4.8058 0
M  V30 2933 H 268.863 3.1184 4.52809 0
M  V30 2934 H 270.088 3.79002 5.63502 0
M  V30 2935 H 268.034 1.66163 6.34607 0
M  V30 2936 H 267.951 3.3365 6.7839 0
M  V30 2937 H 269.219 2.34143 7.43503 0
M  V30 2938 N 273.449 -1.08991 1.13837 0
M  V30 2939 C 274.674 -1.85551 0.926585 0
M  V30 2940 C 275.099 -1.80782 -0.519566 0
M  V30 2941 O 274.457 -1.18855 -1.36906 0
M  V30 2942 C 274.505 -3.31266 1.42462 0
M  V30 2943 O 273.609 -4.07822 0.612789 0
M  V30 2944 H 272.95 -0.575192 0.331738 0
M  V30 2945 H 275.48 -1.37604 1.51414 0
M  V30 2946 H 275.49 -3.82112 1.43019 0
M  V30 2947 H 274.165 -3.34052 2.47754 0
M  V30 2948 H 272.742 -3.66731 0.675463 0
M  V30 2949 N 274.927 -0.932562 -1.27047 0
M  V30 2950 C 276.204 -0.49377 -1.89265 0
M  V30 2951 C 276.584 1.02833 -1.8436 0
M  V30 2952 O 275.932 1.88461 -1.29209 0
M  V30 2953 C 276.142 -1.04536 -3.32976 0
M  V30 2954 C 277.49 -1.10879 -4.09867 0
M  V30 2955 O 278.514 -0.995327 -3.42011 0
M  V30 2956 O 277.373 -1.28417 -5.31198 0
M  V30 2957 H 274.467 -0.159596 -0.811454 0
M  V30 2958 H 277.013 -1.02457 -1.3528 0
M  V30 2959 H 275.785 -2.08913 -3.30864 0
M  V30 2960 H 275.408 -0.496494 -3.94488 0
M  V30 2961 N 276.405 1.4127 -0.698611 0
M  V30 2962 C 277.63 2.06024 -0.238512 0
M  V30 2963 C 278.055 1.5224 1.10475 0
M  V30 2964 O 277.413 0.650623 1.69223 0
M  V30 2965 C 277.461 3.59988 -0.209952 0
M  V30 2966 O 276.565 4.04282 0.814235 0
M  V30 2967 H 275.906 0.653829 -0.115775 0
M  V30 2968 H 278.436 1.8098 -0.954326 0
M  V30 2969 H 278.446 4.07979 -0.0418436 0
M  V30 2970 H 277.121 3.98503 -1.1903 0
M  V30 2971 H 275.698 3.6779 0.615234 0
M  V30 2972 N 277.883 0.443576 1.51229 0
M  V30 2973 C 279.132 -0.122332 2.01329 0
M  V30 2974 C 279.445 -1.43237 1.33201 0
M  V30 2975 O 280.651 -2.0816 1.74304 0
M  V30 2976 C 279.107 -0.268551 3.58897 0
M  V30 2977 C 278.715 1.03142 4.35965 0
M  V30 2978 C 280.459 -0.787894 4.17124 0
M  V30 2979 C 278.366 0.850504 5.85252 0
M  V30 2980 H 277.296 -0.0494929 0.752374 0
M  V30 2981 H 279.947 0.574289 1.74282 0
M  V30 2982 H 278.329 -1.02832 3.82415 0
M  V30 2983 H 279.503 1.80001 4.24189 0
M  V30 2984 H 277.818 1.47977 3.89219 0
M  V30 2985 H 280.415 -0.939841 5.26375 0
M  V30 2986 H 280.758 -1.77201 3.76703 0
M  V30 2987 H 281.291 -0.0862669 3.97706 0
M  V30 2988 H 278.03 1.80718 6.30096 0
M  V30 2989 H 277.55 0.121825 5.99676 0
M  V30 2990 H 279.229 0.506163 6.45017 0
M  V30 2991 N 279.361 -1.56624 0.175154 0
M  V30 2992 C 280.586 -2.01813 -0.478137 0
M  V30 2993 C 281.011 -1.05457 -1.55757 0
M  V30 2994 O 280.369 -0.0347439 -1.81267 0
M  V30 2995 C 280.417 -3.45581 -1.02987 0
M  V30 2996 O 279.521 -3.52305 -2.14371 0
M  V30 2997 H 278.862 -0.65413 -0.114059 0
M  V30 2998 H 281.392 -2.02673 0.280173 0
M  V30 2999 H 281.402 -3.84965 -1.35151 0
M  V30 3000 H 280.077 -4.1521 -0.239556 0
M  V30 3001 H 278.654 -3.24783 -1.83222 0
M  V30 3002 N 280.839 0.0985539 -1.57292 0
M  V30 3003 C 281.769 1.12064 -2.04851 0
M  V30 3004 C 282.75 1.41981 -0.936767 0
M  V30 3005 O 283.935 1.52071 -1.20781 0
M  V30 3006 C 281.065 2.44144 -2.47004 0
M  V30 3007 C 280.019 2.28643 -3.6181 0
M  V30 3008 C 279.345 3.65869 -3.89929 0
M  V30 3009 C 280.645 1.72986 -4.92822 0
M  V30 3010 H 282.339 0.724979 -2.9049 0
M  V30 3011 H 279.885 0.34729 -1.39749 0
M  V30 3012 H 281.838 3.15914 -2.78884 0
M  V30 3013 H 280.562 2.85639 -1.5836 0
M  V30 3014 H 279.221 1.59318 -3.30172 0
M  V30 3015 H 278.869 4.04885 -2.98458 0
M  V30 3016 H 278.569 3.56344 -4.67218 0
M  V30 3017 H 280.093 4.39112 -4.2428 0
M  V30 3018 H 281.507 2.34593 -5.23105 0
M  V30 3019 H 279.904 1.74229 -5.74251 0
M  V30 3020 H 280.974 0.689007 -4.7998 0
M  V30 3021 N 282.317 1.53212 0.369288 0
M  V30 3022 C 283.542 1.73423 1.1375 0
M  V30 3023 C 283.967 0.460404 1.82378 0
M  V30 3024 O 283.325 -0.585298 1.71592 0
M  V30 3025 C 283.373 2.89769 2.1463 0
M  V30 3026 O 282.477 2.58119 3.21634 0
M  V30 3027 H 281.818 0.576061 0.330227 0
M  V30 3028 H 284.348 2.00083 0.427547 0
M  V30 3029 H 284.358 3.15829 2.58294 0
M  V30 3030 H 283.033 3.8217 1.64071 0
M  V30 3031 H 281.61 2.42864 2.82969 0
M  V30 3032 N 283.795 -0.628877 1.44509 0
M  V30 3033 C 285.042 -1.38839 1.47411 0
M  V30 3034 C 285.37 -1.94202 0.10757 0
M  V30 3035 O 284.625 -1.74243 -0.890947 0
M  V30 3036 C 284.924 -2.56995 2.48371 0
M  V30 3037 C 284.59 -2.19908 3.93639 0
M  V30 3038 C 283.252 -2.09506 4.33198 0
M  V30 3039 C 285.604 -1.9064 4.85083 0
M  V30 3040 C 282.932 -1.68028 5.62124 0
M  V30 3041 C 285.284 -1.50655 6.14399 0
M  V30 3042 C 283.948 -1.38796 6.5291 0
M  V30 3043 H 283.218 -0.508048 0.539414 0
M  V30 3044 H 285.865 -0.712913 1.77735 0
M  V30 3045 H 284.17 -3.29786 2.11538 0
M  V30 3046 H 285.867 -3.15223 2.47861 0
M  V30 3047 H 282.457 -2.28922 3.62343 0
M  V30 3048 H 286.641 -1.97585 4.55273 0
M  V30 3049 H 281.897 -1.57452 5.90778 0
M  V30 3050 H 286.071 -1.27048 6.84713 0
M  V30 3051 H 283.698 -1.06429 7.52713 0
M  V30 3052 N 285.273 -1.31445 -0.869486 0
M  V30 3053 C 286.55 -1.11795 -1.60503 0
M  V30 3054 C 286.93 0.327168 -2.08549 0
M  V30 3055 O 286.278 1.32135 -1.8642 0
M  V30 3056 C 286.488 -2.13258 -2.76265 0
M  V30 3057 C 287.836 -2.45805 -3.46215 0
M  V30 3058 O 288.86 -2.11688 -2.86473 0
M  V30 3059 O 287.719 -3.04228 -4.5399 0
M  V30 3060 H 284.813 -0.430421 -0.706163 0
M  V30 3061 H 287.359 -1.42925 -0.914907 0
M  V30 3062 H 286.131 -3.10461 -2.3818 0
M  V30 3063 H 285.754 -1.83035 -3.52964 0
M  V30 3064 N 286.751 1.08385 -1.14413 0
M  V30 3065 C 287.661 2.18856 -0.844951 0
M  V30 3066 C 288.677 1.73121 0.174668 0
M  V30 3067 O 289.853 2.014 0.00312857 0
M  V30 3068 C 286.918 3.45155 -0.32696 0
M  V30 3069 C 285.979 4.05513 -1.40916 0
M  V30 3070 C 285.212 5.25784 -0.915793 0
M  V30 3071 O 285.435 5.69884 0.242651 0
M  V30 3072 O 284.369 5.77545 -1.69487 0
M  V30 3073 H 288.195 2.46919 -1.76818 0
M  V30 3074 H 285.78 1.17524 -0.922411 0
M  V30 3075 H 287.662 4.21377 -0.0440211 0
M  V30 3076 H 286.337 3.18668 0.568539 0
M  V30 3077 H 285.244 3.30879 -1.74556 0
M  V30 3078 H 286.577 4.3625 -2.27919 0
M  V30 3079 N 288.23 0.939286 1.26551 0
M  V30 3080 C 289.455 0.602008 1.98471 0
M  V30 3081 C 289.88 -0.815624 1.69497 0
M  V30 3082 O 289.238 -1.54912 0.941905 0
M  V30 3083 C 289.286 0.848407 3.50477 0
M  V30 3084 O 288.39 -0.0804009 4.12322 0
M  V30 3085 H 287.731 0.23049 0.622712 0
M  V30 3086 H 290.261 1.2617 1.61066 0
M  V30 3087 H 290.271 0.768553 4.00696 0
M  V30 3088 H 288.946 1.88171 3.70897 0
M  V30 3089 H 287.523 0.0503508 3.72866 0
M  V30 3090 N 289.708 -1.40897 0.706093 0
M  V30 3091 C 290.638 -2.33418 0.0620085 0
M  V30 3092 C 291.619 -1.52385 -0.755827 0
M  V30 3093 O 292.804 -1.80886 -0.706674 0
M  V30 3094 C 289.934 -3.36293 -0.867445 0
M  V30 3095 C 288.888 -4.27716 -0.155932 0
M  V30 3096 C 288.214 -5.2105 -1.20046 0
M  V30 3097 C 289.514 -5.12944 0.984149 0
M  V30 3098 H 291.208 -2.87527 0.83477 0
M  V30 3099 H 288.754 -1.38249 0.402875 0
M  V30 3100 H 290.707 -3.99949 -1.32735 0
M  V30 3101 H 289.431 -2.80556 -1.67199 0
M  V30 3102 H 288.09 -3.65498 0.284047 0
M  V30 3103 H 287.738 -4.61624 -1.99781 0
M  V30 3104 H 287.438 -5.83056 -0.729328 0
M  V30 3105 H 288.962 -5.87584 -1.66066 0
M  V30 3106 H 290.376 -5.70109 0.604048 0
M  V30 3107 H 288.773 -5.83945 1.38304 0
M  V30 3108 H 289.843 -4.49485 1.81911 0
M  V30 3109 N 291.186 -0.45159 -1.50991 0
M  V30 3110 C 292.149 0.341117 -2.26647 0
M  V30 3111 C 293.149 0.937422 -1.30649 0
M  V30 3112 O 294.339 0.809644 -1.54241 0
M  V30 3113 C 291.471 1.48398 -3.06905 0
M  V30 3114 H 292.664 -0.322117 -2.98165 0
M  V30 3115 H 290.217 -0.205122 -1.54948 0
M  V30 3116 H 290.952 2.18284 -2.39838 0
M  V30 3117 H 290.737 1.06241 -3.77432 0
M  V30 3118 H 292.227 2.04367 -3.64176 0
M  V30 3119 N 292.664 1.56529 -0.183458 0
M  V30 3120 C 293.594 2.21549 0.737456 0
M  V30 3121 C 294.575 1.17489 1.23005 0
M  V30 3122 O 295.76 1.45959 1.281 0
M  V30 3123 C 292.89 2.86575 1.96194 0
M  V30 3124 C 291.844 3.96778 1.60473 0
M  V30 3125 C 291.17 4.48911 2.90487 0
M  V30 3126 C 292.47 5.15767 0.823497 0
M  V30 3127 H 294.164 2.98761 0.195453 0
M  V30 3128 H 291.71 1.43702 0.0925686 0
M  V30 3129 H 293.663 3.30739 2.61131 0
M  V30 3130 H 292.387 2.06749 2.52828 0
M  V30 3131 H 291.046 3.53286 0.978997 0
M  V30 3132 H 290.694 3.65862 3.45186 0
M  V30 3133 H 290.394 5.23265 2.67335 0
M  V30 3134 H 291.918 4.95771 3.56432 0
M  V30 3135 H 293.332 5.56549 1.37571 0
M  V30 3136 H 291.729 5.96114 0.690551 0
M  V30 3137 H 292.799 4.84574 -0.177782 0
M  V30 3138 N 294.142 -0.090211 1.57342 0
M  V30 3139 C 295.382 -0.798365 1.88163 0
M  V30 3140 C 295.746 -1.75662 0.775046 0
M  V30 3141 O 296.947 -2.50849 0.965816 0
M  V30 3142 C 295.218 -1.50376 3.24225 0
M  V30 3143 S 296.777 -2.24952 3.76752 0
M  V30 3144 H 293.595 -0.265883 0.659414 0
M  V30 3145 H 296.197 -0.055264 1.95422 0
M  V30 3146 H 294.901 -0.792286 4.0268 0
M  V30 3147 H 294.432 -2.28666 3.20118 0
M  V30 3148 H 296.447 -3.51173 3.5056 0
M  V30 3149 N 295.62 -1.53406 -0.361157 0
M  V30 3150 C 296.866 -1.70054 -1.10496 0
M  V30 3151 C 297.199 -0.453278 -1.88836 0
M  V30 3152 O 296.474 0.5495 -1.86576 0
M  V30 3153 C 296.757 -2.95317 -2.06058 0
M  V30 3154 C 296.61 -4.3021 -1.31298 0
M  V30 3155 C 297.929 -3.16193 -3.06121 0
M  V30 3156 H 295.048 -0.618799 -0.400321 0
M  V30 3157 H 297.69 -1.86052 -0.385318 0
M  V30 3158 H 295.84 -2.81809 -2.67425 0
M  V30 3159 H 297.512 -4.55538 -0.726807 0
M  V30 3160 H 295.755 -4.29421 -0.614853 0
M  V30 3161 H 296.426 -5.14 -2.01265 0
M  V30 3162 H 298.902 -3.28916 -2.5486 0
M  V30 3163 H 297.778 -4.05266 -3.70204 0
M  V30 3164 H 298.039 -2.31676 -3.76535 0
M  V30 3165 N 297.098 0.621204 -1.44841 0
M  V30 3166 C 298.347 1.37658 -1.47422 0
M  V30 3167 C 298.66 1.95264 -0.114629 0
M  V30 3168 O 299.866 2.71494 -0.0180199 0
M  V30 3169 C 298.322 2.49285 -2.59586 0
M  V30 3170 C 297.93 1.98149 -4.01797 0
M  V30 3171 C 299.674 3.26409 -2.71399 0
M  V30 3172 C 297.581 3.07178 -5.05367 0
M  V30 3173 H 296.511 0.517344 -0.548517 0
M  V30 3174 H 299.162 0.667257 -1.70938 0
M  V30 3175 H 297.544 3.22839 -2.29328 0
M  V30 3176 H 298.718 1.31395 -4.41669 0
M  V30 3177 H 297.033 1.33812 -3.94314 0
M  V30 3178 H 299.63 4.07706 -3.45948 0
M  V30 3179 H 299.973 3.76535 -1.77559 0
M  V30 3180 H 300.506 2.5995 -3.01116 0
M  V30 3181 H 297.245 2.61985 -6.00869 0
M  V30 3182 H 296.765 3.72542 -4.70077 0
M  V30 3183 H 298.444 3.71789 -5.29511 0
M  V30 3184 N 298.576 1.31904 0.862503 0
M  V30 3185 C 299.992 1.10724 1.14945 0
M  V30 3186 C 300.192 -0.117421 2.01158 0
M  V30 3187 O 299.248 -0.804595 2.39338 0
M  V30 3188 C 300.561 2.38267 1.83437 0
M  V30 3189 C 302.109 2.43949 1.96106 0
M  V30 3190 C 302.584 3.71394 2.68013 0
M  V30 3191 N 304.075 3.72331 2.75543 0
M  V30 3192 C 304.81 4.67641 3.31812 0
M  V30 3193 N 304.306 5.73313 3.88953 0
M  V30 3194 N 306.099 4.5515 3.29841 0
M  V30 3195 H 298.25 2.10436 0.288191 0
M  V30 3196 H 300.513 0.928705 0.190292 0
M  V30 3197 H 300.219 3.27759 1.27542 0
M  V30 3198 H 300.093 2.48633 2.83657 0
M  V30 3199 H 302.48 1.54922 2.51164 0
M  V30 3200 H 302.561 2.37543 0.949059 0
M  V30 3201 H 302.205 4.60791 2.13621 0
M  V30 3202 H 302.135 3.75069 3.69636 0
M  V30 3203 H 304.626 2.95947 2.34997 0
M  V30 3204 H 304.939 6.42107 4.30022 0
M  V30 3205 H 303.284 5.77077 3.87308 0
M  V30 3206 H 306.475 3.71766 2.84443 0
M  V30 3207 H 306.648 5.29604 3.73394 0
M  V30 3208 N 300.054 -1.07777 1.14986 0
M  V30 3209 C 300.964 -2.18404 0.856546 0
M  V30 3210 C 301.98 -1.73211 -0.165485 0
M  V30 3211 O 303.156 -2.01399 0.00755219 0
M  V30 3212 C 300.221 -3.44977 0.34526 0
M  V30 3213 C 299.282 -4.0476 1.43065 0
M  V30 3214 C 298.515 -5.25291 0.943663 0
M  V30 3215 O 298.738 -5.70004 -0.212426 0
M  V30 3216 O 297.672 -5.76638 1.72547 0
M  V30 3217 H 301.498 -2.45978 1.78125 0
M  V30 3218 H 299.083 -1.17033 0.928631 0
M  V30 3219 H 300.965 -4.21348 0.0663671 0
M  V30 3220 H 299.64 -3.18965 -0.551631 0
M  V30 3221 H 298.547 -3.29949 1.76309 0
M  V30 3222 H 299.88 -4.35035 2.30229 0
M  V30 3223 N 301.532 -0.945985 -1.26051 0
M  V30 3224 C 302.781 -0.591836 -1.92822 0
M  V30 3225 C 303.094 0.873956 -1.7499 0
M  V30 3226 O 304.3 1.33769 -2.36259 0
M  V30 3227 C 302.756 -1.00776 -3.45503 0
M  V30 3228 C 302.364 -2.4955 -3.7206 0
M  V30 3229 C 304.108 -0.725735 -4.1825 0
M  V30 3230 C 302.015 -2.84988 -5.18205 0
M  V30 3231 H 300.945 -0.217635 -0.721908 0
M  V30 3232 H 303.596 -1.14927 -1.43052 0
M  V30 3233 H 301.978 -0.378812 -3.94184 0
M  V30 3234 H 303.152 -3.1739 -3.34066 0
M  V30 3235 H 301.467 -2.75133 -3.12555 0
M  V30 3236 H 304.064 -0.966771 -5.25887 0
M  V30 3237 H 304.407 0.337639 -4.14929 0
M  V30 3238 H 304.94 -1.31463 -3.7545 0
M  V30 3239 H 301.679 -3.90307 -5.26631 0
M  V30 3240 H 301.199 -2.21813 -5.57278 0
M  V30 3241 H 302.878 -2.73712 -5.86252 0
M  V30 3242 N 303.011 1.40521 -0.713556 0
M  V30 3243 C 304.251 2.02783 -0.256584 0
M  V30 3244 C 304.615 1.55352 1.12827 0
M  V30 3245 O 305.816 2.09663 1.68211 0
M  V30 3246 C 304.087 3.5586 -0.331414 0
M  V30 3247 S 305.646 4.38773 0.0488703 0
M  V30 3248 H 302.464 0.703655 -0.101934 0
M  V30 3249 H 305.066 1.71674 -0.935325 0
M  V30 3250 H 303.77 3.87874 -1.34098 0
M  V30 3251 H 303.301 3.91695 0.365873 0
M  V30 3252 H 305.316 4.79633 1.2715 0
M  V30 3253 N 304.489 0.459591 1.5075 0
M  V30 3254 C 305.729 -0.09824 2.04164 0
M  V30 3255 C 306.093 -1.3801 1.33481 0
M  V30 3256 O 307.294 -2.01959 1.77387 0
M  V30 3257 C 305.565 -0.289467 3.56226 0
M  V30 3258 S 307.124 -0.807507 4.31306 0
M  V30 3259 H 303.942 -0.0213845 0.710678 0
M  V30 3260 H 306.544 0.624098 1.85271 0
M  V30 3261 H 305.248 0.649461 4.05229 0
M  V30 3262 H 304.779 -1.03825 3.79452 0
M  V30 3263 H 306.794 -2.0824 4.50389 0
M  V30 3264 N 305.967 -1.56429 0.191757 0
M  V30 3265 C 306.877 -2.22541 -0.742481 0
M  V30 3266 C 307.893 -1.22342 -1.23727 0
M  V30 3267 O 309.069 -1.55069 -1.28513 0
M  V30 3268 C 306.134 -2.8692 -1.94623 0
M  V30 3269 C 305.195 -4.02378 -1.49633 0
M  V30 3270 C 304.428 -4.63678 -2.6427 0
M  V30 3271 O 304.651 -4.23895 -3.81666 0
M  V30 3272 O 303.585 -5.53202 -2.37174 0
M  V30 3273 H 307.411 -3.02977 -0.209462 0
M  V30 3274 H 304.996 -1.49353 -0.0373832 0
M  V30 3275 H 306.878 -3.27663 -2.64982 0
M  V30 3276 H 305.553 -2.09466 -2.46791 0
M  V30 3277 H 304.46 -3.66265 -0.761636 0
M  V30 3278 H 305.793 -4.81487 -1.02134 0
M  V30 3279 N 307.445 0.0818655 -1.57387 0
M  V30 3280 C 308.861 0.436412 -1.53517 0
M  V30 3281 C 309.061 1.79758 -0.910459 0
M  V30 3282 O 308.117 2.47324 -0.508636 0
M  V30 3283 C 309.43 0.386734 -2.98203 0
M  V30 3284 C 310.978 0.467644 -3.09487 0
M  V30 3285 C 311.453 0.447978 -4.55804 0
M  V30 3286 N 312.944 0.508348 -4.60402 0
M  V30 3287 C 313.679 0.515184 -5.71081 0
M  V30 3288 N 313.175 0.477435 -6.91153 0
M  V30 3289 N 314.968 0.560988 -5.59294 0
M  V30 3290 H 307.119 -0.809546 -1.96367 0
M  V30 3291 H 309.382 -0.302733 -0.898363 0
M  V30 3292 H 309.088 -0.546539 -3.47427 0
M  V30 3293 H 308.962 1.20075 -3.57578 0
M  V30 3294 H 311.349 1.39134 -2.60242 0
M  V30 3295 H 311.43 -0.374753 -2.5304 0
M  V30 3296 H 311.074 -0.471826 -5.05704 0
M  V30 3297 H 311.004 1.30777 -5.10103 0
M  V30 3298 H 313.495 0.54218 -3.7399 0
M  V30 3299 H 313.808 0.486299 -7.71268 0
M  V30 3300 H 312.153 0.444278 -6.93579 0
M  V30 3301 H 315.344 0.5881 -4.64391 0
M  V30 3302 H 315.517 0.562846 -6.45551 0
M  V30 3303 N 308.923 1.53595 0.353017 0
M  V30 3304 C 310.148 1.7462 1.11904 0
M  V30 3305 C 310.573 0.479721 1.8188 0
M  V30 3306 O 309.931 -0.567066 1.72204 0
M  V30 3307 C 309.979 2.92029 2.11545 0
M  V30 3308 O 309.083 2.61516 3.18878 0
M  V30 3309 H 308.424 0.579531 0.324099 0
M  V30 3310 H 310.954 2.00525 0.406301 0
M  V30 3311 H 310.964 3.18551 2.5493 0
M  V30 3312 H 309.639 3.83888 1.60008 0
M  V30 3313 H 308.216 2.45852 2.80377 0
M  V30 3314 N 310.401 -0.613514 1.45168 0
M  V30 3315 C 311.626 -1.40437 1.52618 0
M  V30 3316 C 312.051 -1.87438 0.157707 0
M  V30 3317 O 311.409 -1.59791 -0.856537 0
M  V30 3318 C 311.457 -2.58894 2.51011 0
M  V30 3319 O 310.561 -3.59326 2.02382 0
M  V30 3320 H 309.902 -0.419506 0.514695 0
M  V30 3321 H 312.432 -0.747215 1.90467 0
M  V30 3322 H 312.442 -3.06214 2.69624 0
M  V30 3323 H 311.117 -2.24032 3.50403 0
M  V30 3324 H 309.694 -3.18695 1.93618 0
M  V30 3325 N 311.879 -1.3236 -0.855495 0
M  V30 3326 C 313.104 -1.2601 -1.64731 0
M  V30 3327 C 313.529 0.169068 -1.87339 0
M  V30 3328 O 312.887 1.12016 -1.42556 0
M  V30 3329 C 312.935 -2.02417 -2.98429 0
M  V30 3330 O 312.039 -1.3714 -3.8893 0
M  V30 3331 H 311.38 -0.434325 -0.502253 0
M  V30 3332 H 313.91 -1.74661 -1.06558 0
M  V30 3333 H 313.92 -2.12559 -3.48257 0
M  V30 3334 H 312.595 -3.06343 -2.81295 0
M  V30 3335 H 311.172 -1.3554 -3.47395 0
M  V30 3336 N 313.357 1.07166 -1.15556 0
M  V30 3337 C 314.582 1.84053 -0.955988 0
M  V30 3338 C 315.007 1.81586 0.490739 0
M  V30 3339 O 314.365 1.21018 1.34997 0
M  V30 3340 C 314.413 3.28957 -1.47714 0
M  V30 3341 O 313.517 4.06795 -0.677593 0
M  V30 3342 H 312.858 0.569842 -0.340847 0
M  V30 3343 H 315.388 1.35178 -1.53584 0
M  V30 3344 H 315.398 3.79788 -1.4908 0
M  V30 3345 H 314.073 3.30068 -2.53037 0
M  V30 3346 H 312.65 3.6561 -0.733721 0
M  V30 3347 N 314.835 0.952656 1.25548 0
M  V30 3348 C 315.745 0.47782 2.29682 0
M  V30 3349 C 316.761 -0.453859 1.67977 0
M  V30 3350 O 317.937 -0.330587 1.98668 0
M  V30 3351 C 315.002 -0.238655 3.45878 0
M  V30 3352 C 314.063 0.730994 4.23031 0
M  V30 3353 C 313.296 0.0486165 5.33678 0
M  V30 3354 O 313.519 -1.16612 5.58353 0
M  V30 3355 O 312.453 0.733152 5.97418 0
M  V30 3356 H 316.279 1.34312 2.72386 0
M  V30 3357 H 313.864 0.719026 1.30959 0
M  V30 3358 H 315.746 -0.641774 4.16484 0
M  V30 3359 H 314.421 -1.07916 3.05181 0
M  V30 3360 H 313.328 1.18428 3.5486 0
M  V30 3361 H 314.661 1.53946 4.67506 0
M  V30 3362 N 316.313 -1.40141 0.720998 0
M  V30 3363 C 317.538 -2.05618 0.271258 0
M  V30 3364 C 317.963 -1.53978 -1.08039 0
M  V30 3365 O 317.321 -0.677463 -1.68167 0
M  V30 3366 C 317.369 -3.59609 0.267197 0
M  V30 3367 O 316.473 -4.05526 -0.749814 0
M  V30 3368 H 315.814 -0.651904 0.126162 0
M  V30 3369 H 318.344 -1.79439 0.982997 0
M  V30 3370 H 318.354 -4.0786 0.106744 0
M  V30 3371 H 317.029 -3.96559 1.25354 0
M  V30 3372 H 315.606 -3.68722 -0.556644 0
M  V30 3373 N 317.792 -0.46758 -1.50504 0
M  V30 3374 C 319.02 0.0864133 -2.06719 0
M  V30 3375 C 319.435 1.33819 -1.33184 0
M  V30 3376 O 318.792 1.78061 -0.400083 0
M  V30 3377 C 318.843 0.378079 -3.59517 0
M  V30 3378 O 318.564 -0.824044 -4.3028 0
M  V30 3379 C 320.065 0.979426 -4.32345 0
M  V30 3380 H 317.285 -0.00551697 -0.670977 0
M  V30 3381 H 319.829 -0.655354 -1.93715 0
M  V30 3382 H 317.984 1.06977 -3.72337 0
M  V30 3383 H 318.398 -0.566518 -5.21432 0
M  V30 3384 H 319.872 1.1333 -5.40241 0
M  V30 3385 H 320.349 1.9686 -3.9261 0
M  V30 3386 H 320.955 0.326216 -4.24047 0
M  V30 3387 N 319.27 1.56325 -0.20005 0
M  V30 3388 C 320.518 1.97329 0.436547 0
M  V30 3389 C 320.839 1.08826 1.61808 0
M  V30 3390 O 320.109 0.160604 1.95241 0
M  V30 3391 H 318.689 0.728714 0.164272 0
M  V30 3392 H 321.351 1.92761 -0.287937 0
M  V30 3393 H 320.447 3.02264 0.777353 0
M  V30 3394 N 320.748 -0.0735177 1.57428 0
M  V30 3395 C 321.976 -0.785969 1.9139 0
M  V30 3396 C 322.391 -1.71207 0.795847 0
M  V30 3397 O 321.748 -1.81033 -0.230915 0
M  V30 3398 C 321.799 -1.58107 3.25091 0
M  V30 3399 O 321.52 -0.6922 4.32597 0
M  V30 3400 C 323.021 -2.39467 3.73055 0
M  V30 3401 H 320.241 -0.223558 0.632663 0
M  V30 3402 H 322.785 -0.044302 2.04452 0
M  V30 3403 H 320.94 -2.27503 3.13562 0
M  V30 3404 H 321.354 -1.24504 5.09508 0
M  V30 3405 H 322.828 -2.90716 4.69242 0
M  V30 3406 H 323.305 -3.18913 3.01979 0
M  V30 3407 H 323.911 -1.7523 3.87523 0
M  V30 3408 N 322.226 -1.5378 -0.344866 0
M  V30 3409 C 323.637 -1.62428 -0.920552 0
M  V30 3410 C 323.988 -0.504747 -1.89596 0
M  V30 3411 O 323.113 0.365711 -2.13287 0
M  V30 3412 C 323.708 -2.94419 -1.67639 0
M  V30 3413 C 322.267 -3.05333 -2.20111 0
M  V30 3414 C 321.414 -2.57866 -1.01982 0
M  V30 3415 H 324.365 -1.58222 -0.123042 0
M  V30 3416 H 324.386 -2.83384 -2.53917 0
M  V30 3417 H 323.898 -3.7588 -0.966224 0
M  V30 3418 H 321.999 -2.28502 -2.94308 0
M  V30 3419 H 322.112 -4.10778 -2.46573 0
M  V30 3420 H 320.476 -2.13241 -1.39285 0
M  V30 3421 H 321.259 -3.41765 -0.324308 0
M  V30 3422 N 323.704 0.605807 -1.45491 0
M  V30 3423 C 324.929 1.39625 -1.53361 0
M  V30 3424 C 325.354 1.87351 -0.167645 0
M  V30 3425 O 324.712 1.60243 0.848051 0
M  V30 3426 C 324.76 2.57559 -2.5238 0
M  V30 3427 O 323.864 3.58248 -2.04285 0
M  V30 3428 H 323.205 0.416771 -0.516912 0
M  V30 3429 H 325.735 0.737103 -1.90861 0
M  V30 3430 H 325.745 3.0478 -2.71244 0
M  V30 3431 H 324.42 2.22171 -3.51586 0
M  V30 3432 H 322.997 3.17664 -1.95305 0
M  V30 3433 N 325.182 1.32811 0.848464 0
M  V30 3434 C 326.13 1.22231 1.97895 0
M  V30 3435 C 327.124 0.125749 1.68933 0
M  V30 3436 O 328.33 0.289083 1.77663 0
M  V30 3437 H 324.705 0.379058 0.649476 0
M  V30 3438 H 326.676 2.17828 2.03945 0
M  V30 3439 C 325.425 0.968572 3.33937 0
M  V30 3440 H 324.748 1.80458 3.56756 0
M  V30 3441 H 326.188 0.934808 4.13567 0
M  V30 3442 C 324.647 -0.328628 3.35293 0
M  V30 3443 O 325.177 -1.33848 3.78745 0
M  V30 3444 N 323.383 -0.352788 2.88451 0
M  V30 3445 H 322.93 0.469541 2.53285 0
M  V30 3446 H 322.888 -1.22057 2.89741 0
M  V30 3447 N 326.66 -1.06551 1.16123 0
M  V30 3448 C 328.071 -1.60768 0.949232 0
M  V30 3449 C 328.422 -1.89523 -0.507508 0
M  V30 3450 O 327.547 -1.66671 -1.38021 0
M  V30 3451 C 328.142 -2.92086 1.71671 0
M  V30 3452 C 326.701 -3.43015 1.54977 0
M  V30 3453 C 325.848 -2.16947 1.72711 0
M  V30 3454 H 328.799 -0.895354 1.31031 0
M  V30 3455 H 328.82 -3.6138 1.19099 0
M  V30 3456 H 328.332 -2.71127 2.7769 0
M  V30 3457 H 326.433 -3.69039 0.513873 0
M  V30 3458 H 326.546 -4.18516 2.33198 0
M  V30 3459 H 324.91 -2.27041 1.15431 0
M  V30 3460 H 325.693 -1.98473 2.80113 0
M  V30 3461 N 328.138 -0.959301 -1.25041 0
M  V30 3462 C 329.415 -0.533805 -1.88175 0
M  V30 3463 C 329.795 0.988994 -1.865 0
M  V30 3464 O 329.143 1.85677 -1.33177 0
M  V30 3465 C 329.353 -1.11575 -3.30684 0
M  V30 3466 C 330.701 -1.19548 -4.07423 0
M  V30 3467 O 331.725 -1.06765 -3.39823 0
M  V30 3468 O 330.584 -1.39656 -5.28354 0
M  V30 3469 H 327.678 -0.176772 -0.807887 0
M  V30 3470 H 330.224 -1.05303 -1.33076 0
M  V30 3471 H 328.996 -2.15884 -3.26358 0
M  V30 3472 H 328.619 -0.580059 -3.93346 0
M  V30 3473 N 329.616 1.39756 -0.72842 0
M  V30 3474 C 330.546 2.33289 -0.0991354 0
M  V30 3475 C 331.527 1.53568 0.731489 0
M  V30 3476 O 332.712 1.81987 0.677807 0
M  V30 3477 C 329.842 3.3763 0.813834 0
M  V30 3478 C 328.796 4.2791 0.0878663 0
M  V30 3479 C 328.122 5.22894 1.11741 0
M  V30 3480 C 329.422 5.11314 -1.06563 0
M  V30 3481 H 331.116 2.86163 -0.880408 0
M  V30 3482 H 328.662 1.37591 -0.424819 0
M  V30 3483 H 330.615 4.0201 1.26355 0
M  V30 3484 H 329.339 2.83181 1.62715 0
M  V30 3485 H 327.998 3.65 -0.342159 0
M  V30 3486 H 327.646 4.64744 1.92412 0
M  V30 3487 H 327.346 5.84143 0.636477 0
M  V30 3488 H 328.87 5.90151 1.56697 0
M  V30 3489 H 330.284 5.69076 -0.694671 0
M  V30 3490 H 328.681 5.81671 -1.47577 0
M  V30 3491 H 329.751 4.46534 -1.89038 0
M  V30 3492 N 331.094 0.475555 1.50254 0
M  V30 3493 C 332.371 -0.139685 1.95101 0
M  V30 3494 C 332.751 -1.56555 1.41611 0
M  V30 3495 O 332.099 -2.19956 0.618993 0
M  V30 3496 C 332.309 -0.0784298 3.48912 0
M  V30 3497 C 333.657 -0.265095 4.23772 0
M  V30 3498 O 334.681 -0.154808 3.55863 0
M  V30 3499 O 333.54 -0.488327 5.44314 0
M  V30 3500 H 330.634 -0.109236 0.819754 0
M  V30 3501 H 333.18 0.536276 1.61004 0
M  V30 3502 H 331.952 0.916918 3.80405 0
M  V30 3503 H 331.575 -0.795655 3.89558 0
M  V30 3504 N 332.573 -1.56217 0.208337 0
M  V30 3505 C 333.536 -2.18455 -0.693557 0
M  V30 3506 C 334.536 -1.14268 -1.13135 0
M  V30 3507 O 335.726 -1.39577 -1.0423 0
M  V30 3508 C 332.858 -2.79727 -1.94848 0
M  V30 3509 H 334.051 -2.99519 -0.15114 0
M  V30 3510 H 331.604 -1.56245 -0.041287 0
M  V30 3511 H 332.339 -2.02497 -2.53309 0
M  V30 3512 H 332.124 -3.56009 -1.64316 0
M  V30 3513 H 333.614 -3.27475 -2.59133 0
M  V30 3514 N 334.051 0.0651679 -1.57465 0
M  V30 3515 C 335.299 0.761555 -1.87202 0
M  V30 3516 C 335.62 1.77778 -0.801243 0
M  V30 3517 O 334.89 1.95166 0.16937 0
M  V30 3518 H 333.47 0.284251 -0.690804 0
M  V30 3519 H 336.132 0.0396827 -1.9486 0
M  V30 3520 H 335.228 1.27365 -2.84929 0
M  V30 3521 N 335.529 1.53961 0.336706 0
M  V30 3522 C 336.775 1.7179 1.07777 0
M  V30 3523 C 337.108 0.483263 1.88091 0
M  V30 3524 O 336.383 -0.519747 1.87427 0
M  V30 3525 C 336.666 2.98558 2.01334 0
M  V30 3526 C 336.519 4.32245 1.24437 0
M  V30 3527 C 337.838 3.21023 3.01052 0
M  V30 3528 H 334.957 0.625089 0.390426 0
M  V30 3529 H 337.599 1.86641 0.35567 0
M  V30 3530 H 335.749 2.86028 2.62908 0
M  V30 3531 H 337.421 4.56637 0.654243 0
M  V30 3532 H 335.664 4.30344 0.546458 0
M  V30 3533 H 336.335 5.17137 1.93063 0
M  V30 3534 H 338.811 3.32929 2.49595 0
M  V30 3535 H 337.687 4.11104 3.6371 0
M  V30 3536 H 337.948 2.37637 3.72802 0
M  V30 3537 N 337.007 -0.598083 1.45811 0
M  V30 3538 C 338.232 -1.3881 1.54099 0
M  V30 3539 C 338.657 -1.8726 0.177578 0
M  V30 3540 O 338.015 -1.6069 -0.839541 0
M  V30 3541 C 338.063 -2.56217 2.53743 0
M  V30 3542 O 337.167 -3.5716 2.06182 0
M  V30 3543 H 336.508 -0.414024 0.519115 0
M  V30 3544 H 339.038 -0.726971 1.91249 0
M  V30 3545 H 339.048 -3.03337 2.72856 0
M  V30 3546 H 337.723 -2.20303 3.5276 0
M  V30 3547 H 336.3 -3.16624 1.96987 0
M  V30 3548 N 338.485 -1.33259 -0.841409 0
M  V30 3549 C 339.395 -1.25332 -1.98316 0
M  V30 3550 C 340.411 -0.164364 -1.73222 0
M  V30 3551 O 341.587 -0.387486 -1.97637 0
M  V30 3552 C 338.652 -0.990078 -3.32262 0
M  V30 3553 C 337.713 -2.16879 -3.70489 0
M  V30 3554 C 336.946 -1.91801 -4.98044 0
M  V30 3555 O 337.169 -0.867075 -5.63771 0
M  V30 3556 O 336.103 -2.78267 -5.33714 0
M  V30 3557 H 339.929 -2.21344 -2.07944 0
M  V30 3558 H 337.514 -1.1328 -0.974058 0
M  V30 3559 H 339.396 -0.860321 -4.12524 0
M  V30 3560 H 338.071 -0.0602155 -3.23644 0
M  V30 3561 H 336.978 -2.35407 -2.90748 0
M  V30 3562 H 338.311 -3.0819 -3.8377 0
M  V30 3563 N 339.963 1.05934 -1.16686 0
M  V30 3564 C 340.913 2.11764 -0.844978 0
M  V30 3565 C 341.897 1.59922 0.177178 0
M  V30 3566 O 343.089 1.76983 -0.0241768 0
M  V30 3567 C 340.218 3.41493 -0.351812 0
M  V30 3568 C 339.304 4.00152 -1.40496 0
M  V30 3569 N 339.695 4.32874 -2.61636 0
M  V30 3570 C 337.993 4.278 -1.26106 0
M  V30 3571 C 338.694 4.79552 -3.29249 0
M  V30 3572 N 337.67 4.79211 -2.56628 0
M  V30 3573 H 341.472 2.34916 -1.76612 0
M  V30 3574 H 338.986 1.23511 -1.05446 0
M  V30 3575 H 340.983 4.16773 -0.102796 0
M  V30 3576 H 339.643 3.19778 0.56322 0
M  V30 3577 H 340.654 4.23109 -2.98663 0
M  V30 3578 H 337.331 4.15511 -0.407081 0
M  V30 3579 H 338.721 5.14045 -4.32675 0
M  V30 3580 N 341.441 0.965919 1.2453 0
M  V30 3581 C 342.666 0.643971 1.97149 0
M  V30 3582 C 343.091 -0.779487 1.71189 0
M  V30 3583 O 342.449 -1.5288 0.974553 0
M  V30 3584 C 342.497 0.922557 3.48599 0
M  V30 3585 O 341.601 0.00707672 4.12399 0
M  V30 3586 H 340.942 0.243647 0.617683 0
M  V30 3587 H 343.472 1.29558 1.58353 0
M  V30 3588 H 343.482 0.853373 3.98976 0
M  V30 3589 H 342.157 1.95996 3.66822 0
M  V30 3590 H 340.734 0.12943 3.72675 0
M  V30 3591 N 342.919 -1.39368 0.735821 0
M  V30 3592 C 344.167 -2.00101 0.283562 0
M  V30 3593 C 344.488 -1.5868 -1.13338 0
M  V30 3594 O 343.758 -0.835423 -1.77193 0
M  V30 3595 H 342.338 -0.740024 0.101851 0
M  V30 3596 H 345 -1.70404 0.945962 0
M  V30 3597 H 344.096 -3.10323 0.332604 0
M  V30 3598 N 344.397 -0.483516 -1.5 0
M  V30 3599 C 345.674 0.129337 -1.95172 0
M  V30 3600 C 346.054 1.55802 -1.4244 0
M  V30 3601 O 345.402 2.19625 -0.630649 0
M  V30 3602 C 345.612 0.0599251 -3.48949 0
M  V30 3603 C 346.96 0.242617 -4.23906 0
M  V30 3604 O 347.984 0.135933 -3.55941 0
M  V30 3605 O 346.843 0.459454 -5.44565 0
M  V30 3606 H 343.937 0.104887 -0.820322 0
M  V30 3607 H 346.483 -0.544807 -1.60717 0
M  V30 3608 H 345.255 -0.937079 -3.79914 0
M  V30 3609 H 344.878 0.774984 -3.89974 0
M  V30 3610 N 345.875 1.56104 -0.216619 0
M  V30 3611 C 347.121 1.99219 0.410301 0
M  V30 3612 C 347.476 1.10169 1.57735 0
M  V30 3613 O 346.769 0.150598 1.91007 0
M  V30 3614 C 346.963 3.45923 0.898464 0
M  V30 3615 C 346.792 4.49163 -0.219748 0
M  V30 3616 C 345.562 5.00642 -0.684516 0
M  V30 3617 C 347.76 5.03751 -1.03629 0
M  V30 3618 N 345.742 5.87579 -1.7783 0
M  V30 3619 C 347.113 5.87566 -1.97904 0
M  V30 3620 C 349.168 4.86128 -1.07629 0
M  V30 3621 C 347.871 6.5564 -2.95851 0
M  V30 3622 C 349.897 5.54958 -2.04392 0
M  V30 3623 C 349.259 6.38536 -2.97407 0
M  V30 3624 H 345.358 0.773206 0.11695 0
M  V30 3625 H 347.942 1.9193 -0.327258 0
M  V30 3626 H 346.113 3.53669 1.6054 0
M  V30 3627 H 347.845 3.75963 1.49779 0
M  V30 3628 H 344.6 4.72807 -0.27399 0
M  V30 3629 H 345.024 6.3575 -2.32705 0
M  V30 3630 H 349.666 4.21168 -0.371099 0
M  V30 3631 H 347.384 7.19785 -3.67335 0
M  V30 3632 H 350.97 5.43289 -2.08154 0
M  V30 3633 H 349.85 6.90858 -3.71059 0
M  V30 3634 N 347.353 -0.0568162 1.57498 0
M  V30 3635 C 348.283 -1.06593 2.0775 0
M  V30 3636 C 349.264 -1.39448 0.974082 0
M  V30 3637 O 350.449 -1.48815 1.24771 0
M  V30 3638 C 347.579 -2.37509 2.5339 0
M  V30 3639 C 346.533 -2.1897 3.67745 0
M  V30 3640 C 345.859 -3.55402 3.99492 0
M  V30 3641 C 347.159 -1.59859 4.97235 0
M  V30 3642 H 348.853 -0.647706 2.9231 0
M  V30 3643 H 346.399 -0.310116 1.40621 0
M  V30 3644 H 348.352 -3.08409 2.87162 0
M  V30 3645 H 347.076 -2.8134 1.65878 0
M  V30 3646 H 345.735 -1.50508 3.3428 0
M  V30 3647 H 345.383 -3.9683 3.09088 0
M  V30 3648 H 345.083 -3.43831 4.76502 0
M  V30 3649 H 346.607 -4.27708 4.35773 0
M  V30 3650 H 348.021 -2.20642 5.29141 0
M  V30 3651 H 346.418 -1.58942 5.78669 0
M  V30 3652 H 347.488 -0.561506 4.81638 0
M  V30 3653 N 348.832 -1.54138 -0.328536 0
M  V30 3654 C 350.109 -1.62749 -1.08499 0
M  V30 3655 C 350.489 -0.458198 -2.06067 0
M  V30 3656 O 349.837 0.548046 -2.2183 0
M  V30 3657 C 350.047 -2.99519 -1.79135 0
M  V30 3658 C 351.395 -3.55394 -2.32337 0
M  V30 3659 O 352.419 -3.01792 -1.89209 0
M  V30 3660 O 351.278 -4.49186 -3.11279 0
M  V30 3661 H 348.372 -0.65886 -0.499832 0
M  V30 3662 H 350.918 -1.66484 -0.328826 0
M  V30 3663 H 349.69 -3.76061 -1.08139 0
M  V30 3664 H 349.313 -2.99441 -2.61574 0
M  V30 3665 N 350.31 0.590341 -1.46126 0
M  V30 3666 C 351.242 1.71427 -1.52136 0
M  V30 3667 C 352.255 1.57542 -0.41042 0
M  V30 3668 O 353.444 1.65106 -0.678389 0
M  V30 3669 C 350.544 3.09605 -1.37834 0
M  V30 3670 C 349.717 3.49566 -2.62912 0
M  V30 3671 C 348.776 4.66773 -2.42918 0
M  V30 3672 O 347.802 4.73019 -3.1661 0
M  V30 3673 N 349.004 5.61161 -1.4859 0
M  V30 3674 H 351.769 1.66728 -2.49042 0
M  V30 3675 H 349.33 0.776113 -1.42085 0
M  V30 3676 H 351.322 3.85796 -1.22243 0
M  V30 3677 H 349.892 3.08714 -0.491393 0
M  V30 3678 H 349.112 2.63158 -2.93499 0
M  V30 3679 H 350.4 3.73028 -3.46017 0
M  V30 3680 H 349.798 5.58844 -0.87808 0
M  V30 3681 H 348.355 6.36814 -1.38965 0
M  V30 3682 N 351.788 1.33704 0.83433 0
M  V30 3683 C 353.065 1.16011 1.57483 0
M  V30 3684 C 353.445 -0.27176 2.09343 0
M  V30 3685 O 352.793 -1.27146 1.89858 0
M  V30 3686 C 353.003 2.20507 2.70514 0
M  V30 3687 C 354.351 2.54898 3.39577 0
M  V30 3688 O 355.375 2.19209 2.80759 0
M  V30 3689 O 354.234 3.16158 4.45765 0
M  V30 3690 H 351.328 0.448992 0.694503 0
M  V30 3691 H 353.874 1.453 0.876691 0
M  V30 3692 H 352.646 3.16667 2.29865 0
M  V30 3693 H 352.269 1.92329 3.47987 0
M  V30 3694 N 353.266 -1.05314 1.17247 0
M  V30 3695 C 354.491 -1.82509 0.985148 0
M  V30 3696 C 354.916 -1.82343 -0.461788 0
M  V30 3697 O 354.274 -1.23151 -1.33055 0
M  V30 3698 C 354.322 -3.26566 1.52929 0
M  V30 3699 O 353.426 -4.05666 0.742225 0
M  V30 3700 H 352.767 -0.564347 0.349869 0
M  V30 3701 H 355.297 -1.32718 1.55715 0
M  V30 3702 H 355.307 -3.77369 1.55103 0
M  V30 3703 H 353.982 -3.26001 2.58256 0
M  V30 3704 H 352.559 -3.64397 0.791794 0
M  V30 3705 N 354.744 -0.972509 -1.24016 0
M  V30 3706 C 355.99 -0.637978 -1.92504 0
M  V30 3707 C 356.323 0.825383 -1.75787 0
M  V30 3708 O 355.598 1.59442 -1.11393 0
M  V30 3709 C 355.881 -1.01942 -3.45369 0
M  V30 3710 C 355.734 -2.53983 -3.71231 0
M  V30 3711 C 357.053 -0.55751 -4.36555 0
M  V30 3712 H 354.172 -0.233248 -0.699117 0
M  V30 3713 H 356.814 -1.21238 -1.46292 0
M  V30 3714 H 354.964 -0.530656 -3.84859 0
M  V30 3715 H 356.636 -3.10374 -3.41271 0
M  V30 3716 H 354.879 -2.96968 -3.16216 0
M  V30 3717 H 355.55 -2.75723 -4.78206 0
M  V30 3718 H 358.026 -0.977029 -4.04467 0
M  V30 3719 H 356.902 -0.85292 -5.42233 0
M  V30 3720 H 357.163 0.542328 -4.38761 0
M  V30 3721 N 356.222 1.38976 -0.743202 0
M  V30 3722 C 357.447 2.05161 -0.303936 0
M  V30 3723 C 357.872 1.55677 1.05576 0
M  V30 3724 O 357.23 0.704131 1.67068 0
M  V30 3725 C 357.278 3.59138 -0.324373 0
M  V30 3726 O 356.382 4.06668 0.685204 0
M  V30 3727 H 355.723 0.649815 -0.136518 0
M  V30 3728 H 358.253 1.77852 -1.01142 0
M  V30 3729 H 358.263 4.07639 -0.171618 0
M  V30 3730 H 356.938 3.94515 -1.31647 0
M  V30 3731 H 355.515 3.69561 0.497913 0
M  V30 3732 N 357.7 0.491464 1.49741 0
M  V30 3733 C 358.977 -0.118984 1.95238 0
M  V30 3734 C 359.357 -1.55044 1.43264 0
M  V30 3735 O 358.705 -2.19287 0.642287 0
M  V30 3736 C 358.915 -0.0414187 3.48975 0
M  V30 3737 C 360.263 -0.220133 4.24029 0
M  V30 3738 O 361.287 -0.117055 3.56008 0
M  V30 3739 O 360.146 -0.430567 5.44801 0
M  V30 3740 H 357.24 -0.100536 0.820866 0
M  V30 3741 H 359.786 0.553322 1.60426 0
M  V30 3742 H 358.558 0.957214 3.79412 0
M  V30 3743 H 358.181 -0.754292 3.9038 0
M  V30 3744 N 359.178 -1.55987 0.224894 0
M  V30 3745 C 360.11 -2.17722 -0.716224 0
M  V30 3746 C 361.123 -1.14723 -1.15509 0
M  V30 3747 O 362.312 -1.41688 -1.08567 0
M  V30 3748 C 359.412 -2.74873 -1.98238 0
M  V30 3749 C 358.585 -4.03074 -1.69853 0
M  V30 3750 C 357.644 -4.44757 -2.81208 0
M  V30 3751 O 356.67 -5.11587 -2.49534 0
M  V30 3752 N 357.872 -4.10716 -4.10235 0
M  V30 3753 H 360.637 -2.99109 -0.188123 0
M  V30 3754 H 358.198 -1.6184 0.0440123 0
M  V30 3755 H 360.19 -2.99727 -2.7193 0
M  V30 3756 H 358.76 -1.9777 -2.42086 0
M  V30 3757 H 357.98 -3.86041 -0.797875 0
M  V30 3758 H 359.268 -4.86701 -1.48324 0
M  V30 3759 H 358.666 -3.57019 -4.38809 0
M  V30 3760 H 357.223 -4.40455 -4.80461 0
M  V30 3761 N 360.656 0.0484629 -1.57525 0
M  V30 3762 C 361.903 0.743125 -1.88372 0
M  V30 3763 C 362.231 1.76383 -0.819715 0
M  V30 3764 O 361.486 1.94855 0.181659 0
M  V30 3765 C 361.785 1.46632 -3.25935 0
M  V30 3766 C 361.451 0.583427 -4.4711 0
M  V30 3767 C 360.113 0.340191 -4.79996 0
M  V30 3768 C 362.465 -0.0273345 -5.21193 0
M  V30 3769 C 359.793 -0.522903 -5.84365 0
M  V30 3770 C 362.145 -0.878017 -6.26477 0
M  V30 3771 C 360.809 -1.1309 -6.5785 0
M  V30 3772 H 360.079 0.271929 -0.689301 0
M  V30 3773 H 362.726 0.00336166 -1.915 0
M  V30 3774 H 361.031 2.2789 -3.18706 0
M  V30 3775 H 362.728 2.00902 -3.47044 0
M  V30 3776 H 359.318 0.783151 -4.21384 0
M  V30 3777 H 363.502 0.147654 -4.9608 0
M  V30 3778 H 358.758 -0.727335 -6.07058 0
M  V30 3779 H 362.932 -1.35789 -6.83033 0
M  V30 3780 H 360.559 -1.80144 -7.38547 0
M  V30 3781 N 362.134 1.5431 0.320358 0
M  V30 3782 C 363.359 1.76954 1.08175 0
M  V30 3783 C 363.784 0.518193 1.80821 0
M  V30 3784 O 363.142 -0.530411 1.73368 0
M  V30 3785 C 363.19 2.96451 2.05303 0
M  V30 3786 O 362.294 2.68221 3.13259 0
M  V30 3787 H 361.635 0.586275 0.311733 0
M  V30 3788 H 364.165 2.01342 0.363676 0
M  V30 3789 H 364.175 3.23887 2.48116 0
M  V30 3790 H 362.85 3.87196 1.51829 0
M  V30 3791 H 361.427 2.51744 2.75099 0
M  V30 3792 N 363.613 -0.582584 1.46437 0
M  V30 3793 C 364.859 -1.34278 1.51978 0
M  V30 3794 C 365.192 -1.93446 0.170973 0
M  V30 3795 O 364.467 -1.76481 -0.817608 0
M  V30 3796 C 364.75 -2.47203 2.61845 0
M  V30 3797 C 364.603 -1.93069 4.06257 0
M  V30 3798 C 365.922 -3.49247 2.67795 0
M  V30 3799 H 363.041 -0.486876 0.553282 0
M  V30 3800 H 365.683 -0.654437 1.78374 0
M  V30 3801 H 363.833 -3.0592 2.39469 0
M  V30 3802 H 365.505 -1.38808 4.3992 0
M  V30 3803 H 363.748 -1.23898 4.1573 0
M  V30 3804 H 364.419 -2.74586 4.7886 0
M  V30 3805 H 366.895 -3.00411 2.8791 0
M  V30 3806 H 365.771 -4.25719 3.46489 0
M  V30 3807 H 366.032 -4.06482 1.73852 0
M  V30 3808 N 365.091 -1.34144 -0.827227 0
M  V30 3809 C 366.001 -1.27428 -1.96975 0
M  V30 3810 C 367.017 -0.182728 -1.73038 0
M  V30 3811 O 368.193 -0.408426 -1.97215 0
M  V30 3812 C 365.258 -1.02526 -3.31194 0
M  V30 3813 C 364.319 -2.20796 -3.68168 0
M  V30 3814 C 363.552 -1.97073 -4.95982 0
M  V30 3815 O 363.775 -0.926822 -5.6282 0
M  V30 3816 O 362.709 -2.83912 -5.30733 0
M  V30 3817 H 366.535 -2.23537 -2.05584 0
M  V30 3818 H 364.12 -1.14307 -0.961989 0
M  V30 3819 H 366.002 -0.904026 -4.11589 0
M  V30 3820 H 364.677 -0.0945389 -3.23562 0
M  V30 3821 H 363.584 -2.38477 -2.88235 0
M  V30 3822 H 364.917 -3.12243 -3.8048 0
M  V30 3823 N 366.569 1.04691 -1.17803 0
M  V30 3824 C 367.816 1.77782 -0.969532 0
M  V30 3825 C 368.144 1.87926 0.501401 0
M  V30 3826 O 367.399 1.37918 1.38842 0
M  V30 3827 C 367.698 3.21467 -1.56186 0
M  V30 3828 C 367.364 3.3137 -3.05786 0
M  V30 3829 C 366.026 3.3378 -3.46619 0
M  V30 3830 C 368.378 3.31976 -4.01797 0
M  V30 3831 C 365.706 3.34431 -4.82051 0
M  V30 3832 C 368.058 3.34167 -5.37136 0
M  V30 3833 C 366.722 3.34866 -5.77426 0
M  V30 3834 H 365.992 0.650549 -0.354777 0
M  V30 3835 H 368.639 1.23006 -1.46772 0
M  V30 3836 H 366.944 3.79203 -0.985515 0
M  V30 3837 H 368.641 3.76652 -1.37602 0
M  V30 3838 H 365.231 3.3021 -2.73238 0
M  V30 3839 H 369.415 3.29311 -3.71306 0
M  V30 3840 H 364.671 3.33285 -5.12573 0
M  V30 3841 H 368.845 3.33585 -6.11305 0
M  V30 3842 H 366.472 3.35124 -6.82346 0
M  V30 3843 N 368.047 0.979072 1.23499 0
M  V30 3844 C 368.957 0.526431 2.28617 0
M  V30 3845 C 369.973 -0.418126 1.68901 0
M  V30 3846 O 371.149 -0.288372 1.99325 0
M  V30 3847 C 368.214 -0.165235 3.46306 0
M  V30 3848 C 367.275 0.82056 4.21385 0
M  V30 3849 C 366.508 0.161807 5.33455 0
M  V30 3850 O 366.731 -1.04742 5.60701 0
M  V30 3851 O 365.665 0.859708 5.95729 0
M  V30 3852 H 369.491 1.4006 2.69475 0
M  V30 3853 H 367.076 0.746643 1.29405 0
M  V30 3854 H 368.958 -0.553287 4.17752 0
M  V30 3855 H 367.633 -1.01419 3.07402 0
M  V30 3856 H 366.54 1.25929 3.52268 0
M  V30 3857 H 367.873 1.63828 4.64135 0
M  V30 3858 N 369.525 -1.3858 0.750561 0
M  V30 3859 C 370.771 -2.00481 0.305825 0
M  V30 3860 C 371.104 -1.5944 -1.10872 0
M  V30 3861 O 370.379 -0.83052 -1.75877 0
M  V30 3862 C 370.662 -3.5758 0.425287 0
M  V30 3863 C 370.515 -4.08594 1.88072 0
M  V30 3864 C 371.834 -4.39719 -0.183122 0
M  V30 3865 H 368.953 -0.728348 0.112598 0
M  V30 3866 H 371.595 -1.64566 0.949638 0
M  V30 3867 H 369.745 -3.88306 -0.122828 0
M  V30 3868 H 371.417 -3.88523 2.48691 0
M  V30 3869 H 369.66 -3.61574 2.39681 0
M  V30 3870 H 370.331 -5.177 1.91548 0
M  V30 3871 H 372.807 -4.15128 0.284303 0
M  V30 3872 H 371.683 -5.48856 -0.0692757 0
M  V30 3873 H 371.944 -4.23434 -1.27106 0
M  V30 3874 N 371.003 -0.499398 -1.49478 0
M  V30 3875 C 371.913 0.284489 -2.32869 0
M  V30 3876 C 372.929 0.968885 -1.44529 0
M  V30 3877 O 374.105 0.95062 -1.77553 0
M  V30 3878 C 371.17 1.33594 -3.19928 0
M  V30 3879 C 370.231 0.665149 -4.24116 0
M  V30 3880 C 369.464 1.6665 -5.07014 0
M  V30 3881 O 369.687 2.89618 -4.91404 0
M  V30 3882 O 368.621 1.22271 -5.8935 0
M  V30 3883 H 372.447 -0.39802 -3.01081 0
M  V30 3884 H 370.032 -0.260758 -1.47107 0
M  V30 3885 H 371.914 1.94431 -3.73864 0
M  V30 3886 H 370.589 2.0014 -2.54412 0
M  V30 3887 H 369.496 0.0170769 -3.74096 0
M  V30 3888 H 370.829 0.0421555 -4.92182 0
M  V30 3889 N 372.481 1.55866 -0.233164 0
M  V30 3890 C 373.706 2.03449 0.402906 0
M  V30 3891 C 374.131 1.11166 1.51736 0
M  V30 3892 O 373.489 0.101996 1.81013 0
M  V30 3893 C 373.537 3.49165 0.9009 0
M  V30 3894 O 372.641 3.60019 2.01147 0
M  V30 3895 H 371.982 0.657913 0.0897025 0
M  V30 3896 H 374.512 2.01493 -0.355201 0
M  V30 3897 H 374.522 3.89716 1.2077 0
M  V30 3898 H 373.197 4.15813 0.0852889 0
M  V30 3899 H 371.774 3.3136 1.71042 0
M  V30 3900 N 373.959 -0.0401083 1.57549 0
M  V30 3901 C 374.889 -1.04384 2.08869 0
M  V30 3902 C 375.87 -1.38407 0.988817 0
M  V30 3903 O 377.055 -1.47483 1.26342 0
M  V30 3904 C 374.185 -2.34808 2.55895 0
M  V30 3905 C 373.139 -2.15057 3.70047 0
M  V30 3906 C 372.465 -3.51145 4.03239 0
M  V30 3907 C 373.765 -1.54576 4.98902 0
M  V30 3908 H 375.459 -0.616666 2.92981 0
M  V30 3909 H 373.005 -0.295184 1.40942 0
M  V30 3910 H 374.958 -3.05346 2.90417 0
M  V30 3911 H 373.682 -2.79565 1.68853 0
M  V30 3912 H 372.341 -1.46954 3.35857 0
M  V30 3913 H 371.989 -3.93529 3.13279 0
M  V30 3914 H 371.689 -3.38758 4.80122 0
M  V30 3915 H 373.213 -4.23062 4.40285 0
M  V30 3916 H 374.627 -2.15017 5.31451 0
M  V30 3917 H 373.024 -1.52796 5.80322 0
M  V30 3918 H 374.094 -0.51039 4.82206 0
M  V30 3919 N 375.437 -1.54477 -0.31217 0
M  V30 3920 C 376.714 -1.63891 -1.06767 0
M  V30 3921 C 377.094 -0.480028 -2.0557 0
M  V30 3922 O 376.442 0.524487 -2.22399 0
M  V30 3923 C 376.652 -3.01402 -1.75948 0
M  V30 3924 C 378 -3.57838 -2.28554 0
M  V30 3925 O 379.024 -3.03782 -1.85998 0
M  V30 3926 O 377.883 -4.52462 -3.06497 0
M  V30 3927 H 374.977 -0.664125 -0.492816 0
M  V30 3928 H 377.523 -1.66823 -0.311149 0
M  V30 3929 H 376.295 -3.77187 -1.04144 0
M  V30 3930 H 375.918 -3.02199 -2.58383 0
M  V30 3931 N 376.915 0.57481 -1.46744 0
M  V30 3932 C 378.14 1.36341 -1.56288 0
M  V30 3933 C 378.565 1.86954 -0.207347 0
M  V30 3934 O 377.923 1.62006 0.813871 0
M  V30 3935 C 377.971 2.52147 -2.57787 0
M  V30 3936 O 377.075 3.53834 -2.11838 0
M  V30 3937 H 376.416 0.405713 -0.525636 0
M  V30 3938 H 378.946 0.696453 -1.92382 0
M  V30 3939 H 378.956 2.98958 -2.77648 0
M  V30 3940 H 377.631 2.14663 -3.5622 0
M  V30 3941 H 376.208 3.1345 -2.01999 0
M  V30 3942 N 378.394 1.34581 0.820102 0
M  V30 3943 C 379.304 1.28471 1.96297 0
M  V30 3944 C 380.32 0.191902 1.72939 0
M  V30 3945 O 381.496 0.418879 1.96996 0
M  V30 3946 C 378.561 1.04281 3.30645 0
M  V30 3947 C 377.622 2.22745 3.66992 0
M  V30 3948 C 376.855 1.997 4.9493 0
M  V30 3949 O 377.078 0.956656 5.6232 0
M  V30 3950 O 376.012 2.86723 5.2922 0
M  V30 3951 H 379.838 2.24624 2.04396 0
M  V30 3952 H 377.423 1.14816 0.955913 0
M  V30 3953 H 379.305 0.925841 4.11104 0
M  V30 3954 H 377.98 0.111697 3.23507 0
M  V30 3955 H 376.887 2.40003 2.86966 0
M  V30 3956 H 378.22 3.14257 3.78819 0
M  V30 3957 N 379.872 -1.04064 1.18357 0
M  V30 3958 C 381.149 -1.74252 0.888581 0
M  V30 3959 C 381.529 -2.02138 -0.60856 0
M  V30 3960 O 380.877 -1.66656 -1.56327 0
M  V30 3961 C 381.087 -3.0277 1.73584 0
M  V30 3962 C 382.435 -3.76506 1.96286 0
M  V30 3963 O 383.459 -3.12668 1.70637 0
M  V30 3964 O 382.318 -4.91243 2.39464 0
M  V30 3965 H 379.412 -0.758271 0.330082 0
M  V30 3966 H 381.958 -1.1013 1.2911 0
M  V30 3967 H 380.73 -2.78299 2.75073 0
M  V30 3968 H 380.353 -3.74631 1.33183 0
M  V30 3969 N 381.35 -0.985608 -1.22978 0
M  V30 3970 C 382.58 -0.674603 -1.95276 0
M  V30 3971 C 382.988 0.763483 -1.73111 0
M  V30 3972 O 382.331 1.52601 -1.02268 0
M  V30 3973 C 382.393 -0.891597 -3.48268 0
M  V30 3974 C 382.057 -2.31275 -3.94158 0
M  V30 3975 C 383.054 -3.29179 -4.02415 0
M  V30 3976 C 380.739 -2.64524 -4.27004 0
M  V30 3977 C 382.733 -4.58407 -4.42879 0
M  V30 3978 C 380.42 -3.93974 -4.67149 0
M  V30 3979 C 381.418 -4.90727 -4.75053 0
M  V30 3980 O 381.106 -6.17865 -5.14294 0
M  V30 3981 H 380.838 -0.249251 -0.628371 0
M  V30 3982 H 383.392 -1.32106 -1.5728 0
M  V30 3983 H 381.622 -0.187962 -3.86243 0
M  V30 3984 H 383.311 -0.576957 -4.01779 0
M  V30 3985 H 384.077 -3.04823 -3.77237 0
M  V30 3986 H 379.956 -1.89923 -4.2006 0
M  V30 3987 H 383.5 -5.33926 -4.48964 0
M  V30 3988 H 379.397 -4.18122 -4.91777 0
M  V30 3989 H 380.165 -6.21694 -5.32389 0
M  V30 3990 N 382.828 1.3818 -0.7579 0
M  V30 3991 C 384.053 2.04827 -0.325679 0
M  V30 3992 C 384.478 1.56788 1.03919 0
M  V30 3993 O 383.836 0.721811 1.66312 0
M  V30 3994 C 383.884 3.58774 -0.362447 0
M  V30 3995 O 382.988 4.07372 0.642033 0
M  V30 3996 H 382.329 0.64833 -0.143402 0
M  V30 3997 H 384.859 1.7677 -1.03023 0
M  V30 3998 H 384.869 4.07434 -0.214844 0
M  V30 3999 H 383.544 3.93096 -1.35824 0
M  V30 4000 H 382.121 3.70068 0.458688 0
M  V30 4001 N 384.306 0.507319 1.49211 0
M  V30 4002 C 385.236 -0.256939 2.32082 0
M  V30 4003 C 386.217 -0.956609 1.40652 0
M  V30 4004 O 387.402 -0.946788 1.69557 0
M  V30 4005 C 384.532 -1.31802 3.21318 0
M  V30 4006 C 383.486 -0.737855 4.21592 0
M  V30 4007 C 382.812 -1.89992 4.99807 0
M  V30 4008 C 384.112 0.275325 5.21574 0
M  V30 4009 H 385.806 0.434798 2.96226 0
M  V30 4010 H 383.352 0.210546 1.42452 0
M  V30 4011 H 385.305 -1.86045 3.78107 0
M  V30 4012 H 384.029 -2.03903 2.5513 0
M  V30 4013 H 382.688 -0.217126 3.65956 0
M  V30 4014 H 382.336 -2.60877 4.30061 0
M  V30 4015 H 382.036 -1.51777 5.6766 0
M  V30 4016 H 383.56 -2.44657 5.59442 0
M  V30 4017 H 384.974 -0.179193 5.7302 0
M  V30 4018 H 383.371 0.573649 5.97352 0
M  V30 4019 H 384.441 1.18903 4.70096 0
M  V30 4020 N 385.784 -1.5574 0.241426 0
M  V30 4021 C 387.009 -2.0366 -0.392111 0
M  V30 4022 C 387.434 -1.11969 -1.51144 0
M  V30 4023 O 386.792 -0.111594 -1.80956 0
M  V30 4024 C 386.84 -3.49638 -0.882371 0
M  V30 4025 O 385.944 -3.6108 -1.99235 0
M  V30 4026 H 385.285 -0.658379 -0.0862122 0
M  V30 4027 H 387.815 -2.01302 0.365881 0
M  V30 4028 H 387.825 -3.90351 -1.18702 0
M  V30 4029 H 386.5 -4.15852 -0.0632361 0
M  V30 4030 H 385.077 -3.32262 -1.69282 0
M  V30 4031 N 387.262 0.0317525 -1.57568 0
M  V30 4032 C 388.172 1.05021 -2.0978 0
M  V30 4033 C 389.188 1.39809 -1.03583 0
M  V30 4034 O 390.364 1.49182 -1.35302 0
M  V30 4035 C 387.429 2.33301 -2.56459 0
M  V30 4036 C 386.49 2.0512 -3.77127 0
M  V30 4037 C 385.723 3.27283 -4.2157 0
M  V30 4038 O 385.946 4.37861 -3.65559 0
M  V30 4039 O 384.88 3.13141 -5.14029 0
M  V30 4040 H 388.706 0.636505 -2.96955 0
M  V30 4041 H 386.291 0.248559 -1.47318 0
M  V30 4042 H 388.173 3.08722 -2.86825 0
M  V30 4043 H 386.848 2.73973 -1.72397 0
M  V30 4044 H 385.755 1.27276 -3.51784 0
M  V30 4045 H 387.088 1.69305 -4.62165 0
M  V30 4046 N 388.74 1.54641 0.303973 0
M  V30 4047 C 389.65 1.88439 1.39743 0
M  V30 4048 C 390.666 0.778239 1.55626 0
M  V30 4049 O 391.842 1.07442 1.70347 0
M  V30 4050 C 388.907 2.12212 2.74166 0
M  V30 4051 C 387.968 3.35936 2.67293 0
M  V30 4052 C 387.201 3.58566 3.95305 0
M  V30 4053 O 387.424 2.84263 4.9452 0
M  V30 4054 O 386.358 4.52078 3.97378 0
M  V30 4055 H 390.184 2.81458 1.14083 0
M  V30 4056 H 387.769 1.40793 0.499768 0
M  V30 4057 H 389.651 2.29067 3.53704 0
M  V30 4058 H 388.326 1.22379 2.99675 0
M  V30 4059 H 387.233 3.24448 1.86237 0
M  V30 4060 H 388.566 4.2589 2.46736 0
M  V30 4061 N 390.218 -0.567019 1.47046 0
M  V30 4062 C 391.466 -1.322 1.52864 0
M  V30 4063 C 391.787 -1.94088 0.188388 0
M  V30 4064 O 391.057 -1.7941 -0.786693 0
M  V30 4065 H 389.637 -0.490894 0.563056 0
M  V30 4066 H 392.299 -0.662879 1.83281 0
M  V30 4067 H 391.395 -2.12062 2.2899 0
M  V30 4068 N 391.696 -1.35014 -0.812953 0
M  V30 4069 C 392.628 -1.23262 -1.93233 0
M  V30 4070 C 393.641 -0.157371 -1.62038 0
M  V30 4071 O 394.83 -0.410096 -1.73725 0
M  V30 4072 C 391.93 -0.87392 -3.27438 0
M  V30 4073 C 391.103 -2.04622 -3.86586 0
M  V30 4074 C 390.162 -1.66432 -4.99186 0
M  V30 4075 O 389.188 -2.38222 -5.16951 0
M  V30 4076 N 390.39 -0.584248 -5.77552 0
M  V30 4077 H 393.155 -2.19699 -2.03844 0
M  V30 4078 H 390.716 -1.281 -0.99005 0
M  V30 4079 H 392.708 -0.600039 -4.00227 0
M  V30 4080 H 391.278 0.00057392 -3.126 0
M  V30 4081 H 390.498 -2.48427 -3.06068 0
M  V30 4082 H 391.786 -2.82999 -4.22835 0
M  V30 4083 H 391.184 0.0123526 -5.65699 0
M  V30 4084 H 389.741 -0.37013 -6.50748 0
M  V30 4085 N 393.175 1.03435 -1.18907 0
M  V30 4086 C 394.085 2.15075 -0.937015 0
M  V30 4087 C 395.101 1.73706 0.101085 0
M  V30 4088 O 396.277 2.01232 -0.0822948 0
M  V30 4089 C 393.342 3.43458 -0.473057 0
M  V30 4090 C 392.403 3.99172 -1.57989 0
M  V30 4091 C 391.636 5.21427 -1.13797 0
M  V30 4092 O 391.859 5.704 0.000725941 0
M  V30 4093 O 390.793 5.69837 -1.9383 0
M  V30 4094 H 394.619 2.39198 -1.87131 0
M  V30 4095 H 392.204 1.13506 -0.971427 0
M  V30 4096 H 394.086 4.20811 -0.222702 0
M  V30 4097 H 392.761 3.20793 0.432869 0
M  V30 4098 H 391.668 3.23178 -1.88433 0
M  V30 4099 H 393.001 4.2619 -2.46217 0
M  V30 4100 N 394.653 0.992116 1.22453 0
M  V30 4101 C 395.583 0.561677 2.26644 0
M  V30 4102 C 396.564 -0.411055 1.65059 0
M  V30 4103 O 397.749 -0.301861 1.9184 0
M  V30 4104 C 394.879 -0.125247 3.47074 0
M  V30 4105 C 393.833 0.765948 4.21091 0
M  V30 4106 C 393.159 -0.0538484 5.34673 0
M  V30 4107 C 394.459 2.06242 4.79856 0
M  V30 4108 H 396.153 1.43259 2.62902 0
M  V30 4109 H 393.699 0.690283 1.26377 0
M  V30 4110 H 395.652 -0.437764 4.1912 0
M  V30 4111 H 394.376 -1.03069 3.0991 0
M  V30 4112 H 393.035 1.0621 3.50878 0
M  V30 4113 H 392.683 -0.960188 4.9375 0
M  V30 4114 H 392.383 0.539415 5.85119 0
M  V30 4115 H 393.907 -0.360477 6.09535 0
M  V30 4116 H 395.321 1.8139 5.43848 0
M  V30 4117 H 393.718 2.60444 5.40638 0
M  V30 4118 H 394.788 2.74167 3.99951 0
M  V30 4119 N 396.131 -1.37776 0.765217 0
M  V30 4120 C 397.356 -2.04651 0.336537 0
M  V30 4121 C 397.781 -1.57337 -1.03086 0
M  V30 4122 O 397.139 -0.730621 -1.65927 0
M  V30 4123 C 397.187 -3.58577 0.381468 0
M  V30 4124 O 396.291 -4.07706 -0.62042 0
M  V30 4125 H 395.632 -0.64756 0.146838 0
M  V30 4126 H 398.162 -1.76221 1.03959 0
M  V30 4127 H 398.172 -4.07314 0.236448 0
M  V30 4128 H 396.847 -3.9237 1.37907 0
M  V30 4129 H 395.424 -3.70306 -0.439056 0
M  V30 4130 N 397.609 -0.515225 -1.4894 0
M  V30 4131 C 398.886 0.0879088 -1.95402 0
M  V30 4132 C 399.266 1.52745 -1.45712 0
M  V30 4133 O 398.614 2.18238 -0.677093 0
M  V30 4134 C 398.824 -0.0141055 -3.48997 0
M  V30 4135 C 400.172 0.152646 -4.24326 0
M  V30 4136 O 401.196 0.0604025 -3.56149 0
M  V30 4137 O 400.055 0.34384 -5.45417 0
M  V30 4138 H 397.149 0.0874636 -0.822362 0
M  V30 4139 H 399.695 -0.578775 -1.59525 0
M  V30 4140 H 398.467 -1.01745 -3.77841 0
M  V30 4141 H 398.09 0.692091 -3.9153 0
M  V30 4142 N 399.087 1.5561 -0.249682 0
M  V30 4143 C 399.997 2.25143 0.659375 0
M  V30 4144 C 401.013 1.2685 1.19101 0
M  V30 4145 O 402.189 1.59732 1.22669 0
M  V30 4146 C 399.254 2.93945 1.8384 0
M  V30 4147 C 398.315 4.07655 1.34596 0
M  V30 4148 C 397.548 4.73167 2.46878 0
M  V30 4149 O 397.771 4.37768 3.65671 0
M  V30 4150 O 396.705 5.61623 2.16478 0
M  V30 4151 H 400.531 3.03545 0.0968698 0
M  V30 4152 H 398.116 1.49389 -0.018074 0
M  V30 4153 H 399.998 3.37271 2.52638 0
M  V30 4154 H 398.673 2.18481 2.38847 0
M  V30 4155 H 397.58 3.68839 0.625174 0
M  V30 4156 H 398.913 4.84946 0.841941 0
M  V30 4157 N 400.565 -0.0233959 1.57583 0
M  V30 4158 C 401.842 -0.748794 1.807 0
M  V30 4159 C 402.222 -1.9327 0.849106 0
M  V30 4160 O 401.57 -2.28247 -0.107468 0
M  V30 4161 C 401.78 -1.17651 3.28571 0
M  V30 4162 C 403.128 -1.59008 3.93702 0
M  V30 4163 O 404.152 -1.27094 3.32755 0
M  V30 4164 O 403.011 -2.18264 5.01022 0
M  V30 4165 H 400.105 -0.362578 0.743281 0
M  V30 4166 H 402.651 0.000261958 1.697 0
M  V30 4167 H 401.423 -0.331603 3.89892 0
M  V30 4168 H 401.046 -1.98541 3.44481 0
M  V30 4169 N 402.043 -1.548 -0.295768 0
M  V30 4170 C 403.32 -1.65014 -1.05023 0
M  V30 4171 C 403.7 -0.501805 -2.05049 0
M  V30 4172 O 403.048 0.500869 -2.22943 0
M  V30 4173 C 403.258 -3.03252 -1.72741 0
M  V30 4174 C 404.606 -3.60242 -2.24746 0
M  V30 4175 O 405.63 -3.05737 -1.82765 0
M  V30 4176 O 404.489 -4.55687 -3.01681 0
M  V30 4177 H 401.583 -0.669314 -0.485744 0
M  V30 4178 H 404.129 -1.67144 -0.293438 0
M  V30 4179 H 402.901 -3.7827 -1.00138 0
M  V30 4180 H 402.524 -3.04922 -2.55163 0
M  V30 4181 N 403.521 0.559213 -1.47345 0
M  V30 4182 C 404.431 1.69388 -1.62311 0
M  V30 4183 C 405.447 1.6648 -0.505993 0
M  V30 4184 O 406.623 1.85964 -0.773262 0
M  V30 4185 C 403.688 3.05894 -1.63185 0
M  V30 4186 C 402.749 3.19885 -2.86307 0
M  V30 4187 C 401.982 4.49879 -2.87131 0
M  V30 4188 O 402.205 5.35217 -1.97229 0
M  V30 4189 O 401.139 4.67618 -3.78968 0
M  V30 4190 H 404.965 1.59706 -2.58317 0
M  V30 4191 H 402.55 0.728989 -1.30407 0
M  V30 4192 H 404.432 3.87133 -1.66451 0
M  V30 4193 H 403.107 3.15964 -0.70345 0
M  V30 4194 H 402.014 2.38052 -2.88587 0
M  V30 4195 H 403.347 3.14718 -3.78435 0
M  V30 4196 N 404.999 1.35443 0.805782 0
M  V30 4197 C 406.245 1.28952 1.56522 0
M  V30 4198 C 406.578 -0.135597 1.93726 0
M  V30 4199 O 405.853 -1.08516 1.61414 0
M  V30 4200 C 406.136 2.19678 2.85331 0
M  V30 4201 C 405.989 3.7081 2.54598 0
M  V30 4202 C 407.308 2.09495 3.8704 0
M  V30 4203 H 404.427 0.469764 0.567883 0
M  V30 4204 H 407.069 1.65851 0.927001 0
M  V30 4205 H 405.219 1.8834 3.39795 0
M  V30 4206 H 406.891 4.12593 2.06312 0
M  V30 4207 H 405.134 3.91051 1.8778 0
M  V30 4208 H 405.805 4.29679 3.46525 0
M  V30 4209 H 408.281 2.37045 3.41978 0
M  V30 4210 H 407.157 2.75173 4.74943 0
M  V30 4211 H 407.418 1.07714 4.28777 0
M  V30 4212 N 406.477 -1.02803 1.19454 0
M  V30 4213 C 407.707 -1.79581 1.02149 0
M  V30 4214 C 408.115 -1.84182 -0.432851 0
M  V30 4215 O 407.458 -1.28534 -1.31243 0
M  V30 4216 C 407.52 -3.25993 1.51554 0
M  V30 4217 C 407.184 -3.45025 2.99678 0
M  V30 4218 C 408.181 -3.35175 3.97434 0
M  V30 4219 C 405.866 -3.71212 3.38389 0
M  V30 4220 C 407.86 -3.51238 5.31893 0
M  V30 4221 C 405.547 -3.8692 4.73008 0
M  V30 4222 C 406.545 -3.76936 5.69569 0
M  V30 4223 O 406.233 -3.92179 7.01748 0
M  V30 4224 H 405.965 -0.571962 0.360327 0
M  V30 4225 H 408.519 -1.30367 1.58725 0
M  V30 4226 H 406.749 -3.76235 0.893543 0
M  V30 4227 H 408.438 -3.84368 1.30444 0
M  V30 4228 H 409.204 -3.14895 3.68872 0
M  V30 4229 H 405.083 -3.78075 2.6378 0
M  V30 4230 H 408.627 -3.43362 6.07247 0
M  V30 4231 H 404.524 -4.06699 5.01265 0
M  V30 4232 H 405.292 -4.09265 7.08833 0
M  V30 4233 N 407.956 -0.998596 -1.21925 0
M  V30 4234 C 408.888 -0.511879 -2.23411 0
M  V30 4235 C 409.901 0.396094 -1.57908 0
M  V30 4236 O 411.09 0.197316 -1.77406 0
M  V30 4237 C 408.19 0.276802 -3.37768 0
M  V30 4238 C 407.363 -0.628687 -4.32858 0
M  V30 4239 C 406.422 0.109272 -5.26087 0
M  V30 4240 O 405.448 -0.507237 -5.66935 0
M  V30 4241 N 406.65 1.38983 -5.63617 0
M  V30 4242 H 409.415 -1.38457 -2.658 0
M  V30 4243 H 406.976 -0.873981 -1.36283 0
M  V30 4244 H 408.968 0.77928 -3.97126 0
M  V30 4245 H 407.538 1.05063 -2.94415 0
M  V30 4246 H 406.758 -1.31175 -3.71735 0
M  V30 4247 H 408.046 -1.24514 -4.93329 0
M  V30 4248 H 407.444 1.91194 -5.32411 0
M  V30 4249 H 406.001 1.83739 -6.25367 0
M  V30 4250 N 409.434 1.37368 -0.772513 0
M  V30 4251 C 410.68 1.99969 -0.337681 0
M  V30 4252 C 411.013 1.61184 1.08321 0
M  V30 4253 O 410.288 0.858395 1.74533 0
M  V30 4254 C 410.571 3.56858 -0.482121 0
M  V30 4255 C 410.424 4.0555 -1.94549 0
M  V30 4256 C 411.743 4.39955 0.113143 0
M  V30 4257 H 408.862 0.726464 -0.124171 0
M  V30 4258 H 411.504 1.63034 -0.975699 0
M  V30 4259 H 409.654 3.88452 0.0610361 0
M  V30 4260 H 411.326 3.84518 -2.54841 0
M  V30 4261 H 409.569 3.57715 -2.45403 0
M  V30 4262 H 410.24 5.14587 -1.9976 0
M  V30 4263 H 412.716 4.14623 -0.35031 0
M  V30 4264 H 411.592 5.48897 -0.0180514 0
M  V30 4265 H 411.853 4.25403 1.20354 0
M  V30 4266 N 410.912 0.523116 1.48665 0
M  V30 4267 C 412.14 -0.0096312 2.06898 0
M  V30 4268 C 412.555 -1.28784 1.38059 0
M  V30 4269 O 411.912 -1.76453 0.465893 0
M  V30 4270 C 411.963 -0.244386 3.60673 0
M  V30 4271 O 411.684 0.983172 4.26925 0
M  V30 4272 C 413.185 -0.818289 4.35682 0
M  V30 4273 H 410.405 0.0304161 0.67031 0
M  V30 4274 H 412.949 0.726799 1.91149 0
M  V30 4275 H 411.104 -0.930847 3.76051 0
M  V30 4276 H 411.518 0.759653 5.1897 0
M  V30 4277 H 412.992 -0.93201 5.44075 0
M  V30 4278 H 413.469 -1.82153 3.99646 0
M  V30 4279 H 414.075 -0.168609 4.24966 0
M  V30 4280 N 412.39 -1.55475 0.257931 0
M  V30 4281 C 413.636 -1.99502 -0.364266 0
M  V30 4282 C 413.969 -1.146 -1.56782 0
M  V30 4283 O 413.244 -0.211968 -1.93342 0
M  V30 4284 C 413.527 -3.51917 -0.763333 0
M  V30 4285 C 413.38 -4.4758 0.446371 0
M  V30 4286 C 414.699 -4.09742 -1.60623 0
M  V30 4287 H 411.818 -0.725277 -0.130929 0
M  V30 4288 H 414.46 -1.8653 0.361446 0
M  V30 4289 H 412.61 -3.63101 -1.38166 0
M  V30 4290 H 414.282 -4.48362 1.08487 0
M  V30 4291 H 412.525 -4.19947 1.08753 0
M  V30 4292 H 413.196 -5.51862 0.123645 0
M  V30 4293 H 415.672 -4.01727 -1.08418 0
M  V30 4294 H 414.548 -5.16631 -1.85429 0
M  V30 4295 H 414.809 -3.58889 -2.58169 0
M  V30 4296 N 413.868 0.0150385 -1.57593 0
M  V30 4297 C 415.098 0.713359 -1.93894 0
M  V30 4298 C 415.506 1.68663 -0.857289 0
M  V30 4299 O 414.849 1.82876 0.173788 0
M  V30 4300 C 414.911 1.51348 -3.26089 0
M  V30 4301 C 414.575 0.703451 -4.51554 0
M  V30 4302 C 415.572 -0.00237924 -5.199 0
M  V30 4303 C 413.257 0.653854 -4.98026 0
M  V30 4304 C 415.251 -0.746955 -6.33008 0
M  V30 4305 C 412.938 -0.0944578 -6.11027 0
M  V30 4306 C 413.936 -0.793609 -6.78374 0
M  V30 4307 O 413.624 -1.52974 -7.89211 0
M  V30 4308 H 413.356 0.204637 -0.644282 0
M  V30 4309 H 415.91 -0.0276411 -2.05381 0
M  V30 4310 H 414.14 2.29862 -3.10967 0
M  V30 4311 H 415.829 2.09572 -3.47612 0
M  V30 4312 H 416.595 0.0268803 -4.84993 0
M  V30 4313 H 412.474 1.18756 -4.45441 0
M  V30 4314 H 416.018 -1.2932 -6.85509 0
M  V30 4315 H 411.915 -0.125591 -6.45378 0
M  V30 4316 H 412.683 -1.44488 -8.05646 0
M  V30 4317 N 415.346 1.54954 0.287554 0
M  V30 4318 C 416.278 1.83224 1.37701 0
M  V30 4319 C 417.291 0.715898 1.46215 0
M  V30 4320 O 418.48 0.993565 1.48292 0
M  V30 4321 C 415.58 1.96723 2.75959 0
M  V30 4322 C 414.753 3.27253 2.90215 0
M  V30 4323 C 413.812 3.30998 4.09056 0
M  V30 4324 O 412.838 4.04457 4.00503 0
M  V30 4325 N 414.04 2.57353 5.20336 0
M  V30 4326 H 416.805 2.77254 1.138 0
M  V30 4327 H 414.366 1.54694 0.477652 0
M  V30 4328 H 416.358 1.96615 3.5373 0
M  V30 4329 H 414.928 1.09626 2.92747 0
M  V30 4330 H 414.148 3.40022 1.99447 0
M  V30 4331 H 415.436 4.13365 2.96659 0
M  V30 4332 H 414.834 1.97327 5.30169 0
M  V30 4333 H 413.391 2.62984 5.96391 0
M  V30 4334 N 416.824 -0.551391 1.4764 0
M  V30 4335 C 417.787 -1.64007 1.60107 0
M  V30 4336 C 418.787 -1.53601 0.47576 0
M  V30 4337 O 419.977 -1.57655 0.740988 0
M  V30 4338 C 417.109 -3.03569 1.55108 0
M  V30 4339 H 418.302 -1.543 2.57161 0
M  V30 4340 H 415.855 -0.771776 1.35917 0
M  V30 4341 H 416.59 -3.18804 0.594519 0
M  V30 4342 H 416.375 -3.12532 2.36783 0
M  V30 4343 H 417.865 -3.82762 1.66982 0
M  V30 4344 N 418.302 -1.35869 -0.798587 0
M  V30 4345 C 419.55 -1.29332 -1.55298 0
M  V30 4346 C 419.871 0.129729 -1.94568 0
M  V30 4347 O 419.141 1.06796 -1.6423 0
M  V30 4348 H 417.721 -0.475737 -0.57592 0
M  V30 4349 H 420.383 -1.70062 -0.952093 0
M  V30 4350 H 419.479 -1.91458 -2.46476 0
M  V30 4351 N 419.78 1.02168 -1.19998 0
M  V30 4352 C 420.69 2.14069 -0.959774 0
M  V30 4353 C 421.706 1.73804 0.082655 0
M  V30 4354 O 422.882 2.01133 -0.103633 0
M  V30 4355 C 419.947 3.42936 -0.509459 0
M  V30 4356 C 419.008 3.97474 -1.62213 0
M  V30 4357 C 418.241 5.2019 -1.19321 0
M  V30 4358 O 418.464 5.70369 -0.0597726 0
M  V30 4359 O 417.398 5.67749 -1.99863 0
M  V30 4360 H 421.224 2.37199 -1.89658 0
M  V30 4361 H 418.809 1.12469 -0.983411 0
M  V30 4362 H 420.691 4.20551 -0.267322 0
M  V30 4363 H 419.366 3.21234 0.398821 0
M  V30 4364 H 418.273 3.21161 -1.9185 0
M  V30 4365 H 419.606 4.23555 -2.50723 0
M  V30 4366 N 421.258 1.00505 1.21394 0
M  V30 4367 C 422.483 0.706367 1.95001 0
M  V30 4368 C 422.908 -0.72463 1.73582 0
M  V30 4369 O 422.266 -1.49702 1.0227 0
M  V30 4370 C 422.314 1.03299 3.45487 0
M  V30 4371 O 421.418 0.138275 4.12168 0
M  V30 4372 H 420.759 0.263175 0.609619 0
M  V30 4373 H 423.289 1.34531 1.54151 0
M  V30 4374 H 423.299 0.979872 3.96059 0
M  V30 4375 H 421.974 2.07567 3.60401 0
M  V30 4376 H 420.551 0.247928 3.72075 0
M  V30 4377 N 422.737 -1.36956 0.779787 0
M  V30 4378 C 424.014 -1.93697 0.272156 0
M  V30 4379 C 424.394 -1.71267 -1.23413 0
M  V30 4380 O 423.742 -1.06607 -2.02107 0
M  V30 4381 C 423.952 -3.42812 0.654291 0
M  V30 4382 C 425.3 -4.19921 0.628602 0
M  V30 4383 O 426.324 -3.51209 0.594172 0
M  V30 4384 O 425.183 -5.42465 0.662864 0
M  V30 4385 H 422.277 -0.824447 0.0649286 0
M  V30 4386 H 424.823 -1.46196 0.861682 0
M  V30 4387 H 423.595 -3.52754 1.69353 0
M  V30 4388 H 423.218 -3.97582 0.0381369 0
M  V30 4389 N 424.215 -0.530993 -1.48385 0
M  V30 4390 C 425.443 -0.00134122 -2.069 0
M  V30 4391 C 425.858 1.2805 -1.3874 0
M  V30 4392 O 425.215 1.76204 -0.475244 0
M  V30 4393 C 425.266 0.225256 -3.60798 0
M  V30 4394 O 424.987 -1.0058 -4.26398 0
M  V30 4395 C 426.488 0.795172 -4.3611 0
M  V30 4396 H 423.708 -0.0339704 -0.67014 0
M  V30 4397 H 426.252 -0.736926 -1.90761 0
M  V30 4398 H 424.407 0.910891 -3.76539 0
M  V30 4399 H 424.821 -0.787165 -5.1856 0
M  V30 4400 H 426.295 0.903143 -5.44562 0
M  V30 4401 H 426.772 1.80031 -4.00606 0
M  V30 4402 H 427.378 0.146069 -4.25049 0
M  V30 4403 N 425.693 1.55336 -0.266172 0
M  V30 4404 C 426.97 1.91372 0.404486 0
M  V30 4405 C 427.35 1.18935 1.74407 0
M  V30 4406 O 426.698 0.3132 2.26343 0
M  V30 4407 C 426.908 3.44581 0.553593 0
M  V30 4408 C 428.256 4.16196 0.840618 0
M  V30 4409 O 429.28 3.50426 0.638739 0
M  V30 4410 O 428.139 5.32567 1.22618 0
M  V30 4411 H 425.233 0.797194 0.220025 0
M  V30 4412 H 427.779 1.66813 -0.311664 0
M  V30 4413 H 426.551 3.89357 -0.389498 0
M  V30 4414 H 426.174 3.75065 1.31955 0
M  V30 4415 N 427.171 -0.0066808 1.57599 0
M  V30 4416 C 428.396 -0.707738 1.94951 0
M  V30 4417 C 428.821 -1.66882 0.867868 0
M  V30 4418 O 428.179 -1.80457 -0.17458 0
M  V30 4419 C 428.227 -1.42162 3.31394 0
M  V30 4420 O 427.331 -2.53578 3.25226 0
M  V30 4421 H 426.672 -0.188752 0.636607 0
M  V30 4422 H 429.202 0.0445193 2.04552 0
M  V30 4423 H 429.212 -1.78655 3.66806 0
M  V30 4424 H 427.887 -0.716903 4.09675 0
M  V30 4425 H 426.464 -2.19463 3.01481 0
M  V30 4426 N 428.649 -1.55105 -0.279332 0
M  V30 4427 C 429.896 -1.75412 -1.01177 0
M  V30 4428 C 430.224 -0.551728 -1.86511 0
M  V30 4429 O 429.479 0.465919 -1.90073 0
M  V30 4430 C 429.778 -3.0086 -1.92919 0
M  V30 4431 C 429.444 -4.33689 -1.23387 0
M  V30 4432 C 428.106 -4.69792 -1.04159 0
M  V30 4433 C 430.458 -5.15941 -0.738562 0
M  V30 4434 C 427.786 -5.85707 -0.341166 0
M  V30 4435 C 430.138 -6.32579 -0.0517636 0
M  V30 4436 C 428.802 -6.67326 0.152292 0
M  V30 4437 H 428.072 -0.641879 -0.370233 0
M  V30 4438 H 430.719 -1.89373 -0.284627 0
M  V30 4439 H 429.024 -2.81773 -2.72234 0
M  V30 4440 H 430.721 -3.13768 -2.49701 0
M  V30 4441 H 427.311 -4.05309 -1.39364 0
M  V30 4442 H 431.495 -4.8853 -0.874764 0
M  V30 4443 H 426.751 -6.11157 -0.172287 0
M  V30 4444 H 430.925 -6.9557 0.339828 0
M  V30 4445 H 428.552 -7.56998 0.697014 0
M  V30 4446 N 430.127 0.543554 -1.4793 0
M  V30 4447 C 431.037 1.67657 -1.64098 0
M  V30 4448 C 432.053 1.65934 -0.523622 0
M  V30 4449 O 433.229 1.85133 -0.792943 0
M  V30 4450 C 430.294 3.04146 -1.66421 0
M  V30 4451 C 429.355 3.16831 -2.89684 0
M  V30 4452 C 428.588 4.46809 -2.91886 0
M  V30 4453 O 428.811 5.33095 -2.02895 0
M  V30 4454 O 427.745 4.63573 -3.83906 0
M  V30 4455 H 431.571 1.56957 -2.59997 0
M  V30 4456 H 429.156 0.715116 -1.31173 0
M  V30 4457 H 431.038 3.85346 -1.70548 0
M  V30 4458 H 429.713 3.152 -0.736923 0
M  V30 4459 H 428.62 2.34977 -2.91095 0
M  V30 4460 H 429.953 3.10687 -3.81752 0
M  V30 4461 N 431.605 1.3629 0.791371 0
M  V30 4462 C 432.515 1.32606 1.93527 0
M  V30 4463 C 433.531 0.228541 1.72493 0
M  V30 4464 O 434.707 0.460571 1.96063 0
M  V30 4465 C 431.772 1.11271 3.28359 0
M  V30 4466 C 430.833 2.3048 3.62185 0
M  V30 4467 C 430.066 2.10154 4.90583 0
M  V30 4468 O 430.289 1.07572 5.60165 0
M  V30 4469 O 429.223 2.97884 5.23019 0
M  V30 4470 H 433.049 2.28909 1.99585 0
M  V30 4471 H 430.634 1.16818 0.931344 0
M  V30 4472 H 432.516 1.01283 4.09047 0
M  V30 4473 H 431.191 0.180292 3.23198 0
M  V30 4474 H 430.098 2.46036 2.81811 0
M  V30 4475 H 431.431 3.22221 3.72068 0
M  V30 4476 N 433.083 -1.0153 1.20538 0
M  V30 4477 C 434.36 -1.72327 0.925343 0
M  V30 4478 C 434.74 -2.03383 -0.565547 0
M  V30 4479 O 434.088 -1.69934 -1.52757 0
M  V30 4480 C 434.298 -2.9902 1.79967 0
M  V30 4481 C 435.646 -3.72258 2.04228 0
M  V30 4482 O 436.67 -3.08979 1.77231 0
M  V30 4483 O 435.529 -4.86053 2.4983 0
M  V30 4484 H 432.623 -0.751099 0.346092 0
M  V30 4485 H 435.169 -1.07366 1.31417 0
M  V30 4486 H 433.941 -2.72402 2.80915 0
M  V30 4487 H 433.564 -3.71721 1.41099 0
M  V30 4488 N 434.561 -1.01147 -1.20859 0
M  V30 4489 C 435.972 -0.730205 -1.71828 0
M  V30 4490 C 436.323 0.751662 -1.8123 0
M  V30 4491 O 435.448 1.58686 -1.47132 0
M  V30 4492 C 436.043 -1.31885 -3.12077 0
M  V30 4493 C 434.602 -1.08656 -3.60376 0
M  V30 4494 C 433.749 -1.42769 -2.37723 0
M  V30 4495 H 436.7 -1.18158 -1.05945 0
M  V30 4496 H 436.721 -0.706793 -3.73878 0
M  V30 4497 H 436.233 -2.39737 -3.05201 0
M  V30 4498 H 434.334 -0.0254814 -3.72591 0
M  V30 4499 H 434.447 -1.76301 -4.45483 0
M  V30 4500 H 432.811 -0.846603 -2.40218 0
M  V30 4501 H 433.594 -2.51666 -2.33493 0
M  V30 4502 N 436.039 1.36541 -0.78704 0
M  V30 4503 C 436.949 2.3387 -0.184896 0
M  V30 4504 C 437.965 1.60927 0.661697 0
M  V30 4505 O 439.141 1.92927 0.57804 0
M  V30 4506 C 436.206 3.40122 0.672145 0
M  V30 4507 C 435.267 4.28867 -0.19267 0
M  V30 4508 C 434.5 5.30045 0.623561 0
M  V30 4509 O 434.723 5.39232 1.8597 0
M  V30 4510 O 433.657 6.01895 0.0247068 0
M  V30 4511 H 437.483 2.87126 -0.989562 0
M  V30 4512 H 435.068 1.38969 -0.548455 0
M  V30 4513 H 436.95 4.05093 1.16094 0
M  V30 4514 H 435.625 2.89169 1.45474 0
M  V30 4515 H 434.532 3.66945 -0.728166 0
M  V30 4516 H 435.865 4.83165 -0.938722 0
M  V30 4517 N 437.518 0.538854 1.48102 0
M  V30 4518 C 438.767 0.0059532 2.01699 0
M  V30 4519 C 439.08 -1.34476 1.42041 0
M  V30 4520 O 440.286 -1.96653 1.87189 0
M  V30 4521 C 438.742 -0.0397627 3.59878 0
M  V30 4522 C 438.35 1.30659 4.28523 0
M  V30 4523 C 440.094 -0.521024 4.2129 0
M  V30 4524 C 438.001 1.22098 5.78659 0
M  V30 4525 H 436.931 -0.00154456 0.753998 0
M  V30 4526 H 439.582 0.683963 1.70277 0
M  V30 4527 H 437.964 -0.783037 3.88181 0
M  V30 4528 H 439.138 2.06613 4.11883 0
M  V30 4529 H 437.453 1.7243 3.79021 0
M  V30 4530 H 440.05 -0.603184 5.31287 0
M  V30 4531 H 440.393 -1.52885 3.8721 0
M  V30 4532 H 440.926 0.166834 3.9745 0
M  V30 4533 H 437.665 2.20424 6.17328 0
M  V30 4534 H 437.185 0.50295 5.97688 0
M  V30 4535 H 438.864 0.915345 6.40492 0
M  V30 4536 N 438.996 -1.55193 0.274407 0
M  V30 4537 C 440.221 -2.04446 -0.348824 0
M  V30 4538 C 440.646 -1.15149 -1.48735 0
M  V30 4539 O 440.004 -0.149952 -1.80679 0
M  V30 4540 C 440.052 -3.51431 -0.808009 0
M  V30 4541 O 439.156 -3.65225 -1.91531 0
M  V30 4542 H 438.497 -0.66006 -0.0722276 0
M  V30 4543 H 441.027 -2.00481 0.408498 0
M  V30 4544 H 441.037 -3.92781 -1.10395 0
M  V30 4545 H 439.712 -4.15892 0.0249865 0
M  V30 4546 H 438.289 -3.35778 -1.62196 0
M  V30 4547 N 440.474 -0.00167713 -1.576 0
M  V30 4548 C 441.404 0.988091 -2.11563 0
M  V30 4549 C 442.385 1.35736 -1.02517 0
M  V30 4550 O 443.57 1.44082 -1.30208 0
M  V30 4551 C 440.7 2.27941 -2.62031 0
M  V30 4552 C 439.654 2.0517 -3.75619 0
M  V30 4553 C 438.98 3.4033 -4.12407 0
M  V30 4554 C 440.28 1.41294 -5.02825 0
M  V30 4555 H 441.974 0.538771 -2.94513 0
M  V30 4556 H 439.52 0.257712 -1.41675 0
M  V30 4557 H 441.473 2.97539 -2.9841 0
M  V30 4558 H 440.197 2.74989 -1.76205 0
M  V30 4559 H 438.856 1.37998 -3.39635 0
M  V30 4560 H 438.504 3.85085 -3.23603 0
M  V30 4561 H 438.204 3.25909 -4.88935 0
M  V30 4562 H 439.728 4.1124 -4.51347 0
M  V30 4563 H 441.142 2.00851 -5.36965 0
M  V30 4564 H 439.539 1.37356 -5.84169 0
M  V30 4565 H 440.609 0.382362 -4.8339 0
M  V30 4566 N 441.952 1.55251 0.271103 0
M  V30 4567 C 442.915 1.87484 1.31842 0
M  V30 4568 C 443.915 0.749545 1.42262 0
M  V30 4569 O 445.105 1.01771 1.4138 0
M  V30 4570 C 442.237 2.0818 2.69951 0
M  V30 4571 H 443.43 2.81108 1.0449 0
M  V30 4572 H 440.983 1.47771 0.509258 0
M  V30 4573 H 441.718 1.16944 3.02481 0
M  V30 4574 H 441.503 2.90114 2.63774 0
M  V30 4575 H 442.993 2.34385 3.4562 0
M  V30 4576 N 443.43 -0.535701 1.48216 0
M  V30 4577 C 444.707 -1.29683 1.46429 0
M  V30 4578 C 445.087 -2.10391 0.172852 0
M  V30 4579 O 444.435 -2.12282 -0.845488 0
M  V30 4580 C 444.645 -2.18313 2.72287 0
M  V30 4581 C 445.993 -2.78639 3.20383 0
M  V30 4582 O 447.017 -2.28604 2.73164 0
M  V30 4583 O 445.876 -3.69636 4.02531 0
M  V30 4584 H 442.97 -0.585026 0.584529 0
M  V30 4585 H 445.516 -0.552827 1.60443 0
M  V30 4586 H 444.288 -1.58421 3.57797 0
M  V30 4587 H 443.911 -2.99971 2.60966 0
M  V30 4588 N 444.908 -1.36708 -0.784132 0
M  V30 4589 C 446.138 -1.34203 -1.57077 0
M  V30 4590 C 446.546 0.0774945 -1.89041 0
M  V30 4591 O 445.889 1.04628 -1.50992 0
M  V30 4592 C 445.951 -2.10351 -2.91535 0
M  V30 4593 C 445.615 -3.59405 -2.82272 0
M  V30 4594 C 446.612 -4.53545 -2.54151 0
M  V30 4595 C 444.297 -4.02362 -3.00683 0
M  V30 4596 C 446.291 -5.8862 -2.44551 0
M  V30 4597 C 443.978 -5.37526 -2.90704 0
M  V30 4598 C 444.976 -6.30468 -2.62677 0
M  V30 4599 O 444.664 -7.63149 -2.52702 0
M  V30 4600 H 444.396 -0.461791 -0.493685 0
M  V30 4601 H 446.95 -1.80475 -0.980712 0
M  V30 4602 H 445.18 -1.5875 -3.52612 0
M  V30 4603 H 446.869 -2.00636 -3.52845 0
M  V30 4604 H 447.635 -4.21669 -2.39625 0
M  V30 4605 H 443.514 -3.30389 -3.21503 0
M  V30 4606 H 447.058 -6.61133 -2.22596 0
M  V30 4607 H 442.955 -5.69008 -3.04795 0
M  V30 4608 H 443.723 -7.73331 -2.68144 0
M  V30 4609 N 446.386 1.0089 -1.21074 0
M  V30 4610 C 447.632 1.7497 -1.03717 0
M  V30 4611 C 447.987 1.8764 0.425344 0
M  V30 4612 O 447.28 1.39679 1.3115 0
M  V30 4613 C 447.474 3.16335 -1.66334 0
M  V30 4614 C 447.303 3.17449 -3.18522 0
M  V30 4615 C 446.073 3.2425 -3.87543 0
M  V30 4616 C 448.271 3.02877 -4.15656 0
M  V30 4617 N 446.253 3.14949 -5.26954 0
M  V30 4618 C 447.624 3.0143 -5.41793 0
M  V30 4619 C 449.679 2.8715 -4.06755 0
M  V30 4620 C 448.382 2.85869 -6.60054 0
M  V30 4621 C 450.408 2.72944 -5.24648 0
M  V30 4622 C 449.77 2.72171 -6.49694 0
M  V30 4623 H 445.869 0.650627 -0.43383 0
M  V30 4624 H 448.453 1.19944 -1.53367 0
M  V30 4625 H 446.624 3.69638 -1.19256 0
M  V30 4626 H 448.356 3.78888 -1.42219 0
M  V30 4627 H 445.111 3.31288 -3.38446 0
M  V30 4628 H 445.535 3.13651 -5.9996 0
M  V30 4629 H 450.177 2.86557 -3.10878 0
M  V30 4630 H 447.895 2.8521 -7.56096 0
M  V30 4631 H 451.481 2.61782 -5.19578 0
M  V30 4632 H 450.361 2.61307 -7.39384 0
M  V30 4633 N 447.864 1.01787 1.20321 0
M  V30 4634 C 448.811 0.589197 2.23153 0
M  V30 4635 C 449.781 -0.391367 1.61423 0
M  V30 4636 O 450.966 -0.290518 1.88575 0
M  V30 4637 C 448.106 -0.0650747 3.45039 0
M  V30 4638 C 447.219 0.960207 4.21194 0
M  V30 4639 C 446.354 0.276854 5.30478 0
M  V30 4640 C 445.393 1.2888 5.98378 0
M  V30 4641 N 444.53 0.632031 6.99249 0
M  V30 4642 H 449.37 1.47071 2.59179 0
M  V30 4643 H 446.907 0.736192 1.27352 0
M  V30 4644 H 448.865 -0.461552 4.14639 0
M  V30 4645 H 447.495 -0.910233 3.09701 0
M  V30 4646 H 446.547 1.47484 3.50646 0
M  V30 4647 H 447.859 1.72977 4.67847 0
M  V30 4648 H 447.013 -0.175056 6.06447 0
M  V30 4649 H 445.752 -0.525004 4.84866 0
M  V30 4650 H 444.757 1.75109 5.21169 0
M  V30 4651 H 445.982 2.09196 6.46076 0
M  V30 4652 H 443.928 -0.149935 6.55829 0
M  V30 4653 H 443.845 1.33964 7.44036 0
M  V30 4654 H 445.113 0.203755 7.79234 0
M  V30 4655 N 449.342 -1.36122 0.79427 0
M  V30 4656 C 450.582 -2.00942 0.374376 0
M  V30 4657 C 450.946 -1.61666 -1.03577 0
M  V30 4658 O 452.147 -2.19113 -1.55701 0
M  V30 4659 C 450.418 -3.53323 0.538327 0
M  V30 4660 S 451.977 -4.38311 0.20703 0
M  V30 4661 H 448.795 -0.696515 0.142785 0
M  V30 4662 H 451.397 -1.65929 1.03382 0
M  V30 4663 H 450.101 -3.79395 1.56484 0
M  V30 4664 H 449.632 -3.93162 -0.136882 0
M  V30 4665 H 451.647 -4.8623 -0.989695 0
M  V30 4666 N 450.82 -0.546701 -1.47814 0
M  V30 4667 C 452.048 -0.0232857 -2.06887 0
M  V30 4668 C 452.463 1.26571 -1.4009 0
M  V30 4669 O 451.82 1.7569 -0.493906 0
M  V30 4670 C 451.871 0.186975 -3.61016 0
M  V30 4671 O 451.592 -1.05097 -4.25307 0
M  V30 4672 C 453.093 0.748872 -4.36929 0
M  V30 4673 H 450.313 -0.0410763 -0.669742 0
M  V30 4674 H 452.857 -0.757117 -1.89968 0
M  V30 4675 H 451.012 0.870903 -3.77484 0
M  V30 4676 H 451.426 -0.842121 -5.17695 0
M  V30 4677 H 452.9 0.845334 -5.45489 0
M  V30 4678 H 453.377 1.75772 -4.02493 0
M  V30 4679 H 453.983 0.100979 -4.2518 0
M  V30 4680 N 452.299 1.55045 -0.282633 0
M  V30 4681 C 453.524 2.04628 0.337977 0
M  V30 4682 C 453.949 1.15937 1.48123 0
M  V30 4683 O 453.307 0.159532 1.80597 0
M  V30 4684 C 453.355 3.51854 0.78936 0
M  V30 4685 O 452.459 3.66236 1.89592 0
M  V30 4686 H 451.8 0.660434 0.0687261 0
M  V30 4687 H 454.33 2.00261 -0.419124 0
M  V30 4688 H 454.34 3.93361 1.08311 0
M  V30 4689 H 453.015 4.15873 -0.0470419 0
M  V30 4690 H 451.592 3.36633 1.60413 0
M  V30 4691 N 453.777 0.010035 1.57597 0
M  V30 4692 C 455.017 -0.677084 1.9286 0
M  V30 4693 C 455.381 -1.70377 0.885192 0
M  V30 4694 O 456.582 -2.44199 1.12339 0
M  V30 4695 C 454.853 -1.29452 3.33132 0
M  V30 4696 S 456.412 -2.00537 3.90295 0
M  V30 4697 H 453.23 -0.223409 0.674989 0
M  V30 4698 H 455.832 0.0691289 1.95378 0
M  V30 4699 H 454.536 -0.534593 4.06903 0
M  V30 4700 H 454.067 -2.07845 3.34012 0
M  V30 4701 H 456.082 -3.28168 3.72183 0
M  V30 4702 N 455.255 -1.55392 -0.262866 0
M  V30 4703 C 456.203 -1.8977 -1.345 0
M  V30 4704 C 457.197 -0.775063 -1.50629 0
M  V30 4705 O 458.403 -0.959519 -1.52293 0
M  V30 4706 H 454.778 -0.602467 -0.450041 0
M  V30 4707 H 456.749 -2.80147 -1.02762 0
M  V30 4708 C 455.498 -2.19501 -2.69657 0
M  V30 4709 H 454.821 -3.05378 -2.5804 0
M  V30 4710 H 456.261 -2.47469 -3.44289 0
M  V30 4711 C 454.72 -1.00597 -3.21531 0
M  V30 4712 O 455.25 -0.245768 -4.00947 0
M  V30 4713 N 453.456 -0.800911 -2.79345 0
M  V30 4714 H 453.003 -1.42079 -2.14875 0
M  V30 4715 H 452.961 -0.00697996 -3.14399 0
M  V30 4716 N 456.733 0.527833 -1.48498 0
M  V30 4717 C 457.643 1.65907 -1.65867 0
M  V30 4718 C 458.659 1.6537 -0.541192 0
M  V30 4719 O 459.835 1.84282 -0.812534 0
M  V30 4720 C 456.9 3.02364 -1.69637 0
M  V30 4721 C 455.961 3.1374 -2.93028 0
M  V30 4722 C 455.194 4.43688 -2.96609 0
M  V30 4723 O 455.417 5.30913 -2.08538 0
M  V30 4724 O 454.351 4.59475 -3.88802 0
M  V30 4725 H 458.177 1.5419 -2.61647 0
M  V30 4726 H 455.762 0.701163 -1.31924 0
M  V30 4727 H 457.644 3.83515 -1.74625 0
M  V30 4728 H 456.319 3.14401 -0.770312 0
M  V30 4729 H 455.226 2.31877 -2.93571 0
M  V30 4730 H 456.559 3.06621 -3.85026 0
M  V30 4731 N 458.211 1.37122 0.776871 0
M  V30 4732 C 459.144 1.26835 1.89705 0
M  V30 4733 C 460.122 0.14992 1.61907 0
M  V30 4734 O 461.306 0.323242 1.85708 0
M  V30 4735 C 458.433 0.95986 3.24814 0
M  V30 4736 C 457.479 2.09447 3.7153 0
M  V30 4737 S 458.312 3.71368 3.85806 0
M  V30 4738 C 459.468 3.42659 5.23771 0
M  V30 4739 H 459.701 2.21647 1.98141 0
M  V30 4740 H 457.234 1.22685 0.937433 0
M  V30 4741 H 459.192 0.788696 4.02852 0
M  V30 4742 H 457.853 0.0293137 3.14086 0
M  V30 4743 H 457.046 1.8335 4.69467 0
M  V30 4744 H 456.648 2.2255 3.00578 0
M  V30 4745 H 458.94 2.9733 6.0877 0
M  V30 4746 H 459.883 4.39905 5.54878 0
M  V30 4747 H 460.291 2.77708 4.91466 0
M  V30 4748 N 459.689 -1.00246 1.21608 0
M  V30 4749 C 460.637 -2.11193 0.97469 0
M  V30 4750 C 461.631 -1.69216 -0.0789303 0
M  V30 4751 O 462.837 -1.79853 0.0726806 0
M  V30 4752 H 459.212 -0.690455 0.297953 0
M  V30 4753 H 461.183 -2.2873 1.91638 0
M  V30 4754 C 459.932 -3.43182 0.558717 0
M  V30 4755 H 459.255 -3.75918 1.3611 0
M  V30 4756 H 460.695 -4.21823 0.429154 0
M  V30 4757 C 459.154 -3.28882 -0.730648 0
M  V30 4758 O 459.684 -3.59835 -1.78554 0
M  V30 4759 N 457.89 -2.8209 -0.698131 0
M  V30 4760 H 457.437 -2.57099 0.16061 0
M  V30 4761 H 457.395 -2.72903 -1.56113 0
M  V30 4762 N 461.167 -1.02423 -1.1978 0
M  V30 4763 C 462.578 -0.748389 -1.71044 0
M  V30 4764 C 462.929 0.732398 -1.82017 0
M  V30 4765 O 462.054 1.57116 -1.48807 0
M  V30 4766 C 462.649 -1.35187 -3.1066 0
M  V30 4767 C 461.208 -1.12472 -3.59203 0
M  V30 4768 C 460.355 -1.45283 -2.36195 0
M  V30 4769 H 463.306 -1.19275 -1.04686 0
M  V30 4770 H 463.327 -0.746408 -3.73107 0
M  V30 4771 H 462.839 -2.4296 -3.02642 0
M  V30 4772 H 460.94 -0.0649983 -3.72543 0
M  V30 4773 H 461.053 -1.81016 -4.43588 0
M  V30 4774 H 459.417 -0.872034 -2.39307 0
M  V30 4775 H 460.2 -2.54129 -2.30811 0
M  V30 4776 N 462.645 1.35699 -0.801477 0
M  V30 4777 C 464.056 1.81415 -0.441073 0
M  V30 4778 C 464.407 1.66595 1.03636 0
M  V30 4779 O 463.532 1.19369 1.80499 0
M  V30 4780 C 464.127 3.29369 -0.793819 0
M  V30 4781 C 462.686 3.73248 -0.486083 0
M  V30 4782 C 461.833 2.57775 -1.02213 0
M  V30 4783 H 464.784 1.23749 -0.993572 0
M  V30 4784 H 464.805 3.80395 -0.0894158 0
M  V30 4785 H 464.317 3.40123 -1.86917 0
M  V30 4786 H 462.418 3.68046 0.580735 0
M  V30 4787 H 462.531 4.68222 -1.01513 0
M  V30 4788 H 460.895 2.50788 -0.444712 0
M  V30 4789 H 461.678 2.71309 -2.10348 0
M  V30 4790 N 464.123 0.554532 1.47522 0
M  V30 4791 C 465.053 -0.182974 2.32782 0
M  V30 4792 C 466.034 -0.911377 1.43624 0
M  V30 4793 O 467.219 -0.892366 1.72483 0
M  V30 4794 C 464.349 -1.21513 3.25349 0
M  V30 4795 C 463.303 -0.603355 4.23726 0
M  V30 4796 C 462.629 -1.73995 5.05598 0
M  V30 4797 C 463.929 0.441121 5.20434 0
M  V30 4798 H 465.623 0.52882 2.94693 0
M  V30 4799 H 463.169 0.255759 1.41711 0
M  V30 4800 H 465.122 -1.73922 3.83835 0
M  V30 4801 H 463.846 -1.95683 2.61487 0
M  V30 4802 H 462.505 -0.10059 3.66462 0
M  V30 4803 H 462.153 -2.47063 4.38143 0
M  V30 4804 H 461.853 -1.3364 5.72201 0
M  V30 4805 H 463.377 -2.26735 5.66942 0
M  V30 4806 H 464.791 0.00319931 5.733 0
M  V30 4807 H 463.188 0.763402 5.95224 0
M  V30 4808 H 464.258 1.33799 4.66075 0
M  V30 4809 N 465.601 -1.54893 0.290851 0
M  V30 4810 C 467.012 -1.85584 -0.203816 0
M  V30 4811 C 467.363 -1.21285 -1.54222 0
M  V30 4812 O 466.488 -0.506841 -2.10381 0
M  V30 4813 C 467.083 -3.367 -0.376595 0
M  V30 4814 C 465.642 -3.6746 -0.815485 0
M  V30 4815 C 464.789 -2.77178 0.0821087 0
M  V30 4816 H 467.74 -1.50208 0.512175 0
M  V30 4817 H 467.761 -3.60656 -1.21275 0
M  V30 4818 H 467.273 -3.8347 0.59767 0
M  V30 4819 H 465.374 -3.26201 -1.80066 0
M  V30 4820 H 465.487 -4.7478 -0.641905 0
M  V30 4821 H 463.851 -2.50925 -0.436895 0
M  V30 4822 H 464.634 -3.26767 1.05254 0
M  V30 4823 N 467.08 -0.0183926 -1.57589 0
M  V30 4824 C 468.305 0.676634 -1.96052 0
M  V30 4825 C 468.73 1.6548 -0.894307 0
M  V30 4826 O 468.088 1.80712 0.145849 0
M  V30 4827 C 468.136 1.36872 -3.33614 0
M  V30 4828 O 467.24 2.48372 -3.29219 0
M  V30 4829 H 466.581 0.1786 -0.63953 0
M  V30 4830 H 469.111 -0.077056 -2.04455 0
M  V30 4831 H 469.121 1.72797 -3.69601 0
M  V30 4832 H 467.796 0.651636 -4.10763 0
M  V30 4833 H 466.373 2.14639 -3.04934 0
M  V30 4834 N 468.558 1.5553 0.254621 0
M  V30 4835 C 469.508 1.86057 1.31783 0
M  V30 4836 C 470.492 0.720827 1.4385 0
M  V30 4837 O 471.684 0.982586 1.47222 0
M  V30 4838 C 468.813 2.15203 2.67475 0
M  V30 4839 C 467.899 3.35484 2.59444 0
M  V30 4840 N 468.29 4.54945 2.2104 0
M  V30 4841 C 466.588 3.38441 2.90472 0
M  V30 4842 C 467.289 5.3707 2.23453 0
M  V30 4843 N 466.265 4.75936 2.62652 0
M  V30 4844 H 470.067 2.75953 1.01129 0
M  V30 4845 H 467.581 1.55653 0.463255 0
M  V30 4846 H 469.578 2.35235 3.44195 0
M  V30 4847 H 468.238 1.26601 2.99002 0
M  V30 4848 H 469.249 4.8071 1.92712 0
M  V30 4849 H 465.926 2.60087 3.2659 0
M  V30 4850 H 467.316 6.42626 1.96166 0
M  V30 4851 N 470.036 -0.519951 1.48776 0
M  V30 4852 C 471.276 -1.2856 1.58908 0
M  V30 4853 C 471.64 -1.90212 0.261418 0
M  V30 4854 O 472.841 -2.67746 0.237791 0
M  V30 4855 C 471.112 -2.33836 2.70288 0
M  V30 4856 S 472.671 -3.19992 3.0025 0
M  V30 4857 H 469.489 -0.43717 0.560717 0
M  V30 4858 H 472.091 -0.591205 1.86346 0
M  V30 4859 H 470.795 -1.87041 3.653 0
M  V30 4860 H 470.326 -3.07969 2.44783 0
M  V30 4861 H 472.341 -4.34122 2.40317 0
M  V30 4862 N 471.514 -1.37532 -0.769588 0
M  V30 4863 C 472.462 -1.33561 -1.90432 0
M  V30 4864 C 473.456 -0.224027 -1.67912 0
M  V30 4865 O 474.662 -0.392174 -1.75676 0
M  V30 4866 H 471.037 -0.416279 -0.626271 0
M  V30 4867 H 473.008 -2.29348 -1.90899 0
M  V30 4868 C 471.757 -1.16162 -3.27722 0
M  V30 4869 H 471.08 -2.00951 -3.45628 0
M  V30 4870 H 472.52 -1.17434 -4.07413 0
M  V30 4871 C 470.979 0.132583 -3.36639 0
M  V30 4872 O 471.509 1.11539 -3.85904 0
M  V30 4873 N 469.715 0.184013 -2.90017 0
M  V30 4874 H 469.262 -0.616415 -2.50116 0
M  V30 4875 H 469.22 1.04956 -2.96364 0
M  V30 4876 N 472.992 0.995999 -1.22138 0
M  V30 4877 C 474.408 1.25917 -0.980667 0
M  V30 4878 C 474.608 1.98819 0.327604 0
M  V30 4879 O 473.664 2.29587 1.05101 0
M  V30 4880 C 474.977 2.07399 -2.17729 0
M  V30 4881 C 476.525 2.20594 -2.22052 0
M  V30 4882 C 477 3.05462 -3.41258 0
M  V30 4883 N 478.491 3.13049 -3.41401 0
M  V30 4884 C 479.226 3.78997 -4.30289 0
M  V30 4885 N 478.722 4.46899 -5.2939 0
M  V30 4886 N 480.515 3.75728 -4.18073 0
M  V30 4887 H 472.666 0.507158 -2.06256 0
M  V30 4888 H 474.929 0.28658 -0.903646 0
M  V30 4889 H 474.635 1.61191 -3.12586 0
M  V30 4890 H 474.509 3.08154 -2.17534 0
M  V30 4891 H 476.896 2.66017 -1.27745 0
M  V30 4892 H 476.977 1.1928 -2.26287 0
M  V30 4893 H 476.621 2.60739 -4.35864 0
M  V30 4894 H 476.551 4.06911 -3.34262 0
M  V30 4895 H 479.042 2.64721 -2.69688 0
M  V30 4896 H 479.355 4.94952 -5.935 0
M  V30 4897 H 477.7 4.45657 -5.33306 0
M  V30 4898 H 480.891 3.2184 -3.39907 0
M  V30 4899 H 481.064 4.26845 -4.87553 0
M  V30 4900 N 474.47 1.03057 1.19235 0
M  V30 4901 C 475.71 0.736757 1.9066 0
M  V30 4902 C 476.074 -0.721521 1.77927 0
M  V30 4903 O 477.275 -1.12849 2.43964 0
M  V30 4904 C 475.546 1.17755 3.37444 0
M  V30 4905 S 477.105 1.00783 4.27069 0
M  V30 4906 H 473.923 0.268174 0.658486 0
M  V30 4907 H 476.525 1.32076 1.4414 0
M  V30 4908 H 475.229 2.23448 3.44237 0
M  V30 4909 H 474.76 0.586912 3.88997 0
M  V30 4910 H 476.775 -0.0806356 4.96134 0
M  V30 4911 N 475.948 -1.35272 0.808662 0
M  V30 4912 C 477.194 -1.99434 0.399717 0
M  V30 4913 C 477.549 -1.62992 -1.02232 0
M  V30 4914 O 476.842 -0.884091 -1.69983 0
M  V30 4915 C 477.036 -3.53556 0.522798 0
M  V30 4916 C 476.865 -4.04969 1.95525 0
M  V30 4917 C 475.635 -4.34228 2.58407 0
M  V30 4918 C 477.833 -4.23362 2.92009 0
M  V30 4919 N 475.815 -4.71585 3.93041 0
M  V30 4920 C 477.186 -4.63739 4.11517 0
M  V30 4921 C 479.241 -4.05576 2.88813 0
M  V30 4922 C 477.944 -4.88189 5.28265 0
M  V30 4923 C 479.97 -4.31184 4.04765 0
M  V30 4924 C 479.332 -4.71834 5.23022 0
M  V30 4925 H 475.431 -0.757534 0.19408 0
M  V30 4926 H 478.015 -1.63939 1.05034 0
M  V30 4927 H 476.186 -3.88277 -0.0978471 0
M  V30 4928 H 477.918 -4.04604 0.0882378 0
M  V30 4929 H 474.673 -4.24621 2.09747 0
M  V30 4930 H 475.097 -4.9452 4.62363 0
M  V30 4931 H 479.739 -3.73288 1.98535 0
M  V30 4932 H 477.457 -5.1935 6.19113 0
M  V30 4933 H 481.043 -4.18972 4.03675 0
M  V30 4934 H 479.923 -4.91263 6.11253 0
M  V30 4935 N 477.426 -0.562348 -1.47226 0
M  V30 4936 C 478.389 0.172056 -2.28553 0
M  V30 4937 C 479.389 0.837928 -1.37242 0
M  V30 4938 O 480.579 0.693001 -1.59822 0
M  V30 4939 C 477.711 1.25223 -3.17068 0
M  V30 4940 H 478.904 -0.542401 -2.94954 0
M  V30 4941 H 476.457 -0.319493 -1.53 0
M  V30 4942 H 477.192 1.99892 -2.55369 0
M  V30 4943 H 476.977 0.779515 -3.84273 0
M  V30 4944 H 478.467 1.76791 -3.78332 0
M  V30 4945 N 478.904 1.54736 -0.299062 0
M  V30 4946 C 479.834 2.26409 0.571085 0
M  V30 4947 C 480.815 1.2629 1.13951 0
M  V30 4948 O 482 1.55059 1.16921 0
M  V30 4949 C 479.13 3.00338 1.74396 0
M  V30 4950 C 478.084 4.07588 1.30599 0
M  V30 4951 C 477.41 4.69222 2.56387 0
M  V30 4952 C 478.71 5.20455 0.438645 0
M  V30 4953 H 480.404 2.99388 -0.0266991 0
M  V30 4954 H 477.95 1.43993 -0.0142812 0
M  V30 4955 H 479.903 3.49198 2.35878 0
M  V30 4956 H 478.627 2.24934 2.36796 0
M  V30 4957 H 477.286 3.59575 0.71424 0
M  V30 4958 H 476.934 3.9046 3.17097 0
M  V30 4959 H 476.634 5.41653 2.27784 0
M  V30 4960 H 478.158 5.20844 3.18675 0
M  V30 4961 H 479.572 5.65221 0.959085 0
M  V30 4962 H 477.969 5.99594 0.246466 0
M  V30 4963 H 479.039 4.8192 -0.536738 0
M  V30 4964 N 480.382 0.0267497 1.57577 0
M  V30 4965 C 481.798 -0.32962 1.56159 0
M  V30 4966 C 481.998 -1.73059 1.03213 0
M  V30 4967 O 481.054 -2.43233 0.677804 0
M  V30 4968 C 482.367 -0.18039 3.00158 0
M  V30 4969 C 483.915 -0.253334 3.11973 0
M  V30 4970 C 484.39 -0.132921 4.57807 0
M  V30 4971 N 485.881 -0.189979 4.6281 0
M  V30 4972 C 486.616 -0.120554 5.73273 0
M  V30 4973 N 486.112 -0.000180315 6.928 0
M  V30 4974 N 487.905 -0.174369 5.61829 0
M  V30 4975 H 480.056 0.942896 1.90324 0
M  V30 4976 H 482.319 0.3639 0.875375 0
M  V30 4977 H 482.025 0.784576 3.42837 0
M  V30 4978 H 481.899 -0.951565 3.65 0
M  V30 4979 H 484.286 -1.20876 2.69208 0
M  V30 4980 H 484.367 0.548177 2.49857 0
M  V30 4981 H 484.011 0.819073 5.01252 0
M  V30 4982 H 483.941 -0.953264 5.179 0
M  V30 4983 H 486.432 -0.283257 3.76837 0
M  V30 4984 H 486.745 0.0461666 7.72786 0
M  V30 4985 H 485.09 0.034569 6.94991 0
M  V30 4986 H 488.281 -0.266794 4.67339 0
M  V30 4987 H 488.454 -0.116802 6.47895 0
M  V30 4988 N 481.861 -1.55662 -0.24637 0
M  V30 4989 C 482.771 -1.93495 -1.32653 0
M  V30 4990 C 483.787 -0.835462 -1.5263 0
M  V30 4991 O 484.963 -1.1369 -1.66242 0
M  V30 4992 C 482.028 -2.22242 -2.66101 0
M  V30 4993 C 481.089 -3.45625 -2.54641 0
M  V30 4994 C 480.322 -3.72991 -3.81724 0
M  V30 4995 O 480.545 -3.02421 -4.8363 0
M  V30 4996 O 479.479 -4.66515 -3.80325 0
M  V30 4997 H 483.305 -2.85498 -1.03559 0
M  V30 4998 H 480.89 -1.42551 -0.44717 0
M  V30 4999 H 482.772 -2.42037 -3.44958 0
M  V30 5000 H 481.447 -1.33417 -2.94926 0
M  V30 5001 H 480.354 -3.31136 -1.74067 0
M  V30 5002 H 481.687 -4.34754 -2.3076 0
M  V30 5003 N 483.339 0.512053 -1.4905 0
M  V30 5004 C 484.287 1.63568 -1.65373 0
M  V30 5005 C 485.281 1.61228 -0.519806 0
M  V30 5006 O 486.487 1.65869 -0.699101 0
M  V30 5007 H 482.862 0.542019 -0.521267 0
M  V30 5008 H 484.833 1.4695 -2.59708 0
M  V30 5009 C 483.582 3.01761 -1.7273 0
M  V30 5010 H 482.905 3.04263 -2.59353 0
M  V30 5011 H 484.345 3.79948 -1.8819 0
M  V30 5012 C 482.804 3.33609 -0.46973 0
M  V30 5013 O 483.334 3.99607 0.409492 0
M  V30 5014 N 481.54 2.88651 -0.336003 0
M  V30 5015 H 481.087 2.35119 -1.05247 0
M  V30 5016 H 481.045 3.10328 0.504363 0
M  V30 5017 N 484.817 1.37938 0.762283 0
M  V30 5018 C 486.063 1.34873 1.52253 0
M  V30 5019 C 486.418 -0.0635972 1.92295 0
M  V30 5020 O 485.711 -1.02434 1.61919 0
M  V30 5021 C 485.905 2.23042 2.79261 0
M  V30 5022 C 485.734 3.72706 2.51635 0
M  V30 5023 C 484.504 4.41771 2.45289 0
M  V30 5024 C 486.702 4.65345 2.18994 0
M  V30 5025 N 484.684 5.76921 2.09846 0
M  V30 5026 C 486.055 5.88943 1.9377 0
M  V30 5027 C 488.11 4.53636 2.0523 0
M  V30 5028 C 486.813 7.02142 1.5617 0
M  V30 5029 C 488.839 5.6673 1.69031 0
M  V30 5030 C 488.201 6.89383 1.44673 0
M  V30 5031 H 484.3 0.548818 0.557067 0
M  V30 5032 H 486.884 1.73247 0.888458 0
M  V30 5033 H 485.055 1.8687 3.40491 0
M  V30 5034 H 486.787 2.11165 3.45241 0
M  V30 5035 H 483.542 3.94883 2.61465 0
M  V30 5036 H 483.966 6.4837 1.94794 0
M  V30 5037 H 488.608 3.5937 2.2274 0
M  V30 5038 H 486.326 7.96334 1.37399 0
M  V30 5039 H 489.912 5.59645 1.59026 0
M  V30 5040 H 488.792 7.75411 1.17079 0
M  V30 5041 N 486.295 -0.989507 1.22664 0
M  V30 5042 C 487.225 -2.09847 1.02404 0
M  V30 5043 C 488.206 -1.70007 -0.0561303 0
M  V30 5044 O 489.391 -1.93906 0.106748 0
M  V30 5045 C 486.521 -3.41996 0.604663 0
M  V30 5046 C 485.475 -3.95699 1.63115 0
M  V30 5047 C 484.801 -5.23936 1.0675 0
M  V30 5048 C 486.101 -4.25999 3.02196 0
M  V30 5049 H 487.795 -2.27054 1.95158 0
M  V30 5050 H 485.341 -1.09111 0.939727 0
M  V30 5051 H 487.294 -4.1899 0.45002 0
M  V30 5052 H 486.018 -3.24626 -0.35855 0
M  V30 5053 H 484.677 -3.2084 1.77362 0
M  V30 5054 H 484.325 -5.02909 0.0955422 0
M  V30 5055 H 484.025 -5.60833 1.75328 0
M  V30 5056 H 485.549 -6.0356 0.924516 0
M  V30 5057 H 486.963 -4.93777 2.91303 0
M  V30 5058 H 485.36 -4.74076 3.67929 0
M  V30 5059 H 486.43 -3.33636 3.51873 0
M  V30 5060 N 487.773 -1.03688 -1.18687 0
M  V30 5061 C 489.184 -0.766488 -1.70241 0
M  V30 5062 C 489.535 0.713052 -1.82784 0
M  V30 5063 O 488.66 1.55529 -1.50465 0
M  V30 5064 C 489.255 -1.38475 -3.09209 0
M  V30 5065 C 487.814 -1.16276 -3.5799 0
M  V30 5066 C 486.961 -1.4778 -2.34641 0
M  V30 5067 H 489.912 -1.20378 -1.03415 0
M  V30 5068 H 489.933 -0.785939 -3.72295 0
M  V30 5069 H 489.445 -2.46157 -3.00048 0
M  V30 5070 H 487.546 -0.104508 -3.72453 0
M  V30 5071 H 487.659 -1.8571 -4.41643 0
M  V30 5072 H 486.023 -0.897366 -2.38368 0
M  V30 5073 H 486.806 -2.56562 -2.28102 0
M  V30 5074 N 489.251 1.34841 -0.815825 0
M  V30 5075 C 490.161 2.33425 -0.234462 0
M  V30 5076 C 491.177 1.62295 0.627413 0
M  V30 5077 O 492.353 1.94109 0.536987 0
M  V30 5078 C 489.418 3.41471 0.599849 0
M  V30 5079 C 488.479 4.28362 -0.283596 0
M  V30 5080 C 487.712 5.31248 0.51099 0
M  V30 5081 O 487.935 5.43056 1.7449 0
M  V30 5082 O 486.869 6.01812 -0.10297 0
M  V30 5083 H 490.695 2.84962 -1.05024 0
M  V30 5084 H 488.28 1.37774 -0.577809 0
M  V30 5085 H 490.162 4.07464 1.07475 0
M  V30 5086 H 488.837 2.9219 1.39308 0
M  V30 5087 H 487.744 3.65318 -0.805836 0
M  V30 5088 H 489.077 4.81066 -1.041 0
M  V30 5089 N 490.729 0.570148 1.46925 0
M  V30 5090 C 492.006 -0.0153259 1.95594 0
M  V30 5091 C 492.386 -1.47232 1.51281 0
M  V30 5092 O 491.734 -2.15574 0.757624 0
M  V30 5093 C 491.944 0.143624 3.48704 0
M  V30 5094 C 493.292 0.00494484 4.246 0
M  V30 5095 O 494.316 0.0718214 3.56128 0
M  V30 5096 O 493.175 -0.141175 5.46318 0
M  V30 5097 H 490.269 -0.0568819 0.825041 0
M  V30 5098 H 492.815 0.637583 1.57267 0
M  V30 5099 H 491.587 1.15699 3.73804 0
M  V30 5100 H 491.21 -0.5463 3.93829 0
M  V30 5101 N 492.207 -1.54576 0.307264 0
M  V30 5102 C 493.154 -2.23751 -0.56604 0
M  V30 5103 C 494.124 -1.22235 -1.12462 0
M  V30 5104 O 495.309 -1.50873 -1.16799 0
M  V30 5105 C 492.449 -2.98661 -1.72903 0
M  V30 5106 C 491.562 -4.14963 -1.20124 0
M  V30 5107 C 490.697 -4.77441 -2.3286 0
M  V30 5108 C 489.736 -5.85875 -1.77247 0
M  V30 5109 N 488.873 -6.42282 -2.8358 0
M  V30 5110 H 493.713 -2.97984 0.0304578 0
M  V30 5111 H 491.25 -1.47076 0.0268015 0
M  V30 5112 H 493.208 -3.40329 -2.41313 0
M  V30 5113 H 491.838 -2.26793 -2.29706 0
M  V30 5114 H 490.89 -3.78193 -0.409198 0
M  V30 5115 H 492.202 -4.93066 -0.754171 0
M  V30 5116 H 491.356 -5.21993 -3.09205 0
M  V30 5117 H 490.095 -3.98684 -2.80896 0
M  V30 5118 H 489.1 -5.40741 -0.993926 0
M  V30 5119 H 490.325 -6.6652 -1.30107 0
M  V30 5120 H 488.271 -5.66406 -3.30939 0
M  V30 5121 H 488.188 -7.1575 -2.43388 0
M  V30 5122 H 489.456 -6.91492 -3.59804 0
M  V30 5123 N 493.685 -0.035106 -1.57561 0
M  V30 5124 C 494.933 0.64096 -1.91667 0
M  V30 5125 C 495.254 1.72323 -0.912681 0
M  V30 5126 O 494.524 1.95849 0.0449089 0
M  V30 5127 H 493.104 0.239743 -0.707483 0
M  V30 5128 H 495.766 -0.084321 -1.94718 0
M  V30 5129 H 494.862 1.08987 -2.92452 0
M  V30 5130 N 495.163 1.55791 0.238111 0
M  V30 5131 C 496.11 1.9105 1.29493 0
M  V30 5132 C 497.08 0.765733 1.47397 0
M  V30 5133 O 498.265 1.02017 1.61236 0
M  V30 5134 C 495.405 2.21826 2.64362 0
M  V30 5135 C 494.518 3.49153 2.54394 0
M  V30 5136 C 493.653 3.69455 3.81676 0
M  V30 5137 C 492.692 4.90353 3.66361 0
M  V30 5138 N 491.829 5.07131 4.85554 0
M  V30 5139 H 496.669 2.81172 0.987233 0
M  V30 5140 H 494.206 1.39179 0.476203 0
M  V30 5141 H 496.164 2.37675 3.4288 0
M  V30 5142 H 494.794 1.34897 2.93262 0
M  V30 5143 H 493.846 3.41587 1.67399 0
M  V30 5144 H 495.158 4.37818 2.38991 0
M  V30 5145 H 494.312 3.85311 4.68636 0
M  V30 5146 H 493.051 2.7904 3.99985 0
M  V30 5147 H 492.056 4.74464 2.77784 0
M  V30 5148 H 493.281 5.82237 3.49538 0
M  V30 5149 H 491.227 4.19654 5.04209 0
M  V30 5150 H 491.144 5.89899 4.72816 0
M  V30 5151 H 492.412 5.27407 5.73988 0
M  V30 5152 N 496.642 -0.504142 1.49319 0
M  V30 5153 C 497.919 -1.26548 1.49147 0
M  V30 5154 C 498.299 -2.09977 0.21744 0
M  V30 5155 O 497.647 -2.14028 -0.800269 0
M  V30 5156 C 497.857 -2.12489 2.76857 0
M  V30 5157 C 499.205 -2.7178 3.26222 0
M  V30 5158 O 500.229 -2.22758 2.77952 0
M  V30 5159 O 499.088 -3.61015 4.10281 0
M  V30 5160 H 496.182 -0.572495 0.596806 0
M  V30 5161 H 498.728 -0.51867 1.61579 0
M  V30 5162 H 497.5 -1.50796 3.61077 0
M  V30 5163 H 497.123 -2.94368 2.6727 0
M  V30 5164 N 498.12 -1.38341 -0.754957 0
M  V30 5165 C 499.067 -1.3546 -1.86867 0
M  V30 5166 C 500.037 -0.217369 -1.64672 0
M  V30 5167 O 501.222 -0.409383 -1.86356 0
M  V30 5168 C 498.362 -1.18413 -3.24149 0
M  V30 5169 C 497.475 -2.41511 -3.58185 0
M  V30 5170 C 496.61 -2.17205 -4.84763 0
M  V30 5171 C 495.649 -3.36081 -5.11582 0
M  V30 5172 N 494.786 -3.11219 -6.29354 0
M  V30 5173 H 499.626 -2.30672 -1.88664 0
M  V30 5174 H 497.163 -1.14607 -0.922154 0
M  V30 5175 H 499.121 -1.06545 -4.03366 0
M  V30 5176 H 497.751 -0.268397 -3.21682 0
M  V30 5177 H 496.803 -2.64056 -2.73822 0
M  V30 5178 H 498.115 -3.30115 -3.73932 0
M  V30 5179 H 497.269 -2.02465 -5.7192 0
M  V30 5180 H 496.008 -1.25964 -4.71152 0
M  V30 5181 H 495.013 -3.51341 -4.22894 0
M  V30 5182 H 496.238 -4.28196 -5.27091 0
M  V30 5183 H 494.184 -2.22624 -6.17069 0
M  V30 5184 H 494.101 -3.93373 -6.45596 0
M  V30 5185 H 495.369 -3.00132 -7.19403 0
M  V30 5186 N 499.598 0.982988 -1.23187 0
M  V30 5187 C 500.846 1.72052 -1.06031 0
M  V30 5188 C 501.167 1.90769 0.404019 0
M  V30 5189 O 500.437 1.47446 1.28982 0
M  V30 5190 H 499.017 0.637499 -0.389363 0
M  V30 5191 H 501.679 1.18338 -1.54862 0
M  V30 5192 H 500.775 2.7111 -1.54615 0
M  V30 5193 N 501.076 1.04316 1.18135 0
M  V30 5194 C 501.986 0.646876 2.25505 0
M  V30 5195 C 503.002 -0.328008 1.7088 0
M  V30 5196 O 504.178 -0.182309 2.00573 0
M  V30 5197 C 501.243 0.0185664 3.46695 0
M  V30 5198 C 500.304 1.04277 4.16443 0
M  V30 5199 C 499.537 0.444352 5.31847 0
M  V30 5200 O 499.76 -0.748735 5.65465 0
M  V30 5201 O 498.694 1.17428 5.90334 0
M  V30 5202 H 502.52 1.54147 2.61672 0
M  V30 5203 H 500.105 0.814188 1.25265 0
M  V30 5204 H 501.987 -0.331068 4.20097 0
M  V30 5205 H 500.662 -0.849814 3.12346 0
M  V30 5206 H 499.569 1.44425 3.45098 0
M  V30 5207 H 500.902 1.882 4.54798 0
M  V30 5208 N 502.554 -1.34406 0.822964 0
M  V30 5209 C 503.803 -1.97542 0.407458 0
M  V30 5210 C 504.116 -1.65973 -1.035 0
M  V30 5211 O 505.322 -2.22598 -1.55442 0
M  V30 5212 C 503.778 -3.53463 0.677623 0
M  V30 5213 C 503.386 -3.93925 2.1337 0
M  V30 5214 C 505.13 -4.23229 0.328284 0
M  V30 5215 C 503.037 -5.42759 2.34876 0
M  V30 5216 H 501.967 -0.739207 0.148623 0
M  V30 5217 H 504.618 -1.53248 1.00932 0
M  V30 5218 H 503 -3.96 0.00558965 0
M  V30 5219 H 504.174 -3.62494 2.8449 0
M  V30 5220 H 502.489 -3.37097 2.44448 0
M  V30 5221 H 505.086 -5.32659 0.466794 0
M  V30 5222 H 505.429 -4.09899 -0.727224 0
M  V30 5223 H 505.962 -3.86169 0.954896 0
M  V30 5224 H 502.701 -5.61075 3.38932 0
M  V30 5225 H 502.221 -5.75704 1.68299 0
M  V30 5226 H 503.9 -6.0944 2.17236 0
M  V30 5227 N 504.032 -0.577932 -1.46621 0
M  V30 5228 C 505.257 -0.0652536 -2.07297 0
M  V30 5229 C 505.682 1.22828 -1.4246 0
M  V30 5230 O 505.04 1.74075 -0.506718 0
M  V30 5231 C 505.088 0.0920589 -3.60482 0
M  V30 5232 O 504.192 1.14972 -3.96049 0
M  V30 5233 H 503.533 -0.06065 -0.661224 0
M  V30 5234 H 506.063 -0.799515 -1.88332 0
M  V30 5235 H 506.073 0.299741 -4.06897 0
M  V30 5236 H 504.748 -0.852612 -4.07067 0
M  V30 5237 H 503.325 0.920879 -3.61351 0
M  V30 5238 N 505.51 1.54411 -0.315457 0
M  V30 5239 C 506.42 2.27737 0.56329 0
M  V30 5240 C 507.436 1.31787 1.13614 0
M  V30 5241 O 508.612 1.64791 1.15784 0
M  V30 5242 C 505.677 3.01478 1.71207 0
M  V30 5243 C 504.738 4.12997 1.17185 0
M  V30 5244 C 503.971 4.83212 2.26588 0
M  V30 5245 O 504.194 4.52884 3.46775 0
M  V30 5246 O 503.128 5.70299 1.92463 0
M  V30 5247 H 506.954 3.03683 -0.0319614 0
M  V30 5248 H 504.539 1.49178 -0.0814188 0
M  V30 5249 H 506.421 3.47683 2.38106 0
M  V30 5250 H 505.096 2.28414 2.29366 0
M  V30 5251 H 504.003 3.71159 0.468174 0
M  V30 5252 H 505.336 4.8808 0.635501 0
M  V30 5253 N 506.988 0.0434614 1.5754 0
M  V30 5254 C 507.935 -0.93356 2.11077 0
M  V30 5255 C 508.905 -1.31383 1.01626 0
M  V30 5256 O 510.09 -1.40465 1.29129 0
M  V30 5257 C 507.23 -2.20578 2.65404 0
M  V30 5258 C 506.343 -1.88068 3.88914 0
M  V30 5259 C 505.478 -3.09691 4.31584 0
M  V30 5260 C 504.517 -2.73067 5.47815 0
M  V30 5261 N 503.654 -3.87359 5.85574 0
M  V30 5262 H 508.494 -0.470118 2.94268 0
M  V30 5263 H 506.031 -0.220434 1.45439 0
M  V30 5264 H 507.989 -2.95011 2.94999 0
M  V30 5265 H 506.619 -2.64513 1.85021 0
M  V30 5266 H 505.671 -1.03816 3.6596 0
M  V30 5267 H 506.983 -1.57104 4.73413 0
M  V30 5268 H 506.137 -3.92431 4.62691 0
M  V30 5269 H 504.876 -3.43827 3.45882 0
M  V30 5270 H 503.881 -1.88742 5.16388 0
M  V30 5271 H 505.106 -2.40131 6.35227 0
M  V30 5272 H 503.052 -4.21311 5.02825 0
M  V30 5273 H 502.969 -3.60068 6.64746 0
M  V30 5274 H 504.237 -4.70761 6.21292 0
M  V30 5275 N 508.466 -1.55915 -0.229846 0
M  V30 5276 C 509.429 -1.90914 -1.26824 0
M  V30 5277 C 510.429 -0.786999 -1.40225 0
M  V30 5278 O 511.619 -1.05484 -1.38632 0
M  V30 5279 C 508.751 -2.15264 -2.64337 0
M  V30 5280 H 509.944 -2.8378 -0.969998 0
M  V30 5281 H 507.497 -1.49069 -0.4699 0
M  V30 5282 H 508.232 -1.24923 -2.99274 0
M  V30 5283 H 508.017 -2.97005 -2.55989 0
M  V30 5284 H 509.507 -2.43467 -3.39284 0
M  V30 5285 N 509.944 0.496216 -1.49584 0
M  V30 5286 C 510.891 1.59722 -1.66606 0
M  V30 5287 C 511.861 1.58158 -0.507477 0
M  V30 5288 O 513.046 1.76072 -0.735076 0
M  V30 5289 C 510.186 2.97844 -1.74308 0
M  V30 5290 C 509.299 3.09388 -3.01502 0
M  V30 5291 C 508.434 4.38271 -3.00153 0
M  V30 5292 C 507.473 4.43466 -4.21906 0
M  V30 5293 N 506.61 5.63784 -4.1844 0
M  V30 5294 H 511.45 1.44515 -2.60613 0
M  V30 5295 H 508.987 0.703048 -1.29212 0
M  V30 5296 H 510.945 3.77907 -1.76754 0
M  V30 5297 H 509.575 3.11743 -0.837619 0
M  V30 5298 H 508.627 2.22357 -3.08645 0
M  V30 5299 H 509.939 3.09085 -3.91494 0
M  V30 5300 H 509.093 5.2666 -3.01188 0
M  V30 5301 H 507.832 4.41146 -2.07947 0
M  V30 5302 H 506.837 3.53478 -4.21109 0
M  V30 5303 H 508.062 4.42303 -5.1531 0
M  V30 5304 H 506.008 5.67491 -3.29074 0
M  V30 5305 H 505.925 5.65118 -5.02173 0
M  V30 5306 H 507.193 6.54367 -4.23585 0
M  V30 5307 N 511.423 1.38739 0.74761 0
M  V30 5308 C 512.353 1.39173 1.87492 0
M  V30 5309 C 513.334 0.256794 1.6815 0
M  V30 5310 O 514.519 0.460762 1.88655 0
M  V30 5311 C 511.649 1.22197 3.25093 0
M  V30 5312 C 510.603 2.32957 3.59047 0
M  V30 5313 C 509.929 2.01082 4.95449 0
M  V30 5314 C 511.229 3.75237 3.6331 0
M  V30 5315 H 512.923 2.3351 1.87386 0
M  V30 5316 H 510.469 1.12399 0.900134 0
M  V30 5317 H 512.422 1.21124 4.03617 0
M  V30 5318 H 511.146 0.243241 3.25693 0
M  V30 5319 H 509.805 2.33226 2.82845 0
M  V30 5320 H 509.453 1.01678 4.92616 0
M  V30 5321 H 509.153 2.75267 5.19136 0
M  V30 5322 H 510.677 2.01638 5.76346 0
M  V30 5323 H 512.091 3.76966 4.31937 0
M  V30 5324 H 510.488 4.48677 3.98509 0
M  V30 5325 H 511.558 4.07122 2.634 0
M  V30 5326 N 512.901 -0.976442 1.23707 0
M  V30 5327 C 513.811 -2.10359 1.03856 0
M  V30 5328 C 514.827 -1.73991 -0.0180919 0
M  V30 5329 O 516.003 -2.0061 0.178211 0
M  V30 5330 C 513.068 -3.40809 0.636387 0
M  V30 5331 C 512.129 -3.91179 1.76854 0
M  V30 5332 C 511.362 -5.15404 1.38546 0
M  V30 5333 O 511.585 -5.69754 0.27142 0
M  V30 5334 O 510.519 -5.5994 2.20797 0
M  V30 5335 H 514.345 -2.29997 1.98331 0
M  V30 5336 H 511.93 -1.08742 1.02448 0
M  V30 5337 H 513.812 -4.19269 0.423223 0
M  V30 5338 H 512.487 -3.22493 -0.279322 0
M  V30 5339 H 511.394 -3.13819 2.03638 0
M  V30 5340 H 512.727 -4.13958 2.6627 0
M  V30 5341 N 514.379 -1.04941 -1.1758 0
M  V30 5342 C 515.327 -0.64204 -2.23563 0
M  V30 5343 C 516.321 0.335453 -1.66045 0
M  V30 5344 O 517.527 0.20179 -1.78865 0
M  V30 5345 H 513.902 -0.18944 -0.727748 0
M  V30 5346 H 515.873 -1.54609 -2.55223 0
M  V30 5347 C 514.622 -0.0301051 -3.47687 0
M  V30 5348 H 513.945 -0.773339 -3.92249 0
M  V30 5349 H 515.385 0.217592 -4.23441 0
M  V30 5350 C 513.844 1.2225 -3.13937 0
M  V30 5351 O 514.374 2.3122 -3.28482 0
M  V30 5352 N 512.58 1.11917 -2.68185 0
M  V30 5353 H 512.127 0.232403 -2.5655 0
M  V30 5354 H 512.085 1.95814 -2.45976 0
M  V30 5355 N 515.857 1.33968 -0.830081 0
M  V30 5356 C 517.082 2.02813 -0.433796 0
M  V30 5357 C 517.507 1.62076 0.954614 0
M  V30 5358 O 516.865 0.808955 1.62252 0
M  V30 5359 C 516.913 3.56348 -0.552115 0
M  V30 5360 O 516.017 4.10202 0.425191 0
M  V30 5361 H 515.358 0.639817 -0.177567 0
M  V30 5362 H 517.888 1.7106 -1.12248 0
M  V30 5363 H 517.898 4.05722 -0.430513 0
M  V30 5364 H 516.573 3.85344 -1.56471 0
M  V30 5365 H 515.15 3.71979 0.261878 0
M  V30 5366 N 517.335 0.585699 1.46312 0
M  V30 5367 C 518.563 0.0781299 2.06752 0
M  V30 5368 C 518.978 -1.22812 1.43396 0
M  V30 5369 O 518.335 -1.74318 0.540314 0
M  V30 5370 C 518.386 -0.0911927 3.61385 0
M  V30 5371 O 518.107 1.16336 4.22371 0
M  V30 5372 C 519.608 -0.632765 4.38761 0
M  V30 5373 H 516.828 0.0588188 0.668417 0
M  V30 5374 H 519.372 0.807218 1.87894 0
M  V30 5375 H 517.527 -0.770514 3.7966 0
M  V30 5376 H 517.941 0.979082 5.15281 0
M  V30 5377 H 519.415 -0.70041 5.47538 0
M  V30 5378 H 519.892 -1.65039 4.07012 0
M  V30 5379 H 520.498 0.0117856 4.25298 0
M  V30 5380 N 518.813 -1.54241 0.323641 0
M  V30 5381 C 519.745 -2.21836 -0.576311 0
M  V30 5382 C 520.758 -1.21837 -1.07979 0
M  V30 5383 O 521.947 -1.48306 -0.99336 0
M  V30 5384 C 519.047 -2.86923 -1.80356 0
M  V30 5385 C 518.22 -4.1306 -1.43875 0
M  V30 5386 C 517.279 -4.6174 -2.52353 0
M  V30 5387 O 516.305 -5.26421 -2.16494 0
M  V30 5388 N 517.507 -4.35974 -3.83284 0
M  V30 5389 H 520.272 -2.997 0.00247987 0
M  V30 5390 H 517.833 -1.61233 0.146848 0
M  V30 5391 H 519.825 -3.16414 -2.52318 0
M  V30 5392 H 518.395 -2.12765 -2.29019 0
M  V30 5393 H 517.615 -3.90334 -0.550752 0
M  V30 5394 H 518.903 -4.95148 -1.17071 0
M  V30 5395 H 518.301 -3.84203 -4.15216 0
M  V30 5396 H 516.858 -4.70119 -4.51477 0
M  V30 5397 N 520.291 -0.0518155 -1.57515 0
M  V30 5398 C 521.254 0.907547 -2.10467 0
M  V30 5399 C 522.254 1.23947 -1.02439 0
M  V30 5400 O 523.444 1.17604 -1.2851 0
M  V30 5401 C 520.576 2.21723 -2.58944 0
M  V30 5402 H 521.769 0.44851 -2.96527 0
M  V30 5403 H 519.322 0.196598 -1.55059 0
M  V30 5404 H 520.057 2.72206 -1.76279 0
M  V30 5405 H 519.842 1.98935 -3.37886 0
M  V30 5406 H 521.332 2.90441 -3.00056 0
M  V30 5407 N 521.769 1.56035 0.221574 0
M  V30 5408 C 522.679 1.95581 1.29558 0
M  V30 5409 C 523.695 0.859639 1.51282 0
M  V30 5410 O 524.871 1.16321 1.64413 0
M  V30 5411 C 521.936 2.26447 2.62531 0
M  V30 5412 C 520.997 3.49632 2.4911 0
M  V30 5413 C 520.23 3.79017 3.75742 0
M  V30 5414 O 520.453 3.10077 4.78757 0
M  V30 5415 O 519.387 4.72507 3.72855 0
M  V30 5416 H 523.213 2.8711 0.990035 0
M  V30 5417 H 520.798 1.43244 0.424434 0
M  V30 5418 H 522.68 2.47494 3.41064 0
M  V30 5419 H 521.355 1.38092 2.92766 0
M  V30 5420 H 520.262 3.33864 1.68777 0
M  V30 5421 H 521.595 4.3837 2.23814 0
M  V30 5422 N 523.247 -0.488276 1.49845 0
M  V30 5423 C 524.157 -1.61451 1.70207 0
M  V30 5424 C 525.173 -1.63877 0.584846 0
M  V30 5425 O 526.349 -1.82063 0.861107 0
M  V30 5426 C 523.414 -2.9776 1.77594 0
M  V30 5427 C 522.475 -3.05861 3.01243 0
M  V30 5428 C 521.708 -4.35668 3.08268 0
M  V30 5429 O 521.931 -5.25197 2.22541 0
M  V30 5430 O 520.865 -4.49005 4.00847 0
M  V30 5431 H 524.691 -1.47199 2.65643 0
M  V30 5432 H 522.276 -0.665939 1.33737 0
M  V30 5433 H 524.158 -3.7875 1.84732 0
M  V30 5434 H 522.833 -3.12248 0.8534 0
M  V30 5435 H 521.74 -2.24012 2.99616 0
M  V30 5436 H 523.073 -2.96304 3.9302 0
M  V30 5437 N 524.725 -1.39134 -0.740242 0
M  V30 5438 C 525.973 -1.35803 -1.49673 0
M  V30 5439 C 526.294 0.0470897 -1.94943 0
M  V30 5440 O 525.564 0.997347 -1.68611 0
M  V30 5441 H 524.144 -0.499736 -0.555224 0
M  V30 5442 H 526.806 -1.73947 -0.879107 0
M  V30 5443 H 525.902 -2.0174 -2.38133 0
M  V30 5444 N 526.204 0.969867 -1.24223 0
M  V30 5445 C 527.451 1.71256 -1.08063 0
M  V30 5446 C 527.779 1.90734 0.380872 0
M  V30 5447 O 527.034 1.46469 1.29789 0
M  V30 5448 C 527.333 3.10883 -1.76314 0
M  V30 5449 C 526.999 3.11252 -3.26241 0
M  V30 5450 C 525.661 3.1106 -3.67144 0
M  V30 5451 C 528.013 3.05751 -4.22097 0
M  V30 5452 C 525.341 3.03097 -5.02344 0
M  V30 5453 C 527.693 2.9933 -5.57301 0
M  V30 5454 C 526.357 2.97466 -5.97554 0
M  V30 5455 H 525.627 0.62667 -0.395431 0
M  V30 5456 H 528.274 1.13422 -1.54297 0
M  V30 5457 H 526.579 3.72168 -1.22468 0
M  V30 5458 H 528.276 3.67138 -1.61277 0
M  V30 5459 H 524.866 3.12165 -2.93685 0
M  V30 5460 H 529.05 3.05031 -3.91497 0
M  V30 5461 H 524.306 3.00013 -5.32731 0
M  V30 5462 H 528.48 2.94033 -6.31283 0
M  V30 5463 H 526.107 2.91051 -7.02277 0
M  V30 5464 N 527.682 1.05563 1.17022 0
M  V30 5465 C 528.959 0.68165 1.83338 0
M  V30 5466 C 529.339 -0.837665 1.93769 0
M  V30 5467 O 528.687 -1.74507 1.47511 0
M  V30 5468 C 528.897 1.375 3.20772 0
M  V30 5469 C 530.245 1.51545 3.96635 0
M  V30 5470 O 531.269 1.33431 3.30264 0
M  V30 5471 O 530.128 1.812 5.15586 0
M  V30 5472 H 527.222 0.240412 0.791285 0
M  V30 5473 H 529.768 1.15545 1.24288 0
M  V30 5474 H 528.54 2.41135 3.08171 0
M  V30 5475 H 528.163 0.890798 3.87493 0
M  V30 5476 N 529.16 -1.33526 0.837174 0
M  V30 5477 C 530.406 -1.9813 0.432704 0
M  V30 5478 C 530.739 -1.66168 -1.00508 0
M  V30 5479 O 530.014 -0.94069 -1.70239 0
M  V30 5480 C 530.297 -3.54151 0.651834 0
M  V30 5481 C 530.15 -3.95806 2.13676 0
M  V30 5482 C 531.469 -4.39993 0.0968937 0
M  V30 5483 H 528.588 -0.719713 0.15869 0
M  V30 5484 H 531.23 -1.58193 1.05237 0
M  V30 5485 H 529.38 -3.88301 0.124369 0
M  V30 5486 H 531.052 -3.71921 2.72896 0
M  V30 5487 H 529.295 -3.45599 2.62191 0
M  V30 5488 H 529.966 -5.0447 2.24084 0
M  V30 5489 H 532.442 -4.12479 0.547733 0
M  V30 5490 H 531.318 -5.48186 0.279917 0
M  V30 5491 H 531.579 -4.3066 -0.9992 0
M  V30 5492 N 530.638 -0.59345 -1.46 0
M  V30 5493 C 532.049 -0.169801 -1.85926 0
M  V30 5494 C 532.4 1.26984 -1.49565 0
M  V30 5495 O 531.525 1.96076 -0.915602 0
M  V30 5496 C 532.12 -0.301385 -3.37457 0
M  V30 5497 C 530.679 0.0674684 -3.7634 0
M  V30 5498 C 529.826 -0.632383 -2.69993 0
M  V30 5499 H 532.777 -0.801014 -1.37002 0
M  V30 5500 H 532.798 0.470331 -3.77582 0
M  V30 5501 H 532.31 -1.34927 -3.63891 0
M  V30 5502 H 530.411 1.11507 -3.55523 0
M  V30 5503 H 530.524 -0.316332 -4.78055 0
M  V30 5504 H 528.888 -0.0714961 -2.546 0
M  V30 5505 H 529.671 -1.68212 -2.99265 0
M  V30 5506 N 532.116 1.54067 -0.331816 0
M  V30 5507 C 533.393 1.92915 0.322955 0
M  V30 5508 C 533.773 1.26225 1.69205 0
M  V30 5509 O 533.121 0.408919 2.24811 0
M  V30 5510 C 533.331 3.46619 0.406946 0
M  V30 5511 C 534.679 4.19386 0.663339 0
M  V30 5512 O 535.703 3.5282 0.489536 0
M  V30 5513 O 534.562 5.37288 0.999193 0
M  V30 5514 H 531.656 0.805808 0.186016 0
M  V30 5515 H 534.202 1.65342 -0.382135 0
M  V30 5516 H 532.974 3.87354 -0.554287 0
M  V30 5517 H 532.597 3.80324 1.15929 0
M  V30 5518 N 533.594 0.0601682 1.57485 0
M  V30 5519 C 534.834 -0.615384 1.94916 0
M  V30 5520 C 535.198 -1.67475 0.938948 0
M  V30 5521 O 536.399 -2.40502 1.20051 0
M  V30 5522 C 534.67 -1.18788 3.37082 0
M  V30 5523 S 536.229 -1.88018 3.96478 0
M  V30 5524 H 533.047 -0.201821 0.681754 0
M  V30 5525 H 535.649 0.131252 1.95059 0
M  V30 5526 H 534.353 -0.404869 4.08398 0
M  V30 5527 H 533.884 -1.97114 3.40455 0
M  V30 5528 H 535.899 -3.16161 3.82435 0
M  V30 5529 N 535.072 -1.5615 -0.213296 0
M  V30 5530 C 536.019 -1.93086 -1.26437 0
M  V30 5531 C 536.989 -0.789086 -1.4616 0
M  V30 5532 O 538.174 -1.04569 -1.59593 0
M  V30 5533 C 535.314 -2.26003 -2.608 0
M  V30 5534 C 534.427 -3.53156 -2.48807 0
M  V30 5535 C 533.562 -3.7548 -3.7575 0
M  V30 5536 C 532.601 -4.96119 -3.58514 0
M  V30 5537 N 531.738 -5.14791 -4.77425 0
M  V30 5538 H 536.578 -2.82707 -0.942376 0
M  V30 5539 H 534.115 -1.39919 -0.454001 0
M  V30 5540 H 536.073 -2.431 -3.39055 0
M  V30 5541 H 534.703 -1.39546 -2.91079 0
M  V30 5542 H 533.755 -3.44207 -1.61944 0
M  V30 5543 H 535.067 -4.41565 -2.31996 0
M  V30 5544 H 534.221 -3.92718 -4.62447 0
M  V30 5545 H 532.96 -2.85368 -3.95495 0
M  V30 5546 H 531.965 -4.78823 -2.70201 0
M  V30 5547 H 533.19 -5.87724 -3.40231 0
M  V30 5548 H 531.136 -4.27623 -4.97468 0
M  V30 5549 H 531.053 -5.97347 -4.63371 0
M  V30 5550 H 532.321 -5.36471 -5.65525 0
M  V30 5551 N 536.55 0.480323 -1.50102 0
M  V30 5552 C 537.497 1.57946 -1.6829 0
M  V30 5553 C 538.467 1.57611 -0.524223 0
M  V30 5554 O 539.652 1.75282 -0.753709 0
M  V30 5555 C 536.792 2.95978 -1.77457 0
M  V30 5556 C 535.905 3.06173 -3.04766 0
M  V30 5557 C 535.04 4.35063 -3.04784 0
M  V30 5558 C 534.079 4.38966 -4.26586 0
M  V30 5559 N 533.216 5.59314 -4.24396 0
M  V30 5560 H 538.056 1.41743 -2.62131 0
M  V30 5561 H 535.593 0.689304 -1.2995 0
M  V30 5562 H 537.551 3.76011 -1.80752 0
M  V30 5563 H 536.181 3.10837 -0.870637 0
M  V30 5564 H 535.233 2.19071 -3.10986 0
M  V30 5565 H 536.545 3.04916 -3.9475 0
M  V30 5566 H 535.699 5.23436 -3.06757 0
M  V30 5567 H 534.438 4.38915 -2.12614 0
M  V30 5568 H 533.443 3.48992 -4.24835 0
M  V30 5569 H 534.668 4.36813 -5.19972 0
M  V30 5570 H 532.614 5.63969 -3.35074 0
M  V30 5571 H 532.531 5.5976 -5.08138 0
M  V30 5572 H 533.799 6.49837 -4.30502 0
M  V30 5573 N 538.028 1.39524 0.732853 0
M  V30 5574 C 539.256 1.40143 1.52209 0
M  V30 5575 C 539.671 -0.00348836 1.888 0
M  V30 5576 O 539.028 -0.975357 1.5425 0
M  V30 5577 C 539.079 2.27632 2.8083 0
M  V30 5578 O 538.8 3.62654 2.45792 0
M  V30 5579 C 540.301 2.36658 3.74844 0
M  V30 5580 H 537.521 0.478604 0.470297 0
M  V30 5581 H 540.065 1.83366 0.905388 0
M  V30 5582 H 538.22 1.87818 3.38826 0
M  V30 5583 H 538.634 4.08941 3.28431 0
M  V30 5584 H 540.108 3.02118 4.61984 0
M  V30 5585 H 540.585 1.38638 4.16745 0
M  V30 5586 H 541.191 2.76951 3.22766 0
M  V30 5587 N 539.506 -0.963266 1.24736 0
M  V30 5588 C 540.755 -1.70115 1.08369 0
M  V30 5589 C 541.068 -1.91939 -0.376688 0
M  V30 5590 O 542.274 -2.6334 -0.660624 0
M  V30 5591 C 540.73 -3.06218 1.89099 0
M  V30 5592 C 540.338 -2.92221 3.39574 0
M  V30 5593 C 542.082 -3.83848 1.81275 0
M  V30 5594 C 539.989 -4.23662 4.12631 0
M  V30 5595 H 538.919 -0.637944 0.401924 0
M  V30 5596 H 541.57 -1.07304 1.48856 0
M  V30 5597 H 539.952 -3.69884 1.41429 0
M  V30 5598 H 541.126 -2.37541 3.94856 0
M  V30 5599 H 539.441 -2.28054 3.48397 0
M  V30 5600 H 542.038 -4.81188 2.33158 0
M  V30 5601 H 542.381 -4.08949 0.778895 0
M  V30 5602 H 542.914 -3.26918 2.26649 0
M  V30 5603 H 539.653 -4.03753 5.16395 0
M  V30 5604 H 539.173 -4.78141 3.62135 0
M  V30 5605 H 540.852 -4.92256 4.19873 0
M  V30 5606 N 540.985 -1.06182 -1.16461 0
M  V30 5607 C 542.231 -0.779015 -1.87241 0
M  V30 5608 C 542.564 0.692715 -1.81425 0
M  V30 5609 O 541.839 1.5074 -1.22913 0
M  V30 5610 C 542.122 -1.2728 -3.36856 0
M  V30 5611 C 541.975 -2.80821 -3.51368 0
M  V30 5612 C 543.294 -0.879799 -4.31216 0
M  V30 5613 H 540.413 -0.284464 -0.679889 0
M  V30 5614 H 543.055 -1.31755 -1.36896 0
M  V30 5615 H 541.205 -0.814673 -3.79862 0
M  V30 5616 H 542.877 -3.34833 -3.17308 0
M  V30 5617 H 541.12 -3.19606 -2.93316 0
M  V30 5618 H 541.791 -3.10435 -4.56436 0
M  V30 5619 H 544.267 -1.27436 -3.96105 0
M  V30 5620 H 543.143 -1.25278 -5.34412 0
M  V30 5621 H 543.404 0.215372 -4.41575 0
M  V30 5622 N 542.463 1.3308 -0.844243 0
M  V30 5623 C 543.411 2.31028 -0.269954 0
M  V30 5624 C 544.405 1.58381 0.600997 0
M  V30 5625 O 545.611 1.73203 0.48996 0
M  V30 5626 H 541.986 0.748866 -0.0685782 0
M  V30 5627 H 543.957 2.76967 -1.11049 0
M  V30 5628 C 542.706 3.43549 0.535676 0
M  V30 5629 H 542.029 3.99604 -0.125202 0
M  V30 5630 H 543.469 4.14267 0.903262 0
M  V30 5631 C 541.928 2.8988 1.71672 0
M  V30 5632 O 542.458 2.86511 2.81557 0
M  V30 5633 N 540.664 2.46416 1.54037 0
M  V30 5634 H 540.211 2.49356 0.64649 0
M  V30 5635 H 540.169 2.1086 2.33207 0
M  V30 5636 N 543.941 0.601185 1.45683 0
M  V30 5637 C 545.218 0.0261659 1.95582 0
M  V30 5638 C 545.598 -1.4399 1.5437 0
M  V30 5639 O 544.946 -2.13919 0.80318 0
M  V30 5640 C 545.156 0.217557 3.48321 0
M  V30 5641 C 546.504 0.0950076 4.24494 0
M  V30 5642 O 547.528 0.147345 3.55895 0
M  V30 5643 O 546.387 -0.025261 5.46494 0
M  V30 5644 H 543.481 -0.0393688 0.826062 0
M  V30 5645 H 546.027 0.670798 1.55879 0
M  V30 5646 H 544.799 1.23601 3.71266 0
M  V30 5647 H 544.422 -0.46264 3.94899 0
M  V30 5648 N 545.419 -1.53889 0.339982 0
M  V30 5649 C 546.644 -2.05741 -0.261798 0
M  V30 5650 C 547.069 -1.21354 -1.43718 0
M  V30 5651 O 546.427 -0.22645 -1.7988 0
M  V30 5652 C 546.475 -3.54542 -0.658228 0
M  V30 5653 O 545.579 -3.7302 -1.75869 0
M  V30 5654 H 544.92 -0.662529 -0.0441672 0
M  V30 5655 H 547.45 -1.98568 0.493161 0
M  V30 5656 H 547.46 -3.9711 -0.936368 0
M  V30 5657 H 546.135 -4.15412 0.201358 0
M  V30 5658 H 544.712 -3.42355 -1.47809 0
M  V30 5659 N 546.897 -0.0685191 -1.57451 0
M  V30 5660 C 548.313 0.288101 -1.56978 0
M  V30 5661 C 548.513 1.70262 -1.07765 0
M  V30 5662 O 547.569 2.4135 -0.742054 0
M  V30 5663 C 548.882 0.100745 -3.00531 0
M  V30 5664 C 550.43 0.170531 -3.12535 0
M  V30 5665 C 550.905 0.0114944 -4.57999 0
M  V30 5666 N 552.396 0.0672065 -4.63151 0
M  V30 5667 C 553.131 -0.0314813 -5.73391 0
M  V30 5668 N 552.627 -0.183503 -6.92557 0
M  V30 5669 N 554.42 0.0253489 -5.62094 0
M  V30 5670 H 546.571 -0.993026 -1.87757 0
M  V30 5671 H 548.834 -0.386981 -0.865419 0
M  V30 5672 H 548.54 -0.875197 -3.40636 0
M  V30 5673 H 548.414 0.854457 -3.67395 0
M  V30 5674 H 550.801 1.13696 -2.72318 0
M  V30 5675 H 550.882 -0.614229 -2.48316 0
M  V30 5676 H 550.526 -0.951684 -4.98904 0
M  V30 5677 H 550.456 0.815617 -5.20245 0
M  V30 5678 H 552.947 0.183246 -3.77455 0
M  V30 5679 H 553.26 -0.251041 -7.72392 0
M  V30 5680 H 551.605 -0.218822 -6.94655 0
M  V30 5681 H 554.796 0.142794 -4.67882 0
M  V30 5682 H 554.969 -0.0550166 -6.47977 0
M  V30 5683 N 548.375 1.56261 0.205012 0
M  V30 5684 C 549.285 1.96944 1.27476 0
M  V30 5685 C 550.301 0.875636 1.50362 0
M  V30 5686 O 551.477 1.18058 1.6317 0
M  V30 5687 C 548.542 2.29219 2.60115 0
M  V30 5688 C 547.603 3.52255 2.45387 0
M  V30 5689 C 546.836 3.8298 3.71701 0
M  V30 5690 O 547.059 3.15138 4.75441 0
M  V30 5691 O 545.993 4.76435 3.67823 0
M  V30 5692 H 549.819 2.88144 0.959527 0
M  V30 5693 H 547.404 1.43686 0.409217 0
M  V30 5694 H 549.286 2.51098 3.3842 0
M  V30 5695 H 547.961 1.4119 2.91285 0
M  V30 5696 H 546.868 3.35635 1.65227 0
M  V30 5697 H 548.201 4.40719 2.19152 0
M  V30 5698 N 549.853 -0.472356 1.50355 0
M  V30 5699 C 551.078 -1.25251 1.65309 0
M  V30 5700 C 551.503 -1.85081 0.335643 0
M  V30 5701 O 550.861 -1.67227 -0.700335 0
M  V30 5702 C 550.909 -2.3379 2.74544 0
M  V30 5703 O 550.013 -3.38401 2.35709 0
M  V30 5704 H 549.354 -0.368539 0.552336 0
M  V30 5705 H 551.884 -0.562271 1.96722 0
M  V30 5706 H 551.894 -2.79121 2.97583 0
M  V30 5707 H 550.569 -1.89614 3.70161 0
M  V30 5708 H 549.146 -2.9879 2.23112 0
M  V30 5709 N 551.331 -1.39911 -0.725443 0
M  V30 5710 C 552.571 -1.39096 -1.49772 0
M  V30 5711 C 552.935 0.0106452 -1.91997 0
M  V30 5712 O 554.136 0.143859 -2.68415 0
M  V30 5713 C 552.407 -2.34441 -2.69764 0
M  V30 5714 S 553.966 -2.51898 -3.59295 0
M  V30 5715 H 550.784 -0.49314 -0.512186 0
M  V30 5716 H 553.386 -1.76093 -0.849197 0
M  V30 5717 H 552.09 -3.35123 -2.36898 0
M  V30 5718 H 551.621 -1.98692 -3.39537 0
M  V30 5719 H 553.636 -1.76402 -4.63785 0
M  V30 5720 N 552.809 0.956637 -1.25245 0
M  V30 5721 C 554.055 1.70352 -1.10036 0
M  V30 5722 C 554.388 1.90869 0.358156 0
M  V30 5723 O 553.663 1.47819 1.26411 0
M  V30 5724 C 553.946 3.08766 -1.85298 0
M  V30 5725 C 553.799 2.95672 -3.38966 0
M  V30 5726 C 555.118 4.08622 -1.63451 0
M  V30 5727 H 552.237 0.618279 -0.401123 0
M  V30 5728 H 554.879 1.11212 -1.54051 0
M  V30 5729 H 553.029 3.59252 -1.47887 0
M  V30 5730 H 554.701 2.52527 -3.86041 0
M  V30 5731 H 552.944 2.31634 -3.6678 0
M  V30 5732 H 553.615 3.93776 -3.86839 0
M  V30 5733 H 556.091 3.67038 -1.96015 0
M  V30 5734 H 554.967 5.03514 -2.18551 0
M  V30 5735 H 555.228 4.3834 -0.575357 0
M  V30 5736 N 554.287 1.06798 1.15896 0
M  V30 5737 C 555.197 0.694564 2.24083 0
M  V30 5738 C 556.213 -0.291687 1.71538 0
M  V30 5739 O 557.389 -0.139723 2.00915 0
M  V30 5740 C 554.454 0.0921014 3.46578 0
M  V30 5741 C 553.515 1.13087 4.14137 0
M  V30 5742 C 552.748 0.557064 5.30785 0
M  V30 5743 O 552.971 -0.628623 5.66925 0
M  V30 5744 O 551.905 1.29924 5.8771 0
M  V30 5745 H 555.731 1.59663 2.58344 0
M  V30 5746 H 553.316 0.840575 1.2351 0
M  V30 5747 H 555.198 -0.241884 4.20705 0
M  V30 5748 H 553.873 -0.78337 3.14078 0
M  V30 5749 H 552.78 1.51712 3.41957 0
M  V30 5750 H 554.113 1.97805 4.50704 0
M  V30 5751 N 555.766 -1.3263 0.851289 0
M  V30 5752 C 556.676 -2.32722 0.296268 0
M  V30 5753 C 557.692 -1.63901 -0.584162 0
M  V30 5754 O 558.868 -1.95465 -0.485334 0
M  V30 5755 C 555.933 -3.42942 -0.509103 0
M  V30 5756 C 554.994 -4.2746 0.397069 0
M  V30 5757 C 554.227 -5.32416 -0.36996 0
M  V30 5758 O 554.45 -5.47491 -1.6003 0
M  V30 5759 O 553.384 -6.01327 0.262493 0
M  V30 5760 H 557.21 -2.82078 1.12543 0
M  V30 5761 H 554.795 -1.36194 0.614135 0
M  V30 5762 H 556.677 -4.1017 -0.96634 0
M  V30 5763 H 555.352 -2.95781 -1.31512 0
M  V30 5764 H 554.259 -3.63053 0.902411 0
M  V30 5765 H 555.592 -4.78136 1.16818 0
M  V30 5766 N 557.244 -0.608902 -1.45362 0
M  V30 5767 C 558.192 0.121639 -2.32282 0
M  V30 5768 C 559.186 0.858301 -1.46046 0
M  V30 5769 O 560.392 0.773718 -1.62523 0
M  V30 5770 H 556.767 0.058086 -0.749753 0
M  V30 5771 H 558.738 -0.629866 -2.91677 0
M  V30 5772 C 557.487 1.1047 -3.29684 0
M  V30 5773 H 556.81 0.547278 -3.96036 0
M  V30 5774 H 558.25 1.58576 -3.9323 0
M  V30 5775 C 556.709 2.17891 -2.56954 0
M  V30 5776 O 557.239 3.25652 -2.35189 0
M  V30 5777 N 555.445 1.93211 -2.17066 0
M  V30 5778 H 554.992 1.05584 -2.34967 0
M  V30 5779 H 554.95 2.6529 -1.68727 0
M  V30 5780 N 558.722 1.53707 -0.348139 0
M  V30 5781 C 559.999 1.93247 0.302475 0
M  V30 5782 C 560.379 1.28012 1.67857 0
M  V30 5783 O 559.727 0.43274 2.24365 0
M  V30 5784 C 559.937 3.47031 0.370159 0
M  V30 5785 C 561.285 4.20066 0.61882 0
M  V30 5786 O 562.309 3.53319 0.452087 0
M  V30 5787 O 561.168 5.38318 0.94215 0
M  V30 5788 H 558.262 0.807736 0.177458 0
M  V30 5789 H 560.808 1.64927 -0.399651 0
M  V30 5790 H 559.58 3.86745 -0.59534 0
M  V30 5791 H 559.203 3.81532 1.11888 0
M  V30 5792 N 560.2 0.0768682 1.57412 0
M  V30 5793 C 561.477 -0.632359 1.85096 0
M  V30 5794 C 561.857 -1.87479 0.9703 0
M  V30 5795 O 561.205 -2.28469 0.0379062 0
M  V30 5796 C 561.415 -0.965174 3.35388 0
M  V30 5797 C 562.763 -1.33648 4.03018 0
M  V30 5798 O 563.787 -1.05675 3.40164 0
M  V30 5799 O 562.646 -1.85959 5.13889 0
M  V30 5800 H 559.74 -0.314574 0.764835 0
M  V30 5801 H 562.286 0.108184 1.69355 0
M  V30 5802 H 561.058 -0.0829745 3.91212 0
M  V30 5803 H 560.681 -1.76231 3.5641 0
M  V30 5804 N 561.678 -1.56367 -0.196722 0
M  V30 5805 C 562.625 -1.94417 -1.24382 0
M  V30 5806 C 563.595 -0.804543 -1.45315 0
M  V30 5807 O 564.78 -1.06256 -1.58475 0
M  V30 5808 C 561.92 -2.28757 -2.58388 0
M  V30 5809 C 561.033 -3.55775 -2.45047 0
M  V30 5810 C 560.168 -3.79445 -3.71746 0
M  V30 5811 C 559.207 -4.99894 -3.53231 0
M  V30 5812 N 558.344 -5.19826 -4.71938 0
M  V30 5813 H 563.184 -2.83691 -0.912338 0
M  V30 5814 H 560.721 -1.40392 -0.439135 0
M  V30 5815 H 562.679 -2.46682 -3.36457 0
M  V30 5816 H 561.309 -1.42625 -2.89582 0
M  V30 5817 H 560.361 -3.45905 -1.58284 0
M  V30 5818 H 561.673 -4.44 -2.27299 0
M  V30 5819 H 560.827 -3.97601 -4.58256 0
M  V30 5820 H 559.566 -2.89546 -3.92446 0
M  V30 5821 H 558.571 -4.81662 -2.65107 0
M  V30 5822 H 559.796 -5.913 -3.33978 0
M  V30 5823 H 557.742 -4.32875 -4.92905 0
M  V30 5824 H 557.659 -6.02228 -4.57009 0
M  V30 5825 H 558.927 -5.42439 -5.59803 0
M  V30 5826 N 563.156 0.464375 -1.50603 0
M  V30 5827 C 564.405 1.21277 -1.61167 0
M  V30 5828 C 564.718 1.92953 -0.320704 0
M  V30 5829 O 565.924 2.69778 -0.30534 0
M  V30 5830 C 564.38 2.20403 -2.84518 0
M  V30 5831 C 563.988 1.54499 -4.20516 0
M  V30 5832 C 565.732 2.95843 -3.0443 0
M  V30 5833 C 563.639 2.51951 -5.35047 0
M  V30 5834 H 562.569 0.456367 -0.600204 0
M  V30 5835 H 565.22 0.48254 -1.77042 0
M  V30 5836 H 563.602 2.96746 -2.62217 0
M  V30 5837 H 564.776 0.83899 -4.53098 0
M  V30 5838 H 563.091 0.913152 -4.06264 0
M  V30 5839 H 565.688 3.6879 -3.87167 0
M  V30 5840 H 566.031 3.55622 -2.16423 0
M  V30 5841 H 566.564 2.26611 -3.26944 0
M  V30 5842 H 563.303 1.96901 -6.25228 0
M  V30 5843 H 562.823 3.20683 -5.06875 0
M  V30 5844 H 564.502 3.13643 -5.65895 0
M  V30 5845 N 564.634 1.40294 0.718013 0
M  V30 5846 C 565.862 1.4175 1.50714 0
M  V30 5847 C 566.277 0.0165366 1.88793 0
M  V30 5848 O 565.634 -0.958942 1.55276 0
M  V30 5849 C 565.685 2.30598 2.784 0
M  V30 5850 O 565.406 3.6524 2.41932 0
M  V30 5851 C 566.907 2.4062 3.72313 0
M  V30 5852 H 564.127 0.483565 0.465194 0
M  V30 5853 H 566.671 1.84316 0.885889 0
M  V30 5854 H 564.826 1.91401 3.36815 0
M  V30 5855 H 565.24 4.12402 3.24076 0
M  V30 5856 H 566.714 3.07001 4.58753 0
M  V30 5857 H 567.191 1.4305 4.15251 0
M  V30 5858 H 567.797 2.80359 3.19811 0
M  V30 5859 N 566.112 -0.949982 1.2575 0
M  V30 5860 C 567.044 -2.05088 1.02331 0
M  V30 5861 C 568.057 -1.62795 -0.0133247 0
M  V30 5862 O 569.246 -1.77067 0.225759 0
M  V30 5863 C 566.346 -3.34794 0.525924 0
M  V30 5864 C 565.519 -4.05903 1.62978 0
M  V30 5865 C 564.578 -5.1388 1.13196 0
M  V30 5866 O 563.604 -5.39072 1.82729 0
M  V30 5867 N 564.806 -5.80495 -0.0242926 0
M  V30 5868 H 567.571 -2.25747 1.97125 0
M  V30 5869 H 565.132 -1.11886 1.17018 0
M  V30 5870 H 567.124 -4.04312 0.177263 0
M  V30 5871 H 565.694 -3.10872 -0.328202 0
M  V30 5872 H 564.914 -3.3042 2.1498 0
M  V30 5873 H 566.202 -4.50166 2.37124 0
M  V30 5874 H 565.6 -5.62454 -0.605184 0
M  V30 5875 H 564.157 -6.51043 -0.313947 0
M  V30 5876 N 567.59 -1.07411 -1.15328 0
M  V30 5877 C 568.553 -0.698914 -2.18284 0
M  V30 5878 C 569.553 0.261149 -1.58665 0
M  V30 5879 O 570.743 0.0420277 -1.74149 0
M  V30 5880 C 567.875 -0.0302427 -3.40887 0
M  V30 5881 H 569.068 -1.61045 -2.52991 0
M  V30 5882 H 566.621 -0.870724 -1.298 0
M  V30 5883 H 567.356 0.893505 -3.11748 0
M  V30 5884 H 567.141 -0.720759 -3.85419 0
M  V30 5885 H 568.631 0.21759 -4.17033 0
M  V30 5886 N 569.068 1.32177 -0.85831 0
M  V30 5887 C 570.293 2.01847 -0.476718 0
M  V30 5888 C 570.718 1.64065 0.920021 0
M  V30 5889 O 570.076 0.843189 1.60499 0
M  V30 5890 C 570.124 3.55097 -0.627578 0
M  V30 5891 O 569.228 4.11012 0.338086 0
M  V30 5892 H 568.569 0.635907 -0.191099 0
M  V30 5893 H 571.099 1.68641 -1.15851 0
M  V30 5894 H 571.109 4.04718 -0.516476 0
M  V30 5895 H 569.784 3.81938 -1.64609 0
M  V30 5896 H 568.361 3.72451 0.182917 0
M  V30 5897 N 570.547 0.616602 1.45037 0
M  V30 5898 C 571.479 -0.135186 2.28801 0
M  V30 5899 C 572.492 -0.82303 1.40464 0
M  V30 5900 O 573.681 -0.686909 1.64754 0
M  V30 5901 C 570.781 -1.21292 3.16451 0
M  V30 5902 C 569.954 -0.61043 4.3312 0
M  V30 5903 C 569.013 -1.58022 5.01912 0
M  V30 5904 O 568.039 -1.10301 5.58411 0
M  V30 5905 N 569.241 -2.91464 5.02025 0
M  V30 5906 H 572.006 0.583612 2.93963 0
M  V30 5907 H 569.567 0.456723 1.55324 0
M  V30 5908 H 571.559 -1.86169 3.59337 0
M  V30 5909 H 570.129 -1.83412 2.53138 0
M  V30 5910 H 569.349 0.216638 3.93604 0
M  V30 5911 H 570.637 -0.188293 5.08451 0
M  V30 5912 H 570.035 -3.32829 4.57429 0
M  V30 5913 H 568.592 -3.51741 5.48745 0
M  V30 5914 N 572.025 -1.5352 0.356285 0
M  V30 5915 C 573.25 -2.06007 -0.239961 0
M  V30 5916 C 573.675 -1.22872 -1.42422 0
M  V30 5917 O 573.033 -0.245516 -1.7963 0
M  V30 5918 C 573.081 -3.5522 -0.620587 0
M  V30 5919 O 572.185 -3.74864 -1.71902 0
M  V30 5920 H 571.526 -0.662961 -0.0371377 0
M  V30 5921 H 574.056 -1.98033 0.514194 0
M  V30 5922 H 574.066 -3.98081 -0.894197 0
M  V30 5923 H 572.741 -4.15175 0.245407 0
M  V30 5924 H 571.318 -3.43904 -1.44169 0
M  V30 5925 N 573.503 -0.0852151 -1.57369 0
M  V30 5926 C 574.435 0.907099 -2.10486 0
M  V30 5927 C 575.448 1.25259 -1.03991 0
M  V30 5928 O 576.637 1.20743 -1.31467 0
M  V30 5929 C 573.737 2.21908 -2.56145 0
M  V30 5930 C 572.91 2.05042 -3.86363 0
M  V30 5931 C 571.969 3.19664 -4.17973 0
M  V30 5932 O 570.995 2.94062 -4.87356 0
M  V30 5933 N 572.197 4.45151 -3.72587 0
M  V30 5934 H 574.962 0.453505 -2.96249 0
M  V30 5935 H 572.523 0.100157 -1.6159 0
M  V30 5936 H 574.515 2.97519 -2.74343 0
M  V30 5937 H 573.085 2.58723 -1.75446 0
M  V30 5938 H 572.305 1.13819 -3.77411 0
M  V30 5939 H 573.593 1.91039 -4.71574 0
M  V30 5940 H 572.991 4.68834 -3.16561 0
M  V30 5941 H 571.548 5.17744 -3.9596 0
M  V30 5942 N 574.981 1.5647 0.188427 0
M  V30 5943 C 575.891 1.98285 1.2538 0
M  V30 5944 C 576.907 0.891535 1.49424 0
M  V30 5945 O 578.083 1.19782 1.61908 0
M  V30 5946 C 575.148 2.31965 2.57669 0
M  V30 5947 C 574.209 3.54838 2.41638 0
M  V30 5948 C 573.442 3.86901 3.67618 0
M  V30 5949 O 573.665 3.20163 4.72072 0
M  V30 5950 O 572.599 4.80309 3.62749 0
M  V30 5951 H 576.425 2.89145 0.928912 0
M  V30 5952 H 574.01 1.44112 0.393955 0
M  V30 5953 H 575.892 2.54673 3.35737 0
M  V30 5954 H 574.567 1.44271 2.89771 0
M  V30 5955 H 573.474 3.37369 1.61658 0
M  V30 5956 H 574.807 4.43019 2.14465 0
M  V30 5957 N 576.459 -0.456382 1.50847 0
M  V30 5958 C 577.684 -1.2349 1.66628 0
M  V30 5959 C 578.109 -1.84715 0.355254 0
M  V30 5960 O 577.467 -1.67961 -0.682559 0
M  V30 5961 C 577.515 -2.30865 2.77009 0
M  V30 5962 O 576.619 -3.35882 2.39285 0
M  V30 5963 H 575.96 -0.36266 0.556214 0
M  V30 5964 H 578.49 -0.541374 1.97308 0
M  V30 5965 H 578.5 -2.75949 3.00526 0
M  V30 5966 H 577.175 -1.85677 3.72152 0
M  V30 5967 H 575.752 -2.96406 2.26269 0
M  V30 5968 N 577.937 -1.40673 -0.710563 0
M  V30 5969 C 578.847 -1.43663 -1.85467 0
M  V30 5970 C 579.863 -0.328721 -1.70867 0
M  V30 5971 O 581.039 -0.574098 -1.93044 0
M  V30 5972 C 578.104 -1.30226 -3.21313 0
M  V30 5973 C 577.165 -2.51204 -3.48131 0
M  V30 5974 C 576.398 -2.38398 -4.77495 0
M  V30 5975 O 576.621 -1.40048 -5.5294 0
M  V30 5976 O 575.555 -3.2787 -5.04762 0
M  V30 5977 H 579.381 -2.40156 -1.859 0
M  V30 5978 H 576.966 -1.22049 -0.861652 0
M  V30 5979 H 578.848 -1.2496 -4.02446 0
M  V30 5980 H 577.523 -0.368419 -3.21597 0
M  V30 5981 H 576.43 -2.62048 -2.66987 0
M  V30 5982 H 577.763 -3.43366 -3.52648 0
M  V30 5983 N 579.415 0.9433 -1.26252 0
M  V30 5984 C 580.692 1.66639 -1.02424 0
M  V30 5985 C 581.072 2.06335 0.446006 0
M  V30 5986 O 580.42 1.78551 1.42589 0
M  V30 5987 C 580.63 2.88019 -1.97094 0
M  V30 5988 C 581.978 3.59718 -2.25584 0
M  V30 5989 O 583.002 2.9812 -1.94943 0
M  V30 5990 O 581.861 4.7066 -2.77743 0
M  V30 5991 H 578.955 0.729643 -0.389294 0
M  V30 5992 H 581.501 0.995218 -1.37454 0
M  V30 5993 H 580.273 2.5556 -2.96319 0
M  V30 5994 H 579.896 3.62863 -1.62532 0
M  V30 5995 N 580.893 1.08022 1.14757 0
M  V30 5996 C 582.123 0.827646 1.89298 0
M  V30 5997 C 582.531 -0.623506 1.78631 0
M  V30 5998 O 581.874 -1.43991 1.14071 0
M  V30 5999 C 581.936 1.16553 3.40082 0
M  V30 6000 C 581.6 2.61866 3.74533 0
M  V30 6001 C 582.597 3.60116 3.74984 0
M  V30 6002 C 580.282 2.97619 4.04633 0
M  V30 6003 C 582.276 4.92151 4.05051 0
M  V30 6004 C 579.963 4.2985 4.34364 0
M  V30 6005 C 580.961 5.26926 4.34555 0
M  V30 6006 O 580.649 6.5678 4.63568 0
M  V30 6007 H 580.381 0.298396 0.606577 0
M  V30 6008 H 582.935 1.44187 1.46285 0
M  V30 6009 H 581.165 0.494296 3.83528 0
M  V30 6010 H 582.854 0.894407 3.95923 0
M  V30 6011 H 583.62 3.33837 3.51821 0
M  V30 6012 H 579.499 2.22702 4.03639 0
M  V30 6013 H 583.043 5.67915 4.05115 0
M  V30 6014 H 578.94 4.55879 4.56995 0
M  V30 6015 H 579.708 6.62035 4.81303 0
M  V30 6016 N 582.371 -1.3172 0.865308 0
M  V30 6017 C 583.596 -2.01591 0.487415 0
M  V30 6018 C 584.021 -1.6455 -0.911307 0
M  V30 6019 O 583.379 -0.851689 -1.6005 0
M  V30 6020 C 583.427 -3.54759 0.646401 0
M  V30 6021 O 582.531 -4.11185 -0.316284 0
M  V30 6022 H 581.872 -0.634884 0.194468 0
M  V30 6023 H 584.402 -1.68024 1.16744 0
M  V30 6024 H 584.412 -4.04438 0.537932 0
M  V30 6025 H 583.087 -3.8106 1.66632 0
M  V30 6026 H 581.664 -3.72543 -0.163162 0
M  V30 6027 N 583.85 -0.624285 -1.44708 0
M  V30 6028 C 584.782 0.12305 -2.28869 0
M  V30 6029 C 585.795 0.81557 -1.40898 0
M  V30 6030 O 586.984 0.678162 -1.65116 0
M  V30 6031 C 584.084 1.19612 -3.1709 0
M  V30 6032 C 583.257 0.587452 -4.33437 0
M  V30 6033 C 582.316 1.55358 -5.02743 0
M  V30 6034 O 581.341 1.07338 -5.58988 0
M  V30 6035 N 582.543 2.88798 -5.03563 0
M  V30 6036 H 585.308 -0.599193 -2.93649 0
M  V30 6037 H 582.87 -0.464954 -1.5508 0
M  V30 6038 H 584.861 1.84261 -3.60319 0
M  V30 6039 H 583.432 1.82067 -2.54107 0
M  V30 6040 H 582.652 -0.237509 -3.93484 0
M  V30 6041 H 583.94 0.161326 -5.08544 0
M  V30 6042 H 583.338 3.30399 -4.59188 0
M  V30 6043 H 581.894 3.48826 -5.50603 0
M  V30 6044 N 585.328 1.53329 -0.364422 0
M  V30 6045 C 586.739 1.86345 0.115039 0
M  V30 6046 C 587.09 1.28505 1.4826 0
M  V30 6047 O 586.215 0.606639 2.07723 0
M  V30 6048 C 586.81 3.38114 0.215522 0
M  V30 6049 C 585.369 3.70932 0.639237 0
M  V30 6050 C 584.516 2.76471 -0.214261 0
M  V30 6051 H 587.467 1.47593 -0.583258 0
M  V30 6052 H 587.488 3.66031 1.0393 0
M  V30 6053 H 587 3.80182 -0.779948 0
M  V30 6054 H 585.101 3.3442 1.64298 0
M  V30 6055 H 585.214 4.77302 0.41465 0
M  V30 6056 H 583.578 2.52724 0.316678 0
M  V30 6057 H 584.361 3.21373 -1.20725 0
M  V30 6058 N 586.806 0.0935595 1.57322 0
M  V30 6059 C 588.031 -0.582324 1.99057 0
M  V30 6060 C 588.456 -1.61025 0.972242 0
M  V30 6061 O 587.814 -1.81202 -0.0594622 0
M  V30 6062 C 587.862 -1.20799 3.39765 0
M  V30 6063 O 586.966 -2.32382 3.40694 0
M  V30 6064 H 586.307 -0.147884 0.647323 0
M  V30 6065 H 588.837 0.174516 2.03854 0
M  V30 6066 H 588.847 -1.54966 3.77425 0
M  V30 6067 H 587.522 -0.454914 4.13405 0
M  V30 6068 H 586.099 -1.99845 3.14827 0
M  V30 6069 N 588.284 -1.56567 -0.180126 0
M  V30 6070 C 589.512 -1.85618 -0.913972 0
M  V30 6071 C 589.927 -0.677892 -1.7621 0
M  V30 6072 O 589.284 0.353171 -1.7905 0
M  V30 6073 C 589.335 -3.13619 -1.79793 0
M  V30 6074 O 589.056 -4.26906 -0.98402 0
M  V30 6075 C 590.557 -3.55954 -2.64219 0
M  V30 6076 H 587.777 -0.616043 -0.265954 0
M  V30 6077 H 590.321 -2.03681 -0.182872 0
M  V30 6078 H 588.476 -2.97409 -2.48247 0
M  V30 6079 H 588.89 -4.9989 -1.58776 0
M  V30 6080 H 590.364 -4.48444 -3.21873 0
M  V30 6081 H 590.841 -2.79653 -3.38661 0
M  V30 6082 H 591.447 -3.74746 -2.01111 0
M  V30 6083 N 589.762 0.448376 -1.51087 0
M  V30 6084 C 590.987 1.22605 -1.6728 0
M  V30 6085 C 591.412 1.84524 -0.365045 0
M  V30 6086 O 590.77 1.6832 0.673642 0
M  V30 6087 C 590.818 2.29393 -2.78229 0
M  V30 6088 O 589.922 3.34608 -2.41063 0
M  V30 6089 H 589.263 0.359705 -0.558129 0
M  V30 6090 H 591.793 0.530903 -1.97592 0
M  V30 6091 H 591.803 2.74352 -3.01986 0
M  V30 6092 H 590.478 1.83701 -3.73131 0
M  V30 6093 H 589.055 2.95202 -2.27838 0
M  V30 6094 N 591.24 1.41047 0.703093 0
M  V30 6095 C 592.465 1.43537 1.49706 0
M  V30 6096 C 592.89 0.0401853 1.88057 0
M  V30 6097 O 592.248 -0.954785 1.54122 0
M  V30 6098 C 592.296 2.3433 2.74084 0
M  V30 6099 O 591.4 1.79515 3.71279 0
M  V30 6100 H 590.741 0.487454 0.450871 0
M  V30 6101 H 593.271 1.85422 0.86486 0
M  V30 6102 H 593.281 2.49947 3.22476 0
M  V30 6103 H 591.956 3.35708 2.45506 0
M  V30 6104 H 590.533 1.7331 3.30179 0
M  V30 6105 N 592.718 -0.936591 1.26751 0
M  V30 6106 C 593.943 -1.72288 1.15462 0
M  V30 6107 C 594.368 -1.85915 -0.285887 0
M  V30 6108 O 593.726 -1.35272 -1.20711 0
M  V30 6109 C 593.774 -3.10503 1.83359 0
M  V30 6110 O 592.878 -3.96745 1.1255 0
M  V30 6111 H 592.219 -0.52843 0.402067 0
M  V30 6112 H 594.749 -1.17271 1.67656 0
M  V30 6113 H 594.759 -3.60867 1.90365 0
M  V30 6114 H 593.434 -2.99901 2.88153 0
M  V30 6115 H 592.011 -3.55191 1.13551 0
M  V30 6116 N 594.196 -1.08629 -1.14182 0
M  V30 6117 C 595.445 -0.812271 -1.84621 0
M  V30 6118 C 595.758 0.664313 -1.83973 0
M  V30 6119 O 596.964 1.05357 -2.50224 0
M  V30 6120 C 595.42 -1.4031 -3.31423 0
M  V30 6121 C 595.028 -2.91164 -3.40481 0
M  V30 6122 C 596.772 -1.20767 -4.06959 0
M  V30 6123 C 594.679 -3.43373 -4.81507 0
M  V30 6124 H 593.609 -0.30019 -0.691666 0
M  V30 6125 H 596.26 -1.30798 -1.28701 0
M  V30 6126 H 594.642 -0.835096 -3.87094 0
M  V30 6127 H 595.816 -3.5412 -2.94848 0
M  V30 6128 H 594.131 -3.09646 -2.78403 0
M  V30 6129 H 596.728 -1.57237 -5.11058 0
M  V30 6130 H 597.071 -0.147664 -4.16038 0
M  V30 6131 H 597.604 -1.74274 -3.57594 0
M  V30 6132 H 594.343 -4.48958 -4.77616 0
M  V30 6133 H 593.863 -2.85176 -5.27669 0
M  V30 6134 H 595.542 -3.40095 -5.50404 0
M  V30 6135 N 595.674 1.31259 -0.872281 0
M  V30 6136 C 596.923 1.95893 -0.480493 0
M  V30 6137 C 597.236 1.697 0.972688 0
M  V30 6138 O 598.442 2.28214 1.47073 0
M  V30 6139 C 596.898 3.50705 -0.808342 0
M  V30 6140 C 596.506 3.85735 -2.27844 0
M  V30 6141 C 598.25 4.21719 -0.485136 0
M  V30 6142 C 596.157 5.33668 -2.54858 0
M  V30 6143 H 595.087 0.733182 -0.175955 0
M  V30 6144 H 597.738 1.49396 -1.0655 0
M  V30 6145 H 596.12 3.95706 -0.152558 0
M  V30 6146 H 597.294 3.51686 -2.97748 0
M  V30 6147 H 595.609 3.27792 -2.56791 0
M  V30 6148 H 598.206 5.30559 -0.664166 0
M  V30 6149 H 598.549 4.12316 0.574592 0
M  V30 6150 H 599.082 3.82359 -1.09756 0
M  V30 6151 H 595.821 5.48109 -3.59523 0
M  V30 6152 H 595.341 5.69061 -1.8955 0
M  V30 6153 H 597.02 6.00958 -2.39706 0
M  V30 6154 N 597.152 0.631951 1.44375 0
M  V30 6155 C 598.382 0.143658 2.061 0
M  V30 6156 C 598.79 -1.18733 1.47306 0
M  V30 6157 O 598.133 -1.73943 0.590724 0
M  V30 6158 C 598.195 -0.0446102 3.59472 0
M  V30 6159 C 597.859 1.20835 4.40736 0
M  V30 6160 C 598.856 2.13224 4.74164 0
M  V30 6161 C 596.541 1.44399 4.81097 0
M  V30 6162 C 598.535 3.27487 5.46838 0
M  V30 6163 C 596.222 2.58959 5.53519 0
M  V30 6164 C 597.22 3.50329 5.86309 0
M  V30 6165 O 596.908 4.62891 6.57257 0
M  V30 6166 H 596.64 0.0772939 0.671567 0
M  V30 6167 H 599.194 0.866677 1.8622 0
M  V30 6168 H 597.424 -0.822783 3.77845 0
M  V30 6169 H 599.113 -0.487561 4.02961 0
M  V30 6170 H 599.879 1.96253 4.4352 0
M  V30 6171 H 595.758 0.741696 4.54994 0
M  V30 6172 H 599.302 3.98826 5.72349 0
M  V30 6173 H 595.199 2.75873 5.83579 0
M  V30 6174 H 595.967 4.61883 6.75726 0
M  V30 6175 N 598.631 -1.53133 0.372548 0
M  V30 6176 C 599.856 -2.0625 -0.218098 0
M  V30 6177 C 600.281 -1.24375 -1.41111 0
M  V30 6178 O 599.639 -0.264554 -1.79359 0
M  V30 6179 C 599.687 -3.55858 -0.582876 0
M  V30 6180 O 598.791 -3.76667 -1.67917 0
M  V30 6181 H 598.132 -0.663317 -0.030104 0
M  V30 6182 H 600.662 -1.97477 0.535169 0
M  V30 6183 H 600.672 -3.99007 -0.851925 0
M  V30 6184 H 599.347 -4.14892 0.289428 0
M  V30 6185 H 597.924 -3.45413 -1.40513 0
M  V30 6186 N 600.109 -0.101901 -1.5727 0
M  V30 6187 C 601.334 0.571759 -1.99363 0
M  V30 6188 C 601.759 1.60507 -0.980768 0
M  V30 6189 O 601.117 1.81231 0.0498517 0
M  V30 6190 C 601.165 1.18996 -3.404 0
M  V30 6191 O 600.269 2.30572 -3.41922 0
M  V30 6192 H 599.61 0.144449 -0.648098 0
M  V30 6193 H 602.14 -0.185325 -2.03759 0
M  V30 6194 H 602.15 1.52962 -3.78241 0
M  V30 6195 H 600.825 0.432984 -4.1364 0
M  V30 6196 H 599.402 1.98173 -3.15883 0
M  V30 6197 N 601.587 1.56661 0.17182 0
M  V30 6198 C 602.519 1.92934 1.2373 0
M  V30 6199 C 603.532 0.822385 1.40502 0
M  V30 6200 O 604.721 1.10083 1.40514 0
M  V30 6201 C 601.821 2.16651 2.60607 0
M  V30 6202 C 600.994 3.47878 2.6514 0
M  V30 6203 C 600.053 3.60429 3.83377 0
M  V30 6204 O 599.079 4.33051 3.69398 0
M  V30 6205 N 600.281 2.95241 4.99813 0
M  V30 6206 H 603.046 2.84931 0.929205 0
M  V30 6207 H 600.607 1.5781 0.361588 0
M  V30 6208 H 602.599 2.22312 3.38171 0
M  V30 6209 H 601.169 1.3104 2.83809 0
M  V30 6210 H 600.389 3.53879 1.73675 0
M  V30 6211 H 601.677 4.34232 2.6518 0
M  V30 6212 H 601.075 2.3611 5.14071 0
M  V30 6213 H 599.632 3.06499 5.75241 0
M  V30 6214 N 603.065 -0.440357 1.51323 0
M  V30 6215 C 603.975 -1.55955 1.75258 0
M  V30 6216 C 604.991 -1.61933 0.636687 0
M  V30 6217 O 606.167 -1.79231 0.918593 0
M  V30 6218 C 603.232 -2.9196 1.86977 0
M  V30 6219 C 602.293 -2.96122 3.10822 0
M  V30 6220 C 601.526 -4.2564 3.21973 0
M  V30 6221 O 601.749 -5.17851 2.39137 0
M  V30 6222 O 600.683 -4.36025 4.14929 0
M  V30 6223 H 604.509 -1.38673 2.70191 0
M  V30 6224 H 602.094 -0.623055 1.35788 0
M  V30 6225 H 603.976 -3.72682 1.96688 0
M  V30 6226 H 602.651 -3.09375 0.952307 0
M  V30 6227 H 601.558 -2.14366 3.06591 0
M  V30 6228 H 602.891 -2.83651 4.02247 0
M  V30 6229 N 604.543 -1.41418 -0.695603 0
M  V30 6230 C 605.82 -1.31264 -1.45014 0
M  V30 6231 C 606.2 0.0597994 -2.11015 0
M  V30 6232 O 605.548 1.07403 -2.01685 0
M  V30 6233 C 605.758 -2.466 -2.4696 0
M  V30 6234 C 607.106 -2.87763 -3.12214 0
M  V30 6235 O 608.13 -2.46339 -2.57285 0
M  V30 6236 O 606.989 -3.59395 -4.11701 0
M  V30 6237 H 604.083 -0.516576 -0.645816 0
M  V30 6238 H 606.629 -1.53382 -0.726084 0
M  V30 6239 H 605.401 -3.38183 -1.96845 0
M  V30 6240 H 605.024 -2.26358 -3.26876 0
M  V30 6241 N 606.021 0.929856 -1.27246 0
M  V30 6242 C 607.267 1.6798 -1.13625 0
M  V30 6243 C 607.6 1.91586 0.317589 0
M  V30 6244 O 606.875 1.50467 1.23247 0
M  V30 6245 C 607.158 3.04766 -1.91806 0
M  V30 6246 C 607.011 2.88415 -3.45162 0
M  V30 6247 C 608.33 4.05063 -1.72082 0
M  V30 6248 H 605.449 0.609632 -0.414147 0
M  V30 6249 H 608.091 1.0792 -1.56376 0
M  V30 6250 H 606.241 3.56034 -1.55474 0
M  V30 6251 H 607.913 2.44282 -3.91311 0
M  V30 6252 H 606.156 2.23802 -3.71611 0
M  V30 6253 H 606.827 3.85482 -3.95105 0
M  V30 6254 H 609.303 3.62798 -2.03757 0
M  V30 6255 H 608.179 4.98765 -2.29182 0
M  V30 6256 H 608.44 4.37021 -0.668206 0
M  V30 6257 N 607.499 1.09233 1.13605 0
M  V30 6258 C 608.446 0.729921 2.18954 0
M  V30 6259 C 609.416 -0.287916 1.63586 0
M  V30 6260 O 610.601 -0.170003 1.90041 0
M  V30 6261 C 607.741 0.154489 3.44754 0
M  V30 6262 C 606.854 1.22613 4.14234 0
M  V30 6263 C 605.989 0.613657 5.27644 0
M  V30 6264 C 605.028 1.66674 5.8897 0
M  V30 6265 N 604.165 1.07545 6.93814 0
M  V30 6266 H 609.005 1.63257 2.49302 0
M  V30 6267 H 606.542 0.815693 1.22413 0
M  V30 6268 H 608.5 -0.196923 4.16735 0
M  V30 6269 H 607.13 -0.711433 3.14863 0
M  V30 6270 H 606.182 1.69485 3.40557 0
M  V30 6271 H 607.494 2.0238 4.55899 0
M  V30 6272 H 606.648 0.210976 6.06333 0
M  V30 6273 H 605.387 -0.215584 4.87223 0
M  V30 6274 H 604.392 2.07899 5.08978 0
M  V30 6275 H 605.617 2.49861 6.31464 0
M  V30 6276 H 603.563 0.267451 6.55455 0
M  V30 6277 H 603.48 1.81011 7.3401 0
M  V30 6278 H 604.748 0.698906 7.7636 0
M  V30 6279 N 608.977 -1.30795 0.87923 0
M  V30 6280 C 609.887 -2.32041 0.345565 0
M  V30 6281 C 610.903 -1.65103 -0.549265 0
M  V30 6282 O 612.079 -1.9645 -0.443763 0
M  V30 6283 C 609.144 -3.43944 -0.436245 0
M  V30 6284 C 608.205 -4.26521 0.48765 0
M  V30 6285 C 607.438 -5.33081 -0.256943 0
M  V30 6286 O 607.661 -5.50762 -1.48381 0
M  V30 6287 O 606.595 -6.00635 0.389985 0
M  V30 6288 H 610.421 -2.79627 1.18501 0
M  V30 6289 H 608.006 -1.3486 0.642885 0
M  V30 6290 H 609.888 -4.12128 -0.879119 0
M  V30 6291 H 608.563 -2.98504 -1.25208 0
M  V30 6292 H 607.47 -3.61057 0.979216 0
M  V30 6293 H 608.803 -4.75551 1.26933 0
M  V30 6294 N 610.455 -0.639598 -1.44038 0
M  V30 6295 C 611.702 -0.14748 -2.01962 0
M  V30 6296 C 612.03 1.23372 -1.50365 0
M  V30 6297 O 611.285 1.8345 -0.681501 0
M  V30 6298 C 611.584 -0.0925348 -3.5728 0
M  V30 6299 C 611.25 -1.41365 -4.28167 0
M  V30 6300 C 609.912 -1.77545 -4.47248 0
M  V30 6301 C 612.264 -2.2853 -4.68427 0
M  V30 6302 C 609.592 -3.00583 -5.03852 0
M  V30 6303 C 611.944 -3.50846 -5.26393 0
M  V30 6304 C 610.608 -3.8724 -5.43692 0
M  V30 6305 H 609.878 -0.0539666 -0.739032 0
M  V30 6306 H 612.525 -0.827599 -1.72694 0
M  V30 6307 H 610.83 0.670987 -3.86012 0
M  V30 6308 H 612.527 0.304891 -3.99839 0
M  V30 6309 H 609.117 -1.1221 -4.13651 0
M  V30 6310 H 613.301 -2.0187 -4.5339 0
M  V30 6311 H 608.557 -3.28846 -5.15432 0
M  V30 6312 H 612.731 -4.18616 -5.56537 0
M  V30 6313 H 610.358 -4.8266 -5.87319 0
M  V30 6314 N 611.933 1.52934 -0.380664 0
M  V30 6315 C 612.843 2.29921 0.466192 0
M  V30 6316 C 613.859 1.36488 1.07922 0
M  V30 6317 O 615.035 1.69553 1.0869 0
M  V30 6318 C 612.1 3.08468 1.58266 0
M  V30 6319 C 611.161 4.17595 0.995627 0
M  V30 6320 C 610.394 4.92387 2.05889 0
M  V30 6321 O 610.617 4.67184 3.27254 0
M  V30 6322 O 609.551 5.77949 1.68102 0
M  V30 6323 H 613.377 3.03274 -0.160735 0
M  V30 6324 H 610.962 1.48698 -0.144617 0
M  V30 6325 H 612.844 3.57469 2.23145 0
M  V30 6326 H 611.519 2.37937 2.19471 0
M  V30 6327 H 610.426 3.72811 0.310332 0
M  V30 6328 H 611.759 4.90336 0.427918 0
M  V30 6329 N 613.412 0.11024 1.57214 0
M  V30 6330 C 614.828 -0.24638 1.57687 0
M  V30 6331 C 615.028 -1.67344 1.12241 0
M  V30 6332 O 614.084 -2.39298 0.805783 0
M  V30 6333 C 615.397 -0.0210288 3.00693 0
M  V30 6334 C 616.945 -0.0876077 3.12877 0
M  V30 6335 C 617.42 0.10994 4.57868 0
M  V30 6336 N 618.911 0.0556135 4.63167 0
M  V30 6337 C 619.646 0.183495 5.73106 0
M  V30 6338 N 619.142 0.367058 6.91827 0
M  V30 6339 N 620.935 0.123689 5.61964 0
M  V30 6340 H 613.086 1.04246 1.85058 0
M  V30 6341 H 615.349 0.40979 0.854854 0
M  V30 6342 H 615.055 0.965203 3.38196 0
M  V30 6343 H 614.929 -0.756748 3.69531 0
M  V30 6344 H 617.316 -1.06436 2.75237 0
M  V30 6345 H 617.397 0.67985 2.466 0
M  V30 6346 H 617.041 1.08362 4.96206 0
M  V30 6347 H 616.971 -0.677397 5.22225 0
M  V30 6348 H 619.462 -0.0831062 3.77809 0
M  V30 6349 H 619.775 0.455739 7.71455 0
M  V30 6350 H 618.12 0.40292 6.93831 0
M  V30 6351 H 621.311 -0.0186928 4.68096 0
M  V30 6352 H 621.484 0.226797 6.47603 0
M  V30 6353 N 614.89 -1.56749 -0.16351 0
M  V30 6354 C 615.8 -2.00255 -1.2221 0
M  V30 6355 C 616.816 -0.915194 -1.47987 0
M  V30 6356 O 617.992 -1.22342 -1.59982 0
M  V30 6357 C 615.057 -2.36035 -2.53946 0
M  V30 6358 C 614.118 -3.58637 -2.35962 0
M  V30 6359 C 613.351 -3.92701 -3.61416 0
M  V30 6360 O 613.574 -3.27632 -4.66919 0
M  V30 6361 O 612.508 -4.86019 -3.55062 0
M  V30 6362 H 616.334 -2.90586 -0.882794 0
M  V30 6363 H 613.919 -1.44721 -0.370978 0
M  V30 6364 H 615.801 -2.59982 -3.31643 0
M  V30 6365 H 614.476 -1.48863 -2.8744 0
M  V30 6366 H 613.383 -3.39898 -1.5627 0
M  V30 6367 H 614.716 -4.46374 -2.0739 0
M  V30 6368 N 616.368 0.432326 -1.51554 0
M  V30 6369 C 617.278 1.55023 -1.76082 0
M  V30 6370 C 618.294 1.61593 -0.645265 0
M  V30 6371 O 619.47 1.78742 -0.928086 0
M  V30 6372 C 616.535 2.90964 -1.88523 0
M  V30 6373 C 615.596 2.9447 -3.12388 0
M  V30 6374 C 614.829 4.23926 -3.24225 0
M  V30 6375 O 615.052 5.16576 -2.4188 0
M  V30 6376 O 613.986 4.33818 -4.17235 0
M  V30 6377 H 617.812 1.37238 -2.70923 0
M  V30 6378 H 615.397 0.615845 -1.36117 0
M  V30 6379 H 617.279 3.71633 -1.98662 0
M  V30 6380 H 615.954 3.08865 -0.9687 0
M  V30 6381 H 614.861 2.12737 -3.07723 0
M  V30 6382 H 616.194 2.81514 -4.03746 0
M  V30 6383 N 617.846 1.41785 0.688094 0
M  V30 6384 C 619.074 1.44915 1.47673 0
M  V30 6385 C 619.489 0.0565786 1.88715 0
M  V30 6386 O 618.846 -0.92579 1.57275 0
M  V30 6387 C 618.897 2.36452 2.73446 0
M  V30 6388 O 618.618 3.7029 2.34131 0
M  V30 6389 C 620.119 2.48463 3.67125 0
M  V30 6390 H 617.339 0.493324 0.454832 0
M  V30 6391 H 619.883 1.86153 0.846594 0
M  V30 6392 H 618.038 1.98502 3.3268 0
M  V30 6393 H 618.452 4.19183 3.15255 0
M  V30 6394 H 619.926 3.16662 4.52138 0
M  V30 6395 H 620.403 1.51826 4.12123 0
M  V30 6396 H 621.009 2.8708 3.13792 0
M  V30 6397 N 619.324 -0.923095 1.27737 0
M  V30 6398 C 620.256 -2.02871 1.06658 0
M  V30 6399 C 621.269 -1.62786 0.0212095 0
M  V30 6400 O 622.458 -1.76548 0.263267 0
M  V30 6401 C 619.558 -3.33603 0.59682 0
M  V30 6402 C 618.731 -4.02354 1.71551 0
M  V30 6403 C 617.79 -5.11364 1.24071 0
M  V30 6404 O 616.816 -5.35075 1.94123 0
M  V30 6405 N 618.018 -5.80416 0.0988444 0
M  V30 6406 H 620.783 -2.21515 2.01869 0
M  V30 6407 H 618.344 -1.09378 1.19365 0
M  V30 6408 H 620.336 -4.03845 0.262984 0
M  V30 6409 H 618.906 -3.11499 -0.262187 0
M  V30 6410 H 618.126 -3.25786 2.2194 0
M  V30 6411 H 619.414 -4.45035 2.46619 0
M  V30 6412 H 618.812 -5.63611 -0.485743 0
M  V30 6413 H 617.369 -6.51563 -0.17578 0
M  V30 6414 N 620.802 -1.09834 -1.13024 0
M  V30 6415 C 622.079 -0.749225 -1.80682 0
M  V30 6416 C 622.459 0.765171 -1.96744 0
M  V30 6417 O 621.807 1.68912 -1.53886 0
M  V30 6418 C 622.017 -1.49311 -3.15448 0
M  V30 6419 C 623.365 -1.66162 -3.90737 0
M  V30 6420 O 624.389 -1.45597 -3.25085 0
M  V30 6421 O 623.248 -2.00211 -5.08505 0
M  V30 6422 H 620.342 -0.269614 -0.781817 0
M  V30 6423 H 622.888 -1.20078 -1.19914 0
M  V30 6424 H 621.66 -2.52407 -2.99009 0
M  V30 6425 H 621.283 -1.034 -3.8392 0
M  V30 6426 N 622.28 1.30327 -0.886154 0
M  V30 6427 C 623.227 2.28099 -0.352069 0
M  V30 6428 C 624.197 1.56433 0.558397 0
M  V30 6429 O 625.382 1.84492 0.486561 0
M  V30 6430 C 622.522 3.42456 0.426346 0
M  V30 6431 C 621.635 4.28938 -0.513472 0
M  V30 6432 C 620.77 5.30458 0.280657 0
M  V30 6433 C 619.809 6.0859 -0.654556 0
M  V30 6434 N 618.946 7.02022 0.104322 0
M  V30 6435 H 623.786 2.73166 -1.19097 0
M  V30 6436 H 621.323 1.34367 -0.598662 0
M  V30 6437 H 623.281 4.07518 0.893587 0
M  V30 6438 H 621.911 2.98455 1.22981 0
M  V30 6439 H 620.963 3.64173 -1.09921 0
M  V30 6440 H 622.275 4.83399 -1.2299 0
M  V30 6441 H 621.429 6.01273 0.8097 0
M  V30 6442 H 620.168 4.76693 1.03029 0
M  V30 6443 H 619.173 5.36651 -1.19522 0
M  V30 6444 H 620.398 6.64443 -1.4033 0
M  V30 6445 H 618.344 6.50645 0.836472 0
M  V30 6446 H 618.261 7.53979 -0.552453 0
M  V30 6447 H 619.529 7.77077 0.614069 0
M  V30 6448 N 623.758 0.647228 1.43697 0
M  V30 6449 C 624.668 -0.0487997 2.34549 0
M  V30 6450 C 625.684 -0.818586 1.53542 0
M  V30 6451 O 626.86 -0.767195 1.86215 0
M  V30 6452 C 623.925 -1.00734 3.31743 0
M  V30 6453 C 622.986 -0.23515 4.28655 0
M  V30 6454 C 622.219 -1.14803 5.21206 0
M  V30 6455 O 622.442 -2.38717 5.18045 0
M  V30 6456 O 621.376 -0.623667 5.9866 0
M  V30 6457 H 625.202 0.698863 2.9555 0
M  V30 6458 H 622.787 0.407412 1.43738 0
M  V30 6459 H 624.669 -1.55837 3.91526 0
M  V30 6460 H 623.344 -1.73534 2.73254 0
M  V30 6461 H 622.251 0.359319 3.7237 0
M  V30 6462 H 623.584 0.453152 4.9011 0
M  V30 6463 N 625.236 -1.5273 0.388769 0
M  V30 6464 C 626.146 -2.30165 -0.453993 0
M  V30 6465 C 627.162 -1.37058 -1.07197 0
M  V30 6466 O 628.338 -1.70127 -1.0779 0
M  V30 6467 C 625.403 -3.09303 -1.56628 0
M  V30 6468 C 624.464 -4.18117 -0.973467 0
M  V30 6469 C 623.697 -4.93472 -2.03275 0
M  V30 6470 O 623.92 -4.68913 -3.24772 0
M  V30 6471 O 622.854 -5.78833 -1.65034 0
M  V30 6472 H 626.68 -3.03185 0.176816 0
M  V30 6473 H 624.265 -1.4862 0.152501 0
M  V30 6474 H 626.147 -3.58648 -2.21246 0
M  V30 6475 H 624.822 -2.39098 -2.18206 0
M  V30 6476 H 623.729 -3.7297 -0.290556 0
M  V30 6477 H 625.062 -4.90556 -0.401908 0
M  V30 6478 N 626.714 -0.118576 -1.57153 0
M  V30 6479 C 627.939 0.550582 -1.99958 0
M  V30 6480 C 628.364 1.59458 -0.997736 0
M  V30 6481 O 627.722 1.81274 0.0306269 0
M  V30 6482 C 627.77 1.15379 -3.41643 0
M  V30 6483 O 626.874 2.26932 -3.44348 0
M  V30 6484 H 626.215 0.137567 -0.649593 0
M  V30 6485 H 628.745 -0.206926 -2.03551 0
M  V30 6486 H 628.755 1.48942 -3.79843 0
M  V30 6487 H 627.43 0.389087 -4.14076 0
M  V30 6488 H 626.007 1.94812 -3.17967 0
M  V30 6489 N 628.193 1.56834 0.155195 0
M  V30 6490 C 629.439 1.83169 0.870467 0
M  V30 6491 C 629.772 0.698929 1.81187 0
M  V30 6492 O 629.047 -0.298035 1.92203 0
M  V30 6493 C 629.33 3.19965 1.65211 0
M  V30 6494 C 629.183 4.43792 0.732744 0
M  V30 6495 C 630.502 3.53885 2.61636 0
M  V30 6496 H 627.621 0.666288 0.315006 0
M  V30 6497 H 630.263 1.89513 0.135988 0
M  V30 6498 H 628.413 3.14687 2.27825 0
M  V30 6499 H 630.085 4.61148 0.118236 0
M  V30 6500 H 628.328 4.3378 0.0417906 0
M  V30 6501 H 628.999 5.36095 1.31552 0
M  V30 6502 H 631.475 3.5972 2.09143 0
M  V30 6503 H 630.351 4.50648 3.13381 0
M  V30 6504 H 630.612 2.79418 3.42605 0
M  V30 6505 N 629.671 -0.424282 1.51781 0
M  V30 6506 C 630.581 -1.54087 1.76902 0
M  V30 6507 C 631.597 -1.61249 0.653826 0
M  V30 6508 O 632.773 -1.78247 0.937552 0
M  V30 6509 C 629.838 -2.8996 1.90063 0
M  V30 6510 C 628.899 -2.92809 3.13945 0
M  V30 6511 C 628.132 -4.22201 3.26469 0
M  V30 6512 O 628.355 -5.15286 2.44616 0
M  V30 6513 O 627.289 -4.31599 4.1953 0
M  V30 6514 H 631.115 -1.358 2.71647 0
M  V30 6515 H 628.7 -0.608618 1.36441 0
M  V30 6516 H 630.582 -3.70575 2.0063 0
M  V30 6517 H 629.257 -3.08347 0.985067 0
M  V30 6518 H 628.164 -2.11102 3.08847 0
M  V30 6519 H 629.497 -2.79369 4.05233 0
M  V30 6520 N 631.149 -1.42148 -0.680565 0
M  V30 6521 C 632.374 -1.45901 -1.47403 0
M  V30 6522 C 632.799 -0.0700985 -1.87969 0
M  V30 6523 O 632.157 0.930145 -1.55621 0
M  V30 6524 C 632.205 -2.38661 -2.70321 0
M  V30 6525 O 631.309 -1.85399 -3.68376 0
M  V30 6526 H 630.65 -0.494565 -0.443059 0
M  V30 6527 H 633.18 -1.86774 -0.835251 0
M  V30 6528 H 633.19 -2.55046 -3.18458 0
M  V30 6529 H 631.865 -3.39571 -2.40134 0
M  V30 6530 H 630.442 -1.78541 -3.2738 0
M  V30 6531 N 632.627 0.916307 -1.28225 0
M  V30 6532 C 633.852 1.7043 -1.18188 0
M  V30 6533 C 634.277 1.86346 0.256274 0
M  V30 6534 O 633.635 1.37175 1.18544 0
M  V30 6535 C 633.683 3.07546 -1.88275 0
M  V30 6536 O 632.787 3.94904 -1.18848 0
M  V30 6537 H 632.128 0.521967 -0.410423 0
M  V30 6538 H 634.658 1.14589 -1.69501 0
M  V30 6539 H 634.668 3.57793 -1.96082 0
M  V30 6540 H 633.343 2.95279 -2.92887 0
M  V30 6541 H 631.92 3.53339 -1.19187 0
M  V30 6542 N 634.105 1.10431 1.1244 0
M  V30 6543 C 635.035 0.775143 2.20258 0
M  V30 6544 C 636.016 -0.25186 1.68225 0
M  V30 6545 O 637.201 -0.117637 1.93843 0
M  V30 6546 C 634.331 0.206133 3.46688 0
M  V30 6547 C 633.285 1.16382 4.11873 0
M  V30 6548 C 632.611 0.456014 5.32752 0
M  V30 6549 C 633.911 2.5104 4.58013 0
M  V30 6550 H 635.605 1.67665 2.4805 0
M  V30 6551 H 633.151 0.807595 1.19222 0
M  V30 6552 H 635.104 -0.036291 4.21384 0
M  V30 6553 H 633.828 -0.730614 3.18323 0
M  V30 6554 H 632.487 1.39169 3.39157 0
M  V30 6555 H 632.135 -0.485203 5.00654 0
M  V30 6556 H 631.835 1.09466 5.77314 0
M  V30 6557 H 633.359 0.222135 6.10196 0
M  V30 6558 H 634.773 2.32401 5.24083 0
M  V30 6559 H 633.17 3.10789 5.13352 0
M  V30 6560 H 634.24 3.11039 3.71998 0
M  V30 6561 N 635.583 -1.29855 0.893053 0
M  V30 6562 C 636.994 -1.77946 0.564998 0
M  V30 6563 C 637.345 -1.73339 -0.919134 0
M  V30 6564 O 636.47 -1.3152 -1.71847 0
M  V30 6565 C 637.065 -3.23118 1.01883 0
M  V30 6566 C 635.624 -3.69013 0.742051 0
M  V30 6567 C 634.771 -2.50121 1.19727 0
M  V30 6568 H 637.722 -1.16611 1.07646 0
M  V30 6569 H 637.743 -3.78875 0.351249 0
M  V30 6570 H 637.255 -3.26439 2.09903 0
M  V30 6571 H 635.356 -3.71173 -0.325816 0
M  V30 6572 H 635.469 -4.60117 1.33527 0
M  V30 6573 H 633.833 -2.47128 0.616418 0
M  V30 6574 H 634.616 -2.56174 2.28538 0
M  V30 6575 N 637.061 -0.65484 -1.43351 0
M  V30 6576 C 637.991 0.0221809 -2.33489 0
M  V30 6577 C 638.972 0.810272 -1.49561 0
M  V30 6578 O 640.157 0.771426 -1.78221 0
M  V30 6579 C 637.287 0.988117 -3.32947 0
M  V30 6580 C 636.241 0.310026 -4.26876 0
M  V30 6581 C 635.567 1.38752 -5.16384 0
M  V30 6582 C 636.867 -0.798589 -5.16159 0
M  V30 6583 H 638.561 -0.730571 -2.9035 0
M  V30 6584 H 636.107 -0.352773 -1.39612 0
M  V30 6585 H 638.06 1.47067 -3.94904 0
M  V30 6586 H 636.784 1.77205 -2.74346 0
M  V30 6587 H 635.443 -0.152097 -3.66284 0
M  V30 6588 H 635.091 2.16293 -4.54121 0
M  V30 6589 H 634.791 0.939051 -5.80048 0
M  V30 6590 H 636.315 1.87141 -5.81215 0
M  V30 6591 H 637.729 -0.398126 -5.71916 0
M  V30 6592 H 636.126 -1.17163 -5.88552 0
M  V30 6593 H 637.196 -1.65588 -4.55751 0
M  V30 6594 N 638.539 1.52521 -0.396863 0
M  V30 6595 C 639.487 2.28217 0.44943 0
M  V30 6596 C 640.481 1.32416 1.05652 0
M  V30 6597 O 641.687 1.49925 0.996124 0
M  V30 6598 H 638.062 0.733966 0.1637 0
M  V30 6599 H 640.033 2.97658 -0.210367 0
M  V30 6600 C 638.782 3.10713 1.56054 0
M  V30 6601 H 638.105 3.84291 1.10273 0
M  V30 6602 H 639.545 3.66803 2.12677 0
M  V30 6603 C 638.004 2.23499 2.52091 0
M  V30 6604 O 638.534 1.8669 3.55682 0
M  V30 6605 N 636.74 1.8751 2.2201 0
M  V30 6606 H 636.287 2.17643 1.37802 0
M  V30 6607 H 636.245 1.29448 2.86514 0
M  V30 6608 N 640.017 0.126909 1.57088 0
M  V30 6609 C 640.98 -0.806097 2.14557 0
M  V30 6610 C 641.98 -1.18918 1.08236 0
M  V30 6611 O 643.17 -1.11339 1.33975 0
M  V30 6612 C 640.302 -2.09116 2.69227 0
M  V30 6613 H 641.495 -0.306522 2.98329 0
M  V30 6614 H 639.048 -0.122393 1.5582 0
M  V30 6615 H 639.783 -2.63486 1.89065 0
M  V30 6616 H 639.568 -1.82588 3.46993 0
M  V30 6617 H 641.058 -2.75794 3.13572 0
M  V30 6618 N 641.495 -1.56914 -0.146875 0
M  V30 6619 C 642.744 -1.82546 -0.857898 0
M  V30 6620 C 643.057 -0.708169 -1.8233 0
M  V30 6621 O 644.263 -0.850093 -2.57848 0
M  V30 6622 C 642.719 -3.23548 -1.57623 0
M  V30 6623 C 642.327 -4.43212 -0.653224 0
M  V30 6624 C 644.071 -3.58453 -2.27402 0
M  V30 6625 C 641.978 -5.75237 -1.37318 0
M  V30 6626 H 640.908 -0.680786 -0.32411 0
M  V30 6627 H 643.559 -1.83166 -0.110639 0
M  V30 6628 H 641.941 -3.17315 -2.36912 0
M  V30 6629 H 643.115 -4.60682 0.104452 0
M  V30 6630 H 641.43 -4.16351 -0.0638336 0
M  V30 6631 H 644.027 -4.54349 -2.81907 0
M  V30 6632 H 644.37 -2.84516 -3.03901 0
M  V30 6633 H 644.903 -3.66347 -1.55032 0
M  V30 6634 H 641.642 -6.52269 -0.650041 0
M  V30 6635 H 641.162 -5.61703 -2.10357 0
M  V30 6636 H 642.841 -6.18039 -1.91406 0
M  V30 6637 N 642.974 0.416227 -1.52004 0
M  V30 6638 C 643.884 1.53147 -1.77717 0
M  V30 6639 C 644.9 1.609 -0.662368 0
M  V30 6640 O 646.076 1.77747 -0.946991 0
M  V30 6641 C 643.141 2.88948 -1.91598 0
M  V30 6642 C 642.202 2.9114 -3.15493 0
M  V30 6643 C 641.435 4.20464 -3.28703 0
M  V30 6644 O 641.658 5.13981 -2.47345 0
M  V30 6645 O 640.592 4.29368 -4.21813 0
M  V30 6646 H 644.418 1.34357 -2.72363 0
M  V30 6647 H 642.003 0.601373 -1.36762 0
M  V30 6648 H 643.885 3.69505 -2.02593 0
M  V30 6649 H 642.56 3.07821 -1.00141 0
M  V30 6650 H 641.467 2.09461 -3.09962 0
M  V30 6651 H 642.8 2.77216 -4.06709 0
M  V30 6652 N 644.452 1.42507 0.673017 0
M  V30 6653 C 645.863 1.38347 1.25367 0
M  V30 6654 C 646.214 0.0776327 1.96046 0
M  V30 6655 O 645.339 -0.823571 2.00116 0
M  V30 6656 C 645.934 2.506 2.28002 0
M  V30 6657 C 644.493 2.49767 2.81591 0
M  V30 6658 C 643.64 2.293 1.55938 0
M  V30 6659 H 646.591 1.51695 0.466288 0
M  V30 6660 H 646.612 2.20953 3.09774 0
M  V30 6661 H 646.124 3.45627 1.76532 0
M  V30 6662 H 644.225 1.58563 3.37177 0
M  V30 6663 H 644.338 3.46867 3.30485 0
M  V30 6664 H 642.702 1.77594 1.82572 0
M  V30 6665 H 643.485 3.26385 1.06431 0
M  V30 6666 N 645.93 -0.909495 1.28709 0
M  V30 6667 C 647.17 -1.67344 1.17368 0
M  V30 6668 C 647.534 -1.90058 -0.272419 0
M  V30 6669 O 648.735 -2.63944 -0.508617 0
M  V30 6670 C 647.006 -2.99219 1.95455 0
M  V30 6671 S 648.565 -3.90295 2.00538 0
M  V30 6672 H 645.383 -0.57466 0.418672 0
M  V30 6673 H 647.985 -1.08144 1.62865 0
M  V30 6674 H 646.689 -2.80393 2.9968 0
M  V30 6675 H 646.22 -3.63464 1.50524 0
M  V30 6676 H 648.235 -4.83511 1.11496 0
M  V30 6677 N 647.408 -1.11026 -1.11852 0
M  V30 6678 C 648.654 -0.857729 -1.83768 0
M  V30 6679 C 648.987 0.615143 -1.842 0
M  V30 6680 O 648.262 1.45391 -1.29196 0
M  V30 6681 C 648.545 -1.41453 -3.31154 0
M  V30 6682 C 648.398 -2.95471 -3.39142 0
M  V30 6683 C 649.717 -1.0619 -4.27097 0
M  V30 6684 H 646.836 -0.313044 -0.667212 0
M  V30 6685 H 649.478 -1.37443 -1.31185 0
M  V30 6686 H 647.628 -0.975052 -3.76065 0
M  V30 6687 H 649.3 -3.4799 -3.02821 0
M  V30 6688 H 647.543 -3.31759 -2.79497 0
M  V30 6689 H 648.214 -3.29515 -4.42859 0
M  V30 6690 H 650.69 -1.44122 -3.90344 0
M  V30 6691 H 649.566 -1.47832 -5.28618 0
M  V30 6692 H 649.827 0.0278912 -4.42091 0
M  V30 6693 N 648.886 1.2938 -0.899927 0
M  V30 6694 C 650.135 1.9483 -0.521937 0
M  V30 6695 C 650.448 1.71725 0.936473 0
M  V30 6696 O 651.654 2.31282 1.42199 0
M  V30 6697 C 650.11 3.48911 -0.88255 0
M  V30 6698 C 649.718 3.80815 -2.35974 0
M  V30 6699 C 651.462 4.20595 -0.57448 0
M  V30 6700 C 649.369 5.28142 -2.66121 0
M  V30 6701 H 648.299 0.729285 -0.191468 0
M  V30 6702 H 650.95 1.47103 -1.09695 0
M  V30 6703 H 649.332 3.95293 -0.236459 0
M  V30 6704 H 650.506 3.45291 -3.05141 0
M  V30 6705 H 648.821 3.22271 -2.63686 0
M  V30 6706 H 651.418 5.29031 -0.776556 0
M  V30 6707 H 651.761 4.13442 0.487005 0
M  V30 6708 H 652.294 3.79945 -1.17842 0
M  V30 6709 H 649.033 5.4036 -3.71068 0
M  V30 6710 H 648.553 5.64913 -2.01578 0
M  V30 6711 H 650.232 5.95738 -2.52399 0
M  V30 6712 N 650.364 0.662433 1.43002 0
M  V30 6713 C 651.604 0.183312 2.03576 0
M  V30 6714 C 651.968 -1.18354 1.51183 0
M  V30 6715 O 653.169 -1.7566 2.03462 0
M  V30 6716 C 651.44 0.202908 3.56824 0
M  V30 6717 S 652.999 -0.20702 4.38311 0
M  V30 6718 H 649.817 0.0765001 0.706872 0
M  V30 6719 H 652.419 0.872827 1.74934 0
M  V30 6720 H 651.123 1.20028 3.92456 0
M  V30 6721 H 650.654 -0.506845 3.90121 0
M  V30 6722 H 652.669 -1.44358 4.74737 0
M  V30 6723 N 651.842 -1.52309 0.404946 0
M  V30 6724 C 652.774 -2.24579 -0.45791 0
M  V30 6725 C 653.787 -1.2739 -1.01369 0
M  V30 6726 O 654.976 -1.53363 -0.91335 0
M  V30 6727 C 652.076 -2.9608 -1.64893 0
M  V30 6728 C 651.249 -4.20106 -1.21777 0
M  V30 6729 C 650.308 -4.74468 -2.27523 0
M  V30 6730 O 649.334 -5.37157 -1.88285 0
M  V30 6731 N 650.536 -4.55678 -3.59635 0
M  V30 6732 H 653.301 -2.99265 0.161341 0
M  V30 6733 H 650.862 -1.60228 0.232107 0
M  V30 6734 H 652.854 -3.29344 -2.35191 0
M  V30 6735 H 651.424 -2.24606 -2.17419 0
M  V30 6736 H 650.644 -3.92704 -0.343071 0
M  V30 6737 H 651.932 -5.00658 -0.906596 0
M  V30 6738 H 651.33 -4.05673 -3.94266 0
M  V30 6739 H 649.887 -4.9339 -4.25922 0
M  V30 6740 N 653.32 -0.135238 -1.57019 0
M  V30 6741 C 654.568 0.51777 -1.95355 0
M  V30 6742 C 654.889 1.6617 -1.02042 0
M  V30 6743 O 654.159 1.95738 -0.0797343 0
M  V30 6744 H 652.739 0.194264 -0.721298 0
M  V30 6745 H 655.401 -0.207983 -1.93787 0
M  V30 6746 H 654.497 0.901675 -2.98791 0
M  V30 6747 N 654.798 1.5699 0.138552 0
M  V30 6748 C 656.214 1.51844 0.491472 0
M  V30 6749 C 656.414 0.845063 1.82923 0
M  V30 6750 O 655.47 0.419143 2.48997 0
M  V30 6751 C 656.783 2.96615 0.493987 0
M  V30 6752 C 658.331 3.076 0.578913 0
M  V30 6753 C 658.806 4.53893 0.612009 0
M  V30 6754 N 660.297 4.5827 0.673997 0
M  V30 6755 C 661.032 5.68852 0.720729 0
M  V30 6756 N 660.528 6.88982 0.726292 0
M  V30 6757 N 662.321 5.56908 0.762253 0
M  V30 6758 H 654.472 1.99158 -0.738228 0
M  V30 6759 H 656.735 0.908693 -0.270149 0
M  V30 6760 H 656.441 3.49172 -0.420933 0
M  V30 6761 H 656.315 3.53017 1.32887 0
M  V30 6762 H 658.702 2.55057 1.48425 0
M  V30 6763 H 658.783 2.54227 -0.283286 0
M  V30 6764 H 658.427 5.07076 -0.289208 0
M  V30 6765 H 658.357 5.05057 1.49082 0
M  V30 6766 H 660.848 3.71793 0.676654 0
M  V30 6767 H 661.161 7.69014 0.764032 0
M  V30 6768 H 659.506 6.91526 0.69403 0
M  V30 6769 H 662.697 4.61969 0.755135 0
M  V30 6770 H 662.87 6.43102 0.795207 0
M  V30 6771 N 656.276 -0.40816 1.52223 0
M  V30 6772 C 657.687 -0.986929 1.58482 0
M  V30 6773 C 658.038 -1.91521 0.425917 0
M  V30 6774 O 657.163 -2.11593 -0.453593 0
M  V30 6775 C 657.758 -1.7967 2.87235 0
M  V30 6776 C 656.317 -2.32549 2.9597 0
M  V30 6777 C 655.464 -1.12558 2.53428 0
M  V30 6778 H 658.415 -0.188362 1.57578 0
M  V30 6779 H 658.436 -2.65417 2.72642 0
M  V30 6780 H 657.948 -1.12082 3.71563 0
M  V30 6781 H 656.049 -3.03505 2.16137 0
M  V30 6782 H 656.162 -2.63348 4.00231 0
M  V30 6783 H 654.526 -1.47984 2.07299 0
M  V30 6784 H 655.309 -0.465351 3.40131 0
M  V30 6785 N 657.755 -1.42862 -0.66545 0
M  V30 6786 C 658.702 -1.4707 -1.77874 0
M  V30 6787 C 659.672 -0.321654 -1.62956 0
M  V30 6788 O 660.857 -0.52707 -1.83376 0
M  V30 6789 C 657.997 -1.38788 -3.15962 0
M  V30 6790 C 657.11 -2.63801 -3.42101 0
M  V30 6791 C 656.245 -2.47594 -4.69969 0
M  V30 6792 C 655.284 -3.67936 -4.89172 0
M  V30 6793 N 654.421 -3.50614 -6.08288 0
M  V30 6794 H 659.261 -2.42204 -1.73613 0
M  V30 6795 H 656.798 -1.20239 -0.847401 0
M  V30 6796 H 658.756 -1.31982 -3.95773 0
M  V30 6797 H 657.386 -0.472431 -3.19324 0
M  V30 6798 H 656.438 -2.80935 -2.56475 0
M  V30 6799 H 657.75 -3.53228 -3.52181 0
M  V30 6800 H 656.904 -2.38427 -5.57886 0
M  V30 6801 H 655.643 -1.55672 -4.62188 0
M  V30 6802 H 654.648 -3.77525 -3.99694 0
M  V30 6803 H 655.873 -4.60851 -4.98792 0
M  V30 6804 H 653.819 -2.61417 -6.01662 0
M  V30 6805 H 653.736 -4.33634 -6.19272 0
M  V30 6806 H 655.004 -3.45276 -6.98859 0
M  V30 6807 N 659.233 0.902656 -1.29189 0
M  V30 6808 C 660.181 2.0278 -1.13943 0
M  V30 6809 C 661.175 1.69308 -0.055787 0
M  V30 6810 O 662.381 1.78707 -0.215371 0
M  V30 6811 H 658.756 0.664595 -0.351877 0
M  V30 6812 H 660.727 2.12778 -2.09208 0
M  V30 6813 C 659.476 3.37657 -0.82966 0
M  V30 6814 H 658.799 3.63913 -1.65551 0
M  V30 6815 H 660.239 4.17078 -0.762998 0
M  V30 6816 C 658.698 3.33648 0.466991 0
M  V30 6817 O 659.228 3.72886 1.49395 0
M  V30 6818 N 657.434 2.86745 0.471761 0
M  V30 6819 H 656.981 2.55009 -0.364406 0
M  V30 6820 H 656.939 2.84446 1.33933 0
M  V30 6821 N 660.711 1.11618 1.11262 0
M  V30 6822 C 661.959 0.864469 1.82678 0
M  V30 6823 C 662.28 -0.611564 1.85162 0
M  V30 6824 O 661.55 -1.44429 1.32352 0
M  V30 6825 H 660.13 0.316821 0.676486 0
M  V30 6826 H 662.792 1.40894 1.34666 0
M  V30 6827 H 661.888 1.23832 2.86482 0
M  V30 6828 N 662.189 -1.289 0.906776 0
M  V30 6829 C 663.429 -1.97046 0.543329 0
M  V30 6830 C 663.793 -1.69862 -0.895034 0
M  V30 6831 O 664.994 -2.31521 -1.36571 0
M  V30 6832 C 663.265 -3.47489 0.835833 0
M  V30 6833 S 664.824 -4.3498 0.577756 0
M  V30 6834 H 661.642 -0.681908 0.201302 0
M  V30 6835 H 664.244 -1.5657 1.17073 0
M  V30 6836 H 662.948 -3.64768 1.88075 0
M  V30 6837 H 662.479 -3.92907 0.196817 0
M  V30 6838 H 664.494 -4.92868 -0.574052 0
M  V30 6839 N 663.667 -0.670007 -1.42649 0
M  V30 6840 C 664.916 -0.187526 -2.00826 0
M  V30 6841 C 665.229 1.21142 -1.53571 0
M  V30 6842 O 666.435 1.79001 -2.04134 0
M  V30 6843 C 664.891 -0.284409 -3.58774 0
M  V30 6844 C 664.499 -1.6871 -4.15019 0
M  V30 6845 C 666.243 0.139605 -4.2427 0
M  V30 6846 C 664.15 -1.73701 -5.65316 0
M  V30 6847 H 663.08 -0.0663468 -0.751075 0
M  V30 6848 H 665.731 -0.834492 -1.63427 0
M  V30 6849 H 664.113 0.430364 -3.93655 0
M  V30 6850 H 665.287 -2.42857 -3.91608 0
M  V30 6851 H 663.602 -2.05855 -3.61957 0
M  V30 6852 H 666.199 0.122398 -5.3456 0
M  V30 6853 H 666.542 1.17403 -3.99402 0
M  V30 6854 H 667.075 -0.523995 -3.94334 0
M  V30 6855 H 663.814 -2.75109 -5.94975 0
M  V30 6856 H 663.334 -1.03903 -5.90732 0
M  V30 6857 H 665.013 -1.48829 -6.2965 0
M  V30 6858 N 665.145 1.52092 -0.413018 0
M  V30 6859 C 666.391 2.02154 0.161737 0
M  V30 6860 C 666.724 1.29789 1.44459 0
M  V30 6861 O 665.999 0.405378 1.90229 0
M  V30 6862 C 666.282 3.5781 0.405463 0
M  V30 6863 C 666.135 4.40819 -0.894335 0
M  V30 6864 C 667.454 4.23821 1.18591 0
M  V30 6865 H 664.573 0.734769 0.0573077 0
M  V30 6866 H 667.215 1.81948 -0.547247 0
M  V30 6867 H 665.365 3.75158 1.0094 0
M  V30 6868 H 667.037 4.35175 -1.53039 0
M  V30 6869 H 665.28 4.06877 -1.50444 0
M  V30 6870 H 665.951 5.47819 -0.678144 0
M  V30 6871 H 668.427 4.10596 0.674573 0
M  V30 6872 H 667.303 5.32663 1.3252 0
M  V30 6873 H 667.564 3.83038 2.20758 0
M  V30 6874 N 666.623 0.143563 1.56945 0
M  V30 6875 C 667.573 -0.809115 2.1316 0
M  V30 6876 C 668.557 -1.21176 1.05855 0
M  V30 6877 O 669.749 -1.17875 1.3204 0
M  V30 6878 C 666.878 -2.04957 2.75405 0
M  V30 6879 C 665.964 -1.67018 3.89828 0
M  V30 6880 N 666.355 -0.998822 4.9584 0
M  V30 6881 C 664.653 -1.96313 4.00471 0
M  V30 6882 C 665.354 -0.816217 5.75945 0
M  V30 6883 N 664.33 -1.349 5.26596 0
M  V30 6884 H 668.132 -0.286919 2.92496 0
M  V30 6885 H 665.646 -0.0580948 1.62296 0
M  V30 6886 H 667.643 -2.74201 3.14037 0
M  V30 6887 H 666.303 -2.57697 1.97541 0
M  V30 6888 H 667.314 -0.659975 5.13678 0
M  V30 6889 H 663.991 -2.50927 3.33679 0
M  V30 6890 H 665.381 -0.287353 6.71285 0
M  V30 6891 N 668.101 -1.57061 -0.130224 0
M  V30 6892 C 669.349 -1.83893 -0.838313 0
M  V30 6893 C 669.67 -0.727046 -1.80939 0
M  V30 6894 O 668.94 0.249927 -1.94299 0
M  V30 6895 H 667.52 -0.67846 -0.312573 0
M  V30 6896 H 670.182 -1.94529 -0.120224 0
M  V30 6897 H 669.278 -2.79419 -1.39038 0
M  V30 6898 N 669.579 0.400081 -1.52437 0
M  V30 6899 C 670.526 1.48803 -1.76426 0
M  V30 6900 C 671.496 1.5461 -0.607032 0
M  V30 6901 O 672.681 1.71041 -0.845563 0
M  V30 6902 C 669.821 2.86156 -1.92896 0
M  V30 6903 C 668.934 2.89587 -3.20567 0
M  V30 6904 C 668.069 4.18296 -3.27417 0
M  V30 6905 C 667.108 4.15736 -4.49255 0
M  V30 6906 N 666.245 5.36032 -4.53447 0
M  V30 6907 H 671.085 1.27649 -2.69276 0
M  V30 6908 H 668.622 0.619451 -1.33421 0
M  V30 6909 H 670.58 3.65901 -2.00429 0
M  V30 6910 H 669.21 3.05785 -1.03418 0
M  V30 6911 H 668.262 2.02278 -3.22161 0
M  V30 6912 H 669.574 2.83562 -4.10358 0
M  V30 6913 H 668.728 5.06439 -3.34072 0
M  V30 6914 H 667.467 4.27028 -2.35581 0
M  V30 6915 H 666.472 3.25982 -4.42737 0
M  V30 6916 H 667.697 4.08636 -5.42396 0
M  V30 6917 H 665.643 5.45415 -3.64498 0
M  V30 6918 H 665.56 5.32038 -5.37096 0
M  V30 6919 H 666.828 6.26104 -4.64343 0
M  V30 6920 N 671.057 1.43213 0.657864 0
M  V30 6921 C 672.285 1.48015 1.44566 0
M  V30 6922 C 672.7 0.0965951 1.88553 0
M  V30 6923 O 672.057 -0.892221 1.59203 0
M  V30 6924 C 672.108 2.42199 2.68369 0
M  V30 6925 O 671.829 3.75173 2.26223 0
M  V30 6926 C 673.33 2.56195 3.61772 0
M  V30 6927 H 670.55 0.502861 0.444266 0
M  V30 6928 H 673.094 1.87907 0.806917 0
M  V30 6929 H 671.249 2.05514 3.28394 0
M  V30 6930 H 671.663 4.25776 3.06293 0
M  V30 6931 H 673.137 3.26182 4.4532 0
M  V30 6932 H 673.614 1.60534 4.0881 0
M  V30 6933 H 674.22 2.93671 3.07632 0
M  V30 6934 N 672.536 -0.895792 1.29666 0
M  V30 6935 C 673.784 -1.64339 1.17631 0
M  V30 6936 C 674.105 -1.93099 -0.271643 0
M  V30 6937 O 673.375 -1.55981 -1.18518 0
M  V30 6938 H 671.955 -0.609162 0.432354 0
M  V30 6939 H 674.617 -1.07389 1.62646 0
M  V30 6940 H 673.713 -2.59815 1.72924 0
M  V30 6941 N 674.014 -1.12206 -1.10668 0
M  V30 6942 C 674.964 -0.75669 -2.15077 0
M  V30 6943 C 675.948 0.243154 -1.59052 0
M  V30 6944 O 677.14 0.0490268 -1.76932 0
M  V30 6945 C 674.269 -0.210303 -3.42655 0
M  V30 6946 C 673.355 -1.23829 -4.05619 0
M  V30 6947 N 673.746 -2.43513 -4.43323 0
M  V30 6948 C 672.044 -1.08309 -4.32649 0
M  V30 6949 C 672.745 -3.09138 -4.92756 0
M  V30 6950 N 671.721 -2.36593 -4.89413 0
M  V30 6951 H 675.523 -1.66747 -2.42018 0
M  V30 6952 H 673.037 -1.00248 -1.27765 0
M  V30 6953 H 675.034 0.0696287 -4.16842 0
M  V30 6954 H 673.694 0.694967 -3.17176 0
M  V30 6955 H 674.705 -2.80912 -4.35097 0
M  V30 6956 H 671.382 -0.234919 -4.16839 0
M  V30 6957 H 672.772 -4.11049 -5.31496 0
M  V30 6958 N 675.492 1.28418 -0.913599 0
M  V30 6959 C 676.422 2.29713 -0.418847 0
M  V30 6960 C 677.403 1.62165 0.513469 0
M  V30 6961 O 678.588 1.89576 0.421235 0
M  V30 6962 C 675.718 3.45612 0.342042 0
M  V30 6963 C 674.672 4.25056 -0.501123 0
M  V30 6964 C 673.998 5.3329 0.388097 0
M  V30 6965 C 675.298 4.91814 -1.75831 0
M  V30 6966 H 676.992 2.71346 -1.26538 0
M  V30 6967 H 674.538 1.30446 -0.609903 0
M  V30 6968 H 676.491 4.15562 0.699 0
M  V30 6969 H 675.215 3.02858 1.22248 0
M  V30 6970 H 673.874 3.56833 -0.840598 0
M  V30 6971 H 673.522 4.8678 1.26707 0
M  V30 6972 H 673.222 5.87347 -0.172459 0
M  V30 6973 H 674.746 6.06088 0.74094 0
M  V30 6974 H 676.16 5.54126 -1.47026 0
M  V30 6975 H 674.557 5.55866 -2.26126 0
M  V30 6976 H 675.627 4.16313 -2.4862 0
M  V30 6977 N 676.97 0.677563 1.42291 0
M  V30 6978 C 677.903 -0.0492638 2.28147 0
M  V30 6979 C 678.881 -0.805936 1.41221 0
M  V30 6980 O 680.065 -0.80049 1.70659 0
M  V30 6981 C 677.192 -1.07697 3.21122 0
M  V30 6982 C 676.238 -0.41556 4.24471 0
M  V30 6983 S 677.071 0.828876 5.29046 0
M  V30 6984 C 678.227 -0.197687 6.25588 0
M  V30 6985 H 678.46 0.678965 2.89443 0
M  V30 6986 H 675.993 0.467201 1.47162 0
M  V30 6987 H 677.951 -1.66482 3.75225 0
M  V30 6988 H 676.612 -1.77766 2.58956 0
M  V30 6989 H 675.805 -1.19112 4.89723 0
M  V30 6990 H 675.407 0.0987632 3.7387 0
M  V30 6991 H 677.699 -1.05656 6.69211 0
M  V30 6992 H 678.642 0.420437 7.06851 0
M  V30 6993 H 679.05 -0.544401 5.61869 0
M  V30 6994 N 678.448 -1.51871 0.421078 0
M  V30 6995 C 679.411 -2.25914 -0.386712 0
M  V30 6996 C 680.411 -1.28733 -0.963555 0
M  V30 6997 O 681.601 -1.52579 -0.840556 0
M  V30 6998 C 678.733 -3.03853 -1.54551 0
M  V30 6999 H 679.926 -2.98754 0.261978 0
M  V30 7000 H 677.479 -1.5533 0.173862 0
M  V30 7001 H 678.214 -2.35392 -2.23072 0
M  V30 7002 H 677.999 -3.75215 -1.13824 0
M  V30 7003 H 679.489 -3.59984 -2.11663 0
M  V30 7004 N 679.926 -0.151884 -1.56866 0
M  V30 7005 C 681.166 0.500695 -1.98173 0
M  V30 7006 C 681.53 1.61715 -1.03499 0
M  V30 7007 O 682.731 2.33093 -1.33869 0
M  V30 7008 C 681.002 0.989333 -3.43434 0
M  V30 7009 S 682.561 1.64583 -4.06765 0
M  V30 7010 H 679.379 0.16173 -0.692361 0
M  V30 7011 H 681.981 -0.244754 -1.93962 0
M  V30 7012 H 680.685 0.166072 -4.10064 0
M  V30 7013 H 680.216 1.76929 -3.51368 0
M  V30 7014 H 682.231 2.93326 -4.00218 0
M  V30 7015 N 681.404 1.57128 0.121893 0
M  V30 7016 C 682.651 1.847 0.830188 0
M  V30 7017 C 682.979 0.736543 1.80015 0
M  V30 7018 O 682.234 -0.272358 1.93796 0
M  V30 7019 C 682.533 3.1874 1.61677 0
M  V30 7020 C 682.199 4.43901 0.791361 0
M  V30 7021 C 680.861 4.77887 0.563731 0
M  V30 7022 C 683.213 5.20753 0.215823 0
M  V30 7023 C 680.541 5.86168 -0.249737 0
M  V30 7024 C 682.893 6.29891 -0.584821 0
M  V30 7025 C 681.557 6.6241 -0.822794 0
M  V30 7026 H 680.827 0.675866 0.303787 0
M  V30 7027 H 683.474 1.91276 0.0926894 0
M  V30 7028 H 681.779 3.07728 2.42509 0
M  V30 7029 H 683.476 3.37295 2.16872 0
M  V30 7030 H 680.066 4.17272 0.978867 0
M  V30 7031 H 684.25 4.94851 0.378907 0
M  V30 7032 H 679.506 6.0979 -0.44336 0
M  V30 7033 H 683.68 6.88624 -1.03779 0
M  V30 7034 H 681.307 7.46147 -1.45496 0
M  V30 7035 N 682.882 -0.391992 1.52647 0
M  V30 7036 C 684.11 -1.1586 1.71418 0
M  V30 7037 C 684.525 -1.8381 0.431216 0
M  V30 7038 O 683.882 -1.7256 -0.594085 0
M  V30 7039 C 683.933 -2.20888 2.86165 0
M  V30 7040 O 683.654 -1.5571 4.09495 0
M  V30 7041 C 685.155 -3.103 3.1659 0
M  V30 7042 H 682.375 -0.347494 0.574011 0
M  V30 7043 H 684.919 -0.458972 1.99283 0
M  V30 7044 H 683.074 -2.86492 2.6077 0
M  V30 7045 H 683.488 -2.25474 4.73563 0
M  V30 7046 H 684.962 -3.8003 4.00351 0
M  V30 7047 H 685.439 -3.73639 2.30848 0
M  V30 7048 H 686.045 -2.50345 3.43813 0
M  V30 7049 N 684.36 -1.4356 -0.65026 0
M  V30 7050 C 685.6 -1.46839 -1.42188 0
M  V30 7051 C 685.964 -0.0911433 -1.91784 0
M  V30 7052 O 687.165 0.00137545 -2.688 0
M  V30 7053 C 685.436 -2.48411 -2.56957 0
M  V30 7054 S 686.995 -2.70589 -3.45438 0
M  V30 7055 H 683.813 -0.519596 -0.485325 0
M  V30 7056 H 686.415 -1.80347 -0.75466 0
M  V30 7057 H 685.119 -3.47209 -2.18801 0
M  V30 7058 H 684.65 -2.16411 -3.28527 0
M  V30 7059 H 686.665 -2.00738 -4.53782 0
M  V30 7060 N 685.838 0.888903 -1.30139 0
M  V30 7061 C 686.801 1.97576 -1.16174 0
M  V30 7062 C 687.801 1.60525 -0.094086 0
M  V30 7063 O 688.991 1.70812 -0.341889 0
M  V30 7064 C 686.123 3.3188 -0.778983 0
M  V30 7065 H 687.316 2.11393 -2.12728 0
M  V30 7066 H 684.869 1.0748 -1.1348 0
M  V30 7067 H 685.604 3.23765 0.186225 0
M  V30 7068 H 685.389 3.60141 -1.55051 0
M  V30 7069 H 686.879 4.11612 -0.704631 0
M  V30 7070 N 687.317 1.12792 1.10072 0
M  V30 7071 C 688.264 0.79921 2.16521 0
M  V30 7072 C 689.234 -0.235726 1.64419 0
M  V30 7073 O 690.419 -0.109457 1.90486 0
M  V30 7074 C 687.559 0.264091 3.44088 0
M  V30 7075 C 686.672 1.35729 4.10124 0
M  V30 7076 C 685.807 0.781212 5.25424 0
M  V30 7077 C 684.846 1.85327 5.8337 0
M  V30 7078 N 683.983 1.29564 6.90042 0
M  V30 7079 H 688.823 1.71105 2.43981 0
M  V30 7080 H 686.36 0.854225 1.19756 0
M  V30 7081 H 688.318 -0.0642423 4.17151 0
M  V30 7082 H 686.948 -0.610901 3.16967 0
M  V30 7083 H 686 1.80234 3.34993 0
M  V30 7084 H 687.312 2.16782 4.4923 0
M  V30 7085 H 686.466 0.403769 6.05355 0
M  V30 7086 H 685.205 -0.0604686 4.87663 0
M  V30 7087 H 684.21 2.23986 5.02106 0
M  V30 7088 H 685.435 2.69824 6.23195 0
M  V30 7089 H 683.381 0.475844 6.54272 0
M  V30 7090 H 683.298 2.04271 7.2788 0
M  V30 7091 H 684.566 0.945545 7.73744 0
M  V30 7092 N 688.795 -1.27931 0.920396 0
M  V30 7093 C 689.742 -2.27085 0.412422 0
M  V30 7094 C 690.712 -1.57858 -0.516725 0
M  V30 7095 O 691.897 -1.85717 -0.437475 0
M  V30 7096 C 689.037 -3.43466 -0.335399 0
M  V30 7097 C 688.15 -4.27425 0.627017 0
M  V30 7098 C 687.285 -5.31016 -0.139916 0
M  V30 7099 C 686.324 -6.06641 0.815683 0
M  V30 7100 N 685.461 -7.02052 0.0818439 0
M  V30 7101 H 690.301 -2.69913 1.26298 0
M  V30 7102 H 687.838 -1.32732 0.634076 0
M  V30 7103 H 689.796 -4.09744 -0.785226 0
M  V30 7104 H 688.426 -3.01611 -1.15025 0
M  V30 7105 H 687.478 -3.6113 1.19537 0
M  V30 7106 H 688.79 -4.79969 1.35763 0
M  V30 7107 H 687.944 -6.03208 -0.649998 0
M  V30 7108 H 686.683 -4.79257 -0.903543 0
M  V30 7109 H 685.688 -5.33294 1.33708 0
M  V30 7110 H 686.913 -6.60489 1.57897 0
M  V30 7111 H 684.859 -6.52634 -0.663671 0
M  V30 7112 H 684.776 -7.52249 0.752163 0
M  V30 7113 H 686.044 -7.78432 -0.407825 0
M  V30 7114 N 690.273 -0.685099 -1.4193 0
M  V30 7115 C 691.203 -0.0273506 -2.33484 0
M  V30 7116 C 692.184 0.778366 -1.51246 0
M  V30 7117 O 693.369 0.733449 -1.79817 0
M  V30 7118 C 690.499 0.917272 -3.34968 0
M  V30 7119 C 689.453 0.21941 -4.27437 0
M  V30 7120 C 688.779 1.27768 -5.1921 0
M  V30 7121 C 690.079 -0.907894 -5.14349 0
M  V30 7122 H 691.773 -0.791994 -2.88735 0
M  V30 7123 H 689.319 -0.382308 -1.38832 0
M  V30 7124 H 691.272 1.38657 -3.97935 0
M  V30 7125 H 689.996 1.71346 -2.78043 0
M  V30 7126 H 688.655 -0.229757 -3.65879 0
M  V30 7127 H 688.303 2.06612 -4.58607 0
M  V30 7128 H 688.003 0.815803 -5.81909 0
M  V30 7129 H 689.527 1.7477 -5.85054 0
M  V30 7130 H 690.941 -0.519348 -5.70943 0
M  V30 7131 H 689.338 -1.2962 -5.85934 0
M  V30 7132 H 690.408 -1.75218 -4.52136 0
M  V30 7133 N 691.751 1.51645 -0.429126 0
M  V30 7134 C 692.698 2.27542 0.386446 0
M  V30 7135 C 693.668 1.30786 1.02393 0
M  V30 7136 O 694.853 1.59678 1.0444 0
M  V30 7137 C 691.993 3.11457 1.48623 0
M  V30 7138 C 691.106 4.23196 0.867691 0
M  V30 7139 C 690.241 4.94435 1.94183 0
M  V30 7140 C 689.28 5.98108 1.30129 0
M  V30 7141 N 688.417 6.62786 2.31644 0
M  V30 7142 H 693.257 2.968 -0.267155 0
M  V30 7143 H 690.794 1.46397 -0.143591 0
M  V30 7144 H 692.752 3.58429 2.13506 0
M  V30 7145 H 691.382 2.44329 2.10957 0
M  V30 7146 H 690.434 3.80248 0.107373 0
M  V30 7147 H 691.746 4.97499 0.35997 0
M  V30 7148 H 690.9 5.44914 2.66747 0
M  V30 7149 H 689.639 4.19744 2.48326 0
M  V30 7150 H 688.644 5.4693 0.561082 0
M  V30 7151 H 689.869 6.74751 0.767303 0
M  V30 7152 H 687.815 5.90913 2.84883 0
M  V30 7153 H 687.732 7.32828 1.85741 0
M  V30 7154 H 689 7.17897 3.03717 0
M  V30 7155 N 693.229 0.160201 1.56784 0
M  V30 7156 C 694.176 -0.774416 2.1742 0
M  V30 7157 C 695.146 -1.23483 1.11091 0
M  V30 7158 O 696.331 -1.30499 1.39193 0
M  V30 7159 C 693.471 -2.00283 2.81035 0
M  V30 7160 C 692.584 -1.58701 4.01793 0
M  V30 7161 C 691.719 -2.76824 4.53367 0
M  V30 7162 C 690.758 -2.31679 5.66561 0
M  V30 7163 N 689.895 -3.42856 6.12694 0
M  V30 7164 H 694.735 -0.250542 2.96945 0
M  V30 7165 H 692.272 -0.111943 1.46673 0
M  V30 7166 H 694.23 -2.72316 3.16069 0
M  V30 7167 H 692.86 -2.5006 2.04132 0
M  V30 7168 H 691.912 -0.76384 3.72652 0
M  V30 7169 H 693.224 -1.21555 4.83762 0
M  V30 7170 H 692.378 -3.57029 4.90525 0
M  V30 7171 H 691.117 -3.17223 3.70433 0
M  V30 7172 H 690.122 -1.49917 5.28966 0
M  V30 7173 H 691.347 -1.9235 6.5129 0
M  V30 7174 H 689.293 -3.82852 5.32692 0
M  V30 7175 H 689.21 -3.09767 6.89624 0
M  V30 7176 H 690.478 -4.23379 6.545 0
M  V30 7177 N 694.707 -1.5719 -0.113559 0
M  V30 7178 C 696.123 -1.52607 -0.467253 0
M  V30 7179 C 696.323 -0.874058 -1.81556 0
M  V30 7180 O 695.379 -0.458703 -2.48299 0
M  V30 7181 C 696.692 -2.97363 -0.446736 0
M  V30 7182 C 698.24 -3.08482 -0.529903 0
M  V30 7183 C 698.715 -4.54809 -0.539721 0
M  V30 7184 N 700.206 -4.59284 -0.601005 0
M  V30 7185 C 700.941 -5.69927 -0.630138 0
M  V30 7186 N 700.437 -6.90051 -0.616589 0
M  V30 7187 N 702.23 -5.5805 -0.673558 0
M  V30 7188 H 694.381 -1.97958 0.769819 0
M  V30 7189 H 696.644 -0.90428 0.284572 0
M  V30 7190 H 696.35 -3.48458 0.47643 0
M  V30 7191 H 696.224 -3.55086 -1.27254 0
M  V30 7192 H 698.611 -2.57386 -1.44349 0
M  V30 7193 H 698.692 -2.53744 0.323695 0
M  V30 7194 H 698.336 -5.06552 0.369843 0
M  V30 7195 H 698.266 -5.07364 -1.41028 0
M  V30 7196 H 700.757 -3.72822 -0.617419 0
M  V30 7197 H 701.07 -7.70132 -0.641592 0
M  V30 7198 H 699.415 -6.92543 -0.583927 0
M  V30 7199 H 702.606 -4.63112 -0.681544 0
M  V30 7200 H 702.779 -6.44286 -0.692794 0
M  V30 7201 N 696.185 0.383891 -1.52853 0
M  V30 7202 C 697.133 1.48965 -1.7864 0
M  V30 7203 C 698.127 1.56242 -0.654577 0
M  V30 7204 O 699.333 1.59347 -0.83716 0
M  V30 7205 H 695.708 0.495892 -0.565328 0
M  V30 7206 H 697.679 1.24411 -2.71228 0
M  V30 7207 C 696.428 2.86036 -1.97683 0
M  V30 7208 H 695.751 2.81188 -2.84206 0
M  V30 7209 H 697.191 3.62632 -2.19713 0
M  V30 7210 C 695.65 3.28428 -0.750776 0
M  V30 7211 O 696.18 4.0164 0.0693491 0
M  V30 7212 N 694.386 2.84765 -0.579427 0
M  V30 7213 H 693.933 2.25353 -1.24795 0
M  V30 7214 H 693.891 3.13486 0.239544 0
M  V30 7215 N 697.663 1.43903 0.642637 0
M  V30 7216 C 698.61 1.49881 1.75512 0
M  V30 7217 C 699.58 0.347538 1.62423 0
M  V30 7218 O 700.765 0.556177 1.82514 0
M  V30 7219 C 697.905 1.43797 3.13714 0
M  V30 7220 C 697.018 2.6921 3.37861 0
M  V30 7221 C 696.153 2.5504 4.6597 0
M  V30 7222 C 695.192 3.75671 4.83257 0
M  V30 7223 N 694.329 3.60247 6.02633 0
M  V30 7224 H 699.169 2.44935 1.69737 0
M  V30 7225 H 696.706 1.21572 0.828165 0
M  V30 7226 H 698.664 1.38262 3.93624 0
M  V30 7227 H 697.294 0.523173 3.18532 0
M  V30 7228 H 696.346 2.8498 2.51973 0
M  V30 7229 H 697.658 3.58786 3.46517 0
M  V30 7230 H 696.812 2.47273 5.54023 0
M  V30 7231 H 695.551 1.63006 4.59653 0
M  V30 7232 H 694.556 3.83836 3.93637 0
M  V30 7233 H 695.781 4.68728 4.91397 0
M  V30 7234 H 693.727 2.70955 5.97427 0
M  V30 7235 H 693.644 4.43431 6.12295 0
M  V30 7236 H 694.912 3.56351 6.93278 0
M  V30 7237 N 699.141 -0.881989 1.30609 0
M  V30 7238 C 700.552 -1.44956 1.17664 0
M  V30 7239 C 700.903 -1.94945 -0.221531 0
M  V30 7240 O 700.028 -1.85257 -1.11844 0
M  V30 7241 C 700.623 -2.63474 2.12995 0
M  V30 7242 C 699.182 -3.16312 2.04019 0
M  V30 7243 C 698.329 -1.89008 2.02907 0
M  V30 7244 H 701.28 -0.691645 1.42835 0
M  V30 7245 H 701.301 -3.39783 1.71253 0
M  V30 7246 H 700.813 -2.2706 3.14746 0
M  V30 7247 H 698.914 -3.57376 1.0542 0
M  V30 7248 H 699.027 -3.79409 2.9255 0
M  V30 7249 H 697.391 -2.07465 1.47751 0
M  V30 7250 H 698.174 -1.54848 3.06394 0
M  V30 7251 N 700.619 -1.13374 -1.09472 0
M  V30 7252 C 701.859 -0.905422 -1.83252 0
M  V30 7253 C 702.223 0.558396 -1.83701 0
M  V30 7254 O 703.424 0.904254 -2.53134 0
M  V30 7255 C 701.695 -1.47658 -3.25472 0
M  V30 7256 S 703.254 -1.38825 -4.16261 0
M  V30 7257 H 700.072 -0.326371 -0.631667 0
M  V30 7258 H 702.674 -1.44517 -1.31663 0
M  V30 7259 H 701.378 -2.53533 -3.22722 0
M  V30 7260 H 700.909 -0.934756 -3.82133 0
M  V30 7261 H 702.924 -0.366379 -4.94846 0
M  V30 7262 N 702.098 1.27442 -0.927168 0
M  V30 7263 C 703.509 1.76385 -0.611979 0
M  V30 7264 C 703.86 1.75715 0.872853 0
M  V30 7265 O 702.985 1.3603 1.683 0
M  V30 7266 C 703.58 3.20303 -1.10414 0
M  V30 7267 C 702.139 3.66916 -0.839628 0
M  V30 7268 C 701.286 2.46859 -1.26317 0
M  V30 7269 H 704.237 1.13716 -1.107 0
M  V30 7270 H 704.258 3.77811 -0.451578 0
M  V30 7271 H 703.77 3.20759 -2.18484 0
M  V30 7272 H 701.871 3.71906 0.227292 0
M  V30 7273 H 701.984 4.56415 -1.45679 0
M  V30 7274 H 700.348 2.45407 -0.681723 0
M  V30 7275 H 701.131 2.50025 -2.3525 0
M  V30 7276 N 703.576 0.692616 1.41565 0
M  V30 7277 C 704.822 0.222664 2.01574 0
M  V30 7278 C 705.155 -1.1737 1.54719 0
M  V30 7279 O 704.43 -1.79161 0.757084 0
M  V30 7280 C 704.713 0.277064 3.59033 0
M  V30 7281 C 704.566 1.71016 4.16021 0
M  V30 7282 C 705.885 -0.36479 4.38586 0
M  V30 7283 H 703.004 0.0823839 0.732381 0
M  V30 7284 H 705.646 0.880778 1.68352 0
M  V30 7285 H 703.796 -0.283288 3.87466 0
M  V30 7286 H 705.468 2.32413 3.98475 0
M  V30 7287 H 703.711 2.24525 3.71175 0
M  V30 7288 H 704.382 1.69978 5.25178 0
M  V30 7289 H 706.858 0.112404 4.15948 0
M  V30 7290 H 705.734 -0.296169 5.481 0
M  V30 7291 H 705.995 -1.44506 4.17816 0
M  V30 7292 N 705.054 -1.51416 0.437162 0
M  V30 7293 C 706.294 -2.03995 -0.128538 0
M  V30 7294 C 706.658 -1.31417 -1.39977 0
M  V30 7295 O 707.859 -1.74369 -2.0457 0
M  V30 7296 C 706.13 -3.55757 -0.342317 0
M  V30 7297 S 707.689 -4.3006 -0.871446 0
M  V30 7298 H 704.507 -0.710283 -0.0319322 0
M  V30 7299 H 707.109 -1.86177 0.596526 0
M  V30 7300 H 705.813 -4.06148 0.589233 0
M  V30 7301 H 705.344 -3.77869 -1.09447 0
M  V30 7302 H 707.359 -4.47248 -2.14903 0
M  V30 7303 N 706.532 -0.168513 -1.56696 0
M  V30 7304 C 707.948 0.187686 -1.58493 0
M  V30 7305 C 708.148 1.63063 -1.18375 0
M  V30 7306 O 707.204 2.36142 -0.894042 0
M  V30 7307 C 708.517 -0.0905858 -3.00564 0
M  V30 7308 C 710.065 -0.028575 -3.12987 0
M  V30 7309 C 710.54 -0.279799 -4.57145 0
M  V30 7310 N 712.031 -0.227476 -4.62641 0
M  V30 7311 C 712.766 -0.396073 -5.7203 0
M  V30 7312 N 712.262 -0.623572 -6.89988 0
M  V30 7313 N 714.055 -0.332173 -5.61118 0
M  V30 7314 H 706.206 -1.11042 -1.81062 0
M  V30 7315 H 708.469 -0.441235 -0.839056 0
M  V30 7316 H 708.175 -1.09006 -3.34381 0
M  V30 7317 H 708.049 0.619078 -3.72085 0
M  V30 7318 H 710.436 0.961471 -2.78998 0
M  V30 7319 H 710.517 -0.770905 -2.43907 0
M  V30 7320 H 710.161 -1.26704 -4.91842 0
M  V30 7321 H 710.091 0.48311 -5.24379 0
M  V30 7322 H 712.582 -0.0571723 -3.77857 0
M  V30 7323 H 712.895 -0.741745 -7.69232 0
M  V30 7324 H 711.24 -0.660153 -6.91858 0
M  V30 7325 H 714.431 -0.155051 -4.67843 0
M  V30 7326 H 714.604 -0.466994 -6.46315 0
M  V30 7327 N 708.01 1.57248 0.105221 0
M  V30 7328 C 708.942 1.98008 1.15436 0
M  V30 7329 C 709.955 0.881236 1.36887 0
M  V30 7330 O 711.144 1.15943 1.35718 0
M  V30 7331 C 708.244 2.27509 2.51183 0
M  V30 7332 C 707.417 3.58811 2.50147 0
M  V30 7333 C 706.476 3.76365 3.67745 0
M  V30 7334 O 705.502 4.48329 3.50699 0
M  V30 7335 N 706.704 3.16174 4.86841 0
M  V30 7336 H 709.469 2.88616 0.807519 0
M  V30 7337 H 707.03 1.59202 0.29433 0
M  V30 7338 H 709.022 2.36455 3.28438 0
M  V30 7339 H 707.592 1.42959 2.77995 0
M  V30 7340 H 706.812 3.60927 1.5851 0
M  V30 7341 H 708.1 4.45088 2.46524 0
M  V30 7342 H 707.498 2.57701 5.03594 0
M  V30 7343 H 706.055 3.30621 5.61723 0
M  V30 7344 N 709.488 -0.375779 1.53054 0
M  V30 7345 C 710.899 -0.95309 1.6054 0
M  V30 7346 C 711.25 -1.90575 0.466446 0
M  V30 7347 O 710.375 -2.12507 -0.408609 0
M  V30 7348 C 710.97 -1.73537 2.90982 0
M  V30 7349 C 709.529 -2.26218 3.00836 0
M  V30 7350 C 708.676 -1.07157 2.55759 0
M  V30 7351 H 711.627 -0.154895 1.57942 0
M  V30 7352 H 711.648 -2.59574 2.78211 0
M  V30 7353 H 711.16 -1.04176 3.73857 0
M  V30 7354 H 709.261 -2.98852 2.22527 0
M  V30 7355 H 709.374 -2.54799 4.05727 0
M  V30 7356 H 707.738 -1.43553 2.10391 0
M  V30 7357 H 708.521 -0.393099 3.41042 0
M  V30 7358 N 710.966 -1.44241 -0.634997 0
M  V30 7359 C 712.215 -1.46102 -1.39058 0
M  V30 7360 C 712.528 -0.0959909 -1.95364 0
M  V30 7361 O 713.734 0.00788751 -2.71499 0
M  V30 7362 C 712.19 -2.57195 -2.51751 0
M  V30 7363 C 711.798 -3.99888 -2.01974 0
M  V30 7364 C 713.542 -2.68272 -3.28984 0
M  V30 7365 C 711.449 -5.02412 -3.11987 0
M  V30 7366 H 710.379 -0.543556 -0.522554 0
M  V30 7367 H 713.03 -1.70294 -0.683538 0
M  V30 7368 H 711.412 -2.26237 -3.25012 0
M  V30 7369 H 712.586 -4.40396 -1.35604 0
M  V30 7370 H 710.901 -3.93019 -1.37568 0
M  V30 7371 H 713.498 -3.42042 -4.10988 0
M  V30 7372 H 713.841 -1.73957 -3.78212 0
M  V30 7373 H 714.374 -2.98622 -2.62812 0
M  V30 7374 H 711.113 -5.98342 -2.67707 0
M  V30 7375 H 710.633 -4.66501 -3.77011 0
M  V30 7376 H 712.312 -5.25939 -3.76825 0
M  V30 7377 N 712.444 0.87505 -1.31075 0
M  V30 7378 C 713.376 1.98773 -1.14114 0
M  V30 7379 C 714.389 1.62595 -0.0816119 0
M  V30 7380 O 715.578 1.75449 -0.32861 0
M  V30 7381 C 712.678 3.31159 -0.720224 0
M  V30 7382 C 711.851 3.9571 -1.86366 0
M  V30 7383 C 710.91 5.06407 -1.42965 0
M  V30 7384 O 709.936 5.27501 -2.13848 0
M  V30 7385 N 711.138 5.79649 -0.314194 0
M  V30 7386 H 713.903 2.1387 -2.09951 0
M  V30 7387 H 711.464 1.04873 -1.23342 0
M  V30 7388 H 713.456 4.0259 -0.412687 0
M  V30 7389 H 712.026 3.12257 0.146396 0
M  V30 7390 H 711.246 3.17324 -2.33879 0
M  V30 7391 H 712.534 4.35576 -2.62966 0
M  V30 7392 H 711.932 5.65025 0.276228 0
M  V30 7393 H 710.489 6.51766 -0.0661641 0
M  V30 7394 N 713.922 1.13953 1.08869 0
M  V30 7395 C 714.855 0.765765 2.14968 0
M  V30 7396 C 715.833 -0.250689 1.60656 0
M  V30 7397 O 717.017 -0.140852 1.87973 0
M  V30 7398 C 714.144 0.136146 3.38426 0
M  V30 7399 C 713.19 1.12201 4.11477 0
M  V30 7400 S 714.023 2.65711 4.64928 0
M  V30 7401 C 715.179 2.04125 5.91679 0
M  V30 7402 H 715.412 1.66444 2.46341 0
M  V30 7403 H 712.945 0.960263 1.20906 0
M  V30 7404 H 714.903 -0.220712 4.09906 0
M  V30 7405 H 713.564 -0.739887 3.05261 0
M  V30 7406 H 712.757 0.629398 5.00055 0
M  V30 7407 H 712.359 1.42262 3.45886 0
M  V30 7408 H 714.651 1.39381 6.63008 0
M  V30 7409 H 715.594 2.90808 6.45629 0
M  V30 7410 H 716.002 1.4905 5.44467 0
M  V30 7411 N 715.4 -1.26948 0.933913 0
M  V30 7412 C 716.649 -1.93378 0.573409 0
M  V30 7413 C 716.962 -1.74148 -0.890614 0
M  V30 7414 O 718.168 -2.34971 -1.36017 0
M  V30 7415 C 716.624 -3.46449 0.974747 0
M  V30 7416 C 716.232 -3.74425 2.45988 0
M  V30 7417 C 717.976 -4.18924 0.685791 0
M  V30 7418 C 715.883 -5.209 2.8003 0
M  V30 7419 H 714.813 -0.723952 0.210736 0
M  V30 7420 H 717.464 -1.44143 1.13557 0
M  V30 7421 H 715.846 -3.94528 0.341181 0
M  V30 7422 H 717.02 -3.37079 3.14188 0
M  V30 7423 H 715.335 -3.15167 2.72138 0
M  V30 7424 H 717.932 -5.26786 0.916546 0
M  V30 7425 H 718.275 -4.14587 -0.377217 0
M  V30 7426 H 718.808 -3.76687 1.27874 0
M  V30 7427 H 715.547 -5.30332 3.85264 0
M  V30 7428 H 715.067 -5.59369 2.16485 0
M  V30 7429 H 716.746 -5.88837 2.68105 0
M  V30 7430 N 716.879 -0.700114 -1.41195 0
M  V30 7431 C 718.125 -0.233351 -2.01453 0
M  V30 7432 C 718.458 1.16548 -1.55339 0
M  V30 7433 O 717.733 1.78756 -0.766575 0
M  V30 7434 C 718.016 -0.2961 -3.58881 0
M  V30 7435 C 717.869 -1.7322 -4.15108 0
M  V30 7436 C 719.188 0.341525 -4.38773 0
M  V30 7437 H 716.307 -0.0862667 -0.731934 0
M  V30 7438 H 718.949 -0.889693 -1.67882 0
M  V30 7439 H 717.099 0.262736 -3.87611 0
M  V30 7440 H 718.771 -2.34523 -3.97236 0
M  V30 7441 H 717.014 -2.2649 -3.69979 0
M  V30 7442 H 717.685 -1.7276 -5.24269 0
M  V30 7443 H 720.161 -0.134461 -4.15883 0
M  V30 7444 H 719.037 0.267098 -5.4825 0
M  V30 7445 H 719.298 1.42289 -4.18577 0
M  V30 7446 N 718.357 1.51182 -0.445186 0
M  V30 7447 C 719.287 2.30821 0.352686 0
M  V30 7448 C 720.268 1.36576 1.01395 0
M  V30 7449 O 721.453 1.65497 1.01609 0
M  V30 7450 C 718.583 3.15593 1.44976 0
M  V30 7451 C 717.537 4.1818 0.911553 0
M  V30 7452 C 716.863 4.91523 2.10497 0
M  V30 7453 C 718.163 5.22266 -0.059418 0
M  V30 7454 H 719.857 2.97771 -0.311936 0
M  V30 7455 H 717.403 1.43201 -0.151461 0
M  V30 7456 H 719.356 3.70091 2.01521 0
M  V30 7457 H 718.08 2.4648 2.14278 0
M  V30 7458 H 716.739 3.64746 0.368264 0
M  V30 7459 H 716.387 4.18906 2.78437 0
M  V30 7460 H 716.087 5.60898 1.7512 0
M  V30 7461 H 717.611 5.48847 2.6758 0
M  V30 7462 H 719.025 5.71789 0.415985 0
M  V30 7463 H 717.422 5.99213 -0.326152 0
M  V30 7464 H 718.492 4.7461 -0.993631 0
M  V30 7465 N 719.835 0.176821 1.56605 0
M  V30 7466 C 721.063 -0.472828 2.01425 0
M  V30 7467 C 721.478 -1.56436 1.05703 0
M  V30 7468 O 720.835 -1.82405 0.058808 0
M  V30 7469 C 720.886 -1.04607 3.46034 0
M  V30 7470 O 720.607 0.00189608 4.381 0
M  V30 7471 C 722.108 -1.7734 4.06282 0
M  V30 7472 H 719.328 -0.120503 0.660091 0
M  V30 7473 H 721.872 0.280166 2.02572 0
M  V30 7474 H 720.027 -1.74953 3.45645 0
M  V30 7475 H 720.441 -0.422118 5.22799 0
M  V30 7476 H 721.915 -2.12703 5.09374 0
M  V30 7477 H 722.392 -2.67043 3.4869 0
M  V30 7478 H 722.998 -1.11623 4.10391 0
M  V30 7479 N 721.313 -1.57302 -0.09688 0
M  V30 7480 C 722.543 -1.89926 -0.813114 0
M  V30 7481 C 722.951 -0.76852 -1.72888 0
M  V30 7482 O 722.294 0.268549 -1.81726 0
M  V30 7483 C 722.356 -3.17787 -1.68082 0
M  V30 7484 C 722.02 -4.4729 -0.937061 0
M  V30 7485 C 723.017 -5.1921 -0.267687 0
M  V30 7486 C 720.702 -4.93957 -0.911671 0
M  V30 7487 C 722.696 -6.36034 0.417129 0
M  V30 7488 C 720.383 -6.10693 -0.223068 0
M  V30 7489 C 721.381 -6.8158 0.440155 0
M  V30 7490 O 721.069 -7.96092 1.11772 0
M  V30 7491 H 720.801 -0.632783 -0.237828 0
M  V30 7492 H 723.355 -2.05248 -0.0790818 0
M  V30 7493 H 721.585 -2.98607 -2.45705 0
M  V30 7494 H 723.274 -3.36257 -2.27346 0
M  V30 7495 H 724.04 -4.84198 -0.278774 0
M  V30 7496 H 719.919 -4.38671 -1.41734 0
M  V30 7497 H 723.463 -6.91301 0.93537 0
M  V30 7498 H 719.36 -6.45159 -0.209821 0
M  V30 7499 H 720.128 -8.12064 1.02443 0
M  V30 7500 N 722.791 0.367657 -1.53252 0
M  V30 7501 C 724.038 1.11052 -1.69333 0
M  V30 7502 C 724.366 1.89363 -0.444064 0
M  V30 7503 O 723.621 1.87094 0.573953 0
M  V30 7504 C 723.92 2.09825 -2.89324 0
M  V30 7505 C 723.586 1.4801 -4.25915 0
M  V30 7506 C 722.248 1.30879 -4.6306 0
M  V30 7507 C 724.6 1.03268 -5.10867 0
M  V30 7508 C 721.928 0.675868 -5.82794 0
M  V30 7509 C 724.28 0.41377 -6.31245 0
M  V30 7510 C 722.944 0.229939 -6.67104 0
M  V30 7511 H 722.214 0.406367 -0.619634 0
M  V30 7512 H 724.861 0.392558 -1.87433 0
M  V30 7513 H 723.166 2.87917 -2.65728 0
M  V30 7514 H 724.863 2.67252 -2.98961 0
M  V30 7515 H 721.453 1.62336 -3.96667 0
M  V30 7516 H 725.637 1.15297 -4.82722 0
M  V30 7517 H 720.893 0.521833 -6.09169 0
M  V30 7518 H 725.067 0.0588768 -6.96375 0
M  V30 7519 H 722.694 -0.262562 -7.59746 0
M  V30 7520 N 724.269 1.44576 0.627338 0
M  V30 7521 C 725.68 1.42266 1.20902 0
M  V30 7522 C 726.031 0.139964 1.957 0
M  V30 7523 O 725.156 -0.759489 2.02634 0
M  V30 7524 C 725.751 2.57727 2.19914 0
M  V30 7525 C 724.31 2.58599 2.73502 0
M  V30 7526 C 723.457 2.34145 1.48564 0
M  V30 7527 H 726.408 1.53102 0.417791 0
M  V30 7528 H 726.429 2.30697 3.02588 0
M  V30 7529 H 725.941 3.51068 1.65447 0
M  V30 7530 H 724.042 1.6921 3.31962 0
M  V30 7531 H 724.155 3.57205 3.19282 0
M  V30 7532 H 722.519 1.83313 1.76829 0
M  V30 7533 H 723.302 3.29606 0.959935 0
M  V30 7534 O 725.786 -0.770871 1.41915 0
M  V30 7535 H 726.477 -1.41834 1.31919 0
M  V30 END ATOM
M  V30 BEGIN BOND
M  V30 END BOND
M  V30 END CTAB
M  END
$$$$
