drugbank_target|Q01043 Cyclin homolog (DB07379; DB07795)
 OpenBabel12092120423D

  0  0  0     0  0            999 V3000
M  V30 BEGIN CTAB
M  V30 COUNTS 4086 4119 0 0 0
M  V30 BEGIN ATOM
M  V30 1 H -0.908 1.98254 -0.117106 0
M  V30 2 N 0 1.576 0 0
M  V30 3 C 0.933 2.03868 1.02534 0
M  V30 4 C 1.911 0.928543 1.3348 0
M  V30 5 O 3.095 1.19667 1.45644 0
M  V30 6 C 0.222 2.43627 2.35294 0
M  V30 7 C -0.732 3.65373 2.2001 0
M  V30 8 S 0.101 5.13292 1.52614 0
M  V30 9 C 1.257 5.56322 2.86805 0
M  V30 10 H 1.49 2.90518 0.631377 0
M  V30 11 H -0.977 1.52953 0.210867 0
M  V30 12 H 0.981 2.67203 3.11629 0
M  V30 13 H -0.358 1.57376 2.7183 0
M  V30 14 H -1.165 3.90944 3.18086 0
M  V30 15 H -1.563 3.418 1.51819 0
M  V30 16 H 0.729 5.58782 3.83104 0
M  V30 17 H 1.672 6.56266 2.65933 0
M  V30 18 H 2.08 4.83886 2.90714 0
M  V30 19 N 1.4781 -0.272755 1.55222 0
M  V30 20 C 2.4411 -1.32041 1.87344 0
M  V30 21 C 3.4411 -1.42342 0.74803 0
M  V30 22 O 4.6311 -1.41488 1.0162 0
M  V30 23 C 1.7631 -2.70173 2.07893 0
M  V30 24 H 2.9561 -1.04789 2.80997 0
M  V30 25 H 0.5091 -0.51083 1.47717 0
M  V30 26 H 1.2441 -3.02605 1.16622 0
M  V30 27 H 1.0291 -2.64082 2.89833 0
M  V30 28 H 2.5191 -3.45869 2.34017 0
M  V30 29 N 2.9562 -1.48159 -0.537278 0
M  V30 30 C 4.2332 -1.46291 -1.29839 0
M  V30 31 C 4.6132 -0.170613 -2.10409 0
M  V30 32 O 3.9612 0.847746 -2.12192 0
M  V30 33 C 4.1712 -2.72055 -2.18603 0
M  V30 34 C 5.5192 -3.20087 -2.7898 0
M  V30 35 O 6.5432 -2.72921 -2.28894 0
M  V30 36 O 5.4022 -4.02138 -3.70064 0
M  V30 37 H 2.4962 -0.583906 -0.585647 0
M  V30 38 H 5.0422 -1.60384 -0.554534 0
M  V30 39 H 3.8142 -3.57628 -1.58801 0
M  V30 40 H 3.4372 -2.60646 -3.00249 0
M  V30 41 N 4.4343 0.785586 -1.36625 0
M  V30 42 C 5.6593 1.57963 -1.34397 0
M  V30 43 C 6.0843 1.87964 0.071526 0
M  V30 44 O 5.4423 1.48182 1.0446 0
M  V30 45 C 5.4903 2.87511 -2.17646 0
M  V30 46 O 4.5943 3.81281 -1.57158 0
M  V30 47 H 3.9353 0.479014 -0.459828 0
M  V30 48 H 6.4653 0.973411 -1.79961 0
M  V30 49 H 6.4753 3.36745 -2.30362 0
M  V30 50 H 5.1503 2.65002 -3.20541 0
M  V30 51 H 3.7273 3.39885 -1.53403 0
M  V30 52 N 5.9124 1.20967 1.01018 0
M  V30 53 C 7.3234 1.02319 1.56165 0
M  V30 54 C 7.6744 -0.418546 1.91684 0
M  V30 55 O 6.7994 -1.30096 1.72928 0
M  V30 56 C 7.3944 1.85109 2.8376 0
M  V30 57 C 5.9534 1.70809 3.35412 0
M  V30 58 C 5.1004 1.82643 2.08655 0
M  V30 59 H 8.0514 1.35065 0.833255 0
M  V30 60 H 8.0724 1.35827 3.55431 0
M  V30 61 H 7.5844 2.90035 2.57878 0
M  V30 62 H 5.6854 0.685464 3.66241 0
M  V30 63 H 5.7984 2.52467 4.07182 0
M  V30 64 H 4.1624 1.25896 2.21409 0
M  V30 65 H 4.9454 2.89066 1.85191 0
M  V30 66 N 7.3905 -1.2043 1.01659 0
M  V30 67 C 8.3385 -2.25249 0.580143 0
M  V30 68 C 9.3325 -1.65057 -0.381115 0
M  V30 69 O 10.5385 -1.78241 -0.251039 0
M  V30 70 H 6.9135 -0.732695 0.169299 0
M  V30 71 H 8.8845 -2.59389 1.47512 0
M  V30 72 C 7.6335 -3.47638 -0.065788 0
M  V30 73 H 6.9565 -3.94233 0.664874 0
M  V30 74 H 8.3965 -4.2268 -0.334282 0
M  V30 75 C 6.8555 -3.10447 -1.3086 0
M  V30 76 O 7.3855 -3.21981 -2.4019 0
M  V30 77 N 5.5915 -2.64996 -1.1927 0
M  V30 78 H 5.1385 -2.55811 -0.303064 0
M  V30 79 H 5.0965 -2.40482 -2.02523 0
M  V30 80 N 8.8686 -0.792821 -1.36206 0
M  V30 81 C 10.2846 -0.474903 -1.52371 0
M  V30 82 C 10.4846 1.00622 -1.74578 0
M  V30 83 O 9.5406 1.79162 -1.77924 0
M  V30 84 C 10.8536 -1.3083 -2.70747 0
M  V30 85 C 12.4016 -1.30234 -2.84619 0
M  V30 86 C 12.8766 -2.11956 -4.06004 0
M  V30 87 N 14.3676 -2.09419 -4.13156 0
M  V30 88 C 15.1026 -2.69419 -5.06163 0
M  V30 89 N 14.5986 -3.3829 -6.04592 0
M  V30 90 N 16.3916 -2.59134 -4.98804 0
M  V30 91 H 8.5426 -1.75222 -1.20046 0
M  V30 92 H 10.8056 -0.745024 -0.586211 0
M  V30 93 H 10.5116 -2.35881 -2.6087 0
M  V30 94 H 10.3856 -0.95196 -3.6499 0
M  V30 95 H 12.7726 -0.259748 -2.93955 0
M  V30 96 H 12.8536 -1.69847 -1.91274 0
M  V30 97 H 12.4976 -3.16248 -3.97429 0
M  V30 98 H 12.4276 -1.69711 -4.98503 0
M  V30 99 H 14.9186 -1.59297 -3.42685 0
M  V30 100 H 15.2316 -3.81394 -6.7213 0
M  V30 101 H 13.5766 -3.42393 -6.04807 0
M  V30 102 H 16.7676 -2.04927 -4.20859 0
M  V30 103 H 16.9406 -3.06185 -5.711 0
M  V30 104 N 10.3467 1.47872 -0.545128 0
M  V30 105 C 11.2767 2.32661 0.197793 0
M  V30 106 C 12.2577 1.43041 0.920504 0
M  V30 107 O 13.4427 1.71912 0.90333 0
M  V30 108 C 10.5727 3.24569 1.23582 0
M  V30 109 C 9.5267 4.23333 0.630323 0
M  V30 110 C 8.8527 5.0448 1.77211 0
M  V30 111 C 10.1527 5.20704 -0.407974 0
M  V30 112 H 11.8467 2.95024 -0.510045 0
M  V30 113 H 9.3927 1.4187 -0.246731 0
M  V30 114 H 11.3457 3.8272 1.76362 0
M  V30 115 H 10.0697 2.60236 1.97344 0
M  V30 116 H 8.7287 3.6639 0.123922 0
M  V30 117 H 8.3767 4.36561 2.49847 0
M  V30 118 H 8.0767 5.71339 1.37281 0
M  V30 119 H 9.6007 5.65487 2.3034 0
M  V30 120 H 11.0147 5.7329 0.033305 0
M  V30 121 H 9.4117 5.95699 -0.725486 0
M  V30 122 H 10.4817 4.66917 -1.30828 0
M  V30 123 N 11.8248 0.280983 1.55075 0
M  V30 124 C 12.7728 -0.619864 2.24188 0
M  V30 125 C 13.7668 -1.15315 1.24092 0
M  V30 126 O 14.9728 -1.1061 1.42005 0
M  V30 127 H 11.3478 -0.218459 0.719569 0
M  V30 128 H 13.3188 -0.0141831 2.98397 0
M  V30 129 C 12.0678 -1.7899 2.98091 0
M  V30 130 H 11.3908 -1.38874 3.74905 0
M  V30 131 H 12.8308 -2.39672 3.49762 0
M  V30 132 C 11.2898 -2.68192 2.03899 0
M  V30 133 O 11.8198 -3.6872 1.594 0
M  V30 134 N 10.0258 -2.35488 1.70275 0
M  V30 135 H 9.5728 -1.53787 2.06658 0
M  V30 136 H 9.5308 -2.95442 1.07524 0
M  V30 137 N 13.3029 -1.57598 0.00835791 0
M  V30 138 C 14.7189 -1.55764 -0.347822 0
M  V30 139 C 14.9189 -1.01186 -1.74252 0
M  V30 140 O 13.9749 -0.649371 -2.44007 0
M  V30 141 C 15.2879 -2.99927 -0.215407 0
M  V30 142 C 16.8359 -3.11656 -0.289725 0
M  V30 143 C 17.3109 -4.57621 -0.18634 0
M  V30 144 N 18.8019 -4.62557 -0.243978 0
M  V30 145 C 19.5369 -5.73094 -0.18745 0
M  V30 146 N 19.0329 -6.92753 -0.0810331 0
M  V30 147 N 20.8259 -5.61588 -0.239925 0
M  V30 148 H 12.9769 -1.91411 0.92062 0
M  V30 149 H 15.2399 -0.879562 0.353659 0
M  V30 150 H 14.9459 -3.43729 0.744512 0
M  V30 151 H 14.8199 -3.63865 -0.994097 0
M  V30 152 H 17.2069 -2.67779 -1.24009 0
M  V30 153 H 17.2879 -2.5048 0.51898 0
M  V30 154 H 16.9319 -5.02174 0.760519 0
M  V30 155 H 16.8619 -5.16752 -1.01364 0
M  V30 156 H 19.3529 -3.76481 -0.327217 0
M  V30 157 H 19.6659 -7.72787 -0.0440241 0
M  V30 158 H 18.0109 -6.94984 -0.0465419 0
M  V30 159 H 21.2019 -4.66996 -0.321317 0
M  V30 160 H 21.3749 -6.47714 -0.192407 0
M  V30 161 N 14.781 0.264519 -1.55364 0
M  V30 162 C 15.744 1.31046 -1.88042 0
M  V30 163 C 16.744 1.41943 -0.755569 0
M  V30 164 O 17.934 1.40947 -1.02369 0
M  V30 165 C 15.066 2.69067 -2.09323 0
M  V30 166 H 16.259 1.03297 -2.81549 0
M  V30 167 H 13.812 0.502989 -1.47986 0
M  V30 168 H 14.547 3.01982 -1.18226 0
M  V30 169 H 14.332 2.62542 -2.91229 0
M  V30 170 H 15.822 3.44623 -2.35848 0
M  V30 171 N 16.2591 1.48442 0.529413 0
M  V30 172 C 17.2061 1.63007 1.63394 0
M  V30 173 C 18.1761 0.47212 1.59249 0
M  V30 174 O 19.3611 0.695673 1.77666 0
M  V30 175 C 16.5011 1.6763 3.01653 0
M  V30 176 C 15.6141 2.94535 3.16027 0
M  V30 177 C 14.7491 2.90316 4.44849 0
M  V30 178 C 13.7881 4.11923 4.52754 0
M  V30 179 N 12.9251 4.05777 5.72965 0
M  V30 180 H 17.7651 2.5733 1.50285 0
M  V30 181 H 15.3021 1.27613 0.731656 0
M  V30 182 H 17.2601 1.68292 3.81751 0
M  V30 183 H 15.8901 0.76797 3.13532 0
M  V30 184 H 14.9421 3.03615 2.29177 0
M  V30 185 H 16.2541 3.84512 3.17729 0
M  V30 186 H 15.4081 2.89382 5.33238 0
M  V30 187 H 14.1471 1.98068 4.45668 0
M  V30 188 H 13.1521 4.13131 3.62771 0
M  V30 189 H 14.3771 5.0533 4.53672 0
M  V30 190 H 12.3231 3.16351 5.74681 0
M  V30 191 H 12.2401 4.8946 5.76164 0
M  V30 192 H 13.5081 4.08904 6.6364 0
M  V30 193 N 17.7372 -0.778329 1.37039 0
M  V30 194 C 18.9862 -1.53189 1.3121 0
M  V30 195 C 19.2992 -1.95328 -0.103095 0
M  V30 196 O 20.5052 -2.70012 -0.283826 0
M  V30 197 C 18.9612 -2.76591 2.30272 0
M  V30 198 C 18.5692 -2.41577 3.77286 0
M  V30 199 C 20.3132 -3.5455 2.33441 0
M  V30 200 C 18.2202 -3.61441 4.68096 0
M  V30 201 H 17.1502 -0.5751 0.487622 0
M  V30 202 H 19.8012 -0.853101 1.62464 0
M  V30 203 H 18.1832 -3.46326 1.92027 0
M  V30 204 H 19.3572 -1.79668 4.2433 0
M  V30 205 H 17.6722 -1.76806 3.76999 0
M  V30 206 H 20.2692 -4.43628 2.98493 0
M  V30 207 H 20.6122 -3.93936 1.34611 0
M  V30 208 H 21.1452 -2.91805 2.7036 0
M  V30 209 H 17.8842 -3.27142 5.6803 0
M  V30 210 H 17.4042 -4.22478 4.25761 0
M  V30 211 H 19.0832 -4.28335 4.8491 0
M  V30 212 N 19.2153 -1.21501 -1.00376 0
M  V30 213 C 20.4923 -0.941745 -1.71437 0
M  V30 214 C 20.8723 0.546114 -2.03914 0
M  V30 215 O 20.2203 1.51128 -1.71384 0
M  V30 216 C 20.4303 -1.82812 -2.97289 0
M  V30 217 C 21.7783 -2.07771 -3.70292 0
M  V30 218 O 22.8023 -1.80171 -3.07273 0
M  V30 219 O 21.6613 -2.54456 -4.83647 0
M  V30 220 H 18.7553 -0.353243 -0.747762 0
M  V30 221 H 21.3013 -1.32436 -1.06108 0
M  V30 222 H 20.0733 -2.83501 -2.69709 0
M  V30 223 H 19.6963 -1.4464 -3.70358 0
M  V30 224 N 20.6934 1.19889 -1.02296 0
M  V30 225 C 21.9184 1.9393 -0.735237 0
M  V30 226 C 22.3434 1.74639 0.698782 0
M  V30 227 O 21.7014 1.04481 1.48167 0
M  V30 228 C 21.7494 3.43916 -1.08417 0
M  V30 229 O 20.8534 4.11917 -0.199446 0
M  V30 230 H 20.1944 0.605645 -0.272196 0
M  V30 231 H 22.7244 1.52137 -1.36804 0
M  V30 232 H 22.7344 3.9456 -1.03856 0
M  V30 233 H 21.4094 3.5728 -2.12894 0
M  V30 234 H 19.9864 3.71666 -0.303136 0
M  V30 235 N 22.1715 0.800033 1.35784 0
M  V30 236 C 23.3995 0.389606 2.03199 0
M  V30 237 C 23.8145 -0.997375 1.60306 0
M  V30 238 O 23.1715 -1.64154 0.797481 0
M  V30 239 C 23.2225 0.455855 3.58614 0
M  V30 240 O 22.9435 1.78815 3.99946 0
M  V30 241 C 24.4445 0.0374032 4.43284 0
M  V30 242 H 21.6645 0.159132 0.651857 0
M  V30 243 H 24.2085 1.08183 1.73541 0
M  V30 244 H 22.3635 -0.188057 3.86943 0
M  V30 245 H 22.7775 1.74636 4.94573 0
M  V30 246 H 24.2515 0.134882 5.51835 0
M  V30 247 H 24.7285 -1.01651 4.27275 0
M  V30 248 H 25.3345 0.654215 4.20238 0
M  V30 249 N 23.6496 -1.47581 0.552962 0
M  V30 250 C 24.8776 -2.06875 0.0320556 0
M  V30 251 C 25.2926 -1.40625 -1.25976 0
M  V30 252 O 24.6496 -0.501349 -1.75479 0
M  V30 253 C 24.7006 -3.61092 -0.17167 0
M  V30 254 O 24.4216 -4.24858 1.06899 0
M  V30 255 C 25.9226 -4.37242 -0.730344 0
M  V30 256 H 23.1426 -0.669561 0.043915 0
M  V30 257 H 25.6866 -1.89646 0.765163 0
M  V30 258 H 23.8416 -3.7785 -0.854894 0
M  V30 259 H 24.2556 -5.17334 0.864059 0
M  V30 260 H 25.7296 -5.45842 -0.822203 0
M  V30 261 H 26.2066 -4.03235 -1.74064 0
M  V30 262 H 26.8126 -4.25219 -0.0829543 0
M  V30 263 N 25.1277 -0.289203 -1.54924 0
M  V30 264 C 26.0607 0.633823 -2.19221 0
M  V30 265 C 27.0387 1.14174 -1.15772 0
M  V30 266 O 28.2227 1.21211 -1.44361 0
M  V30 267 C 25.3497 1.86592 -2.82668 0
M  V30 268 C 24.3957 1.49227 -3.99542 0
M  V30 269 S 25.2287 0.558312 -5.32582 0
M  V30 270 C 26.3847 1.79847 -5.99505 0
M  V30 271 H 26.6177 0.0875416 -2.97171 0
M  V30 272 H 24.1507 -0.0733899 -1.54225 0
M  V30 273 H 26.1087 2.57305 -3.19851 0
M  V30 274 H 24.7697 2.38335 -2.04585 0
M  V30 275 H 23.9627 2.40945 -4.42676 0
M  V30 276 H 23.5647 0.865193 -3.63855 0
M  V30 277 H 25.8567 2.7406 -6.19595 0
M  V30 278 H 26.7997 1.4099 -6.93922 0
M  V30 279 H 27.2077 1.96982 -5.29016 0
M  V30 280 N 26.6058 1.57591 -0.0167156 0
M  V30 281 C 27.5528 2.09462 0.969251 0
M  V30 282 C 28.5228 0.99381 1.33089 0
M  V30 283 O 29.7078 1.26726 1.42636 0
M  V30 284 C 26.8478 2.61622 2.25051 0
M  V30 285 C 25.9608 3.85666 1.94642 0
M  V30 286 C 25.0958 4.26266 3.16972 0
M  V30 287 C 24.1348 5.43101 2.82326 0
M  V30 288 N 23.2718 5.78915 3.97243 0
M  V30 289 H 28.1118 2.93428 0.519997 0
M  V30 290 H 25.6488 1.45044 0.245087 0
M  V30 291 H 27.6068 2.89949 2.99976 0
M  V30 292 H 26.2368 1.80505 2.67615 0
M  V30 293 H 25.2888 3.64145 1.10013 0
M  V30 294 H 26.6008 4.70678 1.65117 0
M  V30 295 H 25.7548 4.55963 4.00228 0
M  V30 296 H 24.4938 3.39996 3.49648 0
M  V30 297 H 23.4988 5.1311 1.97479 0
M  V30 298 H 24.7238 6.3106 2.50879 0
M  V30 299 H 22.6698 4.95602 4.29785 0
M  V30 300 H 22.5868 6.58539 3.71299 0
M  V30 301 H 23.8548 6.13212 4.81239 0
M  V30 302 N 28.0839 -0.256276 1.55502 0
M  V30 303 C 29.3609 -1.00789 1.67633 0
M  V30 304 C 29.7409 -2.03706 0.553826 0
M  V30 305 O 29.0889 -2.24145 -0.443969 0
M  V30 306 C 29.2989 -1.64968 3.07549 0
M  V30 307 C 30.6469 -2.15505 3.65845 0
M  V30 308 O 31.6709 -1.74925 3.1029 0
M  V30 309 O 30.5299 -2.89986 4.63217 0
M  V30 310 H 27.6239 -0.468553 0.681459 0
M  V30 311 H 30.1699 -0.250806 1.67836 0
M  V30 312 H 28.9419 -0.904785 3.80696 0
M  V30 313 H 28.5649 -2.47321 3.11317 0
M  V30 314 N 29.562 -1.4872 -0.521534 0
M  V30 315 C 30.973 -1.50607 -1.10337 0
M  V30 316 C 31.324 -0.280612 -1.94183 0
M  V30 317 O 30.449 0.611507 -2.0758 0
M  V30 318 C 31.044 -2.72903 -2.00772 0
M  V30 319 C 29.603 -2.77634 -2.54158 0
M  V30 320 C 28.75 -2.44241 -1.31307 0
M  V30 321 H 31.701 -1.55714 -0.306388 0
M  V30 322 H 31.722 -2.519 -2.85178 0
M  V30 323 H 31.234 -3.62077 -1.39721 0
M  V30 324 H 29.335 -1.92689 -3.18907 0
M  V30 325 H 29.448 -3.79283 -2.92714 0
M  V30 326 H 27.812 -1.95577 -1.63161 0
M  V30 327 H 28.595 -3.35666 -0.719943 0
M  V30 328 N 31.0401 0.771051 -1.3745 0
M  V30 329 C 32.4561 1.07171 -1.18265 0
M  V30 330 C 32.6561 2.01491 -0.019287 0
M  V30 331 O 31.7121 2.44244 0.640408 0
M  V30 332 C 33.0251 1.66854 -2.50161 0
M  V30 333 C 34.5731 1.79109 -2.56689 0
M  V30 334 C 35.0481 2.42205 -3.88717 0
M  V30 335 N 36.5391 2.49655 -3.90162 0
M  V30 336 C 37.2741 2.9933 -4.8907 0
M  V30 337 N 36.7701 3.49172 -5.98374 0
M  V30 338 N 38.5631 2.9821 -4.76474 0
M  V30 339 H 30.7141 0.144796 -2.11906 0
M  V30 340 H 32.9771 0.126863 -0.939473 0
M  V30 341 H 32.6831 1.05017 -3.35655 0
M  V30 342 H 32.5571 2.6614 -2.673 0
M  V30 343 H 34.9441 2.40077 -1.71601 0
M  V30 344 H 35.0251 0.785757 -2.43433 0
M  V30 345 H 34.6691 1.81875 -4.74219 0
M  V30 346 H 34.5991 3.43345 -3.99276 0
M  V30 347 H 37.0901 2.14383 -3.11205 0
M  V30 348 H 37.4031 3.8548 -6.69795 0
M  V30 349 H 35.7481 3.47275 -6.02018 0
M  V30 350 H 38.9391 2.58572 -3.90203 0
M  V30 351 H 39.1121 3.36613 -5.53711 0
M  V30 352 N 32.5182 1.22032 0.997298 0
M  V30 353 C 33.7642 1.04376 1.73878 0
M  V30 354 C 34.0972 -0.420716 1.89588 0
M  V30 355 O 33.3722 -1.31202 1.43583 0
M  V30 356 C 33.6552 1.75047 3.14691 0
M  V30 357 C 33.5082 3.29062 3.06656 0
M  V30 358 C 34.8272 1.49928 4.13775 0
M  V30 359 H 31.9462 0.380578 0.631133 0
M  V30 360 H 34.5882 1.50312 1.16217 0
M  V30 361 H 32.7382 1.35996 3.63919 0
M  V30 362 H 34.4102 3.7753 2.65083 0
M  V30 363 H 32.6532 3.58967 2.43568 0
M  V30 364 H 33.3242 3.73683 4.06282 0
M  V30 365 H 35.8002 1.83842 3.73285 0
M  V30 366 H 34.6762 2.01878 5.10428 0
M  V30 367 H 34.9372 0.430929 4.39995 0
M  V30 368 N 33.9963 -1.19345 1.0293 0
M  V30 369 C 34.9263 -2.2481 0.631105 0
M  V30 370 C 35.9073 -1.66245 -0.360104 0
M  V30 371 O 37.0923 -1.92677 -0.242726 0
M  V30 372 C 34.2223 -3.47295 -0.0184607 0
M  V30 373 C 33.1763 -4.18536 0.895073 0
M  V30 374 C 32.5023 -5.34586 0.110592 0
M  V30 375 C 33.8023 -4.73287 2.209 0
M  V30 376 H 35.4963 -2.58372 1.51275 0
M  V30 377 H 33.0423 -1.24194 0.728818 0
M  V30 378 H 34.9953 -4.20268 -0.308675 0
M  V30 379 H 33.7193 -3.12933 -0.934907 0
M  V30 380 H 32.3783 -3.47446 1.16949 0
M  V30 381 H 32.0263 -4.96469 -0.807902 0
M  V30 382 H 31.7263 -5.83183 0.719087 0
M  V30 383 H 33.2503 -6.10355 -0.172871 0
M  V30 384 H 34.6643 -5.38013 1.98028 0
M  V30 385 H 33.0613 -5.32373 2.76946 0
M  V30 386 H 34.1313 -3.91331 2.86336 0
M  V30 387 N 35.4744 -0.807222 -1.35358 0
M  V30 388 C 36.4224 -0.20614 -2.31685 0
M  V30 389 C 37.4164 0.644445 -1.56663 0
M  V30 390 O 38.6224 0.537538 -1.71786 0
M  V30 391 H 34.9974 -0.0479006 -0.750473 0
M  V30 392 H 36.9684 -1.03369 -2.79924 0
M  V30 393 C 35.7174 0.630212 -3.41941 0
M  V30 394 H 35.0404 -0.0149558 -3.99797 0
M  V30 395 H 36.4804 1.01716 -4.11619 0
M  V30 396 C 34.9394 1.79601 -2.85035 0
M  V30 397 O 35.4694 2.89351 -2.78637 0
M  V30 398 N 33.6754 1.60774 -2.42074 0
M  V30 399 H 33.2224 0.715009 -2.47478 0
M  V30 400 H 33.1804 2.38933 -2.04349 0
M  V30 401 N 36.9525 1.47285 -0.560781 0
M  V30 402 C 37.9005 2.31756 0.197942 0
M  V30 403 C 38.8945 1.43146 0.905854 0
M  V30 404 O 40.1005 1.59891 0.826733 0
M  V30 405 H 36.4755 0.747438 0.0827049 0
M  V30 406 H 38.4465 2.9359 -0.533629 0
M  V30 407 C 37.1955 3.25874 1.21249 0
M  V30 408 H 36.5185 3.94023 0.67719 0
M  V30 409 H 37.9585 3.87803 1.71419 0
M  V30 410 C 36.4175 2.49651 2.26221 0
M  V30 411 O 36.9475 2.24355 3.33208 0
M  V30 412 N 35.1535 2.10597 2.00243 0
M  V30 413 H 34.7005 2.31369 1.13252 0
M  V30 414 H 34.6585 1.59913 2.70694 0
M  V30 415 N 38.4306 0.297415 1.54768 0
M  V30 416 C 39.3606 -0.573494 2.26348 0
M  V30 417 C 40.3416 -1.14085 1.26169 0
M  V30 418 O 41.5266 -1.17086 1.54934 0
M  V30 419 C 38.6566 -1.74716 3.00153 0
M  V30 420 C 37.6106 -1.31032 4.07449 0
M  V30 421 C 36.9366 -2.56887 4.68949 0
M  V30 422 C 38.2366 -0.444183 5.20408 0
M  V30 423 H 39.9306 0.0235131 2.99391 0
M  V30 424 H 37.4766 0.0127488 1.43994 0
M  V30 425 H 39.4296 -2.3625 3.48947 0
M  V30 426 H 38.1536 -2.37035 2.24682 0
M  V30 427 H 36.8126 -0.718066 3.59499 0
M  V30 428 H 36.4606 -3.17512 3.90122 0
M  V30 429 H 36.1606 -2.2836 5.41411 0
M  V30 430 H 37.6846 -3.19229 5.20505 0
M  V30 431 H 39.0986 -0.9651 5.65118 0
M  V30 432 H 37.4956 -0.252846 5.99567 0
M  V30 433 H 38.5656 0.531609 4.81977 0
M  V30 434 N 39.9087 -1.5758 0.0250728 0
M  V30 435 C 40.8557 -2.09973 -0.958129 0
M  V30 436 C 41.8257 -1.00085 -1.3256 0
M  V30 437 O 43.0107 -1.27481 -1.41962 0
M  V30 438 C 40.1507 -2.62812 -2.2366 0
M  V30 439 C 39.2637 -3.86693 -1.92594 0
M  V30 440 C 38.3987 -4.27941 -3.14707 0
M  V30 441 C 37.4377 -5.44591 -2.79442 0
M  V30 442 N 36.5747 -5.81014 -3.94167 0
M  V30 443 H 41.4147 -2.937 -0.504428 0
M  V30 444 H 38.9517 -1.45172 -0.237392 0
M  V30 445 H 40.9097 -2.91536 -2.98434 0
M  V30 446 H 39.5397 -1.81922 -2.66654 0
M  V30 447 H 38.5917 -3.64723 -1.0808 0
M  V30 448 H 39.9037 -4.71547 -1.62619 0
M  V30 449 H 39.0577 -4.58079 -3.97804 0
M  V30 450 H 37.7967 -3.41845 -3.4784 0
M  V30 451 H 36.8017 -5.1415 -1.94755 0
M  V30 452 H 38.0267 -6.32382 -2.47528 0
M  V30 453 H 35.9727 -4.97874 -4.2715 0
M  V30 454 H 35.8897 -6.60498 -3.67801 0
M  V30 455 H 37.1577 -6.15756 -4.7798 0
M  V30 456 N 41.3868 0.248026 -1.55636 0
M  V30 457 C 42.3168 1.31079 -1.93237 0
M  V30 458 C 43.2978 1.50264 -0.797174 0
M  V30 459 O 44.4828 1.62891 -1.05737 0
M  V30 460 C 41.6128 2.66575 -2.22609 0
M  V30 461 C 40.5668 2.62087 -3.3837 0
M  V30 462 C 39.8928 4.01369 -3.53281 0
M  V30 463 C 41.1928 2.19171 -4.7409 0
M  V30 464 H 42.8868 0.998556 -2.82257 0
M  V30 465 H 40.4328 0.47891 -1.35803 0
M  V30 466 H 42.3858 3.41057 -2.47503 0
M  V30 467 H 41.1098 2.99432 -1.30414 0
M  V30 468 H 39.7688 1.90063 -3.13483 0
M  V30 469 H 39.4168 4.31489 -2.58508 0
M  V30 470 H 39.1168 3.99254 -4.31127 0
M  V30 471 H 40.6408 4.77552 -3.80495 0
M  V30 472 H 42.0548 2.83384 -4.98363 0
M  V30 473 H 40.4518 2.2817 -5.5503 0
M  V30 474 H 41.5218 1.14336 -4.71227 0
M  V30 475 N 42.8649 1.48995 0.513639 0
M  V30 476 C 44.2809 1.35478 0.843682 0
M  V30 477 C 44.4809 0.378213 1.97919 0
M  V30 478 O 43.5369 -0.194689 2.51748 0
M  V30 479 C 44.8499 2.75901 1.1958 0
M  V30 480 C 46.3979 2.84509 1.30474 0
M  V30 481 C 46.8729 4.25671 1.69021 0
M  V30 482 N 48.3639 4.28422 1.76094 0
M  V30 483 C 49.0989 5.34601 2.07338 0
M  V30 484 N 48.5949 6.5104 2.36894 0
M  V30 485 N 50.3879 5.22007 2.08483 0
M  V30 486 H 42.5389 2.11092 -0.235328 0
M  V30 487 H 44.8019 0.947039 -0.0426669 0
M  V30 488 H 44.5079 3.49001 0.434913 0
M  V30 489 H 44.3819 3.10467 2.1422 0
M  V30 490 H 46.7689 2.11655 2.05637 0
M  V30 491 H 46.8499 2.53542 0.339155 0
M  V30 492 H 46.4939 4.99048 0.944135 0
M  V30 493 H 46.4239 4.54094 2.66658 0
M  V30 494 H 48.9149 3.44441 1.55464 0
M  V30 495 H 49.2279 7.2779 2.59887 0
M  V30 496 H 47.5729 6.54287 2.34378 0
M  V30 497 H 50.7639 4.30051 1.84861 0
M  V30 498 H 50.9369 6.04854 2.325 0
M  V30 499 N 44.343 -0.763751 1.37857 0
M  V30 500 C 45.253 -1.90817 1.36478 0
M  V30 501 C 46.269 -1.71997 0.263248 0
M  V30 502 O 47.445 -1.95095 0.499979 0
M  V30 503 C 44.51 -3.2605 1.17864 0
M  V30 504 C 43.571 -3.57467 2.3773 0
M  V30 505 C 42.804 -4.86249 2.19995 0
M  V30 506 O 43.027 -5.57884 1.18836 0
M  V30 507 O 41.961 -5.16911 3.08361 0
M  V30 508 H 45.787 -1.94933 2.32884 0
M  V30 509 H 43.372 -0.907619 1.1867 0
M  V30 510 H 45.254 -4.06924 1.09504 0
M  V30 511 H 43.929 -3.22769 0.245372 0
M  V30 512 H 42.836 -2.76796 2.51664 0
M  V30 513 H 44.169 -3.655 3.29652 0
M  V30 514 N 45.8211 -1.22559 -0.990812 0
M  V30 515 C 46.7511 -1.0218 -2.09956 0
M  V30 516 C 47.7321 0.0579394 -1.70001 0
M  V30 517 O 48.9171 -0.104684 -1.93918 0
M  V30 518 C 46.0471 -0.601023 -3.4206 0
M  V30 519 C 45.0011 -1.62694 -3.95872 0
M  V30 520 C 44.3271 -1.06193 -5.24049 0
M  V30 521 C 45.6271 -3.01743 -4.2632 0
M  V30 522 H 47.3211 -1.94916 -2.27262 0
M  V30 523 H 44.8671 -0.938566 -1.09211 0
M  V30 524 H 46.8201 -0.445561 -4.19038 0
M  V30 525 H 45.5441 0.362005 -3.24588 0
M  V30 526 H 44.2031 -1.77021 -3.21028 0
M  V30 527 H 43.8511 -0.0901903 -5.02919 0
M  V30 528 H 43.5511 -1.74732 -5.61019 0
M  V30 529 H 45.0751 -0.918092 -6.03658 0
M  V30 530 H 46.4891 -2.90777 -4.94087 0
M  V30 531 H 44.8861 -3.67425 -4.74467 0
M  V30 532 H 45.9561 -3.51518 -3.34011 0
M  V30 533 N 47.2992 1.18797 -1.03562 0
M  V30 534 C 48.2292 2.24472 -0.643019 0
M  V30 535 C 49.2102 1.66433 0.351283 0
M  V30 536 O 50.3952 1.92803 0.232505 0
M  V30 537 C 47.5252 3.473 4.24935e-05 0
M  V30 538 C 46.4792 4.18055 -0.917257 0
M  V30 539 C 45.8052 5.34519 -0.138941 0
M  V30 540 C 47.1052 4.72109 -2.23407 0
M  V30 541 H 48.7992 2.57566 -1.52643 0
M  V30 542 H 46.3452 1.23806 -0.735394 0
M  V30 543 H 48.2982 4.20426 0.286383 0
M  V30 544 H 47.0222 3.13424 0.918299 0
M  V30 545 H 45.6812 3.46821 -1.1879 0
M  V30 546 H 45.3292 4.96891 0.781562 0
M  V30 547 H 45.0292 5.82794 -0.750005 0
M  V30 548 H 46.5532 6.10438 0.1405 0
M  V30 549 H 47.9672 5.36955 -2.00879 0
M  V30 550 H 46.3642 5.30897 -2.79765 0
M  V30 551 H 47.4342 3.89807 -2.88407 0
M  V30 552 N 48.7773 0.814389 1.34928 0
M  V30 553 C 49.7073 0.244827 2.32213 0
M  V30 554 C 50.6883 -0.634024 1.57842 0
M  V30 555 O 51.8733 -0.562676 1.8587 0
M  V30 556 C 49.0033 -0.601106 3.42058 0
M  V30 557 C 47.9573 0.179896 4.27622 0
M  V30 558 C 47.2833 -0.788237 5.28858 0
M  V30 559 C 48.5833 1.38329 5.03649 0
M  V30 560 H 50.2773 1.05763 2.80097 0
M  V30 561 H 47.8233 0.510029 1.34665 0
M  V30 562 H 49.7763 -1.00968 4.09125 0
M  V30 563 H 48.5003 -1.44688 2.92802 0
M  V30 564 H 47.1593 0.569739 3.62146 0
M  V30 565 H 46.8073 -1.62973 4.75866 0
M  V30 566 H 46.5073 -0.269942 5.8698 0
M  V30 567 H 48.0313 -1.19485 5.98795 0
M  V30 568 H 49.4453 1.04918 5.63618 0
M  V30 569 H 47.8423 1.83662 5.71304 0
M  V30 570 H 48.9123 2.16592 4.33839 0
M  V30 571 N 50.2554 -1.46986 0.568584 0
M  V30 572 C 51.6664 -1.86188 0.138219 0
M  V30 573 C 52.0174 -1.47388 -1.29504 0
M  V30 574 O 51.1424 -0.88219 -1.97602 0
M  V30 575 C 51.7374 -3.3792 0.244065 0
M  V30 576 C 50.2964 -3.76171 -0.131335 0
M  V30 577 C 49.4434 -2.71027 0.586465 0
M  V30 578 H 52.3944 -1.38342 0.777645 0
M  V30 579 H 52.4154 -3.76729 -0.534351 0
M  V30 580 H 51.9274 -3.66128 1.28731 0
M  V30 581 H 50.0284 -3.5358 -1.17526 0
M  V30 582 H 50.1414 -4.78523 0.235146 0
M  V30 583 H 48.5054 -2.54684 0.0282722 0
M  V30 584 H 49.2884 -3.02077 1.63109 0
M  V30 585 N 51.7335 -0.305618 -1.54608 0
M  V30 586 C 52.6805 0.568421 -2.23691 0
M  V30 587 C 53.6505 1.12592 -1.22116 0
M  V30 588 O 54.8355 1.16959 -1.50749 0
M  V30 589 C 51.9755 1.7322 -2.98477 0
M  V30 590 C 51.0885 1.20566 -4.14835 0
M  V30 591 C 50.2235 2.33368 -4.77193 0
M  V30 592 C 49.2625 1.7787 -5.85686 0
M  V30 593 N 48.3995 2.84263 -6.4198 0
M  V30 594 H 53.2395 -0.0272867 -2.97988 0
M  V30 595 H 50.7765 -0.0252363 -1.47078 0
M  V30 596 H 52.7345 2.41675 -3.40072 0
M  V30 597 H 51.3645 2.29947 -2.26548 0
M  V30 598 H 50.4165 0.413223 -3.78149 0
M  V30 599 H 51.7285 0.759417 -4.92985 0
M  V30 600 H 50.8825 3.09761 -5.21664 0
M  V30 601 H 49.6215 2.8132 -3.98385 0
M  V30 602 H 48.6265 0.99968 -5.40635 0
M  V30 603 H 49.8515 1.30816 -6.66381 0
M  V30 604 H 47.7975 3.31541 -5.66053 0
M  V30 605 H 47.7145 2.44149 -7.15491 0
M  V30 606 H 48.9825 3.6054 -6.91109 0
M  V30 607 N 53.2116 1.57565 -0.0334293 0
M  V30 608 C 54.4586 1.91978 0.644272 0
M  V30 609 C 54.7866 0.910231 1.71887 0
M  V30 610 O 54.0416 -0.0801961 1.95536 0
M  V30 611 C 54.3406 3.33112 1.29504 0
M  V30 612 C 54.0066 4.49537 0.350388 0
M  V30 613 C 52.6686 4.81115 0.0903974 0
M  V30 614 C 55.0206 5.20347 -0.298032 0
M  V30 615 C 52.3486 5.8086 -0.825746 0
M  V30 616 C 54.7006 6.2107 -1.20226 0
M  V30 617 C 53.3646 6.51088 -1.4711 0
M  V30 618 H 52.6346 0.702496 0.235756 0
M  V30 619 H 55.2816 1.91259 -0.0961176 0
M  V30 620 H 53.5866 3.30113 2.11028 0
M  V30 621 H 55.2836 3.57011 1.82603 0
M  V30 622 H 51.8736 4.24883 0.563205 0
M  V30 623 H 56.0576 4.96178 -0.110234 0
M  V30 624 H 51.3136 6.02461 -1.04169 0
M  V30 625 H 55.4876 6.75057 -1.71086 0
M  V30 626 H 53.1146 7.28193 -2.18264 0
M  V30 627 N 54.6897 -0.239769 1.55765 0
M  V30 628 C 55.9177 -0.98417 1.81994 0
M  V30 629 C 56.3327 -1.7867 0.610124 0
M  V30 630 O 55.6897 -1.77571 -0.421271 0
M  V30 631 C 55.7407 -1.91635 3.06526 0
M  V30 632 O 55.4617 -1.14629 4.22838 0
M  V30 633 C 56.9627 -2.77616 3.45607 0
M  V30 634 H 54.1827 -0.28928 0.605441 0
M  V30 635 H 56.7267 -0.260499 2.02834 0
M  V30 636 H 54.8817 -2.5942 2.87715 0
M  V30 637 H 55.2957 -1.77745 4.93464 0
M  V30 638 H 56.7697 -3.38759 4.35828 0
M  V30 639 H 57.2467 -3.4909 2.6652 0
M  V30 640 H 57.8527 -2.15271 3.66795 0
M  V30 641 N 56.1678 -1.49265 -0.50573 0
M  V30 642 C 57.3928 -1.62478 -1.28902 0
M  V30 643 C 57.8178 -0.294332 -1.85783 0
M  V30 644 O 57.1758 0.737412 -1.65626 0
M  V30 645 C 57.2238 -2.69268 -2.39848 0
M  V30 646 O 56.3278 -2.28113 -3.43567 0
M  V30 647 H 55.6688 -0.54399 -0.380751 0
M  V30 648 H 58.1988 -1.95421 -0.605952 0
M  V30 649 H 58.2088 -2.91291 -2.85681 0
M  V30 650 H 56.8838 -3.65846 -1.97812 0
M  V30 651 H 55.4608 -2.16401 -3.03685 0
M  V30 652 N 57.6459 0.756429 -1.3826 0
M  V30 653 C 58.5759 1.88374 -1.37976 0
M  V30 654 C 59.5569 1.68311 -0.246082 0
M  V30 655 O 60.7419 1.88944 -0.44874 0
M  V30 656 C 57.8719 3.25864 -1.20125 0
M  V30 657 C 56.8259 3.60523 -2.30666 0
M  V30 658 C 56.1519 4.9672 -1.97923 0
M  V30 659 C 57.4519 3.65692 -3.72916 0
M  V30 660 H 59.1459 1.88869 -2.32312 0
M  V30 661 H 56.6919 0.907272 -1.11824 0
M  V30 662 H 58.6449 4.0438 -1.18552 0
M  V30 663 H 57.3689 3.25841 -0.222498 0
M  V30 664 H 56.0279 2.84324 -2.3142 0
M  V30 665 H 55.6759 4.93253 -0.985393 0
M  V30 666 H 55.3759 5.20878 -2.71955 0
M  V30 667 H 56.8999 5.77618 -1.97964 0
M  V30 668 H 58.3139 4.34328 -3.74208 0
M  V30 669 H 56.7109 4.01358 -4.4613 0
M  V30 670 H 57.7809 2.65987 -4.05436 0
M  V30 671 N 59.124 1.23083 0.984299 0
M  V30 672 C 60.37 1.07221 1.72845 0
M  V30 673 C 60.725 -0.387453 1.88458 0
M  V30 674 O 60.018 -1.28309 1.42293 0
M  V30 675 C 60.212 1.72673 3.1292 0
M  V30 676 C 60.041 3.24853 3.10967 0
M  V30 677 C 58.811 3.93998 3.16376 0
M  V30 678 C 61.009 4.21674 2.94441 0
M  V30 679 N 58.991 5.33192 3.04268 0
M  V30 680 C 60.362 5.47756 2.90453 0
M  V30 681 C 62.417 4.12457 2.78897 0
M  V30 682 C 61.12 6.6568 2.72512 0
M  V30 683 C 63.146 5.3004 2.62319 0
M  V30 684 C 62.508 6.55046 2.59026 0
M  V30 685 H 58.607 0.44685 0.641755 0
M  V30 686 H 61.191 1.55753 1.16829 0
M  V30 687 H 59.362 1.26679 3.67161 0
M  V30 688 H 61.094 1.49824 3.75945 0
M  V30 689 H 57.849 3.45052 3.24401 0
M  V30 690 H 58.273 6.06157 3.015 0
M  V30 691 H 62.915 3.16588 2.80235 0
M  V30 692 H 60.633 7.61689 2.69919 0
M  V30 693 H 64.219 5.24747 2.5126 0
M  V30 694 H 63.099 7.44498 2.46357 0
M  V30 695 N 60.6021 -1.18246 1.0419 0
M  V30 696 C 61.5121 -2.25574 0.644476 0
M  V30 697 C 62.5281 -1.70845 -0.329826 0
M  V30 698 O 63.7041 -2.00554 -0.184443 0
M  V30 699 C 60.7691 -3.46697 0.014877 0
M  V30 700 C 59.8301 -4.16554 1.03834 0
M  V30 701 C 59.0631 -5.31894 0.438692 0
M  V30 702 O 59.2861 -5.65385 -0.754752 0
M  V30 703 O 58.2201 -5.90459 1.168 0
M  V30 704 H 62.0461 -2.61836 1.53869 0
M  V30 705 H 59.6311 -1.25352 0.812854 0
M  V30 706 H 61.5131 -4.20062 -0.335538 0
M  V30 707 H 60.1881 -3.12255 -0.853138 0
M  V30 708 H 59.0951 -3.45251 1.44057 0
M  V30 709 H 60.4281 -4.54998 1.87716 0
M  V30 710 N 62.0802 -0.821533 -1.34494 0
M  V30 711 C 63.3292 -0.405355 -1.97585 0
M  V30 712 C 63.6422 1.03677 -1.65863 0
M  V30 713 O 64.8482 1.55679 -2.22433 0
M  V30 714 C 63.3042 -0.673861 -3.53535 0
M  V30 715 C 62.9122 -2.12951 -3.94152 0
M  V30 716 C 64.6562 -0.32378 -4.23263 0
M  V30 717 C 62.5632 -2.34298 -5.43009 0
M  V30 718 H 61.4932 -0.147836 -0.739365 0
M  V30 719 H 64.1442 -1.00769 -1.53355 0
M  V30 720 H 62.5262 -0.00137554 -3.96 0
M  V30 721 H 63.7002 -2.84104 -3.62797 0
M  V30 722 H 62.0152 -2.44089 -3.37356 0
M  V30 723 H 64.6122 -0.461126 -5.32708 0
M  V30 724 H 64.9552 0.731586 -4.09821 0
M  V30 725 H 65.4882 -0.950786 -3.8627 0
M  V30 726 H 62.2272 -3.38335 -5.61435 0
M  V30 727 H 61.7472 -1.67687 -5.75883 0
M  V30 728 H 63.4262 -2.16588 -6.09671 0
M  V30 729 N 63.5583 1.46682 -0.576371 0
M  V30 730 C 64.4903 2.28341 0.198231 0
M  V30 731 C 65.5033 1.38141 0.861453 0
M  V30 732 O 66.6923 1.62797 0.732082 0
M  V30 733 C 63.7923 3.12986 1.29972 0
M  V30 734 C 62.9653 4.31271 0.729639 0
M  V30 735 C 62.0243 4.97363 1.71803 0
M  V30 736 O 61.0503 5.55156 1.25658 0
M  V30 737 N 62.2523 4.93796 3.05198 0
M  V30 738 H 65.0173 2.9546 -0.502324 0
M  V30 739 H 62.5783 1.56525 -0.413715 0
M  V30 740 H 64.5703 3.54066 1.96008 0
M  V30 741 H 63.1403 2.47984 1.90323 0
M  V30 742 H 62.3603 3.94052 -0.108012 0
M  V30 743 H 63.6483 5.07739 0.328438 0
M  V30 744 H 63.0463 4.48077 3.45317 0
M  V30 745 H 61.6033 5.38837 3.6674 0
M  V30 746 N 65.0364 0.313813 1.54444 0
M  V30 747 C 66.2644 -0.293918 2.04802 0
M  V30 748 C 66.6794 -1.46537 1.19047 0
M  V30 749 O 66.0364 -1.81182 0.218939 0
M  V30 750 C 66.0874 -0.737806 3.53891 0
M  V30 751 O 65.8084 0.387038 4.36387 0
M  V30 752 C 67.3094 -1.40936 4.203 0
M  V30 753 H 64.5294 -0.0620057 0.668129 0
M  V30 754 H 67.0734 0.457169 1.99324 0
M  V30 755 H 65.2284 -1.43889 3.59687 0
M  V30 756 H 65.6424 0.0391274 5.24485 0
M  V30 757 H 67.1164 -1.67099 5.26101 0
M  V30 758 H 67.5934 -2.35355 3.70816 0
M  V30 759 H 68.1994 -0.751117 4.18615 0
M  V30 760 N 66.5145 -1.57545 0.0417849 0
M  V30 761 C 67.4245 -2.14451 -0.951213 0
M  V30 762 C 68.4405 -1.09992 -1.34825 0
M  V30 763 O 69.6165 -1.42114 -1.42708 0
M  V30 764 C 66.6815 -2.67063 -2.21084 0
M  V30 765 C 65.7425 -3.86284 -1.87304 0
M  V30 766 C 64.9755 -4.36378 -3.07261 0
M  V30 767 O 65.1985 -3.85587 -4.20332 0
M  V30 768 O 64.1325 -5.28077 -2.88822 0
M  V30 769 H 67.9585 -2.99601 -0.497287 0
M  V30 770 H 65.5435 -1.48317 -0.179567 0
M  V30 771 H 67.4255 -3.00914 -2.95006 0
M  V30 772 H 66.1005 -1.84989 -2.65633 0
M  V30 773 H 65.0075 -3.57338 -1.10727 0
M  V30 774 H 66.3405 -4.6956 -1.47562 0
M  V30 775 N 67.9926 0.231505 -1.5589 0
M  V30 776 C 69.2386 0.95877 -1.78705 0
M  V30 777 C 69.5716 1.8438 -0.609725 0
M  V30 778 O 68.8466 1.90521 0.391426 0
M  V30 779 C 69.1296 1.8062 -3.11526 0
M  V30 780 C 68.9826 0.948328 -4.39689 0
M  V30 781 C 70.3016 2.78585 -3.40703 0
M  V30 782 H 67.4206 0.347129 -0.650131 0
M  V30 783 H 70.0626 0.228259 -1.88624 0
M  V30 784 H 68.2126 2.42902 -3.03201 0
M  V30 785 H 69.8846 0.343016 -4.60023 0
M  V30 786 H 68.1276 0.253314 -4.3306 0
M  V30 787 H 68.7986 1.57543 -5.29041 0
M  V30 788 H 71.2746 2.26439 -3.49091 0
M  V30 789 H 70.1506 3.34988 -4.34826 0
M  V30 790 H 70.4116 3.55825 -2.62375 0
M  V30 791 N 69.4707 1.49531 0.497807 0
M  V30 792 C 70.6987 1.62893 1.27567 0
M  V30 793 C 71.1137 0.301585 1.86376 0
M  V30 794 O 70.4707 -0.713335 1.67982 0
M  V30 795 C 70.5217 2.70013 2.40364 0
M  V30 796 O 70.2427 3.976 1.83972 0
M  V30 797 C 71.7437 2.94109 3.31685 0
M  V30 798 H 68.9637 0.548298 0.386794 0
M  V30 799 H 71.5077 1.95584 0.597245 0
M  V30 800 H 69.6627 2.40092 3.04031 0
M  V30 801 H 70.0767 4.56631 2.58047 0
M  V30 802 H 71.5507 3.72788 4.07104 0
M  V30 803 H 72.0277 2.04147 3.88871 0
M  V30 804 H 72.6337 3.2546 2.73781 0
M  V30 805 N 70.9488 -0.749086 1.3866 0
M  V30 806 C 72.1948 -1.51056 1.35314 0
M  V30 807 C 72.5278 -1.94121 -0.0553751 0
M  V30 808 O 71.8028 -1.65763 -1.01749 0
M  V30 809 C 72.0858 -2.76003 2.31288 0
M  V30 810 C 71.9388 -2.39047 3.8102 0
M  V30 811 C 73.2578 -3.78046 2.2532 0
M  V30 812 H 70.3768 -0.547972 0.492844 0
M  V30 813 H 73.0188 -0.857628 1.69543 0
M  V30 814 H 71.1688 -3.31716 2.02229 0
M  V30 815 H 72.8408 -1.89074 4.20771 0
M  V30 816 H 71.0838 -1.71449 3.98482 0
M  V30 817 H 71.7548 -3.28462 4.4364 0
M  V30 818 H 74.2308 -3.31884 2.50983 0
M  V30 819 H 73.1068 -4.63159 2.94576 0
M  V30 820 H 73.3678 -4.23957 1.25352 0
M  V30 821 N 72.4269 -1.23603 -0.977757 0
M  V30 822 C 73.7039 -0.977897 -1.69401 0
M  V30 823 C 74.0839 0.502738 -2.05026 0
M  V30 824 O 73.4319 1.47459 -1.74551 0
M  V30 825 C 73.6419 -1.89077 -2.93345 0
M  V30 826 C 74.9899 -2.15579 -3.65802 0
M  V30 827 O 76.0139 -1.86648 -3.03383 0
M  V30 828 O 74.8729 -2.64658 -4.78141 0
M  V30 829 H 71.9669 -0.369025 -0.740101 0
M  V30 830 H 74.5129 -1.34657 -1.03274 0
M  V30 831 H 73.2849 -2.89158 -2.63634 0
M  V30 832 H 72.9079 -1.52463 -3.67207 0
M  V30 833 N 73.905 1.17692 -1.04816 0
M  V30 834 C 74.853 2.23632 -0.63966 0
M  V30 835 C 75.847 1.6601 0.337219 0
M  V30 836 O 77.053 1.78844 0.203693 0
M  V30 837 H 73.428 0.727949 -0.188665 0
M  V30 838 H 75.399 2.55387 -1.54337 0
M  V30 839 C 74.148 3.4769 -0.0264051 0
M  V30 840 H 73.471 3.92331 -0.769164 0
M  V30 841 H 74.911 4.23418 0.222098 0
M  V30 842 C 73.37 3.13807 1.22584 0
M  V30 843 O 73.9 3.28236 2.31569 0
M  V30 844 N 72.106 2.68065 1.12202 0
M  V30 845 H 71.653 2.56525 0.235133 0
M  V30 846 H 71.611 2.45767 1.96076 0
M  V30 847 N 75.3831 0.828654 1.34056 0
M  V30 848 C 76.7991 0.515135 1.51058 0
M  V30 849 C 76.9991 -0.959581 1.77184 0
M  V30 850 O 76.0551 -1.74382 1.82612 0
M  V30 851 C 77.3681 1.37963 2.67183 0
M  V30 852 C 78.9161 1.37735 2.81066 0
M  V30 853 C 79.3911 2.22645 4.00241 0
M  V30 854 N 80.8821 2.203 4.07458 0
M  V30 855 C 81.6171 2.82744 4.98842 0
M  V30 856 N 81.1131 3.54201 5.9541 0
M  V30 857 N 82.9061 2.72268 4.91759 0
M  V30 858 H 75.0571 1.78343 1.15358 0
M  V30 859 H 77.3201 0.760304 0.566252 0
M  V30 860 H 77.0261 2.42714 2.54525 0
M  V30 861 H 76.9001 1.0484 3.62338 0
M  V30 862 H 79.2871 0.337593 2.93163 0
M  V30 863 H 79.3681 1.74859 1.86703 0
M  V30 864 H 79.0121 3.26674 3.88905 0
M  V30 865 H 78.9421 1.82869 4.93829 0
M  V30 866 H 81.4331 1.68327 3.38341 0
M  V30 867 H 81.7461 3.9908 6.61782 0
M  V30 868 H 80.0911 3.58308 5.95517 0
M  V30 869 H 83.2821 2.16014 4.15278 0
M  V30 870 H 83.4551 3.21219 5.62781 0
M  V30 871 N 76.8612 -1.46375 0.584142 0
M  V30 872 C 78.0892 -2.06761 0.0759296 0
M  V30 873 C 78.5042 -1.43266 -1.22965 0
M  V30 874 O 77.8612 -0.538458 -1.74376 0
M  V30 875 C 77.9122 -3.61375 -0.0950384 0
M  V30 876 O 77.6332 -4.22495 1.15887 0
M  V30 877 C 79.1342 -4.38693 -0.637434 0
M  V30 878 H 76.3542 -0.668479 0.0581075 0
M  V30 879 H 78.8982 -1.8798 0.805218 0
M  V30 880 H 77.0532 -3.79578 -0.774554 0
M  V30 881 H 77.4672 -5.15385 0.973598 0
M  V30 882 H 78.9412 -5.47464 -0.706237 0
M  V30 883 H 79.4182 -4.06836 -1.65472 0
M  V30 884 H 80.0242 -4.25299 0.00725967 0
M  V30 885 N 78.3393 -0.321999 -1.54275 0
M  V30 886 C 79.5883 0.281931 -1.9972 0
M  V30 887 C 79.9013 1.53369 -1.21397 0
M  V30 888 O 81.1073 2.21352 -1.57211 0
M  V30 889 C 79.5633 0.5529 -3.55628 0
M  V30 890 C 79.1713 -0.681721 -4.42783 0
M  V30 891 C 80.9153 1.11687 -4.09544 0
M  V30 892 C 78.8223 -0.382742 -5.9016 0
M  V30 893 H 77.7523 0.109124 -0.746062 0
M  V30 894 H 80.4033 -0.43398 -1.78294 0
M  V30 895 H 78.7853 1.32896 -3.73035 0
M  V30 896 H 79.9593 -1.45723 -4.37151 0
M  V30 897 H 78.2743 -1.1658 -3.99748 0
M  V30 898 H 80.8713 1.35515 -5.17242 0
M  V30 899 H 81.2143 2.06575 -3.61431 0
M  V30 900 H 81.7473 0.402032 -3.95763 0
M  V30 901 H 78.4863 -1.30076 -6.42464 0
M  V30 902 H 78.0063 0.355094 -5.98748 0
M  V30 903 H 79.6853 0.00800157 -6.47 0
M  V30 904 N 79.8174 1.5752 -0.0501392 0
M  V30 905 C 80.7474 2.14502 0.922566 0
M  V30 906 C 81.7284 1.06642 1.3252 0
M  V30 907 O 82.9134 1.34577 1.4001 0
M  V30 908 C 80.0434 2.68916 2.19776 0
M  V30 909 C 78.9974 3.8175 1.93523 0
M  V30 910 C 78.3234 4.22677 3.27487 0
M  V30 911 C 79.6234 5.06932 1.25765 0
M  V30 912 H 81.3174 2.9603 0.447952 0
M  V30 913 H 78.8634 1.42401 0.214024 0
M  V30 914 H 80.8164 3.07419 2.88222 0
M  V30 915 H 79.5404 1.84578 2.69441 0
M  V30 916 H 78.1994 3.43718 1.27489 0
M  V30 917 H 77.8474 3.35291 3.74952 0
M  V30 918 H 77.5474 4.98725 3.1072 0
M  V30 919 H 79.0714 4.63779 3.97166 0
M  V30 920 H 80.4854 5.42888 1.84244 0
M  V30 921 H 78.8824 5.88116 1.19328 0
M  V30 922 H 79.9524 4.84337 0.233536 0
M  V30 923 N 81.2955 -0.223234 1.56011 0
M  V30 924 C 82.2255 -1.27988 1.95298 0
M  V30 925 C 83.2065 -1.48976 0.820979 0
M  V30 926 O 84.3915 -1.61188 1.08315 0
M  V30 927 C 81.5215 -2.63 2.26822 0
M  V30 928 C 80.4755 -2.56671 3.42497 0
M  V30 929 C 79.8015 -3.95697 3.59622 0
M  V30 930 C 81.1015 -2.11601 4.77517 0
M  V30 931 H 82.7955 -0.953525 2.8381 0
M  V30 932 H 80.3415 -0.457244 1.36548 0
M  V30 933 H 82.2945 -3.37077 2.52898 0
M  V30 934 H 81.0185 -2.9732 1.35161 0
M  V30 935 H 79.6775 -1.85051 3.16467 0
M  V30 936 H 79.3255 -4.27322 2.6534 0
M  V30 937 H 79.0255 -3.92345 4.37424 0
M  V30 938 H 80.5495 -4.71438 3.88044 0
M  V30 939 H 81.9635 -2.7542 5.02809 0
M  V30 940 H 80.3605 -2.19311 5.5859 0
M  V30 941 H 81.4305 -1.06824 4.72987 0
M  V30 942 N 82.7736 -1.49793 -0.48987 0
M  V30 943 C 84.0016 -1.63568 -1.26701 0
M  V30 944 C 84.4166 -0.311465 -1.86213 0
M  V30 945 O 83.7736 0.704416 -1.68357 0
M  V30 946 C 83.8246 -2.71284 -2.38929 0
M  V30 947 O 83.5456 -3.9857 -1.81861 0
M  V30 948 C 85.0466 -2.95864 -3.3012 0
M  V30 949 H 82.2666 -0.550342 -0.383881 0
M  V30 950 H 84.8106 -1.95898 -0.586864 0
M  V30 951 H 82.9656 -2.417 -3.02753 0
M  V30 952 H 83.3796 -4.57993 -2.55622 0
M  V30 953 H 84.8536 -3.74941 -4.05121 0
M  V30 954 H 85.3306 -2.06206 -3.87783 0
M  V30 955 H 85.9366 -3.26907 -2.72051 0
M  V30 956 N 84.2517 0.741722 -1.39055 0
M  V30 957 C 85.4977 1.50234 -1.37118 0
M  V30 958 C 85.8527 1.92368 0.0350439 0
M  V30 959 O 85.1457 1.63422 1.00019 0
M  V30 960 C 85.3397 2.7592 -2.27163 0
M  V30 961 C 85.1687 2.46074 -3.76401 0
M  V30 962 C 83.9387 2.38704 -4.45364 0
M  V30 963 C 86.1367 2.12062 -4.68545 0
M  V30 964 N 84.1187 2.01258 -5.79973 0
M  V30 965 C 85.4897 1.85005 -5.91754 0
M  V30 966 C 87.5447 1.98473 -4.56632 0
M  V30 967 C 86.2477 1.4573 -7.04383 0
M  V30 968 C 88.2737 1.60599 -5.69176 0
M  V30 969 C 87.6357 1.34423 -6.91455 0
M  V30 970 H 83.7347 0.548858 -0.557027 0
M  V30 971 H 86.3187 0.862642 -1.74547 0
M  V30 972 H 84.4897 3.3768 -1.91904 0
M  V30 973 H 86.2217 3.42068 -2.16267 0
M  V30 974 H 82.9767 2.55574 -3.98721 0
M  V30 975 H 83.4007 1.85147 -6.51191 0
M  V30 976 H 88.0427 2.17381 -3.62637 0
M  V30 977 H 85.7607 1.25562 -7.98286 0
M  V30 978 H 89.3467 1.507 -5.61944 0
M  V30 979 H 88.2267 1.05555 -7.77064 0
M  V30 980 N 85.7298 1.2412 0.971189 0
M  V30 981 C 86.6628 0.97373 2.06382 0
M  V30 982 C 87.6408 -0.0912662 1.62344 0
M  V30 983 O 88.8248 0.0449365 1.88446 0
M  V30 984 C 85.9518 0.468746 3.35441 0
M  V30 985 C 84.9978 1.52176 3.98428 0
M  V30 986 S 85.8308 3.10203 4.36503 0
M  V30 987 C 86.9868 2.61398 5.68702 0
M  V30 988 H 87.2198 1.89893 2.28753 0
M  V30 989 H 84.7528 1.07466 1.10862 0
M  V30 990 H 86.7108 0.184012 4.10087 0
M  V30 991 H 85.3718 -0.435688 3.11064 0
M  V30 992 H 84.5648 1.11876 4.91426 0
M  V30 993 H 84.1668 1.75632 3.30196 0
M  V30 994 H 86.4588 2.03992 6.4606 0
M  V30 995 H 87.4018 3.52972 6.13854 0
M  V30 996 H 87.8098 2.01941 5.27143 0
M  V30 997 N 87.2079 -1.17134 1.05439 0
M  V30 998 C 88.1579 -2.1919 0.627675 0
M  V30 999 C 89.1419 -1.57328 -0.337147 0
M  V30 1000 O 90.3339 -1.76329 -0.153976 0
M  V30 1001 C 87.4629 -3.43299 0.00651435 0
M  V30 1002 C 86.5489 -4.12255 0.995312 0
M  V30 1003 N 86.9399 -4.56997 2.16765 0
M  V30 1004 C 85.2379 -4.38316 0.824336 0
M  V30 1005 C 85.9389 -5.10239 2.7934 0
M  V30 1006 N 84.9149 -5.02595 2.07122 0
M  V30 1007 H 88.7169 -2.5149 1.52086 0
M  V30 1008 H 86.2309 -1.33491 0.924868 0
M  V30 1009 H 88.2279 -4.15693 -0.316965 0
M  V30 1010 H 86.8879 -3.1249 -0.882033 0
M  V30 1011 H 87.8989 -4.51006 2.54587 0
M  V30 1012 H 84.5759 -4.17498 -0.0129526 0
M  V30 1013 H 85.9659 -5.54961 3.78772 0
M  V30 1014 N 88.686 -0.835752 -1.33615 0
M  V30 1015 C 89.616 -0.281739 -2.31794 0
M  V30 1016 C 90.597 0.608833 -1.58831 0
M  V30 1017 O 91.782 0.533035 -1.86741 0
M  V30 1018 C 88.912 0.546612 -3.42971 0
M  V30 1019 C 87.866 -0.247904 -4.27281 0
M  V30 1020 C 87.192 0.704001 -5.30045 0
M  V30 1021 C 88.492 -1.46324 -5.01385 0
M  V30 1022 H 90.186 -1.10206 -2.78379 0
M  V30 1023 H 87.732 -0.531388 -1.33837 0
M  V30 1024 H 89.685 0.944467 -4.1068 0
M  V30 1025 H 88.409 1.40011 -2.95067 0
M  V30 1026 H 87.068 -0.627281 -3.61194 0
M  V30 1027 H 86.716 1.55381 -4.78399 0
M  V30 1028 H 86.416 0.176524 -5.87335 0
M  V30 1029 H 87.94 1.09944 -6.0062 0
M  V30 1030 H 89.354 -1.13871 -5.61877 0
M  V30 1031 H 87.751 -1.92728 -5.6831 0
M  V30 1032 H 88.821 -2.23467 -4.30338 0
M  V30 1033 N 90.1641 1.46063 -0.591896 0
M  V30 1034 C 91.0941 2.33172 0.123673 0
M  V30 1035 C 92.0751 1.45897 0.87453 0
M  V30 1036 O 93.2601 1.74698 0.848181 0
M  V30 1037 C 90.3901 3.28336 1.13194 0
M  V30 1038 C 89.3441 4.25124 0.495324 0
M  V30 1039 C 88.6701 5.09863 1.61071 0
M  V30 1040 C 89.9701 5.19143 -0.573425 0
M  V30 1041 H 91.6641 2.93252 -0.603646 0
M  V30 1042 H 89.2101 1.41014 -0.291741 0
M  V30 1043 H 91.1631 3.88137 1.64097 0
M  V30 1044 H 89.8871 2.66383 1.88965 0
M  V30 1045 H 88.5461 3.66599 0.00729452 0
M  V30 1046 H 88.1941 4.44288 2.35832 0
M  V30 1047 H 87.8941 5.75417 1.19035 0
M  V30 1048 H 89.4181 5.72529 2.12233 0
M  V30 1049 H 90.8321 5.73106 -0.1491 0
M  V30 1050 H 89.2291 5.93089 -0.914636 0
M  V30 1051 H 90.2991 4.62519 -1.45617 0
M  V30 1052 N 91.6422 0.330177 1.54103 0
M  V30 1053 C 92.8822 -0.270916 2.02597 0
M  V30 1054 C 93.2462 -1.48826 1.21304 0
M  V30 1055 O 94.4472 -2.16266 1.59633 0
M  V30 1056 C 92.7182 -0.590328 3.52491 0
M  V30 1057 S 94.2772 -1.17014 4.2291 0
M  V30 1058 H 91.0952 -0.0815379 0.706309 0
M  V30 1059 H 93.6972 0.464835 1.89893 0
M  V30 1060 H 92.4012 0.303691 4.09275 0
M  V30 1061 H 91.9322 -1.3561 3.69288 0
M  V30 1062 H 93.9472 -2.45662 4.3112 0
M  V30 1063 N 93.1203 -1.57491 0.0584922 0
M  V30 1064 C 94.0303 -2.15448 -0.928414 0
M  V30 1065 C 95.0463 -1.11416 -1.3365 0
M  V30 1066 O 96.2223 -1.4362 -1.41193 0
M  V30 1067 C 93.2873 -2.69393 -2.18239 0
M  V30 1068 C 92.3483 -3.88249 -1.83196 0
M  V30 1069 C 91.5813 -4.39613 -3.02616 0
M  V30 1070 O 91.8043 -3.90023 -4.16219 0
M  V30 1071 O 90.7383 -5.31111 -2.83204 0
M  V30 1072 H 94.5643 -3.00112 -0.465483 0
M  V30 1073 H 92.1493 -1.48499 -0.163826 0
M  V30 1074 H 94.0313 -3.04026 -2.91798 0
M  V30 1075 H 92.7063 -1.87796 -2.63656 0
M  V30 1076 H 91.6133 -3.58492 -1.06931 0
M  V30 1077 H 92.9463 -4.71098 -1.42573 0
M  V30 1078 N 94.5984 0.214957 -1.56127 0
M  V30 1079 C 95.8234 0.95924 -1.83884 0
M  V30 1080 C 96.2484 1.7689 -0.639644 0
M  V30 1081 O 95.6064 1.76566 0.411601 0
M  V30 1082 C 95.6544 1.84723 -3.09693 0
M  V30 1083 O 94.7584 2.94346 -2.8885 0
M  V30 1084 H 94.0994 0.27125 -0.606069 0
M  V30 1085 H 96.6294 0.226276 -2.03345 0
M  V30 1086 H 96.6394 2.25576 -3.39969 0
M  V30 1087 H 95.3144 1.25218 -3.96602 0
M  V30 1088 H 93.8914 2.57391 -2.69823 0
M  V30 1089 N 96.0765 1.50051 0.48192 0
M  V30 1090 C 97.3235 1.60498 1.23477 0
M  V30 1091 C 97.6515 0.300331 1.92167 0
M  V30 1092 O 96.9065 -0.713094 1.82246 0
M  V30 1093 C 97.2055 2.72717 2.30998 0
M  V30 1094 C 96.8715 4.13572 1.79636 0
M  V30 1095 C 95.5335 4.519 1.65348 0
M  V30 1096 C 97.8855 5.01649 1.41412 0
M  V30 1097 C 95.2135 5.76057 1.11244 0
M  V30 1098 C 97.5655 6.26343 0.887538 0
M  V30 1099 C 96.2295 6.63483 0.731207 0
M  V30 1100 H 95.4995 0.587303 0.451836 0
M  V30 1101 H 98.1465 1.83948 0.532468 0
M  V30 1102 H 96.4515 2.43312 3.07094 0
M  V30 1103 H 98.1485 2.78006 2.88988 0
M  V30 1104 H 94.7385 3.83329 1.91721 0
M  V30 1105 H 98.9225 4.72679 1.51289 0
M  V30 1106 H 94.1785 6.03516 0.978686 0
M  V30 1107 H 98.3525 6.93958 0.582654 0
M  V30 1108 H 95.9795 7.59568 0.309806 0
M  V30 1109 N 97.5546 -0.734337 1.39446 0
M  V30 1110 C 98.4646 -1.87879 1.40495 0
M  V30 1111 C 99.4806 -1.714 0.299672 0
M  V30 1112 O 100.657 -1.93991 0.541249 0
M  V30 1113 C 97.7216 -3.23477 1.24754 0
M  V30 1114 C 96.7826 -3.52344 2.45259 0
M  V30 1115 C 96.0156 -4.81473 2.30259 0
M  V30 1116 O 96.2386 -5.55237 1.30643 0
M  V30 1117 O 95.1726 -5.10254 3.19256 0
M  V30 1118 H 98.9986 -1.89949 2.36966 0
M  V30 1119 H 96.5836 -0.882243 1.20569 0
M  V30 1120 H 98.4656 -4.04509 1.18111 0
M  V30 1121 H 97.1406 -3.22176 0.313781 0
M  V30 1122 H 96.0476 -2.71396 2.57478 0
M  V30 1123 H 97.3806 -3.58426 3.37331 0
M  V30 1124 N 99.0327 -1.24633 -0.964593 0
M  V30 1125 C 99.9627 -1.06611 -2.07741 0
M  V30 1126 C 100.944 0.0218666 -1.70086 0
M  V30 1127 O 102.129 -0.145793 -1.93652 0
M  V30 1128 C 99.2587 -0.673444 -3.40708 0
M  V30 1129 C 98.2127 -1.71054 -3.92332 0
M  V30 1130 C 97.5387 -1.17285 -5.21678 0
M  V30 1131 C 98.8387 -3.10718 -4.19824 0
M  V30 1132 H 100.533 -1.99693 -2.23076 0
M  V30 1133 H 98.0787 -0.96152 -1.07195 0
M  V30 1134 H 100.032 -0.534345 -4.17998 0
M  V30 1135 H 98.7557 0.293073 -3.25282 0
M  V30 1136 H 97.4147 -1.83791 -3.17201 0
M  V30 1137 H 97.0627 -0.196847 -5.02615 0
M  V30 1138 H 96.7627 -1.86592 -5.57187 0
M  V30 1139 H 98.2867 -1.04593 -6.01575 0
M  V30 1140 H 99.7007 -3.01192 -4.87808 0
M  V30 1141 H 98.0977 -3.77406 -4.66567 0
M  V30 1142 H 99.1677 -3.58524 -3.26479 0
M  V30 1143 N 100.511 1.16574 -1.06058 0
M  V30 1144 C 101.788 1.83048 -0.689416 0
M  V30 1145 C 102.168 1.94122 0.829443 0
M  V30 1146 O 101.516 1.48249 1.7388 0
M  V30 1147 C 101.726 3.20186 -1.38859 0
M  V30 1148 C 103.074 3.95989 -1.53226 0
M  V30 1149 O 104.098 3.29696 -1.3483 0
M  V30 1150 O 102.957 5.14813 -1.83384 0
M  V30 1151 H 100.051 0.790258 -0.243764 0
M  V30 1152 H 102.597 1.23797 -1.16071 0
M  V30 1153 H 101.369 3.07146 -2.4244 0
M  V30 1154 H 100.992 3.87112 -0.907216 0
M  V30 1155 N 101.989 0.842826 1.3317 0
M  V30 1156 C 102.936 0.276885 2.29133 0
M  V30 1157 C 103.906 -0.609527 1.54512 0
M  V30 1158 O 105.091 -0.546955 1.82792 0
M  V30 1159 C 102.231 -0.538707 3.40869 0
M  V30 1160 C 101.344 0.372169 4.30394 0
M  V30 1161 C 100.479 -0.454908 5.29249 0
M  V30 1162 C 99.5179 0.45411 6.10413 0
M  V30 1163 N 98.6549 -0.335075 7.013 0
M  V30 1164 H 103.495 1.10052 2.76934 0
M  V30 1165 H 101.032 0.554161 1.36262 0
M  V30 1166 H 102.99 -1.02709 4.0436 0
M  V30 1167 H 101.62 -1.32727 2.9425 0
M  V30 1168 H 100.672 0.97888 3.6759 0
M  V30 1169 H 101.984 1.0703 4.87182 0
M  V30 1170 H 101.138 -1.00695 5.98285 0
M  V30 1171 H 99.8769 -1.18646 4.73048 0
M  V30 1172 H 98.8819 1.01813 5.40291 0
M  V30 1173 H 100.107 1.18409 6.68697 0
M  V30 1174 H 98.0529 -1.04994 6.47543 0
M  V30 1175 H 97.9699 0.304262 7.55387 0
M  V30 1176 H 99.2379 -0.869224 7.74638 0
M  V30 1177 N 103.467 -1.45747 0.599634 0
M  V30 1178 C 104.692 -2.07178 0.0960198 0
M  V30 1179 C 105.117 -1.44268 -1.207 0
M  V30 1180 O 104.475 -0.532503 -1.73303 0
M  V30 1181 C 104.523 -3.60579 -0.0385348 0
M  V30 1182 O 103.627 -3.97713 -1.0908 0
M  V30 1183 H 102.968 -0.660251 0.0704593 0
M  V30 1184 H 105.498 -1.87124 0.827385 0
M  V30 1185 H 105.508 -4.07298 -0.239304 0
M  V30 1186 H 104.183 -4.05756 0.912947 0
M  V30 1187 H 102.76 -3.62678 -0.867135 0
M  V30 1188 N 104.945 -0.338344 -1.53925 0
M  V30 1189 C 106.191 0.260143 -2.01125 0
M  V30 1190 C 106.524 1.50617 -1.22589 0
M  V30 1191 O 105.799 1.91979 -0.312113 0
M  V30 1192 C 106.082 0.579499 -3.55407 0
M  V30 1193 C 105.935 -0.678264 -4.44657 0
M  V30 1194 C 107.254 1.39122 -4.17532 0
M  V30 1195 H 104.373 0.0930772 -0.731099 0
M  V30 1196 H 107.015 -0.457852 -1.84401 0
M  V30 1197 H 105.165 1.19118 -3.69788 0
M  V30 1198 H 106.837 -1.31631 -4.42121 0
M  V30 1199 H 105.08 -1.3042 -4.13731 0
M  V30 1200 H 105.751 -0.410143 -5.50474 0
M  V30 1201 H 108.227 0.874035 -4.06817 0
M  V30 1202 H 107.103 1.58342 -5.25565 0
M  V30 1203 H 107.364 2.39178 -3.71815 0
M  V30 1204 N 106.423 1.57458 -0.0668435 0
M  V30 1205 C 107.67 1.93301 0.603406 0
M  V30 1206 C 107.998 0.946486 1.69917 0
M  V30 1207 O 107.253 -0.0387021 1.95662 0
M  V30 1208 C 107.552 3.35784 1.22409 0
M  V30 1209 C 107.218 4.50179 0.254955 0
M  V30 1210 C 105.88 4.81199 -0.0116746 0
M  V30 1211 C 108.232 5.19598 -0.408338 0
M  V30 1212 C 105.56 5.78978 -0.94877 0
M  V30 1213 C 107.912 6.18381 -1.33372 0
M  V30 1214 C 106.576 6.47821 -1.60887 0
M  V30 1215 H 105.846 0.707338 0.220802 0
M  V30 1216 H 108.493 1.91012 -0.136665 0
M  V30 1217 H 106.798 3.34515 2.03978 0
M  V30 1218 H 108.495 3.60804 1.74989 0
M  V30 1219 H 105.085 4.25983 0.472954 0
M  V30 1220 H 109.269 4.95832 -0.215456 0
M  V30 1221 H 104.525 6.00115 -1.16925 0
M  V30 1222 H 108.699 6.71277 -1.85367 0
M  V30 1223 H 106.326 7.23399 -2.33661 0
M  V30 1224 N 107.901 -0.206675 1.56239 0
M  V30 1225 C 109.312 -0.772383 1.69974 0
M  V30 1226 C 109.663 -1.84353 0.671436 0
M  V30 1227 O 108.788 -2.15695 -0.174491 0
M  V30 1228 C 109.383 -1.40779 3.08167 0
M  V30 1229 C 107.942 -1.92072 3.23706 0
M  V30 1230 C 107.089 -0.786347 2.65917 0
M  V30 1231 H 110.04 0.0182223 1.5869 0
M  V30 1232 H 110.061 -2.27696 3.04852 0
M  V30 1233 H 109.573 -0.627958 3.82986 0
M  V30 1234 H 107.674 -2.7281 2.53782 0
M  V30 1235 H 107.787 -2.09046 4.31087 0
M  V30 1236 H 106.151 -1.1976 2.24788 0
M  V30 1237 H 106.934 -0.0189416 3.43295 0
M  V30 1238 N 109.379 -1.50304 -0.473955 0
M  V30 1239 C 110.309 -1.71886 -1.58042 0
M  V30 1240 C 111.29 -0.567799 -1.60344 0
M  V30 1241 O 112.475 -0.806623 -1.76656 0
M  V30 1242 C 109.605 -1.81036 -2.96384 0
M  V30 1243 C 108.559 -2.962 -3.08949 0
M  V30 1244 C 107.885 -2.9049 -4.48909 0
M  V30 1245 C 109.185 -4.36752 -2.86434 0
M  V30 1246 H 110.879 -2.64527 -1.40234 0
M  V30 1247 H 108.425 -1.27295 -0.673201 0
M  V30 1248 H 110.378 -1.94719 -3.73714 0
M  V30 1249 H 109.102 -0.850147 -3.15341 0
M  V30 1250 H 107.761 -2.82164 -2.3405 0
M  V30 1251 H 107.409 -1.92321 -4.64781 0
M  V30 1252 H 107.109 -3.67802 -4.58253 0
M  V30 1253 H 108.633 -3.06218 -5.28264 0
M  V30 1254 H 110.047 -4.5133 -3.53517 0
M  V30 1255 H 108.444 -5.15493 -3.07225 0
M  V30 1256 H 109.514 -4.49321 -1.82316 0
M  V30 1257 N 110.857 0.726932 -1.39834 0
M  V30 1258 C 112.082 1.52121 -1.40976 0
M  V30 1259 C 112.507 1.88098 -0.00826029 0
M  V30 1260 O 111.865 1.52479 0.980807 0
M  V30 1261 C 111.913 2.78021 -2.29644 0
M  V30 1262 O 111.017 3.74272 -1.73188 0
M  V30 1263 H 110.358 0.45908 -0.479731 0
M  V30 1264 H 112.888 0.896207 -1.83927 0
M  V30 1265 H 112.898 3.26671 -2.44438 0
M  V30 1266 H 111.573 2.51169 -3.31492 0
M  V30 1267 H 110.15 3.33073 -1.6768 0
M  V30 1268 N 112.336 1.25143 0.95797 0
M  V30 1269 C 113.582 1.09855 1.70469 0
M  V30 1270 C 113.915 -0.360187 1.90831 0
M  V30 1271 O 113.19 -1.26568 1.47685 0
M  V30 1272 C 113.473 1.8497 3.08963 0
M  V30 1273 C 113.326 3.38652 2.96032 0
M  V30 1274 C 114.645 1.63016 4.08795 0
M  V30 1275 H 111.764 0.400465 0.618706 0
M  V30 1276 H 114.406 1.53933 1.11376 0
M  V30 1277 H 112.556 1.47505 3.59409 0
M  V30 1278 H 114.228 3.85772 2.52938 0
M  V30 1279 H 112.471 3.66534 2.32025 0
M  V30 1280 H 113.142 3.8642 3.94187 0
M  V30 1281 H 115.618 1.95625 3.67247 0
M  V30 1282 H 114.494 2.18015 5.03747 0
M  V30 1283 H 114.755 0.570692 4.38401 0
M  V30 1284 N 113.814 -1.1601 1.06675 0
M  V30 1285 C 115.039 -1.91068 0.806706 0
M  V30 1286 C 115.464 -1.77112 -0.633485 0
M  V30 1287 O 114.822 -1.09908 -1.44187 0
M  V30 1288 C 114.87 -3.39655 1.21106 0
M  V30 1289 O 113.974 -4.10893 0.352189 0
M  V30 1290 H 113.315 -0.595125 0.294486 0
M  V30 1291 H 115.845 -1.46955 1.42356 0
M  V30 1292 H 115.855 -3.90434 1.18428 0
M  V30 1293 H 114.53 -3.49132 2.26008 0
M  V30 1294 H 113.107 -3.70285 0.440868 0
M  V30 1295 N 115.292 -0.849877 -1.32721 0
M  V30 1296 C 116.541 -0.447175 -1.96681 0
M  V30 1297 C 116.854 1.00135 -1.68025 0
M  V30 1298 O 118.06 1.50926 -2.25685 0
M  V30 1299 C 116.516 -0.7487 -3.52026 0
M  V30 1300 C 116.124 -2.21264 -3.89546 0
M  V30 1301 C 117.868 -0.413487 -4.22481 0
M  V30 1302 C 115.775 -2.45763 -5.37917 0
M  V30 1303 H 114.705 -0.163486 -0.736063 0
M  V30 1304 H 117.356 -1.03999 -1.51183 0
M  V30 1305 H 115.738 -0.0853727 -3.95908 0
M  V30 1306 H 116.912 -2.91736 -3.56689 0
M  V30 1307 H 115.227 -2.5119 -3.32103 0
M  V30 1308 H 117.824 -0.574017 -5.3161 0
M  V30 1309 H 118.167 0.644492 -4.11281 0
M  V30 1310 H 118.7 -1.03251 -3.84167 0
M  V30 1311 H 115.439 -3.50168 -5.54132 0
M  V30 1312 H 114.959 -1.79864 -5.72197 0
M  V30 1313 H 116.638 -2.29471 -6.0494 0
M  V30 1314 N 116.77 1.45427 -0.607355 0
M  V30 1315 C 117.7 2.3329 0.0989352 0
M  V30 1316 C 118.681 1.46816 0.859007 0
M  V30 1317 O 119.866 1.75588 0.829604 0
M  V30 1318 C 116.996 3.29518 1.09705 0
M  V30 1319 C 115.95 4.25626 0.450206 0
M  V30 1320 C 115.276 5.11542 1.55655 0
M  V30 1321 C 116.576 5.18505 -0.628455 0
M  V30 1322 H 118.27 2.92595 -0.634716 0
M  V30 1323 H 115.816 1.40696 -0.306681 0
M  V30 1324 H 117.769 3.89855 1.59971 0
M  V30 1325 H 116.493 2.68372 1.86129 0
M  V30 1326 H 115.152 3.66586 -0.0315886 0
M  V30 1327 H 114.8 4.46765 2.31107 0
M  V30 1328 H 114.5 5.76647 1.12925 0
M  V30 1329 H 116.024 5.74748 2.06148 0
M  V30 1330 H 117.438 5.72916 -0.209877 0
M  V30 1331 H 115.835 5.92085 -0.977489 0
M  V30 1332 H 116.905 4.60948 -1.50514 0
M  V30 1333 N 118.248 0.346503 1.53744 0
M  V30 1334 C 119.525 -0.304532 1.93215 0
M  V30 1335 C 119.905 -1.67993 1.27834 0
M  V30 1336 O 119.253 -2.24411 0.430352 0
M  V30 1337 C 119.463 -0.373852 3.46992 0
M  V30 1338 C 120.811 -0.62329 4.2 0
M  V30 1339 O 121.835 -0.455847 3.53271 0
M  V30 1340 O 120.694 -0.947879 5.38217 0
M  V30 1341 H 117.788 -0.178318 0.807547 0
M  V30 1342 H 120.334 0.397895 1.64969 0
M  V30 1343 H 119.106 0.591224 3.86808 0
M  V30 1344 H 118.729 -1.12294 3.81413 0
M  V30 1345 N 119.726 -1.57421 0.075193 0
M  V30 1346 C 121.142 -1.57099 -0.281444 0
M  V30 1347 C 121.342 -1.08486 -1.69803 0
M  V30 1348 O 120.398 -0.752279 -2.41033 0
M  V30 1349 C 121.711 -3.00571 -0.0880041 0
M  V30 1350 C 123.259 -3.12605 -0.157281 0
M  V30 1351 C 123.734 -4.57999 0.0079207 0
M  V30 1352 N 125.225 -4.63176 -0.0475725 0
M  V30 1353 C 125.96 -5.73373 0.0557876 0
M  V30 1354 N 125.456 -6.92473 0.21286 0
M  V30 1355 N 127.249 -5.621 -0.00152098 0
M  V30 1356 H 119.4 -1.87335 1.00098 0
M  V30 1357 H 121.663 -0.86377 0.390646 0
M  V30 1358 H 121.369 -3.40262 0.889629 0
M  V30 1359 H 121.243 -3.67754 -0.838875 0
M  V30 1360 H 123.63 -2.72798 -1.1254 0
M  V30 1361 H 123.711 -2.48053 0.62475 0
M  V30 1362 H 123.355 -4.98496 0.972824 0
M  V30 1363 H 123.285 -5.20586 -0.793556 0
M  V30 1364 H 125.776 -3.7753 -0.167244 0
M  V30 1365 H 126.089 -7.72279 0.283781 0
M  V30 1366 H 124.434 -6.94556 0.248267 0
M  V30 1367 H 127.625 -4.67938 -0.122958 0
M  V30 1368 H 127.798 -6.47948 0.0824844 0
M  V30 1369 N 121.204 0.198386 -1.56346 0
M  V30 1370 C 122.434 0.934215 -1.84271 0
M  V30 1371 C 122.842 1.77496 -0.655125 0
M  V30 1372 O 122.185 1.7961 0.385488 0
M  V30 1373 C 122.247 1.88278 -3.06254 0
M  V30 1374 C 121.911 1.22431 -4.40295 0
M  V30 1375 C 122.908 0.602839 -5.16393 0
M  V30 1376 C 120.593 1.22915 -4.87029 0
M  V30 1377 C 122.587 -0.0050083 -6.374 0
M  V30 1378 C 120.274 0.617465 -6.07973 0
M  V30 1379 C 121.272 0.00146341 -6.83 0
M  V30 1380 O 120.96 -0.600642 -8.01653 0
M  V30 1381 H 120.692 0.278245 -0.616081 0
M  V30 1382 H 123.246 0.211626 -2.04307 0
M  V30 1383 H 121.476 2.64498 -2.82095 0
M  V30 1384 H 123.165 2.48612 -3.20853 0
M  V30 1385 H 123.931 0.591265 -4.81382 0
M  V30 1386 H 119.81 1.69801 -4.28589 0
M  V30 1387 H 123.354 -0.48643 -6.95902 0
M  V30 1388 H 119.251 0.62653 -6.42452 0
M  V30 1389 H 120.019 -0.497225 -8.16988 0
M  V30 1390 N 122.682 1.50554 0.465978 0
M  V30 1391 C 123.612 1.72722 1.57128 0
M  V30 1392 C 124.593 0.576294 1.6004 0
M  V30 1393 O 125.778 0.81598 1.76225 0
M  V30 1394 C 122.908 1.82605 2.95419 0
M  V30 1395 C 121.862 2.97835 3.07373 0
M  V30 1396 C 121.188 2.92867 4.47363 0
M  V30 1397 C 122.488 4.38265 2.84114 0
M  V30 1398 H 124.182 2.65267 1.38829 0
M  V30 1399 H 121.728 1.2765 0.666441 0
M  V30 1400 H 123.681 1.96698 3.72677 0
M  V30 1401 H 122.405 0.866858 3.14886 0
M  V30 1402 H 121.064 2.83401 2.3255 0
M  V30 1403 H 120.712 1.94783 4.63755 0
M  V30 1404 H 120.412 3.70227 4.56296 0
M  V30 1405 H 121.936 3.09015 5.26633 0
M  V30 1406 H 123.35 4.53198 3.51118 0
M  V30 1407 H 121.747 5.17115 3.04487 0
M  V30 1408 H 122.817 4.50281 1.7993 0
M  V30 1409 N 124.16 -0.719506 1.40217 0
M  V30 1410 C 125.4 -1.49181 1.39729 0
M  V30 1411 C 125.764 -1.92 -0.00250614 0
M  V30 1412 O 126.965 -2.68473 -0.132479 0
M  V30 1413 C 125.236 -2.68767 2.35582 0
M  V30 1414 S 126.795 -3.58224 2.53418 0
M  V30 1415 H 123.613 -0.510091 0.495307 0
M  V30 1416 H 126.215 -0.841724 1.76452 0
M  V30 1417 H 124.919 -2.35475 3.36124 0
M  V30 1418 H 124.45 -3.38691 2.0013 0
M  V30 1419 H 126.465 -4.63033 1.78367 0
M  V30 1420 N 125.638 -1.25649 -0.95132 0
M  V30 1421 C 126.585 -1.06323 -2.04851 0
M  V30 1422 C 127.555 0.0286491 -1.66075 0
M  V30 1423 O 128.74 -0.12917 -1.90362 0
M  V30 1424 C 125.88 -0.691529 -3.381 0
M  V30 1425 C 124.993 -1.85861 -3.89974 0
M  V30 1426 C 124.128 -1.43096 -5.11563 0
M  V30 1427 C 123.167 -2.56696 -5.55674 0
M  V30 1428 N 122.304 -2.14684 -6.68472 0
M  V30 1429 H 127.144 -2.00222 -2.20715 0
M  V30 1430 H 124.681 -0.997027 -1.08156 0
M  V30 1431 H 126.639 -0.456963 -4.1469 0
M  V30 1432 H 125.269 0.210474 -3.22113 0
M  V30 1433 H 124.321 -2.20639 -3.09875 0
M  V30 1434 H 125.633 -2.71161 -4.18657 0
M  V30 1435 H 124.787 -1.15624 -5.9558 0
M  V30 1436 H 123.526 -0.548722 -4.84603 0
M  V30 1437 H 122.531 -2.84909 -4.7022 0
M  V30 1438 H 123.756 -3.45503 -5.8464 0
M  V30 1439 H 121.702 -1.28881 -6.43215 0
M  V30 1440 H 121.619 -2.9353 -6.96689 0
M  V30 1441 H 122.887 -1.90397 -7.5589 0
M  V30 1442 N 127.117 1.15442 -1.07289 0
M  V30 1443 C 128.064 2.20161 -0.692653 0
M  V30 1444 C 129.034 1.63073 0.31564 0
M  V30 1445 O 130.219 1.89725 0.202235 0
M  V30 1446 C 127.359 3.44967 -0.0959509 0
M  V30 1447 C 126.472 4.16256 -1.15564 0
M  V30 1448 C 125.607 5.28609 -0.524011 0
M  V30 1449 C 124.646 5.91715 -1.56653 0
M  V30 1450 N 123.783 6.9554 -0.957531 0
M  V30 1451 H 128.623 2.52037 -1.59002 0
M  V30 1452 H 126.16 1.2378 -0.794798 0
M  V30 1453 H 128.118 4.16341 0.267628 0
M  V30 1454 H 126.748 3.1361 0.764772 0
M  V30 1455 H 125.8 3.43385 -1.6368 0
M  V30 1456 H 127.112 4.59268 -1.94613 0
M  V30 1457 H 126.266 6.06604 -0.108032 0
M  V30 1458 H 125.005 4.86787 0.29825 0
M  V30 1459 H 124.01 5.12433 -1.9923 0
M  V30 1460 H 125.235 6.35614 -2.39107 0
M  V30 1461 H 123.181 6.55814 -0.156162 0
M  V30 1462 H 123.098 7.36977 -1.68526 0
M  V30 1463 H 124.366 7.77435 -0.567032 0
M  V30 1464 N 128.595 0.856903 1.32268 0
M  V30 1465 C 129.527 0.260412 2.27716 0
M  V30 1466 C 130.54 -0.569137 1.52528 0
M  V30 1467 O 131.729 -0.39326 1.74114 0
M  V30 1468 C 128.829 -0.650477 3.32599 0
M  V30 1469 C 128.002 0.14372 4.37164 0
M  V30 1470 C 127.061 -0.69328 5.21613 0
M  V30 1471 O 126.087 -0.12599 5.69061 0
M  V30 1472 N 127.289 -2.00761 5.44679 0
M  V30 1473 H 130.054 1.08059 2.79541 0
M  V30 1474 H 127.615 0.717103 1.45152 0
M  V30 1475 H 129.607 -1.21581 3.86005 0
M  V30 1476 H 128.177 -1.37133 2.80915 0
M  V30 1477 H 127.397 0.890486 3.8401 0
M  V30 1478 H 128.685 0.68915 5.04111 0
M  V30 1479 H 128.083 -2.49181 5.07863 0
M  V30 1480 H 126.64 -2.52103 6.01072 0
M  V30 1481 N 130.073 -1.45103 0.615059 0
M  V30 1482 C 131.321 -2.01784 0.112955 0
M  V30 1483 C 131.642 -1.48504 -1.26378 0
M  V30 1484 O 130.912 -0.682245 -1.83636 0
M  V30 1485 H 129.492 -0.745993 0.0387668 0
M  V30 1486 H 132.154 -1.77808 0.798141 0
M  V30 1487 H 131.25 -3.12025 0.0684069 0
M  V30 1488 N 131.551 -0.354651 -1.53558 0
M  V30 1489 C 132.779 0.239515 -2.05509 0
M  V30 1490 C 133.194 1.4333 -1.2289 0
M  V30 1491 O 132.551 1.80538 -0.266899 0
M  V30 1492 C 132.602 0.643719 -3.55723 0
M  V30 1493 O 132.323 -0.502602 -4.35207 0
M  V30 1494 C 133.824 1.29743 -4.23889 0
M  V30 1495 H 131.044 0.0442697 -0.669538 0
M  V30 1496 H 133.588 -0.509856 -1.98042 0
M  V30 1497 H 131.743 1.34302 -3.63376 0
M  V30 1498 H 132.157 -0.178172 -5.24197 0
M  V30 1499 H 133.631 1.53091 -5.30346 0
M  V30 1500 H 134.108 2.25441 -3.76926 0
M  V30 1501 H 134.714 0.639865 -4.20459 0
M  V30 1502 N 133.029 1.57378 -0.0835403 0
M  V30 1503 C 133.976 2.13384 0.879539 0
M  V30 1504 C 134.946 1.04936 1.28754 0
M  V30 1505 O 136.131 1.32662 1.37133 0
M  V30 1506 C 133.271 2.70932 2.13752 0
M  V30 1507 C 132.384 3.93575 1.7811 0
M  V30 1508 C 131.519 4.39326 2.98607 0
M  V30 1509 C 130.558 5.54587 2.59037 0
M  V30 1510 N 129.695 5.95243 3.72331 0
M  V30 1511 H 134.535 2.9537 0.395076 0
M  V30 1512 H 132.072 1.45953 0.183349 0
M  V30 1513 H 134.03 3.02411 2.87408 0
M  V30 1514 H 132.66 1.91693 2.59718 0
M  V30 1515 H 131.712 3.68483 0.94469 0
M  V30 1516 H 133.024 4.77258 1.45005 0
M  V30 1517 H 132.178 4.72528 3.80529 0
M  V30 1518 H 130.917 3.5452 3.34913 0
M  V30 1519 H 129.922 5.21024 1.75539 0
M  V30 1520 H 131.147 6.41133 2.23887 0
M  V30 1521 H 129.093 5.13385 4.08378 0
M  V30 1522 H 129.01 6.73694 3.43034 0
M  V30 1523 H 130.278 6.33072 4.54797 0
M  V30 1524 N 134.507 -0.190092 1.56449 0
M  V30 1525 C 135.454 -1.23557 1.94942 0
M  V30 1526 C 136.424 -1.44972 0.810696 0
M  V30 1527 O 137.609 -1.58023 1.06927 0
M  V30 1528 C 134.749 -2.57416 2.2985 0
M  V30 1529 C 133.862 -2.43537 3.5681 0
M  V30 1530 C 132.997 -3.70134 3.81017 0
M  V30 1531 C 132.036 -3.51109 5.01387 0
M  V30 1532 N 131.173 -4.6973 5.21822 0
M  V30 1533 H 136.013 -0.900304 2.84075 0
M  V30 1534 H 133.55 -0.43318 1.40577 0
M  V30 1535 H 135.508 -3.35409 2.48106 0
M  V30 1536 H 134.138 -2.88975 1.43852 0
M  V30 1537 H 133.19 -1.56816 3.46573 0
M  V30 1538 H 134.502 -2.25415 4.4496 0
M  V30 1539 H 133.656 -4.56566 3.9954 0
M  V30 1540 H 132.395 -3.91215 2.91207 0
M  V30 1541 H 131.4 -2.63063 4.82782 0
M  V30 1542 H 132.625 -3.31468 5.9271 0
M  V30 1543 H 130.571 -4.91065 4.34961 0
M  V30 1544 H 130.488 -4.54452 6.0416 0
M  V30 1545 H 131.756 -5.57499 5.44808 0
M  V30 1546 N 135.985 -1.50799 -0.457987 0
M  V30 1547 C 137.213 -1.66218 -1.23203 0
M  V30 1548 C 137.628 -0.350894 -1.85511 0
M  V30 1549 O 136.985 0.668546 -1.69814 0
M  V30 1550 C 137.036 -2.76291 -2.33121 0
M  V30 1551 O 136.757 -4.02338 -1.73366 0
M  V30 1552 C 138.258 -3.028 -3.2377 0
M  V30 1553 H 135.478 -0.558361 -0.372121 0
M  V30 1554 H 138.022 -1.97099 -0.545179 0
M  V30 1555 H 136.177 -2.48068 -2.97558 0
M  V30 1556 H 136.591 -4.63312 -2.4585 0
M  V30 1557 H 138.065 -3.8345 -3.97077 0
M  V30 1558 H 138.542 -2.14385 -3.83322 0
M  V30 1559 H 139.148 -3.32604 -2.65056 0
M  V30 1560 N 137.463 0.71206 -1.40597 0
M  V30 1561 C 138.393 1.83889 -1.43899 0
M  V30 1562 C 139.374 1.67442 -0.299504 0
M  V30 1563 O 140.559 1.87421 -0.508624 0
M  V30 1564 C 137.689 3.21877 -1.30431 0
M  V30 1565 C 136.643 3.53002 -2.42019 0
M  V30 1566 C 135.969 4.90172 -2.13626 0
M  V30 1567 C 137.269 3.53643 -3.84362 0
M  V30 1568 H 138.963 1.81383 -2.38203 0
M  V30 1569 H 136.509 0.871237 -1.14654 0
M  V30 1570 H 138.462 4.00404 -1.31357 0
M  V30 1571 H 137.186 3.24968 -0.326049 0
M  V30 1572 H 135.845 2.76818 -2.40349 0
M  V30 1573 H 135.493 4.89869 -1.14182 0
M  V30 1574 H 135.193 5.11962 -2.88389 0
M  V30 1575 H 136.717 5.71028 -2.1624 0
M  V30 1576 H 138.131 4.22203 -3.87837 0
M  V30 1577 H 136.528 3.86961 -4.58673 0
M  V30 1578 H 137.598 2.52954 -4.13693 0
M  V30 1579 N 138.941 1.26152 0.944643 0
M  V30 1580 C 139.873 1.03199 2.04652 0
M  V30 1581 C 140.886 -0.00642356 1.62799 0
M  V30 1582 O 142.075 0.233263 1.76969 0
M  V30 1583 C 139.175 0.540111 3.34568 0
M  V30 1584 C 138.348 1.64697 4.05208 0
M  V30 1585 C 137.407 1.15374 5.13396 0
M  V30 1586 O 136.433 1.85013 5.38293 0
M  V30 1587 N 137.635 0.00031529 5.805 0
M  V30 1588 H 140.4 1.9808 2.2491 0
M  V30 1589 H 137.961 1.17491 1.11389 0
M  V30 1590 H 139.953 0.194401 4.04233 0
M  V30 1591 H 138.523 -0.315021 3.11009 0
M  V30 1592 H 137.743 2.16379 3.29506 0
M  V30 1593 H 139.031 2.3903 4.49157 0
M  V30 1594 H 138.429 -0.581336 5.62705 0
M  V30 1595 H 136.986 -0.286346 6.51171 0
M  V30 1596 N 140.419 -1.14872 1.07899 0
M  V30 1597 C 141.366 -2.19791 0.704319 0
M  V30 1598 C 142.336 -1.63238 -0.306987 0
M  V30 1599 O 143.521 -1.8983 -0.192171 0
M  V30 1600 C 140.661 -3.44911 0.114244 0
M  V30 1601 C 139.774 -4.15637 1.1777 0
M  V30 1602 C 138.909 -5.28324 0.552037 0
M  V30 1603 C 137.948 -5.90875 1.59789 0
M  V30 1604 N 137.085 -6.95022 0.994404 0
M  V30 1605 H 141.925 -2.5119 1.60336 0
M  V30 1606 H 139.462 -1.23356 0.801352 0
M  V30 1607 H 141.42 -4.16477 -0.245544 0
M  V30 1608 H 140.05 -3.14011 -0.74813 0
M  V30 1609 H 139.102 -3.42512 1.65499 0
M  V30 1610 H 140.414 -4.5823 1.97046 0
M  V30 1611 H 139.568 -6.06538 0.1402 0
M  V30 1612 H 138.307 -4.86939 -0.272431 0
M  V30 1613 H 137.312 -5.11369 2.01945 0
M  V30 1614 H 138.537 -6.34337 2.42474 0
M  V30 1615 H 136.483 -6.55722 0.190939 0
M  V30 1616 H 136.4 -7.36073 1.72432 0
M  V30 1617 H 137.668 -7.77123 0.608253 0
M  V30 1618 N 141.898 -0.863906 -1.31812 0
M  V30 1619 C 143.147 -0.46801 -1.96195 0
M  V30 1620 C 143.46 0.983474 -1.69077 0
M  V30 1621 O 144.666 1.48523 -2.27273 0
M  V30 1622 C 143.122 -0.785995 -3.51212 0
M  V30 1623 C 142.73 -2.25383 -3.87178 0
M  V30 1624 C 144.474 -0.458274 -4.22019 0
M  V30 1625 C 142.381 -2.51455 -5.3528 0
M  V30 1626 H 141.311 -0.171283 -0.734287 0
M  V30 1627 H 143.962 -1.05597 -1.50072 0
M  V30 1628 H 142.344 -0.127359 -3.95795 0
M  V30 1629 H 143.518 -2.95502 -3.53575 0
M  V30 1630 H 141.833 -2.54698 -3.2942 0
M  V30 1631 H 144.43 -0.630369 -5.30971 0
M  V30 1632 H 144.773 0.600834 -4.11941 0
M  V30 1633 H 145.306 -1.07319 -3.8305 0
M  V30 1634 H 142.045 -3.56025 -5.50387 0
M  V30 1635 H 141.565 -1.85923 -5.70257 0
M  V30 1636 H 143.244 -2.35874 -6.02472 0
M  V30 1637 N 143.376 1.44774 -0.622745 0
M  V30 1638 C 144.624 2.01721 -0.123655 0
M  V30 1639 C 144.945 1.49172 1.25589 0
M  V30 1640 O 144.215 0.691974 1.83272 0
M  V30 1641 H 142.795 0.745777 -0.0427225 0
M  V30 1642 H 145.457 1.77382 -0.807559 0
M  V30 1643 H 144.553 3.11984 -0.0849534 0
M  V30 1644 N 144.854 0.36279 1.53368 0
M  V30 1645 C 145.817 -0.472679 2.24273 0
M  V30 1646 C 146.817 -1.012 1.24961 0
M  V30 1647 O 148.007 -0.898194 1.49259 0
M  V30 1648 C 145.139 -1.66039 2.97731 0
M  V30 1649 H 146.332 0.14773 2.99536 0
M  V30 1650 H 143.885 0.114434 1.55881 0
M  V30 1651 H 144.62 -2.31896 2.26704 0
M  V30 1652 H 144.405 -1.28066 3.70596 0
M  V30 1653 H 145.895 -2.25252 3.51641 0
M  V30 1654 N 146.332 -1.57332 0.0918853 0
M  V30 1655 C 147.295 -2.12708 -0.85369 0
M  V30 1656 C 148.295 -1.05561 -1.213 0
M  V30 1657 O 149.485 -1.31461 -1.14296 0
M  V30 1658 C 146.617 -2.64503 -2.15061 0
M  V30 1659 H 147.81 -2.97573 -0.3729 0
M  V30 1660 H 145.363 -1.55509 -0.157072 0
M  V30 1661 H 146.098 -1.83149 -2.67632 0
M  V30 1662 H 145.883 -3.4284 -1.90272 0
M  V30 1663 H 147.373 -3.07351 -2.82711 0
M  V30 1664 N 147.81 0.181792 -1.56548 0
M  V30 1665 C 149.05 0.906711 -1.83189 0
M  V30 1666 C 149.414 1.79882 -0.671312 0
M  V30 1667 O 150.615 2.56054 -0.81792 0
M  V30 1668 C 148.886 1.69023 -3.14906 0
M  V30 1669 S 150.445 2.46535 -3.62996 0
M  V30 1670 H 147.263 0.303877 -0.642791 0
M  V30 1671 H 149.865 0.169107 -1.94767 0
M  V30 1672 H 148.569 1.02571 -3.97376 0
M  V30 1673 H 148.1 2.46941 -3.06241 0
M  V30 1674 H 150.115 3.71014 -3.29489 0
M  V30 1675 N 149.288 1.51039 0.449983 0
M  V30 1676 C 150.534 1.63322 1.20223 0
M  V30 1677 C 150.867 0.34241 1.91158 0
M  V30 1678 O 150.142 -0.657344 1.83055 0
M  V30 1679 C 150.425 2.82801 2.22925 0
M  V30 1680 C 150.278 4.21823 1.56157 0
M  V30 1681 C 151.597 2.97807 3.24035 0
M  V30 1682 H 148.716 0.594407 0.435718 0
M  V30 1683 H 151.358 1.83489 0.493136 0
M  V30 1684 H 149.508 2.65738 2.834 0
M  V30 1685 H 151.18 4.50526 0.991162 0
M  V30 1686 H 149.423 4.25105 0.864172 0
M  V30 1687 H 150.094 5.01391 2.30891 0
M  V30 1688 H 152.57 3.13497 2.73603 0
M  V30 1689 H 151.446 3.82992 3.93202 0
M  V30 1690 H 151.707 2.09328 3.89402 0
M  V30 1691 N 150.766 -0.704594 1.40972 0
M  V30 1692 C 151.696 -1.83124 1.44872 0
M  V30 1693 C 152.677 -1.67281 0.30838 0
M  V30 1694 O 153.862 -1.87149 0.518556 0
M  V30 1695 C 150.992 -3.21181 1.32136 0
M  V30 1696 C 149.946 -3.51714 2.43888 0
M  V30 1697 C 149.272 -4.89032 2.16222 0
M  V30 1698 C 150.572 -3.516 3.86232 0
M  V30 1699 H 152.266 -1.80117 2.39161 0
M  V30 1700 H 149.812 -0.865145 1.15114 0
M  V30 1701 H 151.765 -3.99702 1.33479 0
M  V30 1702 H 150.489 -3.24791 0.343279 0
M  V30 1703 H 149.148 -2.75539 2.41813 0
M  V30 1704 H 148.796 -4.89256 1.16778 0
M  V30 1705 H 148.496 -5.10426 2.911 0
M  V30 1706 H 150.02 -5.69873 2.19265 0
M  V30 1707 H 151.434 -4.2014 3.9007 0
M  V30 1708 H 149.831 -3.84523 4.60719 0
M  V30 1709 H 150.901 -2.50757 4.15029 0
M  V30 1710 N 152.244 -1.26651 -0.937939 0
M  V30 1711 C 153.493 -1.11775 -1.67897 0
M  V30 1712 C 153.806 0.33794 -1.92659 0
M  V30 1713 O 155.012 0.607434 -2.64618 0
M  V30 1714 C 153.468 -1.9523 -3.02346 0
M  V30 1715 C 153.076 -3.45393 -2.8532 0
M  V30 1716 C 154.82 -1.88972 -3.80118 0
M  V30 1717 C 152.727 -4.21083 -4.15263 0
M  V30 1718 H 151.657 -0.414696 -0.629717 0
M  V30 1719 H 154.308 -1.50988 -1.04283 0
M  V30 1720 H 152.69 -1.48853 -3.66959 0
M  V30 1721 H 153.864 -3.99561 -2.29537 0
M  V30 1722 H 152.179 -3.52921 -2.20988 0
M  V30 1723 H 154.776 -2.42805 -4.76392 0
M  V30 1724 H 155.119 -0.86113 -4.07296 0
M  V30 1725 H 155.652 -2.33189 -3.22285 0
M  V30 1726 H 152.391 -5.24425 -3.93267 0
M  V30 1727 H 151.911 -3.71695 -4.70747 0
M  V30 1728 H 153.59 -4.29706 -4.83696 0
M  V30 1729 N 153.722 1.14298 -1.08507 0
M  V30 1730 C 154.97 1.84993 -0.813763 0
M  V30 1731 C 155.291 1.83405 0.662393 0
M  V30 1732 O 154.561 1.28319 1.48024 0
M  V30 1733 H 153.141 0.684966 -0.298045 0
M  V30 1734 H 155.803 1.385 -1.37126 0
M  V30 1735 H 154.899 2.89788 -1.15884 0
M  V30 1736 N 155.201 0.870884 1.31352 0
M  V30 1737 C 156.426 0.495957 2.01383 0
M  V30 1738 C 156.851 -0.904324 1.64935 0
M  V30 1739 O 156.209 -1.59687 0.858466 0
M  V30 1740 C 156.257 0.661433 3.54482 0
M  V30 1741 O 155.361 -0.298851 4.11316 0
M  V30 1742 H 154.702 0.197158 0.634054 0
M  V30 1743 H 157.232 1.17455 1.67527 0
M  V30 1744 H 157.242 0.555072 4.04207 0
M  V30 1745 H 155.917 1.68246 3.8035 0
M  V30 1746 H 154.494 -0.147368 3.72609 0
M  V30 1747 N 156.679 -1.44442 0.630414 0
M  V30 1748 C 157.626 -2.30678 -0.0749355 0
M  V30 1749 C 158.596 -1.4344 -0.837502 0
M  V30 1750 O 159.781 -1.72343 -0.818684 0
M  V30 1751 C 156.921 -3.28706 -1.05103 0
M  V30 1752 C 156.034 -4.31046 -0.286954 0
M  V30 1753 C 155.169 -5.16167 -1.2548 0
M  V30 1754 C 154.208 -6.10216 -0.479843 0
M  V30 1755 N 153.345 -6.88039 -1.39811 0
M  V30 1756 H 158.185 -2.90454 0.666386 0
M  V30 1757 H 155.722 -1.43107 0.340404 0
M  V30 1758 H 157.68 -3.84027 -1.63031 0
M  V30 1759 H 156.31 -2.70632 -1.75949 0
M  V30 1760 H 155.362 -3.78203 0.408243 0
M  V30 1761 H 156.674 -4.97794 0.316657 0
M  V30 1762 H 155.828 -5.76002 -1.90544 0
M  V30 1763 H 154.567 -4.49491 -1.89233 0
M  V30 1764 H 153.572 -5.49491 0.184295 0
M  V30 1765 H 154.797 -6.78928 0.152965 0
M  V30 1766 H 152.743 -6.24032 -2.02287 0
M  V30 1767 H 152.66 -7.51223 -0.848508 0
M  V30 1768 H 153.928 -7.52397 -2.03762 0
M  V30 1769 N 158.157 -0.370918 -1.53173 0
M  V30 1770 C 159.406 0.218249 -2.00516 0
M  V30 1771 C 159.719 1.49429 -1.26215 0
M  V30 1772 O 160.925 2.16239 -1.64174 0
M  V30 1773 C 159.381 0.43948 -3.57207 0
M  V30 1774 C 158.989 -0.822244 -4.4039 0
M  V30 1775 C 160.733 0.986012 -4.1289 0
M  V30 1776 C 158.64 -0.570304 -5.88644 0
M  V30 1777 H 157.57 0.0853333 -0.749156 0
M  V30 1778 H 160.221 -0.490483 -1.76823 0
M  V30 1779 H 158.603 1.20961 -3.77074 0
M  V30 1780 H 159.777 -1.59557 -4.32294 0
M  V30 1781 H 158.092 -1.29238 -3.95836 0
M  V30 1782 H 160.689 1.18991 -5.21292 0
M  V30 1783 H 161.032 1.94972 -3.6782 0
M  V30 1784 H 161.565 0.27592 -3.96842 0
M  V30 1785 H 158.304 -1.50449 -6.38001 0
M  V30 1786 H 157.824 0.164427 -5.99575 0
M  V30 1787 H 159.503 -0.19784 -6.46697 0
M  V30 1788 N 159.635 1.57281 -0.100228 0
M  V30 1789 C 161.051 1.57527 0.256416 0
M  V30 1790 C 161.251 1.11173 1.68056 0
M  V30 1791 O 160.307 0.79053 2.39806 0
M  V30 1792 C 161.62 3.00673 0.0401747 0
M  V30 1793 C 163.168 3.12815 0.107528 0
M  V30 1794 C 163.643 4.57929 -0.0807834 0
M  V30 1795 N 165.134 4.63193 -0.0261207 0
M  V30 1796 C 165.869 5.73212 -0.146999 0
M  V30 1797 N 165.365 6.92047 -0.322999 0
M  V30 1798 N 167.158 5.62031 -0.0879044 0
M  V30 1799 H 159.309 1.85718 -1.03065 0
M  V30 1800 H 161.572 0.857446 -0.404339 0
M  V30 1801 H 161.278 3.38804 -0.943649 0
M  V30 1802 H 161.152 3.69042 0.780262 0
M  V30 1803 H 163.539 2.74554 1.08186 0
M  V30 1804 H 163.62 2.47028 -0.664134 0
M  V30 1805 H 163.264 4.96886 -1.05201 0
M  V30 1806 H 163.194 5.21783 0.710635 0
M  V30 1807 H 165.685 3.77748 0.107161 0
M  V30 1808 H 165.998 7.7173 -0.406608 0
M  V30 1809 H 164.343 6.94074 -0.358733 0
M  V30 1810 H 167.534 4.68075 0.048498 0
M  V30 1811 H 167.707 6.47734 -0.185557 0
M  V30 1812 N 161.113 -0.173488 1.56642 0
M  V30 1813 C 162.341 -0.906095 1.86004 0
M  V30 1814 C 162.756 -1.75921 0.685355 0
M  V30 1815 O 162.113 -1.79198 -0.345578 0
M  V30 1816 C 162.164 -1.78462 3.14378 0
M  V30 1817 O 161.885 -0.965914 4.27319 0
M  V30 1818 C 163.386 -2.62707 3.57071 0
M  V30 1819 H 160.606 -0.263341 0.617165 0
M  V30 1820 H 163.15 -0.174236 2.03756 0
M  V30 1821 H 161.305 -2.46984 2.98459 0
M  V30 1822 H 161.719 -1.56655 5.00559 0
M  V30 1823 H 163.193 -3.19969 4.49804 0
M  V30 1824 H 163.67 -3.37472 2.81086 0
M  V30 1825 H 164.276 -1.99521 3.75595 0
M  V30 1826 N 162.591 -1.51276 -0.441967 0
M  V30 1827 C 163.837 -1.63958 -1.19355 0
M  V30 1828 C 164.17 -0.352543 -1.90973 0
M  V30 1829 O 163.445 0.647627 -1.83401 0
M  V30 1830 C 163.728 -2.83979 -2.21422 0
M  V30 1831 C 163.581 -4.22646 -1.53918 0
M  V30 1832 C 164.9 -2.99521 -3.22451 0
M  V30 1833 H 162.019 -0.596709 -0.432559 0
M  V30 1834 H 164.661 -1.83748 -0.483398 0
M  V30 1835 H 162.811 -2.67237 -2.81987 0
M  V30 1836 H 164.483 -4.51045 -0.967256 0
M  V30 1837 H 162.726 -4.25558 -0.841615 0
M  V30 1838 H 163.397 -5.02609 -2.28229 0
M  V30 1839 H 165.873 -3.14944 -2.71937 0
M  V30 1840 H 164.749 -3.85072 -3.91166 0
M  V30 1841 H 165.01 -2.11391 -3.88287 0
M  V30 1842 N 164.069 0.697108 -1.41344 0
M  V30 1843 C 165.016 1.81106 -1.43071 0
M  V30 1844 C 165.986 1.63632 -0.285275 0
M  V30 1845 O 167.171 1.84504 -0.486091 0
M  V30 1846 C 164.311 3.18975 -1.31715 0
M  V30 1847 C 163.424 3.47892 -2.56115 0
M  V30 1848 C 162.559 4.75367 -2.37064 0
M  V30 1849 C 161.598 4.97247 -3.56948 0
M  V30 1850 N 160.735 6.15947 -3.36977 0
M  V30 1851 H 165.575 1.78965 -2.38276 0
M  V30 1852 H 163.112 0.873975 -1.18322 0
M  V30 1853 H 165.07 3.98615 -1.23133 0
M  V30 1854 H 163.7 3.20297 -0.401183 0
M  V30 1855 H 162.752 2.62669 -2.75153 0
M  V30 1856 H 164.064 3.59962 -3.45295 0
M  V30 1857 H 163.218 5.63059 -2.25941 0
M  V30 1858 H 161.957 4.65541 -1.45338 0
M  V30 1859 H 160.962 4.08004 -3.68527 0
M  V30 1860 H 162.187 5.08934 -4.49626 0
M  V30 1861 H 160.133 6.07336 -2.47949 0
M  V30 1862 H 160.05 6.28777 -4.19732 0
M  V30 1863 H 161.318 7.06377 -3.29623 0
M  V30 1864 N 165.547 1.27147 0.931209 0
M  V30 1865 C 166.958 1.12044 1.49342 0
M  V30 1866 C 167.309 -0.295795 1.93957 0
M  V30 1867 O 166.434 -1.18835 1.80852 0
M  V30 1868 C 167.029 2.02781 2.71414 0
M  V30 1869 C 165.588 1.91794 3.2387 0
M  V30 1870 C 164.735 1.95543 1.96617 0
M  V30 1871 H 167.686 1.40091 0.745672 0
M  V30 1872 H 167.707 1.58156 3.46074 0
M  V30 1873 H 167.219 3.05848 2.38911 0
M  V30 1874 H 165.32 0.916992 3.6114 0
M  V30 1875 H 165.433 2.77852 3.90302 0
M  V30 1876 H 163.797 1.39722 2.12955 0
M  V30 1877 H 164.58 3.00259 1.66432 0
M  V30 1878 N 167.025 -1.13721 1.09112 0
M  V30 1879 C 167.958 -2.18094 0.67158 0
M  V30 1880 C 168.936 -1.59414 -0.320299 0
M  V30 1881 O 170.12 -1.87183 -0.222444 0
M  V30 1882 C 167.247 -3.38698 -0.0111189 0
M  V30 1883 C 166.293 -4.15966 0.942055 0
M  V30 1884 S 167.126 -4.7604 2.45246 0
M  V30 1885 C 168.282 -5.99994 1.78208 0
M  V30 1886 H 168.515 -2.53344 1.55577 0
M  V30 1887 H 166.048 -1.24967 0.906789 0
M  V30 1888 H 168.006 -4.08559 -0.398716 0
M  V30 1889 H 166.667 -3.01756 -0.871905 0
M  V30 1890 H 165.86 -5.02318 0.411396 0
M  V30 1891 H 165.462 -3.51745 1.2709 0
M  V30 1892 H 167.754 -6.68441 1.10424 0
M  V30 1893 H 168.697 -6.57662 2.62463 0
M  V30 1894 H 169.105 -5.50432 1.25238 0
M  V30 1895 N 168.503 -0.877838 -1.30888 0
M  V30 1896 C 169.731 -0.507414 -2.00581 0
M  V30 1897 C 170.146 0.902216 -1.65848 0
M  V30 1898 O 169.503 1.59225 -0.891831 0
M  V30 1899 C 169.554 -0.664162 -3.55347 0
M  V30 1900 O 169.275 -2.01829 -3.8884 0
M  V30 1901 C 170.776 -0.295787 -4.42312 0
M  V30 1902 H 167.996 -0.196866 -0.641471 0
M  V30 1903 H 170.54 -1.18117 -1.66939 0
M  V30 1904 H 168.695 -0.0378619 -3.87381 0
M  V30 1905 H 169.109 -2.03174 -4.8355 0
M  V30 1906 H 170.583 -0.456388 -5.5011 0
M  V30 1907 H 171.06 0.765663 -4.32475 0
M  V30 1908 H 171.666 -0.898113 -4.15709 0
M  V30 1909 N 169.982 1.44106 -0.638065 0
M  V30 1910 C 171.228 2.02277 -0.145546 0
M  V30 1911 C 171.561 1.50125 1.23191 0
M  V30 1912 O 170.836 0.688133 1.8192 0
M  V30 1913 C 171.119 3.59829 -0.139791 0
M  V30 1914 C 170.972 4.22247 -1.55008 0
M  V30 1915 C 172.291 4.36873 0.531966 0
M  V30 1916 H 169.41 0.734992 -0.0543632 0
M  V30 1917 H 172.052 1.71592 -0.815863 0
M  V30 1918 H 170.202 3.86102 0.431007 0
M  V30 1919 H 171.874 4.07057 -2.1703 0
M  V30 1920 H 170.117 3.79476 -2.10191 0
M  V30 1921 H 170.788 5.31284 -1.49804 0
M  V30 1922 H 173.264 4.16074 0.0464781 0
M  V30 1923 H 172.14 5.4657 0.505206 0
M  V30 1924 H 172.401 4.11995 1.60352 0
M  V30 1925 N 171.46 0.379036 1.52974 0
M  V30 1926 C 172.685 -0.209353 2.06341 0
M  V30 1927 C 173.11 -1.40583 1.24972 0
M  V30 1928 O 172.468 -1.79246 0.272155 0
M  V30 1929 C 172.516 -0.567786 3.56102 0
M  V30 1930 O 171.62 -1.66318 3.77375 0
M  V30 1931 H 170.961 -0.0272919 0.663439 0
M  V30 1932 H 173.491 0.543536 1.97248 0
M  V30 1933 H 173.501 -0.835003 3.99364 0
M  V30 1934 H 172.176 0.307013 4.14765 0
M  V30 1935 H 170.753 -1.39048 3.46006 0
M  V30 1936 N 172.938 -1.57226 0.108567 0
M  V30 1937 C 173.885 -2.14756 -0.845481 0
M  V30 1938 C 174.855 -1.06971 -1.27068 0
M  V30 1939 O 176.04 -1.34827 -1.35005 0
M  V30 1940 C 173.18 -2.74298 -2.09415 0
M  V30 1941 C 172.293 -3.96358 -1.71826 0
M  V30 1942 C 171.428 -4.44021 -2.9158 0
M  V30 1943 C 170.467 -5.58637 -2.50181 0
M  V30 1944 N 169.604 -6.01091 -3.62814 0
M  V30 1945 H 174.444 -2.95961 -0.348035 0
M  V30 1946 H 171.981 -1.46226 -0.160106 0
M  V30 1947 H 173.939 -3.06945 -2.82561 0
M  V30 1948 H 172.569 -1.95801 -2.56636 0
M  V30 1949 H 171.621 -3.69939 -0.885947 0
M  V30 1950 H 172.933 -4.79504 -1.37394 0
M  V30 1951 H 172.087 -4.78522 -3.72963 0
M  V30 1952 H 170.826 -3.59803 -3.29231 0
M  V30 1953 H 169.831 -5.23751 -1.67228 0
M  V30 1954 H 171.056 -6.44613 -2.13659 0
M  V30 1955 H 169.002 -5.19817 -4.00158 0
M  V30 1956 H 168.919 -6.79066 -3.32273 0
M  V30 1957 H 170.187 -6.40227 -4.44668 0
M  V30 1958 N 174.416 0.165178 -1.56732 0
M  V30 1959 C 175.346 1.20651 -1.99914 0
M  V30 1960 C 176.327 1.45827 -0.875705 0
M  V30 1961 O 177.512 1.57057 -1.14223 0
M  V30 1962 C 174.642 2.54401 -2.36427 0
M  V30 1963 C 173.596 2.43782 -3.51787 0
M  V30 1964 C 172.922 3.82078 -3.7406 0
M  V30 1965 C 174.222 1.93732 -4.85041 0
M  V30 1966 H 175.916 0.847534 -2.87154 0
M  V30 1967 H 173.462 0.40625 -1.38151 0
M  V30 1968 H 175.415 3.27458 -2.65234 0
M  V30 1969 H 174.139 2.92098 -1.46103 0
M  V30 1970 H 172.798 1.73178 -3.23117 0
M  V30 1971 H 172.446 4.17179 -2.81017 0
M  V30 1972 H 172.146 3.7584 -4.51684 0
M  V30 1973 H 173.67 4.56712 -4.05274 0
M  V30 1974 H 175.084 2.56569 -5.12684 0
M  V30 1975 H 173.481 1.98428 -5.66345 0
M  V30 1976 H 174.551 0.891962 -4.76626 0
M  V30 1977 N 175.894 1.51508 0.433938 0
M  V30 1978 C 177.122 1.68157 1.20543 0
M  V30 1979 C 177.537 0.380362 1.84929 0
M  V30 1980 O 176.894 -0.641446 1.70856 0
M  V30 1981 C 176.945 2.79965 2.28696 0
M  V30 1982 O 176.666 4.05045 1.66943 0
M  V30 1983 C 178.167 3.07912 3.18912 0
M  V30 1984 H 175.387 0.56421 0.363191 0
M  V30 1985 H 177.931 1.97941 0.513754 0
M  V30 1986 H 176.086 2.5277 2.93574 0
M  V30 1987 H 176.5 4.67165 2.38448 0
M  V30 1988 H 177.974 3.89719 3.90926 0
M  V30 1989 H 178.451 2.20456 3.79863 0
M  V30 1990 H 179.057 3.36779 2.59731 0
M  V30 1991 N 177.372 -0.689602 1.41712 0
M  V30 1992 C 178.602 -1.47613 1.44548 0
M  V30 1993 C 179.01 -1.89132 0.0509034 0
M  V30 1994 O 178.353 -1.57741 -0.94146 0
M  V30 1995 C 178.415 -2.76596 2.2964 0
M  V30 1996 C 178.079 -2.57245 3.77722 0
M  V30 1997 C 179.076 -2.22804 4.69739 0
M  V30 1998 C 176.761 -2.727 4.2183 0
M  V30 1999 C 178.755 -2.04064 6.03851 0
M  V30 2000 C 176.442 -2.53576 5.56006 0
M  V30 2001 C 177.44 -2.1931 6.46832 0
M  V30 2002 O 177.128 -2.00359 7.78532 0
M  V30 2003 H 176.86 -0.461227 0.494212 0
M  V30 2004 H 179.414 -0.856045 1.86711 0
M  V30 2005 H 177.644 -3.41033 1.82301 0
M  V30 2006 H 179.333 -3.38424 2.24107 0
M  V30 2007 H 180.099 -2.10473 4.36951 0
M  V30 2008 H 175.978 -2.98353 3.51435 0
M  V30 2009 H 179.522 -1.77241 6.74708 0
M  V30 2010 H 175.419 -2.65499 5.88371 0
M  V30 2011 H 176.187 -2.15075 7.89737 0
M  V30 2012 N 178.85 -1.27639 -0.924453 0
M  V30 2013 C 179.78 -1.13166 -2.04244 0
M  V30 2014 C 180.761 -0.032256 -1.70069 0
M  V30 2015 O 181.946 -0.207328 -1.9309 0
M  V30 2016 C 179.076 -0.781496 -3.38393 0
M  V30 2017 C 178.03 -1.83449 -3.86692 0
M  V30 2018 C 177.356 -1.33822 -5.17683 0
M  V30 2019 C 178.656 -3.23917 -4.09726 0
M  V30 2020 H 180.35 -2.06689 -2.1661 0
M  V30 2021 H 177.896 -0.995136 -1.04082 0
M  V30 2022 H 179.849 -0.667057 -4.16087 0
M  V30 2023 H 178.573 0.189439 -3.2605 0
M  V30 2024 H 177.232 -1.93789 -3.11193 0
M  V30 2025 H 176.88 -0.35665 -5.01734 0
M  V30 2026 H 176.58 -2.04224 -5.50968 0
M  V30 2027 H 178.104 -1.23679 -5.97943 0
M  V30 2028 H 179.518 -3.16559 -4.77978 0
M  V30 2029 H 177.915 -3.92059 -4.54324 0
M  V30 2030 H 178.985 -3.68729 -3.14908 0
M  V30 2031 N 180.328 1.1314 -1.09713 0
M  V30 2032 C 181.553 1.88862 -0.857081 0
M  V30 2033 C 181.978 1.78729 0.586304 0
M  V30 2034 O 181.336 1.13692 1.41222 0
M  V30 2035 C 181.384 3.36325 -1.30069 0
M  V30 2036 O 180.488 4.09815 -0.461007 0
M  V30 2037 H 179.829 0.587108 -0.310162 0
M  V30 2038 H 182.359 1.43129 -1.46203 0
M  V30 2039 H 182.369 3.87157 -1.28738 0
M  V30 2040 H 181.044 3.43017 -2.35185 0
M  V30 2041 H 179.621 3.68986 -0.538888 0
M  V30 2042 N 181.806 0.884767 1.30421 0
M  V30 2043 C 183.046 0.509806 1.9794 0
M  V30 2044 C 183.41 -0.923736 1.68319 0
M  V30 2045 O 184.611 -1.40481 2.29169 0
M  V30 2046 C 182.882 0.776732 3.48858 0
M  V30 2047 S 184.441 0.503843 4.35898 0
M  V30 2048 H 181.259 0.189699 0.685227 0
M  V30 2049 H 183.861 1.14399 1.58535 0
M  V30 2050 H 182.565 1.81857 3.67908 0
M  V30 2051 H 182.096 0.1301 3.93185 0
M  V30 2052 H 184.111 -0.657625 4.91823 0
M  V30 2053 N 183.284 -1.43765 0.645699 0
M  V30 2054 C 184.561 -1.9541 0.0862963 0
M  V30 2055 C 184.941 -1.58725 -1.39175 0
M  V30 2056 O 184.289 -0.868581 -2.11348 0
M  V30 2057 C 184.499 -3.47488 0.324565 0
M  V30 2058 C 185.847 -4.24001 0.225497 0
M  V30 2059 O 186.871 -3.55274 0.256715 0
M  V30 2060 O 185.73 -5.46313 0.142801 0
M  V30 2061 H 182.824 -0.826882 -0.0139483 0
M  V30 2062 H 185.37 -1.53743 0.718415 0
M  V30 2063 H 184.142 -3.67289 1.3496 0
M  V30 2064 H 183.765 -3.96135 -0.340987 0
M  V30 2065 N 184.763 -0.387143 -1.52771 0
M  V30 2066 C 186.003 0.195537 -2.03463 0
M  V30 2067 C 186.367 1.44222 -1.26744 0
M  V30 2068 O 187.568 2.10192 -1.67549 0
M  V30 2069 C 185.839 0.459097 -3.54439 0
M  V30 2070 S 187.398 1.01237 -4.26962 0
M  V30 2071 H 184.216 0.0552675 -0.708849 0
M  V30 2072 H 186.818 -0.534992 -1.88037 0
M  V30 2073 H 185.522 -0.455382 -4.07866 0
M  V30 2074 H 185.053 1.21811 -3.74066 0
M  V30 2075 H 187.068 2.29492 -4.39941 0
M  V30 2076 N 186.241 1.57166 -0.116904 0
M  V30 2077 C 187.488 1.95123 0.541603 0
M  V30 2078 C 187.816 1.00006 1.6682 0
M  V30 2079 O 187.071 0.0235658 1.95686 0
M  V30 2080 C 187.37 3.39508 1.11664 0
M  V30 2081 C 187.036 4.50762 0.111606 0
M  V30 2082 C 185.698 4.80918 -0.164758 0
M  V30 2083 C 188.05 5.18036 -0.573438 0
M  V30 2084 C 185.378 5.75666 -1.13249 0
M  V30 2085 C 187.73 6.13824 -1.52978 0
M  V30 2086 C 186.394 6.42374 -1.81415 0
M  V30 2087 H 185.664 0.714005 0.198187 0
M  V30 2088 H 188.311 1.9048 -0.197365 0
M  V30 2089 H 186.616 3.40835 1.93232 0
M  V30 2090 H 188.313 3.66189 1.63422 0
M  V30 2091 H 184.903 4.27272 0.337192 0
M  V30 2092 H 189.087 4.94896 -0.373092 0
M  V30 2093 H 184.343 5.96092 -1.35958 0
M  V30 2094 H 188.517 6.65039 -2.06629 0
M  V30 2095 H 186.144 7.15599 -2.56557 0
M  V30 2096 N 187.719 -0.156864 1.56817 0
M  V30 2097 C 188.947 -0.886316 1.86955 0
M  V30 2098 C 189.362 -1.75185 0.703975 0
M  V30 2099 O 188.719 -1.79555 -0.326552 0
M  V30 2100 C 188.77 -1.75117 3.16253 0
M  V30 2101 O 188.491 -0.920537 4.2832 0
M  V30 2102 C 189.992 -2.58905 3.59837 0
M  V30 2103 H 187.212 -0.25678 0.619923 0
M  V30 2104 H 189.756 -0.152615 2.0393 0
M  V30 2105 H 187.911 -2.43805 3.01062 0
M  V30 2106 H 188.325 -1.51337 5.02192 0
M  V30 2107 H 189.799 -3.1518 4.53172 0
M  V30 2108 H 190.276 -3.34472 2.84649 0
M  V30 2109 H 190.882 -1.95526 3.7769 0
M  V30 2110 N 189.197 -1.51736 -0.425897 0
M  V30 2111 C 190.145 -1.74464 -1.53834 0
M  V30 2112 C 191.139 -0.611241 -1.57988 0
M  V30 2113 O 192.345 -0.792899 -1.61596 0
M  V30 2114 H 188.72 -0.551437 -0.511293 0
M  V30 2115 H 190.691 -2.67694 -1.31843 0
M  V30 2116 C 189.44 -1.8972 -2.91379 0
M  V30 2117 H 188.763 -2.76344 -2.88919 0
M  V30 2118 H 190.203 -2.09629 -3.68553 0
M  V30 2119 C 188.662 -0.65992 -3.30374 0
M  V30 2120 O 189.192 0.180083 -4.01296 0
M  V30 2121 N 187.398 -0.500677 -2.86254 0
M  V30 2122 H 186.945 -1.18532 -2.28709 0
M  V30 2123 H 186.903 0.325903 -3.12706 0
M  V30 2124 N 190.675 0.682077 -1.42076 0
M  V30 2125 C 191.605 1.80796 -1.47767 0
M  V30 2126 C 192.586 1.6677 -0.334954 0
M  V30 2127 O 193.771 1.863 -0.548264 0
M  V30 2128 C 190.901 3.19038 -1.37229 0
M  V30 2129 C 189.855 3.47789 -2.49453 0
M  V30 2130 C 189.181 4.8553 -2.23975 0
M  V30 2131 C 190.481 3.45411 -3.91776 0
M  V30 2132 H 192.175 1.7629 -2.41997 0
M  V30 2133 H 189.721 0.846721 -1.16476 0
M  V30 2134 H 191.674 3.97528 -1.39821 0
M  V30 2135 H 190.398 3.24204 -0.394907 0
M  V30 2136 H 189.057 2.71657 -2.46166 0
M  V30 2137 H 188.705 4.87337 -1.24547 0
M  V30 2138 H 188.405 5.0573 -2.99184 0
M  V30 2139 H 189.929 5.66312 -2.28304 0
M  V30 2140 H 191.343 4.13882 -3.96705 0
M  V30 2141 H 189.74 3.77145 -4.66778 0
M  V30 2142 H 190.81 2.44122 -4.18966 0
M  V30 2143 N 192.153 1.28127 0.917671 0
M  V30 2144 C 193.063 1.13556 2.05286 0
M  V30 2145 C 194.079 0.0630914 1.73886 0
M  V30 2146 O 195.255 0.271598 1.9956 0
M  V30 2147 C 192.32 0.794676 3.3747 0
M  V30 2148 C 191.381 1.94909 3.82504 0
M  V30 2149 C 190.614 1.62437 5.0838 0
M  V30 2150 O 190.837 0.536905 5.67867 0
M  V30 2151 O 189.771 2.46677 5.4903 0
M  V30 2152 H 193.597 2.08844 2.20495 0
M  V30 2153 H 191.182 1.07409 1.03845 0
M  V30 2154 H 193.064 0.618344 4.16839 0
M  V30 2155 H 191.739 -0.128581 3.23445 0
M  V30 2156 H 190.646 2.18055 3.03978 0
M  V30 2157 H 191.979 2.85291 4.01086 0
M  V30 2158 N 193.631 -1.12557 1.10312 0
M  V30 2159 C 194.561 -2.20341 0.772798 0
M  V30 2160 C 195.542 -1.68198 -0.25365 0
M  V30 2161 O 196.727 -1.93831 -0.119699 0
M  V30 2162 C 193.857 -3.46709 0.202443 0
M  V30 2163 C 192.811 -4.11996 1.15943 0
M  V30 2164 C 192.137 -5.328 0.450345 0
M  V30 2165 C 193.437 -4.5828 2.50552 0
M  V30 2166 H 195.131 -2.48229 1.674 0
M  V30 2167 H 192.677 -1.19308 0.806326 0
M  V30 2168 H 194.63 -4.2138 -0.0407752 0
M  V30 2169 H 193.354 -3.18245 -0.734001 0
M  V30 2170 H 192.013 -3.39305 1.38808 0
M  V30 2171 H 191.661 -5.00602 -0.490531 0
M  V30 2172 H 191.361 -5.7743 1.08851 0
M  V30 2173 H 192.885 -6.10219 0.215642 0
M  V30 2174 H 194.299 -5.2433 2.31843 0
M  V30 2175 H 192.696 -5.13683 3.10242 0
M  V30 2176 H 193.766 -3.72329 3.10643 0
M  V30 2177 N 195.109 -0.891671 -1.2995 0
M  V30 2178 C 196.358 -0.509521 -1.95158 0
M  V30 2179 C 196.671 0.947388 -1.71125 0
M  V30 2180 O 197.877 1.43669 -2.30372 0
M  V30 2181 C 196.333 -0.860315 -3.49466 0
M  V30 2182 C 195.941 -2.33545 -3.8231 0
M  V30 2183 C 197.685 -0.547687 -4.20952 0
M  V30 2184 C 195.592 -2.62752 -5.29826 0
M  V30 2185 H 194.522 -0.18682 -0.730489 0
M  V30 2186 H 197.173 -1.08756 -1.47798 0
M  V30 2187 H 195.555 -0.211285 -3.95436 0
M  V30 2188 H 196.729 -3.02936 -3.47227 0
M  V30 2189 H 195.044 -2.61629 -3.23944 0
M  V30 2190 H 197.641 -0.742854 -5.29515 0
M  V30 2191 H 197.984 0.51332 -4.13123 0
M  V30 2192 H 198.517 -1.1542 -3.80688 0
M  V30 2193 H 195.256 -3.6762 -5.42712 0
M  V30 2194 H 194.776 -1.97977 -5.66185 0
M  V30 2195 H 196.455 -2.48601 -5.97333 0
M  V30 2196 N 196.587 1.43421 -0.653314 0
M  V30 2197 C 197.535 2.32546 0.0501531 0
M  V30 2198 C 198.529 1.48617 0.812985 0
M  V30 2199 O 199.735 1.64825 0.723375 0
M  V30 2200 H 196.11 0.751185 0.0350032 0
M  V30 2201 H 198.081 2.89602 -0.719261 0
M  V30 2202 C 196.83 3.32925 1.00279 0
M  V30 2203 H 196.153 3.97532 0.425236 0
M  V30 2204 H 197.593 3.9792 1.46409 0
M  V30 2205 C 196.052 2.63532 2.09886 0
M  V30 2206 O 196.582 2.45092 3.18265 0
M  V30 2207 N 194.788 2.22905 1.86445 0
M  V30 2208 H 194.335 2.38103 0.98309 0
M  V30 2209 H 194.293 1.76805 2.59976 0
M  V30 2210 N 198.065 0.39524 1.52563 0
M  V30 2211 C 198.997 -0.472201 2.24283 0
M  V30 2212 C 200.01 -1.02178 1.26742 0
M  V30 2213 O 201.199 -0.923097 1.52778 0
M  V30 2214 C 198.299 -1.66775 2.95024 0
M  V30 2215 C 197.472 -1.2445 4.19322 0
M  V30 2216 C 196.531 -2.30539 4.7301 0
M  V30 2217 O 195.557 -1.91702 5.35947 0
M  V30 2218 N 196.759 -3.6253 4.53379 0
M  V30 2219 H 199.524 0.142282 2.99362 0
M  V30 2220 H 197.085 0.2219 1.60372 0
M  V30 2221 H 199.077 -2.37283 3.27839 0
M  V30 2222 H 197.647 -2.18845 2.23217 0
M  V30 2223 H 196.867 -0.368069 3.92478 0
M  V30 2224 H 198.155 -0.938457 5.0007 0
M  V30 2225 H 197.553 -3.96841 4.03154 0
M  V30 2226 H 196.11 -4.29055 4.90668 0
M  V30 2227 N 199.544 -1.57102 0.125237 0
M  V30 2228 C 200.454 -2.19191 -0.8362 0
M  V30 2229 C 201.47 -1.16985 -1.28805 0
M  V30 2230 O 202.646 -1.49479 -1.34974 0
M  V30 2231 C 199.711 -2.78407 -2.06617 0
M  V30 2232 C 198.772 -3.9567 -1.66565 0
M  V30 2233 C 198.005 -4.52052 -2.83698 0
M  V30 2234 O 198.228 -4.07326 -3.99302 0
M  V30 2235 O 197.162 -5.42645 -2.60423 0
M  V30 2236 H 200.988 -3.01816 -0.337776 0
M  V30 2237 H 198.573 -1.4906 -0.100695 0
M  V30 2238 H 200.455 -3.16129 -2.7864 0
M  V30 2239 H 199.13 -1.9881 -2.55453 0
M  V30 2240 H 198.037 -3.62705 -0.916296 0
M  V30 2241 H 199.37 -4.76722 -1.22464 0
M  V30 2242 N 201.022 0.148545 -1.56898 0
M  V30 2243 C 201.969 1.18345 -1.98149 0
M  V30 2244 C 202.939 1.42772 -0.848848 0
M  V30 2245 O 204.124 1.55132 -1.11079 0
M  V30 2246 C 201.264 2.51231 -2.36594 0
M  V30 2247 C 200.377 2.33991 -3.63142 0
M  V30 2248 C 199.512 3.59902 -3.90697 0
M  V30 2249 C 198.551 3.37692 -5.1052 0
M  V30 2250 N 197.688 4.5573 -5.34092 0
M  V30 2251 H 202.528 0.82467 -2.86362 0
M  V30 2252 H 200.065 0.395756 -1.41676 0
M  V30 2253 H 202.023 3.28713 -2.56912 0
M  V30 2254 H 200.653 2.85059 -1.51463 0
M  V30 2255 H 199.705 1.47572 -3.50609 0
M  V30 2256 H 201.017 2.13539 -4.5078 0
M  V30 2257 H 200.171 4.45813 -4.11505 0
M  V30 2258 H 198.91 3.83357 -3.01477 0
M  V30 2259 H 197.915 2.5017 -4.89587 0
M  V30 2260 H 199.14 3.15637 -6.0129 0
M  V30 2261 H 197.086 4.79361 -4.47827 0
M  V30 2262 H 197.003 4.38274 -6.15996 0
M  V30 2263 H 198.271 5.42858 -5.59397 0
M  V30 2264 N 202.5 1.5196 0.417844 0
M  V30 2265 C 203.777 1.56146 1.17803 0
M  V30 2266 C 204.157 0.337275 2.08388 0
M  V30 2267 O 203.505 -0.676447 2.18258 0
M  V30 2268 C 203.715 2.88566 1.96293 0
M  V30 2269 C 205.063 3.41244 2.52662 0
M  V30 2270 O 206.087 2.90247 2.06483 0
M  V30 2271 O 204.946 4.30273 3.36938 0
M  V30 2272 H 202.04 0.628598 0.537395 0
M  V30 2273 H 204.586 1.64283 0.425331 0
M  V30 2274 H 203.358 3.69116 1.2988 0
M  V30 2275 H 202.981 2.83681 2.78587 0
M  V30 2276 N 203.978 -0.674533 1.42435 0
M  V30 2277 C 205.227 -1.43034 1.42212 0
M  V30 2278 C 205.54 -1.95555 0.0420788 0
M  V30 2279 O 206.746 -2.71374 -0.0827558 0
M  V30 2280 C 205.202 -2.58748 2.50155 0
M  V30 2281 C 204.81 -2.12925 3.94166 0
M  V30 2282 C 206.554 -3.36257 2.59098 0
M  V30 2283 C 204.461 -3.25723 4.93618 0
M  V30 2284 H 203.391 -0.537345 0.528939 0
M  V30 2285 H 206.042 -0.73024 1.68344 0
M  V30 2286 H 204.424 -3.31128 2.17188 0
M  V30 2287 H 205.598 -1.47697 4.36488 0
M  V30 2288 H 203.913 -1.48354 3.89076 0
M  V30 2289 H 206.51 -4.20264 3.30578 0
M  V30 2290 H 206.853 -3.82866 1.63461 0
M  V30 2291 H 207.386 -2.70947 2.9126 0
M  V30 2292 H 204.125 -2.84105 5.90732 0
M  V30 2293 H 203.645 -3.89732 4.55926 0
M  V30 2294 H 205.324 -3.91186 5.15347 0
M  V30 2295 N 205.456 -1.28612 -0.910864 0
M  V30 2296 C 206.386 -1.15326 -2.03032 0
M  V30 2297 C 207.367 -0.0502924 -1.70026 0
M  V30 2298 O 208.552 -0.227797 -1.92859 0
M  V30 2299 C 205.682 -0.817343 -3.37545 0
M  V30 2300 C 204.636 -1.8754 -3.84724 0
M  V30 2301 C 203.962 -1.39305 -5.16235 0
M  V30 2302 C 205.262 -3.28244 -4.06267 0
M  V30 2303 H 206.956 -2.08975 -2.14406 0
M  V30 2304 H 204.502 -1.00612 -1.03021 0
M  V30 2305 H 206.455 -0.711151 -4.15356 0
M  V30 2306 H 205.179 0.154846 -3.26233 0
M  V30 2307 H 203.838 -1.97079 -3.09121 0
M  V30 2308 H 203.486 -0.409846 -5.01328 0
M  V30 2309 H 203.186 -2.10057 -5.48771 0
M  V30 2310 H 204.71 -1.30014 -5.96598 0
M  V30 2311 H 206.124 -3.21611 -4.74594 0
M  V30 2312 H 204.521 -3.96855 -4.5014 0
M  V30 2313 H 205.591 -3.72048 -3.10979 0
M  V30 2314 N 206.934 1.1197 -1.10907 0
M  V30 2315 C 207.844 2.21433 -0.774896 0
M  V30 2316 C 208.86 1.72478 0.229657 0
M  V30 2317 O 210.036 2.01288 0.0672008 0
M  V30 2318 C 207.101 3.4602 -0.216986 0
M  V30 2319 C 206.162 4.09791 -1.27944 0
M  V30 2320 C 205.395 5.28431 -0.748055 0
M  V30 2321 O 205.618 5.68823 0.423833 0
M  V30 2322 O 204.552 5.82644 -1.51027 0
M  V30 2323 H 208.378 2.5242 -1.68873 0
M  V30 2324 H 205.963 1.20399 -0.884555 0
M  V30 2325 H 207.845 4.21304 0.090059 0
M  V30 2326 H 206.52 3.16698 0.669633 0
M  V30 2327 H 205.427 3.36265 -1.63941 0
M  V30 2328 H 206.76 4.4328 -2.13925 0
M  V30 2329 N 208.412 0.89855 1.29475 0
M  V30 2330 C 209.375 0.380272 2.26023 0
M  V30 2331 C 210.375 -0.484891 1.53315 0
M  V30 2332 O 211.565 -0.290108 1.71767 0
M  V30 2333 C 208.697 -0.45651 3.3783 0
M  V30 2334 H 209.89 1.23295 2.73383 0
M  V30 2335 H 207.443 0.676589 1.40897 0
M  V30 2336 H 208.178 -1.32922 2.95808 0
M  V30 2337 H 207.963 0.163393 3.91759 0
M  V30 2338 H 209.453 -0.810466 4.0966 0
M  V30 2339 N 209.89 -1.43072 0.660911 0
M  V30 2340 C 210.82 -2.33497 -0.0122829 0
M  V30 2341 C 211.801 -1.49903 -0.803925 0
M  V30 2342 O 212.986 -1.78546 -0.763864 0
M  V30 2343 C 210.116 -3.33363 -0.973994 0
M  V30 2344 C 209.07 -4.27003 -0.291928 0
M  V30 2345 C 208.396 -5.16967 -1.36562 0
M  V30 2346 C 209.696 -5.15816 0.820462 0
M  V30 2347 H 211.39 -2.90038 0.742873 0
M  V30 2348 H 208.936 -1.39461 0.358688 0
M  V30 2349 H 210.889 -3.95524 -1.45392 0
M  V30 2350 H 209.613 -2.75095 -1.7604 0
M  V30 2351 H 208.272 -3.66217 0.167623 0
M  V30 2352 H 207.92 -4.55034 -2.14366 0
M  V30 2353 H 207.62 -5.80441 -0.914454 0
M  V30 2354 H 209.144 -5.82003 -1.84675 0
M  V30 2355 H 210.558 -5.71742 0.422366 0
M  V30 2356 H 208.955 -5.8805 1.19656 0
M  V30 2357 H 210.025 -4.55045 1.67518 0
M  V30 2358 N 211.368 -0.403325 -1.52352 0
M  V30 2359 C 212.315 0.425011 -2.26853 0
M  V30 2360 C 213.285 1.04598 -1.29029 0
M  V30 2361 O 214.47 1.07135 -1.57882 0
M  V30 2362 C 211.61 1.53888 -3.08889 0
M  V30 2363 C 210.723 0.939396 -4.21663 0
M  V30 2364 C 209.858 2.02547 -4.91068 0
M  V30 2365 C 208.897 1.40263 -5.95813 0
M  V30 2366 N 208.034 2.4286 -6.58759 0
M  V30 2367 H 212.874 -0.21674 -2.97211 0
M  V30 2368 H 210.411 -0.118722 -1.4662 0
M  V30 2369 H 212.369 2.19558 -3.54753 0
M  V30 2370 H 210.999 2.15074 -2.40714 0
M  V30 2371 H 210.051 0.171898 -3.80011 0
M  V30 2372 H 211.363 0.44436 -4.96817 0
M  V30 2373 H 210.517 2.75958 -5.40308 0
M  V30 2374 H 209.256 2.55415 -4.15469 0
M  V30 2375 H 208.261 0.653833 -5.45898 0
M  V30 2376 H 209.486 0.881719 -6.73352 0
M  V30 2377 H 207.432 2.94871 -5.85992 0
M  V30 2378 H 207.349 1.98152 -7.2957 0
M  V30 2379 H 208.617 3.15858 -7.12639 0
M  V30 2380 N 212.846 1.57033 -0.133567 0
M  V30 2381 C 214.092 1.96764 0.515326 0
M  V30 2382 C 214.447 1.01653 1.63353 0
M  V30 2383 O 213.74 0.0491374 1.91537 0
M  V30 2384 C 213.934 3.40674 1.08057 0
M  V30 2385 C 213.763 4.49696 0.0186522 0
M  V30 2386 C 212.533 5.03567 -0.418174 0
M  V30 2387 C 214.731 5.08536 -0.767809 0
M  V30 2388 N 212.713 5.9618 -1.46434 0
M  V30 2389 C 214.084 5.97231 -1.6648 0
M  V30 2390 C 216.139 4.9115 -0.817087 0
M  V30 2391 C 214.842 6.70401 -2.60681 0
M  V30 2392 C 216.868 5.65012 -1.74687 0
M  V30 2393 C 216.23 6.53403 -2.63141 0
M  V30 2394 H 212.329 0.765919 0.157771 0
M  V30 2395 H 214.913 1.93395 -0.22506 0
M  V30 2396 H 213.084 3.44662 1.79061 0
M  V30 2397 H 214.816 3.67495 1.69497 0
M  V30 2398 H 211.571 4.73594 -0.0229803 0
M  V30 2399 H 211.995 6.47191 -1.98678 0
M  V30 2400 H 216.637 4.22543 -0.147326 0
M  V30 2401 H 214.355 7.38245 -3.28664 0
M  V30 2402 H 217.941 5.53559 -1.79063 0
M  V30 2403 H 216.821 7.09556 -3.33917 0
M  V30 2404 N 214.325 -0.140222 1.56975 0
M  V30 2405 C 215.602 -0.880769 1.74648 0
M  V30 2406 C 215.982 -1.99036 0.703404 0
M  V30 2407 O 215.33 -2.26821 -0.27648 0
M  V30 2408 C 215.54 -1.417 3.18939 0
M  V30 2409 C 216.888 -1.87774 3.80823 0
M  V30 2410 O 217.912 -1.51427 3.2241 0
M  V30 2411 O 216.771 -2.54827 4.83452 0
M  V30 2412 H 213.865 -0.416713 0.714338 0
M  V30 2413 H 216.411 -0.125618 1.69234 0
M  V30 2414 H 215.183 -0.619902 3.86359 0
M  V30 2415 H 214.806 -2.23546 3.28805 0
M  V30 2416 N 215.803 -1.52179 -0.40978 0
M  V30 2417 C 217.031 -1.70054 -1.17853 0
M  V30 2418 C 217.446 -0.409735 -1.843 0
M  V30 2419 O 216.803 0.614183 -1.71855 0
M  V30 2420 C 216.854 -2.83568 -2.24213 0
M  V30 2421 O 216.575 -4.0765 -1.60478 0
M  V30 2422 C 218.076 -3.12947 -3.13973 0
M  V30 2423 H 215.296 -0.569917 -0.354169 0
M  V30 2424 H 217.84 -1.98734 -0.482198 0
M  V30 2425 H 215.995 -2.57409 -2.89516 0
M  V30 2426 H 216.409 -4.70899 -2.30986 0
M  V30 2427 H 217.883 -3.95889 -3.84677 0
M  V30 2428 H 218.36 -2.26472 -3.76307 0
M  V30 2429 H 218.966 -3.40868 -2.5434 0
M  V30 2430 N 217.281 0.66697 -1.42791 0
M  V30 2431 C 218.191 1.80962 -1.49299 0
M  V30 2432 C 219.207 1.69775 -0.381108 0
M  V30 2433 O 220.383 1.91188 -0.633188 0
M  V30 2434 C 217.448 3.17156 -1.40045 0
M  V30 2435 C 216.509 3.40242 -2.6179 0
M  V30 2436 C 215.742 4.69939 -2.52969 0
M  V30 2437 O 215.965 5.48372 -1.56985 0
M  V30 2438 O 214.899 4.94441 -3.43237 0
M  V30 2439 H 218.725 1.78427 -2.45759 0
M  V30 2440 H 216.31 0.823713 -1.24641 0
M  V30 2441 H 218.192 3.98413 -1.37276 0
M  V30 2442 H 216.867 3.20312 -0.467138 0
M  V30 2443 H 215.774 2.58802 -2.70134 0
M  V30 2444 H 217.107 3.41923 -3.54047 0
M  V30 2445 N 218.759 1.29093 0.90403 0
M  V30 2446 C 219.722 1.1386 1.98919 0
M  V30 2447 C 220.722 0.0753457 1.60623 0
M  V30 2448 O 221.912 0.321931 1.71199 0
M  V30 2449 C 219.044 0.740198 3.32767 0
M  V30 2450 H 220.237 2.10246 2.13861 0
M  V30 2451 H 217.79 1.12218 1.08797 0
M  V30 2452 H 218.525 -0.223997 3.23525 0
M  V30 2453 H 218.31 1.50838 3.61926 0
M  V30 2454 H 219.8 0.656546 4.12407 0
M  V30 2455 N 220.237 -1.11381 1.11499 0
M  V30 2456 C 221.483 -1.83403 0.865512 0
M  V30 2457 C 221.816 -1.84459 -0.607329 0
M  V30 2458 O 221.091 -1.29811 -1.44842 0
M  V30 2459 C 221.374 -3.30552 1.42855 0
M  V30 2460 C 221.227 -3.37886 2.96906 0
M  V30 2461 C 222.546 -4.26643 1.08 0
M  V30 2462 H 219.665 -0.665879 0.31587 0
M  V30 2463 H 222.307 -1.30601 1.37998 0
M  V30 2464 H 220.457 -3.75648 0.990985 0
M  V30 2465 H 222.129 -3.01343 3.49271 0
M  V30 2466 H 220.372 -2.78088 3.32941 0
M  V30 2467 H 221.043 -4.41458 3.31389 0
M  V30 2468 H 223.519 -3.89729 1.45775 0
M  V30 2469 H 222.395 -5.27986 1.50072 0
M  V30 2470 H 222.656 -4.42099 -0.00915037 0
M  V30 2471 N 221.715 -0.905404 -1.28997 0
M  V30 2472 C 222.645 -0.404212 -2.29975 0
M  V30 2473 C 223.626 0.523784 -1.61835 0
M  V30 2474 O 224.811 0.433298 -1.89304 0
M  V30 2475 C 221.941 0.364042 -3.45387 0
M  V30 2476 C 220.895 -0.474048 -4.25367 0
M  V30 2477 C 220.221 0.422045 -5.33032 0
M  V30 2478 C 221.521 -1.72696 -4.92923 0
M  V30 2479 H 223.215 -1.24807 -2.72146 0
M  V30 2480 H 220.761 -0.601585 -1.30832 0
M  V30 2481 H 222.714 0.725447 -4.15109 0
M  V30 2482 H 221.438 1.24174 -3.02074 0
M  V30 2483 H 220.097 -0.81786 -3.57361 0
M  V30 2484 H 219.745 1.29804 -4.85963 0
M  V30 2485 H 219.445 -0.135057 -5.87445 0
M  V30 2486 H 220.969 0.779517 -6.05604 0
M  V30 2487 H 222.383 -1.43495 -5.55051 0
M  V30 2488 H 220.78 -2.22582 -5.57295 0
M  V30 2489 H 221.85 -2.45964 -4.17887 0
M  V30 2490 N 223.193 1.4272 -0.668489 0
M  V30 2491 C 224.156 2.292 0.00448567 0
M  V30 2492 C 225.156 1.43001 0.735339 0
M  V30 2493 O 226.346 1.64461 0.57429 0
M  V30 2494 C 223.478 3.25375 1.01705 0
M  V30 2495 H 224.671 2.90199 -0.756608 0
M  V30 2496 H 222.224 1.50254 -0.430506 0
M  V30 2497 H 222.959 2.69301 1.80686 0
M  V30 2498 H 222.744 3.88944 0.496463 0
M  V30 2499 H 224.234 3.90245 1.48655 0
M  V30 2500 N 224.671 0.411399 1.52136 0
M  V30 2501 C 225.899 -0.163076 2.06256 0
M  V30 2502 C 226.314 -1.3867 1.28125 0
M  V30 2503 O 225.671 -1.79423 0.333721 0
M  V30 2504 C 225.722 -0.511252 3.57867 0
M  V30 2505 O 225.443 0.66378 4.33042 0
M  V30 2506 C 226.944 -1.13921 4.28412 0
M  V30 2507 H 224.164 -0.0193897 0.67072 0
M  V30 2508 H 226.708 0.583007 1.96013 0
M  V30 2509 H 224.863 -1.20723 3.6811 0
M  V30 2510 H 225.277 0.372601 5.23175 0
M  V30 2511 H 226.751 -1.33302 5.35663 0
M  V30 2512 H 227.228 -2.11296 3.85033 0
M  V30 2513 H 227.834 -0.483373 4.22544 0
M  V30 2514 N 226.149 -1.5696 0.141893 0
M  V30 2515 C 227.426 -1.87553 -0.555281 0
M  V30 2516 C 227.806 -1.04699 -1.83306 0
M  V30 2517 O 227.154 -0.132346 -2.28116 0
M  V30 2518 C 227.364 -3.39093 -0.825664 0
M  V30 2519 C 228.712 -4.08199 -1.16869 0
M  V30 2520 O 229.736 -3.44242 -0.915185 0
M  V30 2521 O 228.595 -5.21139 -1.6455 0
M  V30 2522 H 225.689 -0.777188 -0.282679 0
M  V30 2523 H 228.235 -1.68763 0.17812 0
M  V30 2524 H 227.007 -3.91221 0.0788633 0
M  V30 2525 H 226.63 -3.63393 -1.61343 0
M  V30 2526 N 227.627 0.131896 -1.57047 0
M  V30 2527 C 228.874 0.841932 -1.84168 0
M  V30 2528 C 229.202 1.8048 -0.725066 0
M  V30 2529 O 228.457 1.93618 0.284692 0
M  V30 2530 C 228.756 1.63703 -3.17704 0
M  V30 2531 C 228.422 0.81961 -4.43388 0
M  V30 2532 C 227.084 0.594148 -4.77518 0
M  V30 2533 C 229.436 0.248977 -5.20605 0
M  V30 2534 C 226.764 -0.212409 -5.86315 0
M  V30 2535 C 229.116 -0.544701 -6.30251 0
M  V30 2536 C 227.78 -0.780599 -6.6292 0
M  V30 2537 H 227.05 0.308085 -0.673917 0
M  V30 2538 H 229.697 0.104867 -1.91213 0
M  V30 2539 H 228.002 2.44464 -3.06177 0
M  V30 2540 H 229.699 2.19015 -3.35907 0
M  V30 2541 H 226.289 1.00542 -4.16641 0
M  V30 2542 H 230.473 0.410408 -4.946 0
M  V30 2543 H 225.729 -0.404524 -6.1006 0
M  V30 2544 H 229.903 -0.993922 -6.89271 0
M  V30 2545 H 227.53 -1.40742 -7.47058 0
M  V30 2546 N 229.106 1.52395 0.401703 0
M  V30 2547 C 230.036 1.79231 1.49661 0
M  V30 2548 C 231.017 0.643654 1.57452 0
M  V30 2549 O 232.202 0.889989 1.72606 0
M  V30 2550 C 229.332 1.94971 2.87409 0
M  V30 2551 C 228.286 3.10604 2.94465 0
M  V30 2552 C 227.612 3.11577 4.34538 0
M  V30 2553 C 228.912 4.49921 2.6527 0
M  V30 2554 H 230.606 2.70917 1.27454 0
M  V30 2555 H 228.152 1.30362 0.6117 0
M  V30 2556 H 230.105 2.12328 3.63999 0
M  V30 2557 H 228.829 0.999632 3.10926 0
M  V30 2558 H 227.488 2.93009 2.20321 0
M  V30 2559 H 227.136 2.14277 4.55076 0
M  V30 2560 H 226.836 3.89247 4.40183 0
M  V30 2561 H 228.36 3.31073 5.13053 0
M  V30 2562 H 229.774 4.67683 3.31581 0
M  V30 2563 H 228.171 5.29564 2.82281 0
M  V30 2564 H 229.241 4.57507 1.60671 0
M  V30 2565 N 230.584 -0.659388 1.43143 0
M  V30 2566 C 231.833 -1.41518 1.43721 0
M  V30 2567 C 232.146 -1.95499 0.0628176 0
M  V30 2568 O 233.352 -2.71446 -0.0539683 0
M  V30 2569 C 231.808 -2.5608 2.52885 0
M  V30 2570 C 231.416 -2.08733 3.96402 0
M  V30 2571 C 233.16 -3.3349 2.62649 0
M  V30 2572 C 231.067 -3.20469 4.97045 0
M  V30 2573 H 229.997 -0.531705 0.534608 0
M  V30 2574 H 232.648 -0.712343 1.69109 0
M  V30 2575 H 231.03 -3.28805 2.20688 0
M  V30 2576 H 232.204 -1.43059 4.3803 0
M  V30 2577 H 230.519 -1.44219 3.90627 0
M  V30 2578 H 233.116 -4.16734 3.35017 0
M  V30 2579 H 233.459 -3.8111 1.67513 0
M  V30 2580 H 233.992 -2.67842 2.94118 0
M  V30 2581 H 230.731 -2.77824 5.93712 0
M  V30 2582 H 230.251 -3.84874 4.60034 0
M  V30 2583 H 231.93 -3.85698 5.19467 0
M  V30 2584 N 232.062 -1.29571 -0.897171 0
M  V30 2585 C 233.473 -1.15964 -1.46319 0
M  V30 2586 C 233.824 0.244267 -1.94674 0
M  V30 2587 O 232.949 1.13998 -1.83939 0
M  V30 2588 C 233.544 -2.09906 -2.65942 0
M  V30 2589 C 232.103 -2.00314 -3.18671 0
M  V30 2590 C 231.25 -2.00687 -1.91363 0
M  V30 2591 H 234.201 -1.42019 -0.708268 0
M  V30 2592 H 234.222 -1.67276 -3.41759 0
M  V30 2593 H 233.734 -3.12075 -2.30718 0
M  V30 2594 H 231.835 -1.01242 -3.58582 0
M  V30 2595 H 231.948 -2.88102 -3.82798 0
M  V30 2596 H 230.312 -1.45319 -2.09175 0
M  V30 2597 H 231.095 -3.04566 -1.58413 0
M  V30 2598 N 233.54 1.10788 -1.12088 0
M  V30 2599 C 234.47 2.19083 -0.807755 0
M  V30 2600 C 235.451 1.6858 0.226859 0
M  V30 2601 O 236.636 1.93997 0.0888475 0
M  V30 2602 C 233.766 3.46344 -0.257576 0
M  V30 2603 C 232.72 4.101 -1.22483 0
M  V30 2604 C 232.046 5.32016 -0.535052 0
M  V30 2605 C 233.346 4.54236 -2.57811 0
M  V30 2606 H 235.04 2.45534 -1.71328 0
M  V30 2607 H 232.586 1.1801 -0.825205 0
M  V30 2608 H 234.539 4.21392 -0.0262679 0
M  V30 2609 H 233.263 3.19373 0.683278 0
M  V30 2610 H 231.922 3.37054 -1.44189 0
M  V30 2611 H 231.57 5.01319 0.410827 0
M  V30 2612 H 231.27 5.75625 -1.18024 0
M  V30 2613 H 232.794 6.09799 -0.312695 0
M  V30 2614 H 234.208 5.20575 -2.40155 0
M  V30 2615 H 232.605 5.08682 -3.18375 0
M  V30 2616 H 233.675 3.6734 -3.16528 0
M  V30 2617 N 235.018 0.912232 1.28515 0
M  V30 2618 C 236.258 0.551677 1.96814 0
M  V30 2619 C 236.622 -0.887825 1.7024 0
M  V30 2620 O 237.823 -1.35588 2.32098 0
M  V30 2621 C 236.094 0.850555 3.47132 0
M  V30 2622 S 237.653 0.59619 4.34731 0
M  V30 2623 H 234.471 0.204191 0.681049 0
M  V30 2624 H 237.073 1.17736 1.56072 0
M  V30 2625 H 235.777 1.8962 3.63968 0
M  V30 2626 H 235.308 0.213471 3.9282 0
M  V30 2627 H 237.323 -0.553154 4.93107 0
M  V30 2628 N 236.496 -1.42363 0.676048 0
M  V30 2629 C 237.444 -2.32596 -0.0131507 0
M  V30 2630 C 238.438 -1.49891 -0.789238 0
M  V30 2631 O 239.644 -1.65955 -0.697061 0
M  V30 2632 H 236.019 -0.751647 -0.0230481 0
M  V30 2633 H 237.99 -2.88421 0.765243 0
M  V30 2634 C 236.739 -3.34479 -0.949702 0
M  V30 2635 H 236.062 -3.98158 -0.361938 0
M  V30 2636 H 237.502 -4.00199 -1.4006 0
M  V30 2637 C 235.961 -2.66838 -2.05667 0
M  V30 2638 O 236.491 -2.50124 -3.14326 0
M  V30 2639 N 234.697 -2.25843 -1.82875 0
M  V30 2640 H 234.244 -2.39637 -0.945085 0
M  V30 2641 H 234.202 -1.80918 -2.5713 0
M  V30 2642 N 237.974 -0.419461 -1.51915 0
M  V30 2643 C 238.937 0.389116 -2.25873 0
M  V30 2644 C 239.937 0.964924 -1.28631 0
M  V30 2645 O 241.127 0.842179 -1.52489 0
M  V30 2646 C 238.259 1.54874 -3.03689 0
M  V30 2647 H 239.452 -0.258799 -2.98781 0
M  V30 2648 H 237.005 -0.172209 -1.55348 0
M  V30 2649 H 237.74 2.23323 -2.35154 0
M  V30 2650 H 237.525 1.14223 -3.75094 0
M  V30 2651 H 239.015 2.12046 -3.59759 0
M  V30 2652 N 239.452 1.56882 -0.150215 0
M  V30 2653 C 240.382 2.19935 0.784284 0
M  V30 2654 C 241.363 1.14854 1.25469 0
M  V30 2655 O 242.548 1.43209 1.31168 0
M  V30 2656 C 239.678 2.82349 2.02229 0
M  V30 2657 C 238.632 3.93285 1.68853 0
M  V30 2658 C 237.958 4.42649 2.99944 0
M  V30 2659 C 239.258 5.13904 0.932714 0
M  V30 2660 H 240.952 2.9828 0.258781 0
M  V30 2661 H 238.498 1.43473 0.123029 0
M  V30 2662 H 240.451 3.25126 2.68088 0
M  V30 2663 H 239.175 2.0134 2.57157 0
M  V30 2664 H 237.834 3.5113 1.05371 0
M  V30 2665 H 237.482 3.58458 3.52869 0
M  V30 2666 H 237.182 5.17476 2.78374 0
M  V30 2667 H 238.706 4.88099 3.66868 0
M  V30 2668 H 240.12 5.53506 1.49345 0
M  V30 2669 H 238.517 5.94515 0.81684 0
M  V30 2670 H 239.587 4.84842 -0.0749568 0
M  V30 2671 N 240.93 -0.123565 1.57115 0
M  V30 2672 C 241.877 -1.15177 2.00007 0
M  V30 2673 C 242.847 -1.41403 0.871454 0
M  V30 2674 O 244.032 -1.53346 1.13533 0
M  V30 2675 C 241.172 -2.47436 2.40561 0
M  V30 2676 C 240.285 -2.28184 3.66819 0
M  V30 2677 C 239.42 -3.53641 3.96373 0
M  V30 2678 C 238.459 -3.29528 5.15827 0
M  V30 2679 N 237.596 -4.47175 5.41275 0
M  V30 2680 H 242.436 -0.779008 2.87638 0
M  V30 2681 H 239.973 -0.373166 1.42288 0
M  V30 2682 H 241.931 -3.24584 2.62109 0
M  V30 2683 H 240.561 -2.82614 1.55978 0
M  V30 2684 H 239.613 -1.41976 3.52912 0
M  V30 2685 H 240.925 -2.0634 4.5412 0
M  V30 2686 H 240.079 -4.39209 4.18545 0
M  V30 2687 H 238.818 -3.78512 3.07538 0
M  V30 2688 H 237.823 -2.42349 4.93505 0
M  V30 2689 H 239.048 -3.06031 6.06236 0
M  V30 2690 H 236.994 -4.72175 4.55397 0
M  V30 2691 H 236.911 -4.28419 6.22891 0
M  V30 2692 H 238.179 -5.3389 5.67963 0
M  V30 2693 N 242.408 -1.52605 -0.393616 0
M  V30 2694 C 243.657 -1.66649 -1.13627 0
M  V30 2695 C 243.97 -0.410364 -1.91247 0
M  V30 2696 O 245.176 -0.430854 -2.68059 0
M  V30 2697 C 243.632 -2.9449 -2.06891 0
M  V30 2698 C 243.24 -4.27266 -1.34714 0
M  V30 2699 C 244.984 -3.17899 -2.81319 0
M  V30 2700 C 242.891 -5.46217 -2.26717 0
M  V30 2701 H 241.821 -0.62084 -0.427871 0
M  V30 2702 H 244.472 -1.791 -0.399428 0
M  V30 2703 H 242.854 -2.75774 -2.84191 0
M  V30 2704 H 244.028 -4.56518 -0.626714 0
M  V30 2705 H 242.343 -4.10081 -0.722643 0
M  V30 2706 H 244.94 -4.03949 -3.50328 0
M  V30 2707 H 245.283 -2.32777 -3.45139 0
M  V30 2708 H 245.816 -3.37159 -2.11113 0
M  V30 2709 H 242.555 -6.33733 -1.67521 0
M  V30 2710 H 242.075 -5.21283 -2.96689 0
M  V30 2711 H 243.754 -5.7991 -2.86903 0
M  V30 2712 N 243.887 0.651787 -1.4349 0
M  V30 2713 C 245.298 1.233 -1.40193 0
M  V30 2714 C 245.649 1.9591 -0.106727 0
M  V30 2715 O 244.774 2.01316 0.793773 0
M  V30 2716 C 245.369 2.24257 -2.53957 0
M  V30 2717 C 243.928 2.77852 -2.5392 0
M  V30 2718 C 243.075 1.52517 -2.3159 0
M  V30 2719 H 246.026 0.443717 -1.52371 0
M  V30 2720 H 246.047 3.0646 -2.25528 0
M  V30 2721 H 245.559 1.71382 -3.4821 0
M  V30 2722 H 243.66 3.34786 -1.63551 0
M  V30 2723 H 243.773 3.25299 -3.51735 0
M  V30 2724 H 242.137 1.79915 -1.80285 0
M  V30 2725 H 242.92 1.01574 -3.27929 0
M  V30 2726 N 245.365 1.30045 0.890287 0
M  V30 2727 C 246.275 1.17885 2.02831 0
M  V30 2728 C 247.291 0.0999609 1.73713 0
M  V30 2729 O 248.467 0.313867 1.98939 0
M  V30 2730 C 245.532 0.866079 3.35708 0
M  V30 2731 C 244.593 2.02979 3.78283 0
M  V30 2732 C 243.826 1.73184 5.0482 0
M  V30 2733 O 244.049 0.657237 5.66601 0
M  V30 2734 O 242.983 2.58267 5.43674 0
M  V30 2735 H 246.809 2.13474 2.16015 0
M  V30 2736 H 244.394 1.09587 1.01543 0
M  V30 2737 H 246.276 0.706623 4.15433 0
M  V30 2738 H 244.951 -0.0599443 3.23644 0
M  V30 2739 H 243.858 2.24454 2.99285 0
M  V30 2740 H 245.191 2.93734 3.94944 0
M  V30 2741 N 246.843 -1.10192 1.12674 0
M  V30 2742 C 248.12 -1.78717 0.794965 0
M  V30 2743 C 248.5 -1.98628 -0.714853 0
M  V30 2744 O 247.848 -1.58135 -1.64941 0
M  V30 2745 C 248.058 -3.11546 1.5729 0
M  V30 2746 C 249.406 -3.86382 1.76052 0
M  V30 2747 O 250.43 -3.21274 1.53823 0
M  V30 2748 O 249.289 -5.03246 2.13087 0
M  V30 2749 H 246.383 -0.774702 0.289423 0
M  V30 2750 H 248.929 -1.16819 1.23091 0
M  V30 2751 H 247.701 -2.92489 2.59935 0
M  V30 2752 H 247.324 -3.81164 1.13137 0
M  V30 2753 N 248.321 -0.919034 -1.28029 0
M  V30 2754 C 249.251 -0.428581 -2.29533 0
M  V30 2755 C 250.232 0.50659 -1.62381 0
M  V30 2756 O 251.417 0.413195 -1.89753 0
M  V30 2757 C 248.547 0.327388 -3.45753 0
M  V30 2758 C 247.501 -0.519137 -4.2484 0
M  V30 2759 C 246.827 0.365486 -5.33449 0
M  V30 2760 C 248.127 -1.77914 -4.91064 0
M  V30 2761 H 249.821 -1.27687 -2.70807 0
M  V30 2762 H 247.367 -0.615428 -1.30186 0
M  V30 2763 H 249.32 0.681378 -4.15855 0
M  V30 2764 H 248.044 1.20963 -3.03374 0
M  V30 2765 H 246.703 -0.855717 -3.56473 0
M  V30 2766 H 246.351 1.24642 -4.87312 0
M  V30 2767 H 246.051 -0.197356 -5.87268 0
M  V30 2768 H 247.575 0.715241 -6.06396 0
M  V30 2769 H 248.989 -1.49374 -5.53498 0
M  V30 2770 H 247.386 -2.2848 -5.54903 0
M  V30 2771 H 248.456 -2.50382 -4.15255 0
M  V30 2772 N 249.799 1.42003 -0.683588 0
M  V30 2773 C 251.045 2.02223 -0.218536 0
M  V30 2774 C 251.4 1.53126 1.16492 0
M  V30 2775 O 250.693 0.727459 1.77253 0
M  V30 2776 C 250.887 3.56827 -0.202357 0
M  V30 2777 C 250.716 4.20928 -1.5827 0
M  V30 2778 C 249.486 4.5573 -2.18262 0
M  V30 2779 C 251.684 4.47933 -2.52706 0
M  V30 2780 N 249.666 5.05056 -3.48986 0
M  V30 2781 C 251.037 4.98906 -3.68094 0
M  V30 2782 C 253.092 4.29931 -2.51125 0
M  V30 2783 C 251.795 5.33768 -4.82166 0
M  V30 2784 C 253.821 4.65875 -3.643 0
M  V30 2785 C 253.183 5.17008 -4.78417 0
M  V30 2786 H 249.282 0.771931 -0.125088 0
M  V30 2787 H 251.866 1.72729 -0.898479 0
M  V30 2788 H 250.037 3.85819 0.447029 0
M  V30 2789 H 251.769 4.03755 0.276399 0
M  V30 2790 H 248.524 4.41781 -1.70665 0
M  V30 2791 H 248.948 5.34139 -4.15962 0
M  V30 2792 H 253.59 3.89647 -1.6412 0
M  V30 2793 H 251.308 5.72981 -5.6984 0
M  V30 2794 H 254.894 4.53615 -3.64314 0
M  V30 2795 H 253.774 5.44301 -5.64541 0
M  V30 2796 N 251.277 0.427512 1.51691 0
M  V30 2797 C 252.688 -0.0378867 1.86662 0
M  V30 2798 C 253.039 -1.42819 1.34525 0
M  V30 2799 O 252.164 -2.05037 0.692014 0
M  V30 2800 C 252.759 -0.0755266 3.38716 0
M  V30 2801 C 251.318 -0.485309 3.73258 0
M  V30 2802 C 250.465 0.328399 2.75349 0
M  V30 2803 H 253.416 0.64379 1.45055 0
M  V30 2804 H 253.437 -0.887056 3.70016 0
M  V30 2805 H 252.949 0.936487 3.76632 0
M  V30 2806 H 251.05 -1.50329 3.40928 0
M  V30 2807 H 251.163 -0.21693 4.78609 0
M  V30 2808 H 249.527 -0.211905 2.53817 0
M  V30 2809 H 250.31 1.3391 3.16106 0
M  V30 2810 N 252.755 -1.56801 0.158532 0
M  V30 2811 C 253.687 -2.14488 -0.807923 0
M  V30 2812 C 254.7 -1.09721 -1.20271 0
M  V30 2813 O 255.889 -1.36956 -1.14478 0
M  V30 2814 C 252.989 -2.66217 -2.09718 0
M  V30 2815 C 252.162 -3.95507 -1.86796 0
M  V30 2816 C 251.221 -4.3243 -2.99818 0
M  V30 2817 O 250.247 -5.00543 -2.71008 0
M  V30 2818 N 251.449 -3.92947 -4.27285 0
M  V30 2819 H 254.214 -2.98042 -0.314816 0
M  V30 2820 H 251.775 -1.61881 -0.0246692 0
M  V30 2821 H 253.767 -2.87924 -2.84398 0
M  V30 2822 H 252.337 -1.87324 -2.50257 0
M  V30 2823 H 251.557 -3.82309 -0.96089 0
M  V30 2824 H 252.845 -4.79972 -1.68833 0
M  V30 2825 H 252.243 -3.38087 -4.53557 0
M  V30 2826 H 250.8 -4.19681 -4.9871 0
M  V30 2827 N 254.233 0.115231 -1.57178 0
M  V30 2828 C 255.163 1.1423 -2.03651 0
M  V30 2829 C 256.144 1.42967 -0.921655 0
M  V30 2830 O 257.329 1.53343 -1.19162 0
M  V30 2831 C 254.459 2.4675 -2.44401 0
M  V30 2832 C 253.413 2.32467 -3.59365 0
M  V30 2833 C 252.739 3.69984 -3.86026 0
M  V30 2834 C 254.039 1.78203 -4.90959 0
M  V30 2835 H 255.733 0.755749 -2.89705 0
M  V30 2836 H 253.279 0.362093 -1.39373 0
M  V30 2837 H 255.232 3.18854 -2.75517 0
M  V30 2838 H 253.956 2.87302 -1.55322 0
M  V30 2839 H 252.615 1.62811 -3.28463 0
M  V30 2840 H 252.263 4.08028 -2.94147 0
M  V30 2841 H 251.963 3.61279 -4.63412 0
M  V30 2842 H 253.487 4.43587 -4.19599 0
M  V30 2843 H 254.901 2.40128 -5.20587 0
M  V30 2844 H 253.298 1.8031 -5.72371 0
M  V30 2845 H 254.368 0.739876 -4.79222 0
M  V30 2846 N 255.711 1.52812 0.385517 0
M  V30 2847 C 256.941 1.71658 1.14966 0
M  V30 2848 C 257.349 0.436253 1.84102 0
M  V30 2849 O 256.692 -0.599313 1.73649 0
M  V30 2850 C 256.754 2.81309 2.23843 0
M  V30 2851 C 256.418 4.22313 1.74644 0
M  V30 2852 C 257.415 5.05352 1.22129 0
M  V30 2853 C 255.1 4.68648 1.80761 0
M  V30 2854 C 257.094 6.32807 0.763838 0
M  V30 2855 C 254.781 5.96086 1.34627 0
M  V30 2856 C 255.779 6.77996 0.825264 0
M  V30 2857 O 255.467 8.03045 0.370669 0
M  V30 2858 H 255.199 0.578022 0.350523 0
M  V30 2859 H 257.753 2.00263 0.456509 0
M  V30 2860 H 255.983 2.48133 2.96592 0
M  V30 2861 H 257.672 2.88524 2.85497 0
M  V30 2862 H 258.438 4.70736 1.16758 0
M  V30 2863 H 254.317 4.04979 2.20256 0
M  V30 2864 H 257.861 6.96689 0.356494 0
M  V30 2865 H 253.758 6.30205 1.39686 0
M  V30 2866 H 254.526 8.17021 0.491829 0
M  V30 2867 N 257.189 -0.644168 1.43834 0
M  V30 2868 C 258.099 -1.78563 1.52159 0
M  V30 2869 C 259.115 -1.69147 0.408069 0
M  V30 2870 O 260.291 -1.90156 0.663524 0
M  V30 2871 C 257.356 -3.14888 1.45073 0
M  V30 2872 C 256.417 -3.36034 2.6717 0
M  V30 2873 C 255.65 -4.65855 2.60413 0
M  V30 2874 O 255.873 -5.45805 1.65689 0
M  V30 2875 O 254.807 -4.88918 3.5106 0
M  V30 2876 H 258.633 -1.74494 2.48567 0
M  V30 2877 H 256.218 -0.80378 1.25935 0
M  V30 2878 H 258.1 -3.96179 1.43597 0
M  V30 2879 H 256.775 -3.19528 0.518037 0
M  V30 2880 H 255.682 -2.54472 2.74217 0
M  V30 2881 H 257.015 -3.36247 3.59442 0
M  V30 2882 N 258.668 -1.30515 -0.883378 0
M  V30 2883 C 259.631 -1.1701 -1.97082 0
M  V30 2884 C 260.631 -0.10089 -1.60483 0
M  V30 2885 O 261.821 -0.349127 -1.70666 0
M  V30 2886 C 258.953 -0.793045 -3.31547 0
M  V30 2887 H 260.146 -2.13622 -2.10489 0
M  V30 2888 H 257.699 -1.13935 -1.06998 0
M  V30 2889 H 258.434 0.172499 -3.23841 0
M  V30 2890 H 258.219 -1.56576 -3.5948 0
M  V30 2891 H 259.709 -0.722073 -4.1131 0
M  V30 2892 N 260.146 1.09593 -1.13257 0
M  V30 2893 C 261.109 2.14359 -0.811358 0
M  V30 2894 C 262.109 1.59808 0.178377 0
M  V30 2895 O 263.299 1.74132 -0.0484911 0
M  V30 2896 C 260.431 3.40269 -0.207276 0
M  V30 2897 H 261.624 2.44284 -1.73969 0
M  V30 2898 H 259.177 1.25102 -0.936973 0
M  V30 2899 H 259.912 3.15969 0.73036 0
M  V30 2900 H 259.697 3.81154 -0.919992 0
M  V30 2901 H 261.187 4.176 0.000667944 0
M  V30 2902 N 261.624 0.925811 1.2754 0
M  V30 2903 C 262.849 0.580924 1.99098 0
M  V30 2904 C 263.274 -0.833555 1.68622 0
M  V30 2905 O 262.632 -1.55903 0.925422 0
M  V30 2906 C 262.68 0.811186 3.51358 0
M  V30 2907 O 261.784 -0.124129 4.12213 0
M  V30 2908 H 261.125 0.223873 0.625122 0
M  V30 2909 H 263.655 1.24455 1.62395 0
M  V30 2910 H 263.665 0.72601 4.01489 0
M  V30 2911 H 262.34 1.84227 3.72872 0
M  V30 2912 H 260.917 0.0108006 3.72898 0
M  V30 2913 N 263.102 -1.41638 0.69111 0
M  V30 2914 C 264.33 -2.05628 0.22909 0
M  V30 2915 C 264.745 -1.51992 -1.11999 0
M  V30 2916 O 264.102 -0.666322 -1.69901 0
M  V30 2917 C 264.153 -3.61084 0.173283 0
M  V30 2918 O 263.874 -4.12735 1.46907 0
M  V30 2919 C 265.375 -4.42213 -0.310266 0
M  V30 2920 H 262.595 -0.662327 0.107534 0
M  V30 2921 H 265.139 -1.81489 0.942438 0
M  V30 2922 H 263.294 -3.84278 -0.490858 0
M  V30 2923 H 263.708 -5.06743 1.35322 0
M  V30 2924 H 265.182 -5.51194 -0.298196 0
M  V30 2925 H 265.659 -4.1799 -1.34838 0
M  V30 2926 H 266.265 -4.24074 0.322716 0
M  V30 2927 N 264.58 -0.43555 -1.51462 0
M  V30 2928 C 265.808 0.130242 -2.0649 0
M  V30 2929 C 266.223 1.36614 -1.30315 0
M  V30 2930 O 265.58 1.78869 -0.362223 0
M  V30 2931 C 265.631 0.454253 -3.58635 0
M  V30 2932 O 265.352 -0.73259 -4.31931 0
M  V30 2933 C 266.853 1.07091 -4.3017 0
M  V30 2934 H 264.073 0.00871669 -0.670943 0
M  V30 2935 H 266.617 -0.614117 -1.95061 0
M  V30 2936 H 264.772 1.14851 -3.69984 0
M  V30 2937 H 265.186 -0.455787 -5.22516 0
M  V30 2938 H 266.66 1.24764 -5.37716 0
M  V30 2939 H 267.137 2.05144 -3.88346 0
M  V30 2940 H 267.743 0.416089 -4.2326 0
M  V30 2941 N 266.058 1.56714 -0.166846 0
M  V30 2942 C 267.307 1.95922 0.479318 0
M  V30 2943 C 267.62 1.05529 1.6469 0
M  V30 2944 O 268.826 1.34399 2.35901 0
M  V30 2945 C 267.282 3.48359 0.90412 0
M  V30 2946 C 266.89 4.47369 -0.237621 0
M  V30 2947 C 268.634 3.96394 1.51896 0
M  V30 2948 C 266.541 5.91039 0.206561 0
M  V30 2949 H 265.471 0.731495 0.18284 0
M  V30 2950 H 268.122 1.81728 -0.254363 0
M  V30 2951 H 266.504 3.57955 1.69365 0
M  V30 2952 H 267.678 4.49485 -1.01489 0
M  V30 2953 H 265.993 4.09366 -0.762128 0
M  V30 2954 H 268.59 5.01186 1.86325 0
M  V30 2955 H 268.933 3.39075 2.41524 0
M  V30 2956 H 269.466 3.89796 0.79395 0
M  V30 2957 H 266.205 6.52221 -0.654834 0
M  V30 2958 H 265.725 5.9224 0.949282 0
M  V30 2959 H 267.404 6.43707 0.651939 0
M  V30 2960 N 267.536 -0.106894 1.57237 0
M  V30 2961 C 268.776 -0.818277 1.87306 0
M  V30 2962 C 269.14 -1.76474 0.756371 0
M  V30 2963 O 270.341 -2.5186 0.939155 0
M  V30 2964 C 268.612 -1.53806 3.22612 0
M  V30 2965 S 270.171 -2.28935 3.74345 0
M  V30 2966 H 266.989 -0.272862 0.656557 0
M  V30 2967 H 269.591 -0.075988 1.95352 0
M  V30 2968 H 268.295 -0.834951 4.01817 0
M  V30 2969 H 267.826 -2.32049 3.17674 0
M  V30 2970 H 269.841 -3.54871 3.46815 0
M  V30 2971 N 269.014 -1.53014 -0.377408 0
M  V30 2972 C 269.961 -1.78616 -1.46168 0
M  V30 2973 C 270.931 -0.629917 -1.53692 0
M  V30 2974 O 272.116 -0.870861 -1.69766 0
M  V30 2975 C 269.256 -1.97123 -2.8326 0
M  V30 2976 C 268.369 -3.24831 -2.84796 0
M  V30 2977 C 267.504 -3.33591 -4.13389 0
M  V30 2978 C 266.543 -4.55377 -4.09021 0
M  V30 2979 N 265.68 -4.61355 -5.29241 0
M  V30 2980 H 270.52 -2.71142 -1.23637 0
M  V30 2981 H 268.057 -1.34326 -0.599577 0
M  V30 2982 H 270.015 -2.05839 -3.62886 0
M  V30 2983 H 268.645 -1.07946 -3.04216 0
M  V30 2984 H 267.697 -3.25128 -1.97474 0
M  V30 2985 H 269.009 -4.14523 -2.77439 0
M  V30 2986 H 268.163 -3.41554 -5.01424 0
M  V30 2987 H 266.902 -2.41894 -4.23484 0
M  V30 2988 H 265.907 -4.47527 -3.19373 0
M  V30 2989 H 267.132 -5.48402 -4.00539 0
M  V30 2990 H 265.078 -3.72554 -5.39944 0
M  V30 2991 H 264.995 -5.44935 -5.24006 0
M  V30 2992 H 266.263 -4.73586 -6.19141 0
M  V30 2993 N 270.492 0.636531 -1.44174 0
M  V30 2994 C 271.455 1.73063 -1.50273 0
M  V30 2995 C 272.455 1.56113 -0.385397 0
M  V30 2996 O 273.645 1.61707 -0.64781 0
M  V30 2997 C 270.777 3.12096 -1.37145 0
M  V30 2998 H 271.97 1.69031 -2.47727 0
M  V30 2999 H 269.523 0.849706 -1.31186 0
M  V30 3000 H 270.258 3.21728 -0.407636 0
M  V30 3001 H 270.043 3.25805 -2.18159 0
M  V30 3002 H 271.533 3.91846 -1.44382 0
M  V30 3003 N 271.97 1.30982 0.876444 0
M  V30 3004 C 272.9 1.20668 1.99903 0
M  V30 3005 C 273.881 0.095354 1.69833 0
M  V30 3006 O 275.066 0.27885 1.92188 0
M  V30 3007 C 272.196 0.90655 3.3526 0
M  V30 3008 C 271.15 1.97675 3.79617 0
M  V30 3009 C 270.476 1.52943 5.1236 0
M  V30 3010 C 271.776 3.389 3.97422 0
M  V30 3011 H 273.47 2.14586 2.0879 0
M  V30 3012 H 271.016 1.03308 1.00317 0
M  V30 3013 H 272.969 0.821025 4.13324 0
M  V30 3014 H 271.693 -0.0682969 3.26529 0
M  V30 3015 H 270.352 2.05205 3.03787 0
M  V30 3016 H 270 0.54262 5.00065 0
M  V30 3017 H 269.7 2.24532 5.43009 0
M  V30 3018 H 271.224 1.45786 5.92941 0
M  V30 3019 H 272.638 3.34081 4.659 0
M  V30 3020 H 271.035 4.0865 4.3946 0
M  V30 3021 H 272.105 3.80163 3.01006 0
M  V30 3022 N 273.449 -1.08991 1.13837 0
M  V30 3023 C 274.698 -1.80631 0.897509 0
M  V30 3024 C 275.011 -1.86872 -0.57777 0
M  V30 3025 O 276.217 -2.54866 -0.935701 0
M  V30 3026 C 274.673 -3.24517 1.55618 0
M  V30 3027 C 274.281 -3.26529 3.0673 0
M  V30 3028 C 276.025 -4.00882 1.3962 0
M  V30 3029 C 273.932 -4.64965 3.65461 0
M  V30 3030 H 272.862 -0.67691 0.332129 0
M  V30 3031 H 275.513 -1.2246 1.3666 0
M  V30 3032 H 273.895 -3.82778 1.01476 0
M  V30 3033 H 275.069 -2.78008 3.67489 0
M  V30 3034 H 273.384 -2.63656 3.22296 0
M  V30 3035 H 275.981 -5.03167 1.80906 0
M  V30 3036 H 276.324 -4.14896 0.341578 0
M  V30 3037 H 276.857 -3.49075 1.90766 0
M  V30 3038 H 273.596 -4.56153 4.70749 0
M  V30 3039 H 273.116 -5.13792 3.09481 0
M  V30 3040 H 274.795 -5.3394 3.654 0
M  V30 3041 N 274.927 -0.932562 -1.27047 0
M  V30 3042 C 275.859 -0.392734 -2.2581 0
M  V30 3043 C 276.872 0.479241 -1.55586 0
M  V30 3044 O 278.061 0.291078 -1.76111 0
M  V30 3045 C 275.161 0.455456 -3.35826 0
M  V30 3046 C 274.334 -0.398355 -4.35582 0
M  V30 3047 C 273.393 0.387985 -5.24768 0
M  V30 3048 O 272.419 -0.206003 -5.68827 0
M  V30 3049 N 273.621 1.68664 -5.55457 0
M  V30 3050 H 276.386 -1.24173 -2.72766 0
M  V30 3051 H 273.947 -0.800511 -1.40725 0
M  V30 3052 H 275.939 0.988692 -3.92437 0
M  V30 3053 H 274.509 1.20522 -2.88432 0
M  V30 3054 H 273.729 -1.11286 -3.78165 0
M  V30 3055 H 275.017 -0.981889 -4.99236 0
M  V30 3056 H 274.415 2.19147 -5.21528 0
M  V30 3057 H 272.972 2.1663 -6.14748 0
M  V30 3058 N 276.405 1.4127 -0.698611 0
M  V30 3059 C 277.816 1.84187 -0.305289 0
M  V30 3060 C 278.167 1.58449 1.15708 0
M  V30 3061 O 277.292 1.05651 1.88856 0
M  V30 3062 C 277.887 3.3435 -0.547314 0
M  V30 3063 C 276.446 3.75826 -0.207878 0
M  V30 3064 C 275.593 2.64647 -0.828099 0
M  V30 3065 H 278.544 1.30778 -0.89904 0
M  V30 3066 H 278.565 3.8001 0.192998 0
M  V30 3067 H 278.077 3.53051 -1.61172 0
M  V30 3068 H 276.178 3.62725 0.852143 0
M  V30 3069 H 276.291 4.74462 -0.665021 0
M  V30 3070 H 274.655 2.53395 -0.257458 0
M  V30 3071 H 275.438 2.86165 -1.89643 0
M  V30 3072 N 277.883 0.443576 1.51229 0
M  V30 3073 C 278.831 -0.37904 2.29491 0
M  V30 3074 C 279.825 -1.0153 1.35603 0
M  V30 3075 O 281.031 -0.94955 1.52917 0
M  V30 3076 H 277.406 -0.141053 0.738653 0
M  V30 3077 H 279.377 0.301799 2.9687 0
M  V30 3078 C 278.126 -1.46426 3.15364 0
M  V30 3079 H 277.449 -0.984037 3.87501 0
M  V30 3080 H 278.889 -2.01297 3.7317 0
M  V30 3081 C 277.348 -2.45099 2.31146 0
M  V30 3082 O 277.878 -3.49773 1.9754 0
M  V30 3083 N 276.084 -2.16139 1.94249 0
M  V30 3084 H 275.631 -1.31044 2.21777 0
M  V30 3085 H 275.589 -2.82398 1.38198 0
M  V30 3086 N 279.361 -1.56624 0.175154 0
M  V30 3087 C 280.61 -1.96173 -0.468921 0
M  V30 3088 C 280.923 -1.06401 -1.64128 0
M  V30 3089 O 282.129 -1.35648 -2.35185 0
M  V30 3090 C 280.585 -3.48833 -0.885633 0
M  V30 3091 C 280.193 -4.47237 0.261343 0
M  V30 3092 C 281.937 -3.97194 -1.49791 0
M  V30 3093 C 279.844 -5.9114 -0.175214 0
M  V30 3094 H 278.774 -0.732455 -0.178958 0
M  V30 3095 H 281.425 -1.81591 0.263997 0
M  V30 3096 H 279.807 -3.58848 -1.67464 0
M  V30 3097 H 280.981 -4.4894 1.03871 0
M  V30 3098 H 279.296 -4.08956 0.783827 0
M  V30 3099 H 281.893 -5.02167 -1.83665 0
M  V30 3100 H 282.236 -3.40351 -2.39722 0
M  V30 3101 H 282.769 -3.90212 -0.773267 0
M  V30 3102 H 279.508 -6.51865 0.689414 0
M  V30 3103 H 279.028 -5.92735 -0.91786 0
M  V30 3104 H 280.707 -6.44044 -0.617792 0
M  V30 3105 N 280.839 0.0985539 -1.57292 0
M  V30 3106 C 281.802 1.10402 -2.00858 0
M  V30 3107 C 282.802 1.33146 -0.901593 0
M  V30 3108 O 283.992 1.29318 -1.16716 0
M  V30 3109 C 281.124 2.45394 -2.36632 0
M  V30 3110 H 282.317 0.729099 -2.90902 0
M  V30 3111 H 279.87 0.343495 -1.52479 0
M  V30 3112 H 280.605 2.87769 -1.49531 0
M  V30 3113 H 280.39 2.30235 -3.17387 0
M  V30 3114 H 281.88 3.17718 -2.71007 0
M  V30 3115 N 282.317 1.53212 0.369288 0
M  V30 3116 C 283.247 1.82365 1.45826 0
M  V30 3117 C 284.228 0.676907 1.56051 0
M  V30 3118 O 285.413 0.926401 1.70679 0
M  V30 3119 C 282.543 2.01023 2.83208 0
M  V30 3120 C 281.497 3.1678 2.8781 0
M  V30 3121 C 280.823 3.20724 4.27832 0
M  V30 3122 C 282.123 4.55447 2.55667 0
M  V30 3123 H 283.817 2.73559 1.21678 0
M  V30 3124 H 281.363 1.3163 0.583911 0
M  V30 3125 H 283.316 2.20001 3.59413 0
M  V30 3126 H 282.04 1.06536 3.08736 0
M  V30 3127 H 280.699 2.97616 2.14056 0
M  V30 3128 H 280.347 2.23882 4.50429 0
M  V30 3129 H 280.047 3.98496 4.31827 0
M  V30 3130 H 281.571 3.41881 5.05915 0
M  V30 3131 H 282.985 4.74611 3.21586 0
M  V30 3132 H 281.382 5.35432 2.70984 0
M  V30 3133 H 282.452 4.60812 1.5093 0
M  V30 3134 N 283.795 -0.628877 1.44509 0
M  V30 3135 C 284.725 -1.75187 1.54376 0
M  V30 3136 C 285.706 -1.65411 0.396618 0
M  V30 3137 O 286.891 -1.84137 0.617031 0
M  V30 3138 C 284.021 -3.13725 1.48976 0
M  V30 3139 C 282.975 -3.38291 2.62189 0
M  V30 3140 C 282.301 -4.76883 2.41841 0
M  V30 3141 C 283.601 -3.30632 4.04326 0
M  V30 3142 H 285.295 -1.67187 2.48373 0
M  V30 3143 H 282.841 -0.802909 1.19538 0
M  V30 3144 H 284.794 -3.92064 1.54478 0
M  V30 3145 H 283.518 -3.22515 0.514961 0
M  V30 3146 H 282.177 -2.62334 2.56079 0
M  V30 3147 H 281.825 -4.82378 1.42548 0
M  V30 3148 H 281.525 -4.94278 3.17747 0
M  V30 3149 H 283.049 -5.57449 2.49165 0
M  V30 3150 H 284.463 -3.98873 4.11793 0
M  V30 3151 H 282.86 -3.59561 4.80454 0
M  V30 3152 H 283.93 -2.28404 4.27738 0
M  V30 3153 N 285.273 -1.31445 -0.869486 0
M  V30 3154 C 286.498 -1.24256 -1.66058 0
M  V30 3155 C 286.923 0.188928 -1.87149 0
M  V30 3156 O 286.281 1.13522 -1.4136 0
M  V30 3157 C 286.329 -1.9924 -3.00559 0
M  V30 3158 O 285.433 -1.33007 -3.90362 0
M  V30 3159 H 284.774 -0.428973 -0.506831 0
M  V30 3160 H 287.304 -1.73521 -1.08404 0
M  V30 3161 H 287.314 -2.08854 -3.50491 0
M  V30 3162 H 285.989 -3.03342 -2.84528 0
M  V30 3163 H 284.566 -1.31848 -3.48813 0
M  V30 3164 N 286.751 1.08385 -1.14413 0
M  V30 3165 C 288.162 1.62258 -0.923535 0
M  V30 3166 C 288.513 1.88691 0.537595 0
M  V30 3167 O 287.638 1.64454 1.40655 0
M  V30 3168 C 288.233 2.94781 -1.67002 0
M  V30 3169 C 286.792 3.45437 -1.495 0
M  V30 3170 C 285.939 2.19668 -1.69238 0
M  V30 3171 H 288.89 0.916086 -1.2959 0
M  V30 3172 H 288.911 3.63229 -1.13334 0
M  V30 3173 H 288.423 2.7551 -2.73342 0
M  V30 3174 H 286.524 3.6981 -0.455097 0
M  V30 3175 H 286.637 4.22173 -2.2651 0
M  V30 3176 H 285.001 2.28849 -1.11804 0
M  V30 3177 H 285.784 2.02905 -2.7692 0
M  V30 3178 N 288.23 0.939286 1.26551 0
M  V30 3179 C 289.478 0.58469 1.93457 0
M  V30 3180 C 289.799 -0.878774 1.74076 0
M  V30 3181 O 289.069 -1.62421 1.09528 0
M  V30 3182 H 287.649 0.21325 0.715914 0
M  V30 3183 H 290.311 1.1942 1.54029 0
M  V30 3184 H 289.407 0.800849 3.0165 0
M  V30 3185 N 289.708 -1.40897 0.706093 0
M  V30 3186 C 290.638 -2.33418 0.0620085 0
M  V30 3187 C 291.619 -1.52385 -0.755827 0
M  V30 3188 O 292.804 -1.80886 -0.706674 0
M  V30 3189 C 289.934 -3.36293 -0.867445 0
M  V30 3190 C 288.888 -4.27716 -0.155932 0
M  V30 3191 C 288.214 -5.2105 -1.20046 0
M  V30 3192 C 289.514 -5.12944 0.984149 0
M  V30 3193 H 291.208 -2.87527 0.83477 0
M  V30 3194 H 288.754 -1.38249 0.402875 0
M  V30 3195 H 290.707 -3.99949 -1.32735 0
M  V30 3196 H 289.431 -2.80556 -1.67199 0
M  V30 3197 H 288.09 -3.65498 0.284047 0
M  V30 3198 H 287.738 -4.61624 -1.99781 0
M  V30 3199 H 287.438 -5.83056 -0.729328 0
M  V30 3200 H 288.962 -5.87584 -1.66066 0
M  V30 3201 H 290.376 -5.70109 0.604048 0
M  V30 3202 H 288.773 -5.83945 1.38304 0
M  V30 3203 H 289.843 -4.49485 1.81911 0
M  V30 3204 N 291.186 -0.45159 -1.50991 0
M  V30 3205 C 292.435 0.111653 -2.01391 0
M  V30 3206 C 292.748 1.42529 -1.33959 0
M  V30 3207 O 293.954 2.07232 -1.75405 0
M  V30 3208 C 292.41 0.249514 -3.59034 0
M  V30 3209 C 292.018 -1.05453 -4.35412 0
M  V30 3210 C 293.762 0.765762 -4.17536 0
M  V30 3211 C 291.669 -0.881529 -5.84793 0
M  V30 3212 H 290.599 0.0455022 -0.752626 0
M  V30 3213 H 293.25 -0.583524 -1.73975 0
M  V30 3214 H 291.632 1.00803 -3.82955 0
M  V30 3215 H 292.806 -1.82248 -4.23229 0
M  V30 3216 H 291.121 -1.50039 -3.88429 0
M  V30 3217 H 293.718 0.911913 -5.26866 0
M  V30 3218 H 294.061 1.75201 -3.77638 0
M  V30 3219 H 294.594 0.0651744 -3.97747 0
M  V30 3220 H 291.333 -1.84057 -6.29129 0
M  V30 3221 H 290.853 -0.153625 -5.99603 0
M  V30 3222 H 292.532 -0.540363 -6.4474 0
M  V30 3223 N 292.664 1.56529 -0.183458 0
M  V30 3224 C 293.904 1.99141 0.460667 0
M  V30 3225 C 294.268 1.06736 1.59597 0
M  V30 3226 O 295.469 1.38538 2.30349 0
M  V30 3227 C 293.74 3.45358 0.919939 0
M  V30 3228 S 295.299 4.09999 1.56354 0
M  V30 3229 H 292.117 0.695479 0.147748 0
M  V30 3230 H 294.719 1.93429 -0.283782 0
M  V30 3231 H 293.423 4.10315 0.0834208 0
M  V30 3232 H 292.954 3.54862 1.69814 0
M  V30 3233 H 294.969 4.06046 2.85203 0
M  V30 3234 N 294.142 -0.090211 1.57342 0
M  V30 3235 C 295.105 -1.09335 2.01441 0
M  V30 3236 C 296.105 -1.32666 0.908641 0
M  V30 3237 O 297.295 -1.28697 1.174 0
M  V30 3238 C 294.427 -2.44136 2.3793 0
M  V30 3239 H 295.62 -0.713662 2.91285 0
M  V30 3240 H 293.173 -0.335404 1.52659 0
M  V30 3241 H 293.908 -2.86972 1.51055 0
M  V30 3242 H 293.693 -2.28548 3.18603 0
M  V30 3243 H 295.183 -3.16277 2.72688 0
M  V30 3244 N 295.62 -1.53406 -0.361157 0
M  V30 3245 C 296.868 -1.69467 -1.10115 0
M  V30 3246 C 297.189 -0.451352 -1.89705 0
M  V30 3247 O 296.459 0.534636 -1.88463 0
M  V30 3248 H 295.039 -0.624749 -0.409508 0
M  V30 3249 H 297.701 -1.90609 -0.406699 0
M  V30 3250 H 296.797 -2.55774 -1.78847 0
M  V30 3251 N 297.098 0.621204 -1.44841 0
M  V30 3252 C 298.346 1.37783 -1.47852 0
M  V30 3253 C 298.667 1.94653 -0.116224 0
M  V30 3254 O 297.937 1.76367 0.852737 0
M  V30 3255 H 296.517 0.511453 -0.544449 0
M  V30 3256 H 299.179 0.730446 -1.80694 0
M  V30 3257 H 298.275 2.20414 -2.20961 0
M  V30 3258 N 298.576 1.31904 0.862503 0
M  V30 3259 C 299.506 1.22782 1.98612 0
M  V30 3260 C 300.487 0.113362 1.69722 0
M  V30 3261 O 301.672 0.299218 1.91881 0
M  V30 3262 C 298.802 0.942058 3.34279 0
M  V30 3263 C 297.756 2.0169 3.77499 0
M  V30 3264 C 297.082 1.58369 5.10709 0
M  V30 3265 C 298.382 3.43096 3.93805 0
M  V30 3266 H 300.076 2.16788 2.06502 0
M  V30 3267 H 297.622 1.04366 0.992154 0
M  V30 3268 H 299.575 0.864818 4.1243 0
M  V30 3269 H 298.299 -0.0336603 3.26583 0
M  V30 3270 H 296.958 2.08416 3.01593 0
M  V30 3271 H 296.606 0.595628 4.99461 0
M  V30 3272 H 296.306 2.30279 5.40597 0
M  V30 3273 H 297.83 1.52067 5.91361 0
M  V30 3274 H 299.244 3.39003 4.62331 0
M  V30 3275 H 297.641 4.13288 4.35101 0
M  V30 3276 H 298.711 3.83334 2.96957 0
M  V30 3277 N 300.054 -1.07777 1.14986 0
M  V30 3278 C 300.984 -2.16865 0.865557 0
M  V30 3279 C 301.965 -1.69123 -0.182083 0
M  V30 3280 O 303.15 -1.94164 -0.0373815 0
M  V30 3281 C 300.28 -3.45539 0.349313 0
M  V30 3282 C 299.234 -4.06708 1.33313 0
M  V30 3283 C 298.56 -5.30411 0.675918 0
M  V30 3284 C 299.86 -4.47241 2.69764 0
M  V30 3285 H 301.554 -2.40905 1.77778 0
M  V30 3286 H 299.1 -1.15781 0.856203 0
M  V30 3287 H 301.053 -4.21174 0.137983 0
M  V30 3288 H 299.777 -3.21072 -0.598362 0
M  V30 3289 H 298.436 -3.33112 1.53075 0
M  V30 3290 H 298.084 -5.02232 -0.277767 0
M  V30 3291 H 297.784 -5.72293 1.33244 0
M  V30 3292 H 299.308 -6.08755 0.474262 0
M  V30 3293 H 300.722 -5.14025 2.53873 0
M  V30 3294 H 299.119 -5.00062 3.3175 0
M  V30 3295 H 300.189 -3.58818 3.26156 0
M  V30 3296 N 301.532 -0.945985 -1.26051 0
M  V30 3297 C 302.76 -0.613025 -1.9761 0
M  V30 3298 C 303.175 0.813035 -1.70397 0
M  V30 3299 O 302.532 1.54274 -0.974979 0
M  V30 3300 C 302.583 -0.85159 -3.51326 0
M  V30 3301 O 302.304 -2.22157 -3.77595 0
M  V30 3302 C 303.805 -0.529831 -4.40122 0
M  V30 3303 H 301.025 -0.230593 -0.630133 0
M  V30 3304 H 303.569 -1.268 -1.60443 0
M  V30 3305 H 301.724 -0.243151 -3.86636 0
M  V30 3306 H 302.138 -2.2852 -4.721 0
M  V30 3307 H 303.612 -0.747348 -5.46917 0
M  V30 3308 H 304.089 0.535341 -4.35925 0
M  V30 3309 H 304.695 -1.11721 -4.10364 0
M  V30 3310 N 303.011 1.40521 -0.713556 0
M  V30 3311 C 304.239 2.05237 -0.261775 0
M  V30 3312 C 304.654 1.53755 1.09567 0
M  V30 3313 O 304.011 0.693268 1.6882 0
M  V30 3314 C 304.062 3.60763 -0.230706 0
M  V30 3315 O 303.783 4.10345 -1.53455 0
M  V30 3316 C 305.284 4.42651 0.239874 0
M  V30 3317 H 302.504 0.660533 -0.118057 0
M  V30 3318 H 305.048 1.79967 -0.971192 0
M  V30 3319 H 303.203 3.8501 0.429661 0
M  V30 3320 H 303.617 5.04526 -1.43366 0
M  V30 3321 H 305.091 5.51599 0.210468 0
M  V30 3322 H 305.568 4.20082 1.28171 0
M  V30 3323 H 306.174 4.23507 -0.390142 0
M  V30 3324 N 304.489 0.459591 1.5075 0
M  V30 3325 C 305.738 -0.100971 2.01447 0
M  V30 3326 C 306.051 -1.41816 1.34713 0
M  V30 3327 O 307.257 -2.06299 1.76502 0
M  V30 3328 C 305.713 -0.23047 3.59161 0
M  V30 3329 C 305.321 1.0776 4.34847 0
M  V30 3330 C 307.065 -0.743608 4.17936 0
M  V30 3331 C 304.972 0.91253 5.84317 0
M  V30 3332 H 303.902 -0.0415102 0.752856 0
M  V30 3333 H 306.553 0.592742 1.73663 0
M  V30 3334 H 304.935 -0.987703 3.83485 0
M  V30 3335 H 306.109 1.8449 4.22256 0
M  V30 3336 H 304.424 1.52097 3.87628 0
M  V30 3337 H 307.021 -0.883959 5.27343 0
M  V30 3338 H 307.364 -1.73196 3.78562 0
M  V30 3339 H 307.897 -0.04408 3.97776 0
M  V30 3340 H 304.636 1.87391 6.28144 0
M  V30 3341 H 304.156 0.185422 5.99513 0
M  V30 3342 H 305.835 0.574547 6.44444 0
M  V30 3343 N 305.967 -1.56429 0.191757 0
M  V30 3344 C 306.877 -2.22541 -0.742481 0
M  V30 3345 C 307.893 -1.22342 -1.23727 0
M  V30 3346 O 309.069 -1.55069 -1.28513 0
M  V30 3347 C 306.134 -2.8692 -1.94623 0
M  V30 3348 C 305.195 -4.02378 -1.49633 0
M  V30 3349 C 304.428 -4.63678 -2.6427 0
M  V30 3350 O 304.651 -4.23895 -3.81666 0
M  V30 3351 O 303.585 -5.53202 -2.37174 0
M  V30 3352 H 307.411 -3.02977 -0.209462 0
M  V30 3353 H 304.996 -1.49353 -0.0373832 0
M  V30 3354 H 306.878 -3.27663 -2.64982 0
M  V30 3355 H 305.553 -2.09466 -2.46791 0
M  V30 3356 H 304.46 -3.66265 -0.761636 0
M  V30 3357 H 305.793 -4.81487 -1.02134 0
M  V30 3358 N 307.445 0.0818655 -1.57387 0
M  V30 3359 C 308.673 0.796108 -1.9097 0
M  V30 3360 C 309.088 1.71626 -0.786757 0
M  V30 3361 O 308.445 1.80908 0.240513 0
M  V30 3362 C 308.496 1.59829 -3.24248 0
M  V30 3363 O 308.217 0.715131 -4.32224 0
M  V30 3364 C 309.718 2.41442 -3.7178 0
M  V30 3365 H 306.938 0.22691 -0.631469 0
M  V30 3366 H 309.482 0.0551439 -2.04426 0
M  V30 3367 H 307.637 2.29163 -3.12351 0
M  V30 3368 H 308.051 1.27205 -5.08841 0
M  V30 3369 H 309.525 2.932 -4.67694 0
M  V30 3370 H 310.002 3.2051 -3.00283 0
M  V30 3371 H 310.608 1.77283 -3.86589 0
M  V30 3372 N 308.923 1.53595 0.353017 0
M  V30 3373 C 310.2 1.61002 1.11075 0
M  V30 3374 C 310.58 0.425356 2.0677 0
M  V30 3375 O 309.928 -0.583267 2.2093 0
M  V30 3376 C 310.138 2.96631 1.83877 0
M  V30 3377 C 311.486 3.51653 2.37961 0
M  V30 3378 O 312.51 2.98743 1.93987 0
M  V30 3379 O 311.369 4.44177 3.18386 0
M  V30 3380 H 308.463 0.650825 0.510251 0
M  V30 3381 H 311.009 1.6594 0.35527 0
M  V30 3382 H 309.781 3.74293 1.14108 0
M  V30 3383 H 309.404 2.95242 2.66304 0
M  V30 3384 N 310.401 -0.613514 1.45168 0
M  V30 3385 C 311.349 -1.74572 1.53712 0
M  V30 3386 C 312.343 -1.64426 0.407505 0
M  V30 3387 O 313.549 -1.70291 0.583176 0
M  V30 3388 H 309.924 -0.576641 0.48269 0
M  V30 3389 H 311.895 -1.64492 2.48968 0
M  V30 3390 C 310.644 -3.12943 1.51532 0
M  V30 3391 H 309.967 -3.21407 2.37776 0
M  V30 3392 H 311.407 -3.9201 1.61569 0
M  V30 3393 C 309.866 -3.36053 0.238798 0
M  V30 3394 O 310.396 -3.95837 -0.6838 0
M  V30 3395 N 308.602 -2.9028 0.136359 0
M  V30 3396 H 308.149 -2.41811 0.887999 0
M  V30 3397 H 308.107 -3.06116 -0.716944 0
M  V30 3398 N 311.879 -1.3236 -0.855495 0
M  V30 3399 C 313.107 -1.2587 -1.64208 0
M  V30 3400 C 313.522 0.173457 -1.88002 0
M  V30 3401 O 312.879 1.11027 -1.44842 0
M  V30 3402 C 312.93 -2.01424 -3.00184 0
M  V30 3403 O 312.651 -3.39051 -2.77445 0
M  V30 3404 C 314.152 -2.01948 -3.94629 0
M  V30 3405 H 311.372 -0.434318 -0.511477 0
M  V30 3406 H 313.916 -1.74469 -1.0668 0
M  V30 3407 H 312.071 -1.56549 -3.5436 0
M  V30 3408 H 312.485 -3.77711 -3.63916 0
M  V30 3409 H 313.959 -2.59297 -4.87308 0
M  V30 3410 H 314.436 -1.00554 -4.27534 0
M  V30 3411 H 315.042 -2.46767 -3.4639 0
M  V30 3412 N 313.357 1.07166 -1.15556 0
M  V30 3413 C 314.305 2.16517 -0.8499 0
M  V30 3414 C 315.299 1.68468 0.177454 0
M  V30 3415 O 316.505 1.79971 0.0323026 0
M  V30 3416 H 312.88 0.706652 -0.25719 0
M  V30 3417 H 314.851 2.39514 -1.77976 0
M  V30 3418 C 313.6 3.45855 -0.357682 0
M  V30 3419 H 312.923 3.83214 -1.13961 0
M  V30 3420 H 314.363 4.23607 -0.182489 0
M  V30 3421 C 312.822 3.24062 0.921152 0
M  V30 3422 O 313.352 3.48813 1.9923 0
M  V30 3423 N 311.558 2.77539 0.86141 0
M  V30 3424 H 311.105 2.57598 -0.0104408 0
M  V30 3425 H 311.063 2.63337 1.71758 0
M  V30 3426 N 314.835 0.952656 1.25548 0
M  V30 3427 C 316.075 0.614013 1.9496 0
M  V30 3428 C 316.439 -0.833215 1.72978 0
M  V30 3429 O 317.64 -1.28135 2.36294 0
M  V30 3430 C 315.911 0.960562 3.4425 0
M  V30 3431 S 317.47 0.734195 4.32614 0
M  V30 3432 H 314.288 0.225754 0.674208 0
M  V30 3433 H 316.89 1.22641 1.52248 0
M  V30 3434 H 315.594 2.01103 3.57751 0
M  V30 3435 H 315.125 0.338336 3.91942 0
M  V30 3436 H 317.14 -0.395995 4.94617 0
M  V30 3437 N 316.313 -1.40141 0.720998 0
M  V30 3438 C 317.729 -1.54632 0.395113 0
M  V30 3439 C 317.929 -1.69115 -1.09555 0
M  V30 3440 O 316.985 -1.68377 -1.88163 0
M  V30 3441 C 318.298 -2.77177 1.1659 0
M  V30 3442 C 319.846 -2.91 1.15274 0
M  V30 3443 C 320.321 -4.16465 1.90579 0
M  V30 3444 N 321.812 -4.23476 1.87675 0
M  V30 3445 C 322.547 -5.19475 2.42762 0
M  V30 3446 N 322.043 -6.21348 3.06428 0
M  V30 3447 N 323.836 -5.11592 2.32874 0
M  V30 3448 H 315.987 -1.28986 1.68749 0
M  V30 3449 H 318.25 -0.62412 0.713567 0
M  V30 3450 H 317.956 -2.72771 2.22011 0
M  V30 3451 H 317.83 -3.69442 0.76108 0
M  V30 3452 H 320.217 -2.94907 0.106702 0
M  V30 3453 H 320.298 -1.99838 1.59682 0
M  V30 3454 H 319.942 -4.1332 2.95176 0
M  V30 3455 H 319.872 -5.06646 1.43587 0
M  V30 3456 H 322.363 -3.50497 1.41281 0
M  V30 3457 H 322.676 -6.91034 3.45965 0
M  V30 3458 H 321.021 -6.21777 3.10514 0
M  V30 3459 H 324.212 -4.30936 1.82789 0
M  V30 3460 H 324.385 -5.86233 2.76106 0
M  V30 3461 N 317.792 -0.46758 -1.50504 0
M  V30 3462 C 319.203 -0.0116166 -1.86696 0
M  V30 3463 C 319.554 1.39202 -1.38265 0
M  V30 3464 O 318.679 2.0313 -0.746132 0
M  V30 3465 C 319.274 -0.0143044 -3.38797 0
M  V30 3466 C 317.833 0.386175 -3.74414 0
M  V30 3467 C 316.98 -0.401287 -2.74381 0
M  V30 3468 H 319.931 -0.682022 -1.43297 0
M  V30 3469 H 319.952 0.788641 -3.72237 0
M  V30 3470 H 319.464 -1.03602 -3.74016 0
M  V30 3471 H 317.565 1.41237 -3.44794 0
M  V30 3472 H 317.678 0.0899596 -4.79016 0
M  V30 3473 H 316.042 0.144536 -2.5429 0
M  V30 3474 H 316.825 -1.42244 -3.12444 0
M  V30 3475 N 319.27 1.56325 -0.20005 0
M  V30 3476 C 320.516 1.98772 0.431408 0
M  V30 3477 C 320.871 1.0849 1.58895 0
M  V30 3478 O 320.164 0.130331 1.91156 0
M  V30 3479 C 320.358 3.4495 0.935103 0
M  V30 3480 C 320.187 4.49371 -0.172096 0
M  V30 3481 C 318.957 5.0134 -0.631377 0
M  V30 3482 C 321.155 5.04822 -0.982806 0
M  V30 3483 N 319.137 5.89433 -1.71588 0
M  V30 3484 C 320.508 5.89632 -1.91661 0
M  V30 3485 C 322.563 4.87242 -1.02467 0
M  V30 3486 C 321.266 6.58741 -2.88881 0
M  V30 3487 C 323.292 5.57094 -1.98494 0
M  V30 3488 C 322.654 6.41655 -2.90617 0
M  V30 3489 H 318.753 0.771922 0.125144 0
M  V30 3490 H 321.337 1.92266 -0.306883 0
M  V30 3491 H 319.508 3.51946 1.64282 0
M  V30 3492 H 321.24 3.74354 1.53758 0
M  V30 3493 H 317.995 4.73071 -0.223827 0
M  V30 3494 H 318.419 6.38182 -2.25948 0
M  V30 3495 H 323.061 4.21538 -0.326408 0
M  V30 3496 H 320.779 7.23641 -3.5968 0
M  V30 3497 H 324.365 5.45466 -2.0238 0
M  V30 3498 H 323.245 6.94755 -3.63711 0
M  V30 3499 N 320.748 -0.0735177 1.57428 0
M  V30 3500 C 321.976 -0.785969 1.9139 0
M  V30 3501 C 322.391 -1.71207 0.795847 0
M  V30 3502 O 321.748 -1.81033 -0.230915 0
M  V30 3503 C 321.799 -1.58107 3.25091 0
M  V30 3504 O 321.52 -0.6922 4.32597 0
M  V30 3505 C 323.021 -2.39467 3.73055 0
M  V30 3506 H 320.241 -0.223558 0.632663 0
M  V30 3507 H 322.785 -0.044302 2.04452 0
M  V30 3508 H 320.94 -2.27503 3.13562 0
M  V30 3509 H 321.354 -1.24504 5.09508 0
M  V30 3510 H 322.828 -2.90716 4.69242 0
M  V30 3511 H 323.305 -3.18913 3.01979 0
M  V30 3512 H 323.911 -1.7523 3.87523 0
M  V30 3513 N 322.226 -1.5378 -0.344866 0
M  V30 3514 C 323.466 -1.72677 -1.09371 0
M  V30 3515 C 323.83 -0.479084 -1.85927 0
M  V30 3516 O 325.031 -0.54505 -2.63216 0
M  V30 3517 C 323.302 -2.95457 -2.01097 0
M  V30 3518 S 324.861 -3.35158 -2.83222 0
M  V30 3519 H 321.679 -0.607402 -0.369573 0
M  V30 3520 H 324.281 -1.91922 -0.372307 0
M  V30 3521 H 322.985 -3.84437 -1.43655 0
M  V30 3522 H 322.516 -2.78673 -2.77678 0
M  V30 3523 H 324.531 -2.88789 -4.03504 0
M  V30 3524 N 323.704 0.605807 -1.45491 0
M  V30 3525 C 324.934 1.38934 -1.52908 0
M  V30 3526 C 325.342 1.88513 -0.161086 0
M  V30 3527 O 324.685 1.62962 0.847891 0
M  V30 3528 C 324.747 2.62737 -2.45376 0
M  V30 3529 C 324.411 2.34785 -3.92078 0
M  V30 3530 C 325.408 1.95038 -4.8193 0
M  V30 3531 C 323.093 2.47642 -4.37011 0
M  V30 3532 C 325.087 1.68511 -6.14722 0
M  V30 3533 C 322.774 2.20728 -5.69844 0
M  V30 3534 C 323.772 1.81225 -6.58519 0
M  V30 3535 O 323.46 1.54627 -7.88889 0
M  V30 3536 H 323.192 0.431629 -0.520262 0
M  V30 3537 H 325.746 0.74573 -1.91384 0
M  V30 3538 H 323.976 3.29824 -2.01874 0
M  V30 3539 H 325.665 3.24783 -2.43456 0
M  V30 3540 H 326.431 1.84639 -4.48479 0
M  V30 3541 H 322.31 2.77356 -3.68232 0
M  V30 3542 H 325.854 1.37602 -6.83894 0
M  V30 3543 H 321.751 2.30744 -6.02849 0
M  V30 3544 H 322.519 1.68665 -8.00933 0
M  V30 3545 N 325.182 1.32811 0.848464 0
M  V30 3546 C 326.112 1.24882 1.97299 0
M  V30 3547 C 327.093 0.131357 1.69592 0
M  V30 3548 O 328.278 0.319553 1.91553 0
M  V30 3549 C 325.408 0.97746 3.33261 0
M  V30 3550 C 324.362 2.05682 3.75338 0
M  V30 3551 C 323.688 1.63777 5.09 0
M  V30 3552 C 324.988 3.47254 3.90144 0
M  V30 3553 H 326.682 2.18966 2.04191 0
M  V30 3554 H 324.228 1.05413 0.981029 0
M  V30 3555 H 326.181 0.908513 4.1149 0
M  V30 3556 H 324.905 0.000980011 3.266 0
M  V30 3557 H 323.564 2.11603 2.99366 0
M  V30 3558 H 323.212 0.648569 4.98801 0
M  V30 3559 H 322.912 2.36 5.38124 0
M  V30 3560 H 324.436 1.5833 5.89715 0
M  V30 3561 H 325.85 3.43888 4.58709 0
M  V30 3562 H 324.247 4.1788 4.30693 0
M  V30 3563 H 325.317 3.86462 2.92874 0
M  V30 3564 N 326.66 -1.06551 1.16123 0
M  V30 3565 C 327.57 -2.17484 0.879662 0
M  V30 3566 C 328.586 -1.73377 -0.147104 0
M  V30 3567 O 329.762 -2.01379 0.0289128 0
M  V30 3568 C 326.827 -3.44591 0.381829 0
M  V30 3569 C 325.888 -4.0322 1.4735 0
M  V30 3570 C 325.121 -5.24261 0.999324 0
M  V30 3571 O 325.344 -5.70198 -0.151957 0
M  V30 3572 O 324.278 -5.74775 1.78653 0
M  V30 3573 H 328.104 -2.44075 1.80724 0
M  V30 3574 H 325.689 -1.16042 0.940992 0
M  V30 3575 H 327.571 -4.21254 0.111053 0
M  V30 3576 H 326.246 -3.19532 -0.51777 0
M  V30 3577 H 325.153 -3.2806 1.79798 0
M  V30 3578 H 326.486 -4.32568 2.34831 0
M  V30 3579 N 328.138 -0.959301 -1.25041 0
M  V30 3580 C 329.415 -0.533805 -1.88175 0
M  V30 3581 C 329.795 0.988994 -1.865 0
M  V30 3582 O 329.143 1.85677 -1.33177 0
M  V30 3583 C 329.353 -1.11575 -3.30684 0
M  V30 3584 C 330.701 -1.19548 -4.07423 0
M  V30 3585 O 331.725 -1.06765 -3.39823 0
M  V30 3586 O 330.584 -1.39656 -5.28354 0
M  V30 3587 H 327.678 -0.176772 -0.807887 0
M  V30 3588 H 330.224 -1.05303 -1.33076 0
M  V30 3589 H 328.996 -2.15884 -3.26358 0
M  V30 3590 H 328.619 -0.580059 -3.93346 0
M  V30 3591 N 329.616 1.39756 -0.72842 0
M  V30 3592 C 330.546 2.33289 -0.0991354 0
M  V30 3593 C 331.527 1.53568 0.731489 0
M  V30 3594 O 332.712 1.81987 0.677807 0
M  V30 3595 C 329.842 3.3763 0.813834 0
M  V30 3596 C 328.796 4.2791 0.0878663 0
M  V30 3597 C 328.122 5.22894 1.11741 0
M  V30 3598 C 329.422 5.11314 -1.06563 0
M  V30 3599 H 331.116 2.86163 -0.880408 0
M  V30 3600 H 328.662 1.37591 -0.424819 0
M  V30 3601 H 330.615 4.0201 1.26355 0
M  V30 3602 H 329.339 2.83181 1.62715 0
M  V30 3603 H 327.998 3.65 -0.342159 0
M  V30 3604 H 327.646 4.64744 1.92412 0
M  V30 3605 H 327.346 5.84143 0.636477 0
M  V30 3606 H 328.87 5.90151 1.56697 0
M  V30 3607 H 330.284 5.69076 -0.694671 0
M  V30 3608 H 328.681 5.81671 -1.47577 0
M  V30 3609 H 329.751 4.46534 -1.89038 0
M  V30 3610 N 331.094 0.475555 1.50254 0
M  V30 3611 C 332.319 -0.0777042 2.07254 0
M  V30 3612 C 332.744 -1.3235 1.3366 0
M  V30 3613 O 332.102 -1.77152 0.385597 0
M  V30 3614 C 332.15 -0.340169 3.58992 0
M  V30 3615 O 331.254 -1.41982 3.87188 0
M  V30 3616 H 330.595 0.0149556 0.663832 0
M  V30 3617 H 333.125 0.667878 1.93392 0
M  V30 3618 H 333.135 -0.579332 4.03866 0
M  V30 3619 H 331.81 0.570167 4.11973 0
M  V30 3620 H 330.387 -1.16762 3.54148 0
M  V30 3621 N 332.573 -1.56217 0.208337 0
M  V30 3622 C 333.798 -2.02782 -0.435222 0
M  V30 3623 C 334.223 -1.08738 -1.53485 0
M  V30 3624 O 333.581 -0.0731855 -1.81152 0
M  V30 3625 C 333.629 -3.47687 -0.956335 0
M  V30 3626 O 332.733 -3.56773 -2.06849 0
M  V30 3627 H 332.074 -0.656403 -0.100158 0
M  V30 3628 H 334.604 -2.02033 0.3231 0
M  V30 3629 H 334.614 -3.87745 -1.26955 0
M  V30 3630 H 333.289 -4.15624 -0.15143 0
M  V30 3631 H 331.866 -3.28597 -1.76292 0
M  V30 3632 N 334.051 0.0651679 -1.57465 0
M  V30 3633 C 335.3 0.761916 -1.86756 0
M  V30 3634 C 335.613 1.78406 -0.801925 0
M  V30 3635 O 336.819 2.53084 -0.982885 0
M  V30 3636 C 335.275 1.40603 -3.31299 0
M  V30 3637 C 334.883 0.422115 -4.46007 0
M  V30 3638 C 336.627 2.08476 -3.69781 0
M  V30 3639 C 334.534 1.07252 -5.81593 0
M  V30 3640 H 333.464 0.288308 -0.696702 0
M  V30 3641 H 336.115 0.015344 -1.83494 0
M  V30 3642 H 334.497 2.20109 -3.29193 0
M  V30 3643 H 335.671 -0.343613 -4.59517 0
M  V30 3644 H 333.986 -0.152527 -4.16121 0
M  V30 3645 H 336.583 2.57925 -4.68379 0
M  V30 3646 H 336.926 2.88712 -2.99919 0
M  V30 3647 H 337.459 1.35792 -3.73905 0
M  V30 3648 H 334.198 0.310342 -6.54765 0
M  V30 3649 H 333.718 1.80895 -5.71872 0
M  V30 3650 H 335.397 1.59043 -6.27148 0
M  V30 3651 N 335.529 1.53961 0.336706 0
M  V30 3652 C 336.459 1.85417 1.41925 0
M  V30 3653 C 337.44 0.709856 1.5458 0
M  V30 3654 O 338.625 0.962396 1.68676 0
M  V30 3655 C 335.755 2.06985 2.78881 0
M  V30 3656 C 334.709 3.22813 2.81026 0
M  V30 3657 C 334.035 3.29727 4.20932 0
M  V30 3658 C 335.335 4.60767 2.45949 0
M  V30 3659 H 337.029 2.76079 1.15848 0
M  V30 3660 H 334.575 1.32839 0.555859 0
M  V30 3661 H 336.528 2.27575 3.54665 0
M  V30 3662 H 335.252 1.13061 3.06406 0
M  V30 3663 H 333.911 3.0209 2.07695 0
M  V30 3664 H 333.559 2.33385 4.45579 0
M  V30 3665 H 333.259 4.07566 4.23277 0
M  V30 3666 H 334.783 3.52536 4.98549 0
M  V30 3667 H 336.197 4.81325 3.11446 0
M  V30 3668 H 334.594 5.4106 2.59566 0
M  V30 3669 H 335.664 4.6391 1.41122 0
M  V30 3670 N 337.007 -0.598083 1.45811 0
M  V30 3671 C 337.955 -1.72932 1.55555 0
M  V30 3672 C 338.949 -1.63984 0.424921 0
M  V30 3673 O 340.155 -1.69663 0.601205 0
M  V30 3674 H 336.53 -0.571489 0.488779 0
M  V30 3675 H 338.501 -1.61842 2.50699 0
M  V30 3676 C 337.25 -3.11318 1.54843 0
M  V30 3677 H 336.573 -3.18867 2.41172 0
M  V30 3678 H 338.013 -3.90274 1.65717 0
M  V30 3679 C 336.472 -3.3578 0.274427 0
M  V30 3680 O 337.002 -3.9654 -0.641778 0
M  V30 3681 N 335.208 -2.90119 0.167139 0
M  V30 3682 H 334.755 -2.40855 0.913596 0
M  V30 3683 H 334.713 -3.0686 -0.684435 0
M  V30 3684 N 338.485 -1.33259 -0.841409 0
M  V30 3685 C 339.732 -1.24572 -1.5965 0
M  V30 3686 C 340.06 0.189137 -1.93578 0
M  V30 3687 O 339.315 1.14566 -1.5866 0
M  V30 3688 C 339.614 -2.06381 -2.9179 0
M  V30 3689 C 339.28 -3.556 -2.77235 0
M  V30 3690 C 337.942 -3.96282 -2.72973 0
M  V30 3691 C 340.294 -4.50433 -2.62221 0
M  V30 3692 C 337.622 -5.30017 -2.51592 0
M  V30 3693 C 339.974 -5.84327 -2.42374 0
M  V30 3694 C 338.638 -6.24194 -2.36512 0
M  V30 3695 H 337.908 -0.455842 -0.5842 0
M  V30 3696 H 340.555 -1.6482 -0.975016 0
M  V30 3697 H 338.86 -1.58903 -3.5813 0
M  V30 3698 H 340.557 -1.97019 -3.49263 0
M  V30 3699 H 337.147 -3.23298 -2.81384 0
M  V30 3700 H 341.331 -4.19914 -2.64549 0
M  V30 3701 H 336.587 -5.59947 -2.45499 0
M  V30 3702 H 340.761 -6.57414 -2.29739 0
M  V30 3703 H 338.388 -7.27759 -2.19706 0
M  V30 3704 N 339.963 1.05934 -1.16686 0
M  V30 3705 C 341.188 1.83029 -0.975455 0
M  V30 3706 C 341.613 1.82096 0.471452 0
M  V30 3707 O 340.971 1.22443 1.33706 0
M  V30 3708 C 341.019 3.27372 -1.51195 0
M  V30 3709 O 340.123 4.06054 -0.720701 0
M  V30 3710 H 339.464 0.566194 -0.346872 0
M  V30 3711 H 341.994 1.33541 -1.55009 0
M  V30 3712 H 342.004 3.78186 -1.53099 0
M  V30 3713 H 340.679 3.27366 -2.56523 0
M  V30 3714 H 339.256 3.64812 -0.772458 0
M  V30 3715 N 341.441 0.965919 1.2453 0
M  V30 3716 C 342.669 0.644385 1.96609 0
M  V30 3717 C 343.084 -0.785823 1.71669 0
M  V30 3718 O 342.441 -1.52703 0.999399 0
M  V30 3719 C 342.492 0.907375 3.49927 0
M  V30 3720 O 342.213 2.28136 3.74013 0
M  V30 3721 C 343.714 0.599784 4.39224 0
M  V30 3722 H 340.934 0.240588 0.626385 0
M  V30 3723 H 343.478 1.29337 1.58405 0
M  V30 3724 H 341.633 0.304631 3.862 0
M  V30 3725 H 342.047 2.36002 4.68405 0
M  V30 3726 H 343.521 0.834263 5.45659 0
M  V30 3727 H 343.998 -0.465921 4.36722 0
M  V30 3728 H 344.604 1.18235 4.08535 0
M  V30 3729 N 342.919 -1.39368 0.735821 0
M  V30 3730 C 343.867 -2.32443 0.0855131 0
M  V30 3731 C 344.861 -1.53104 -0.724954 0
M  V30 3732 O 346.067 -1.68762 -0.626047 0
M  V30 3733 H 342.442 -0.751948 0.00885257 0
M  V30 3734 H 344.413 -2.84916 0.886883 0
M  V30 3735 C 343.162 -3.38206 -0.806983 0
M  V30 3736 H 342.485 -3.99335 -0.19274 0
M  V30 3737 H 343.925 -4.05779 -1.2296 0
M  V30 3738 C 342.384 -2.75321 -1.94165 0
M  V30 3739 O 342.914 -2.63231 -3.03435 0
M  V30 3740 N 341.12 -2.33396 -1.73132 0
M  V30 3741 H 340.667 -2.4343 -0.842596 0
M  V30 3742 H 340.625 -1.91661 -2.49225 0
M  V30 3743 N 344.397 -0.483516 -1.5 0
M  V30 3744 C 345.625 0.0644831 -2.06799 0
M  V30 3745 C 346.04 1.32399 -1.34596 0
M  V30 3746 O 345.397 1.77626 -0.418946 0
M  V30 3747 C 345.448 0.339927 -3.59898 0
M  V30 3748 O 345.169 -0.869635 -4.29382 0
M  V30 3749 C 346.67 0.933515 -4.33359 0
M  V30 3750 H 343.89 -0.0126333 -0.670881 0
M  V30 3751 H 346.434 -0.675864 -1.93009 0
M  V30 3752 H 344.589 1.03022 -3.7345 0
M  V30 3753 H 345.003 -0.62179 -5.20801 0
M  V30 3754 H 346.477 1.07593 -5.41413 0
M  V30 3755 H 346.954 1.92685 -3.94676 0
M  V30 3756 H 347.56 0.281221 -4.24369 0
M  V30 3757 N 345.875 1.56104 -0.216619 0
M  V30 3758 C 347.121 1.98466 0.417033 0
M  V30 3759 C 347.454 1.10403 1.59765 0
M  V30 3760 O 346.729 0.160632 1.93836 0
M  V30 3761 C 347.012 3.49769 0.85637 0
M  V30 3762 C 346.865 4.48606 -0.327546 0
M  V30 3763 C 348.184 4.05339 1.7143 0
M  V30 3764 H 345.303 0.721551 0.150112 0
M  V30 3765 H 347.945 1.87423 -0.311864 0
M  V30 3766 H 346.095 3.5931 1.47745 0
M  V30 3767 H 347.767 4.5108 -0.965618 0
M  V30 3768 H 346.01 4.22682 -0.975805 0
M  V30 3769 H 346.681 5.51995 0.0227149 0
M  V30 3770 H 349.157 3.98712 1.19031 0
M  V30 3771 H 348.033 5.11533 1.99061 0
M  V30 3772 H 348.294 3.51918 2.67593 0
M  V30 3773 N 347.353 -0.0568162 1.57498 0
M  V30 3774 C 348.769 -0.411933 1.54192 0
M  V30 3775 C 348.969 -1.78287 0.938942 0
M  V30 3776 O 348.025 -2.46483 0.547919 0
M  V30 3777 C 349.338 -0.339244 2.9878 0
M  V30 3778 C 350.886 -0.418348 3.10192 0
M  V30 3779 C 351.361 -0.375407 4.56459 0
M  V30 3780 N 352.852 -0.435038 4.61153 0
M  V30 3781 C 353.587 -0.424265 5.71828 0
M  V30 3782 N 353.083 -0.367418 6.91825 0
M  V30 3783 N 354.876 -0.471938 5.60115 0
M  V30 3784 H 347.027 0.840684 1.95055 0
M  V30 3785 H 349.29 0.316987 0.893433 0
M  V30 3786 H 348.996 0.601742 3.46514 0
M  V30 3787 H 348.87 -1.14371 3.59443 0
M  V30 3788 H 351.257 -1.34976 2.62422 0
M  V30 3789 H 351.338 0.414962 2.52412 0
M  V30 3790 H 350.982 0.552219 5.04889 0
M  V30 3791 H 350.912 -1.22645 5.12119 0
M  V30 3792 H 353.403 -0.482612 3.74806 0
M  V30 3793 H 353.716 -0.363535 7.71944 0
M  V30 3794 H 352.061 -0.333879 6.94198 0
M  V30 3795 H 355.252 -0.514145 4.65268 0
M  V30 3796 H 355.425 -0.460073 6.46365 0
M  V30 3797 N 348.832 -1.54138 -0.328536 0
M  V30 3798 C 350.06 -1.76062 -1.08673 0
M  V30 3799 C 350.475 -0.506852 -1.81869 0
M  V30 3800 O 349.832 0.522223 -1.74869 0
M  V30 3801 C 349.883 -2.95054 -2.08866 0
M  V30 3802 O 349.604 -4.15583 -1.38644 0
M  V30 3803 C 351.105 -3.2915 -2.96943 0
M  V30 3804 H 348.325 -0.587889 -0.323461 0
M  V30 3805 H 350.869 -2.0101 -0.376175 0
M  V30 3806 H 349.024 -2.72394 -2.75464 0
M  V30 3807 H 349.438 -4.82481 -2.05699 0
M  V30 3808 H 350.912 -4.15723 -3.63151 0
M  V30 3809 H 351.389 -2.461 -3.63774 0
M  V30 3810 H 351.995 -3.53871 -2.35914 0
M  V30 3811 N 350.31 0.590341 -1.46126 0
M  V30 3812 C 351.556 1.35082 -1.51264 0
M  V30 3813 C 351.889 1.93534 -0.160711 0
M  V30 3814 O 351.164 1.76045 0.826956 0
M  V30 3815 C 351.447 2.48588 -2.6053 0
M  V30 3816 C 351.3 1.95221 -4.05227 0
M  V30 3817 C 352.619 3.50662 -2.6594 0
M  V30 3818 H 349.738 0.489803 -0.550692 0
M  V30 3819 H 352.38 0.663887 -1.78024 0
M  V30 3820 H 350.53 3.07186 -2.37843 0
M  V30 3821 H 352.202 1.41139 -4.39178 0
M  V30 3822 H 350.445 1.26101 -4.15068 0
M  V30 3823 H 351.116 2.77121 -4.77397 0
M  V30 3824 H 353.592 3.01934 -2.86313 0
M  V30 3825 H 352.468 4.27551 -3.44226 0
M  V30 3826 H 352.729 4.07399 -1.71694 0
M  V30 3827 N 351.788 1.33704 0.83433 0
M  V30 3828 C 352.735 1.24335 1.94447 0
M  V30 3829 C 353.705 0.120991 1.65659 0
M  V30 3830 O 354.89 0.300035 1.88426 0
M  V30 3831 C 352.03 0.993124 3.30501 0
M  V30 3832 C 351.143 2.20217 3.71657 0
M  V30 3833 C 350.278 1.88572 4.96602 0
M  V30 3834 C 349.317 3.05683 5.30306 0
M  V30 3835 N 348.454 2.73997 6.46429 0
M  V30 3836 H 353.294 2.1928 2.01792 0
M  V30 3837 H 350.831 1.09035 0.987404 0
M  V30 3838 H 352.789 0.828467 4.08892 0
M  V30 3839 H 351.419 0.0803902 3.227 0
M  V30 3840 H 350.471 2.47642 2.88752 0
M  V30 3841 H 351.783 3.07752 3.92543 0
M  V30 3842 H 350.937 1.68776 5.82752 0
M  V30 3843 H 349.676 0.982799 4.77695 0
M  V30 3844 H 348.681 3.26088 4.42659 0
M  V30 3845 H 349.906 3.96737 5.51159 0
M  V30 3846 H 347.852 1.86268 6.28999 0
M  V30 3847 H 347.769 3.55064 6.67432 0
M  V30 3848 H 349.037 2.57679 7.35678 0
M  V30 3849 N 353.266 -1.05314 1.17247 0
M  V30 3850 C 354.543 -1.75184 0.87005 0
M  V30 3851 C 354.923 -2.01481 -0.629965 0
M  V30 3852 O 354.271 -1.64988 -1.58086 0
M  V30 3853 C 354.481 -3.04594 1.70363 0
M  V30 3854 C 355.829 -3.78567 1.92281 0
M  V30 3855 O 356.853 -3.14461 1.67311 0
M  V30 3856 O 355.712 -4.93755 2.3424 0
M  V30 3857 H 352.806 -0.761729 0.322021 0
M  V30 3858 H 355.352 -1.11493 1.27935 0
M  V30 3859 H 354.124 -2.81201 2.72106 0
M  V30 3860 H 353.747 -3.76022 1.29202 0
M  V30 3861 N 354.744 -0.972509 -1.24016 0
M  V30 3862 C 355.676 -0.464375 -2.24446 0
M  V30 3863 C 356.689 0.4295 -1.57032 0
M  V30 3864 O 357.878 0.234902 -1.76948 0
M  V30 3865 C 354.978 0.348385 -3.37105 0
M  V30 3866 C 354.151 -0.53673 -4.34094 0
M  V30 3867 C 353.21 0.220838 -5.25736 0
M  V30 3868 O 352.236 -0.386867 -5.67884 0
M  V30 3869 N 353.438 1.50907 -5.60542 0
M  V30 3870 H 356.203 -1.32788 -2.68677 0
M  V30 3871 H 353.764 -0.844877 -1.38107 0
M  V30 3872 H 355.756 0.863341 -3.95384 0
M  V30 3873 H 354.326 1.11285 -2.92121 0
M  V30 3874 H 353.546 -1.23261 -3.74433 0
M  V30 3875 H 354.834 -1.14022 -4.95859 0
M  V30 3876 H 354.232 2.02444 -5.28236 0
M  V30 3877 H 352.789 1.96962 -6.21329 0
M  V30 3878 N 356.222 1.38976 -0.743202 0
M  V30 3879 C 357.468 2.0064 -0.295189 0
M  V30 3880 C 357.801 1.5885 1.11716 0
M  V30 3881 O 357.076 0.821181 1.76315 0
M  V30 3882 C 357.359 3.578 -0.406318 0
M  V30 3883 C 357.212 4.09586 -1.85903 0
M  V30 3884 C 358.531 4.39616 0.206439 0
M  V30 3885 H 355.65 0.728935 -0.108733 0
M  V30 3886 H 358.292 1.65067 -0.940897 0
M  V30 3887 H 356.442 3.88235 0.143419 0
M  V30 3888 H 358.114 3.89837 -2.46627 0
M  V30 3889 H 356.357 3.6284 -2.3776 0
M  V30 3890 H 357.028 5.18708 -1.888 0
M  V30 3891 H 359.504 4.15273 -0.262283 0
M  V30 3892 H 358.38 5.48812 0.0983819 0
M  V30 3893 H 358.641 4.22754 1.2935 0
M  V30 3894 N 357.7 0.491464 1.49741 0
M  V30 3895 C 358.925 -0.0557177 2.07325 0
M  V30 3896 C 359.35 -1.30925 1.35056 0
M  V30 3897 O 358.708 -1.76733 0.404365 0
M  V30 3898 C 358.756 -0.302074 3.59333 0
M  V30 3899 O 357.86 -1.37868 3.88672 0
M  V30 3900 H 357.201 0.0219956 0.663636 0
M  V30 3901 H 359.731 0.688352 1.92673 0
M  V30 3902 H 359.741 -0.536464 4.04458 0
M  V30 3903 H 358.416 0.61383 4.11345 0
M  V30 3904 H 356.993 -1.12999 3.55367 0
M  V30 3905 N 359.178 -1.55987 0.224894 0
M  V30 3906 C 360.088 -2.24066 -0.69511 0
M  V30 3907 C 361.104 -1.24939 -1.21104 0
M  V30 3908 O 362.28 -1.5776 -1.25195 0
M  V30 3909 C 359.345 -2.90983 -1.88493 0
M  V30 3910 C 358.406 -4.05462 -1.41064 0
M  V30 3911 C 357.639 -4.69179 -2.54375 0
M  V30 3912 O 357.862 -4.31895 -3.72589 0
M  V30 3913 O 356.796 -5.58108 -2.25386 0
M  V30 3914 H 360.622 -3.03353 -0.145149 0
M  V30 3915 H 358.207 -1.49399 -0.00569476 0
M  V30 3916 H 360.089 -3.33209 -2.57972 0
M  V30 3917 H 358.764 -2.14653 -2.42293 0
M  V30 3918 H 357.671 -3.67798 -0.683774 0
M  V30 3919 H 359.004 -4.83545 -0.918985 0
M  V30 3920 N 360.656 0.0484629 -1.57525 0
M  V30 3921 C 361.619 1.03956 -2.04269 0
M  V30 3922 C 362.619 1.30211 -0.943496 0
M  V30 3923 O 363.809 1.25539 -1.20771 0
M  V30 3924 C 360.941 2.37742 -2.44319 0
M  V30 3925 H 362.134 0.636182 -2.93075 0
M  V30 3926 H 359.687 0.294811 -1.53494 0
M  V30 3927 H 360.422 2.82866 -1.5861 0
M  V30 3928 H 360.207 2.20021 -3.24551 0
M  V30 3929 H 361.697 3.08936 -2.80978 0
M  V30 3930 N 362.134 1.5431 0.320358 0
M  V30 3931 C 363.381 1.72668 1.05792 0
M  V30 3932 C 363.709 0.502084 1.87908 0
M  V30 3933 O 362.964 -0.516149 1.88771 0
M  V30 3934 C 363.263 2.95639 2.00828 0
M  V30 3935 C 362.929 4.30265 1.34843 0
M  V30 3936 C 361.591 4.66865 1.16578 0
M  V30 3937 C 363.943 5.13801 0.875095 0
M  V30 3938 C 361.271 5.84597 0.496336 0
M  V30 3939 C 363.623 6.32219 0.219463 0
M  V30 3940 C 362.287 6.67495 0.0246915 0
M  V30 3941 H 361.557 0.631837 0.387121 0
M  V30 3942 H 364.204 1.88552 0.334735 0
M  V30 3943 H 362.509 2.74456 2.79609 0
M  V30 3944 H 364.206 3.07038 2.57932 0
M  V30 3945 H 360.796 4.01472 1.50061 0
M  V30 3946 H 364.98 4.86039 1.00398 0
M  V30 3947 H 360.236 6.10486 0.334264 0
M  V30 3948 H 364.41 6.96227 -0.155291 0
M  V30 3949 H 362.037 7.5858 -0.496065 0
M  V30 3950 N 363.613 -0.582584 1.46437 0
M  V30 3951 C 364.838 -1.37168 1.55563 0
M  V30 3952 C 365.263 -1.87061 0.19743 0
M  V30 3953 O 364.621 -1.61572 -0.822451 0
M  V30 3954 C 364.669 -2.53511 2.56446 0
M  V30 3955 O 363.773 -3.54953 2.09958 0
M  V30 3956 H 363.114 -0.408494 0.523477 0
M  V30 3957 H 365.644 -0.706646 1.9201 0
M  V30 3958 H 365.654 -3.00426 2.76058 0
M  V30 3959 H 364.329 -2.16549 3.55076 0
M  V30 3960 H 362.906 -3.14516 2.00334 0
M  V30 3961 N 365.091 -1.34144 -0.827227 0
M  V30 3962 C 366.021 -1.28005 -1.95287 0
M  V30 3963 C 367.002 -0.158321 -1.69362 0
M  V30 3964 O 368.187 -0.349987 -1.9102 0
M  V30 3965 C 365.317 -1.03036 -3.31664 0
M  V30 3966 C 364.271 -2.11628 -3.72019 0
M  V30 3967 C 363.597 -1.71854 -5.0633 0
M  V30 3968 C 364.897 -3.53417 -3.8457 0
M  V30 3969 H 366.591 -2.22187 -2.00682 0
M  V30 3970 H 364.137 -1.0696 -0.964135 0
M  V30 3971 H 366.09 -0.973863 -4.09993 0
M  V30 3972 H 364.814 -0.0529391 -3.26557 0
M  V30 3973 H 363.473 -2.16339 -2.95961 0
M  V30 3974 H 363.121 -0.727841 -4.97706 0
M  V30 3975 H 362.821 -2.44531 -5.34302 0
M  V30 3976 H 364.345 -1.67692 -5.87122 0
M  V30 3977 H 365.759 -3.51142 -4.5318 0
M  V30 3978 H 364.156 -4.24679 -4.2399 0
M  V30 3979 H 365.226 -3.91072 -2.86689 0
M  V30 3980 N 366.569 1.04691 -1.17803 0
M  V30 3981 C 367.799 1.81183 -0.992788 0
M  V30 3982 C 368.207 1.8347 0.462098 0
M  V30 3983 O 367.55 1.2643 1.33271 0
M  V30 3984 C 367.612 3.28363 -1.46349 0
M  V30 3985 C 367.276 3.49749 -2.94151 0
M  V30 3986 C 368.273 3.41456 -3.92051 0
M  V30 3987 C 365.958 3.76548 -3.32441 0
M  V30 3988 C 367.952 3.59656 -5.26238 0
M  V30 3989 C 365.639 3.94396 -4.66792 0
M  V30 3990 C 366.637 3.8595 -5.635 0
M  V30 3991 O 366.325 4.03294 -6.9542 0
M  V30 3992 H 366.057 0.577622 -0.351182 0
M  V30 3993 H 368.611 1.32876 -1.5663 0
M  V30 3994 H 366.841 3.77609 -0.833574 0
M  V30 3995 H 368.53 3.86395 -1.24313 0
M  V30 3996 H 369.296 3.20723 -3.63815 0
M  V30 3997 H 365.175 3.82224 -2.57732 0
M  V30 3998 H 368.719 3.52979 -6.01707 0
M  V30 3999 H 364.616 4.14622 -4.94731 0
M  V30 4000 H 365.384 4.2049 -7.02232 0
M  V30 4001 N 368.047 0.979072 1.23499 0
M  V30 4002 C 369.324 0.563674 1.87302 0
M  V30 4003 C 369.704 -0.959199 1.88049 0
M  V30 4004 O 369.052 -1.83535 1.36114 0
M  V30 4005 C 369.262 1.16822 3.28867 0
M  V30 4006 C 370.61 1.26014 4.0547 0
M  V30 4007 O 371.634 1.12158 3.38082 0
M  V30 4008 O 370.493 1.48044 5.26066 0
M  V30 4009 H 367.587 0.189602 0.804972 0
M  V30 4010 H 370.133 1.07407 1.31384 0
M  V30 4011 H 368.905 2.21049 3.22883 0
M  V30 4012 H 368.528 0.642564 3.92373 0
M  V30 4013 N 369.525 -1.3858 0.750561 0
M  V30 4014 C 370.455 -2.33102 0.136237 0
M  V30 4015 C 371.436 -1.54713 -0.706965 0
M  V30 4016 O 372.621 -1.83043 -0.648769 0
M  V30 4017 C 369.751 -3.38882 -0.760017 0
M  V30 4018 C 368.705 -4.27995 -0.0197785 0
M  V30 4019 C 368.031 -5.24605 -1.03408 0
M  V30 4020 C 369.331 -5.09554 1.14684 0
M  V30 4021 H 371.025 -2.84726 0.925822 0
M  V30 4022 H 368.571 -1.36898 0.446654 0
M  V30 4023 H 370.524 -4.0397 -1.19943 0
M  V30 4024 H 369.248 -2.85734 -1.58189 0
M  V30 4025 H 367.907 -3.64409 0.400184 0
M  V30 4026 H 367.555 -4.67746 -1.84994 0
M  V30 4027 H 367.255 -5.85081 -0.543464 0
M  V30 4028 H 368.779 -5.9257 -1.47288 0
M  V30 4029 H 370.193 -5.67899 0.785118 0
M  V30 4030 H 368.59 -5.7925 1.56812 0
M  V30 4031 H 369.66 -4.4347 1.96118 0
M  V30 4032 N 371.003 -0.499398 -1.49478 0
M  V30 4033 C 371.913 0.284489 -2.32869 0
M  V30 4034 C 372.929 0.968885 -1.44529 0
M  V30 4035 O 374.105 0.95062 -1.77553 0
M  V30 4036 C 371.17 1.33594 -3.19928 0
M  V30 4037 C 370.231 0.665149 -4.24116 0
M  V30 4038 C 369.464 1.6665 -5.07014 0
M  V30 4039 O 369.687 2.89618 -4.91404 0
M  V30 4040 O 368.621 1.22271 -5.8935 0
M  V30 4041 H 372.447 -0.39802 -3.01081 0
M  V30 4042 H 370.032 -0.260758 -1.47107 0
M  V30 4043 H 371.914 1.94431 -3.73864 0
M  V30 4044 H 370.589 2.0014 -2.54412 0
M  V30 4045 H 369.496 0.0170769 -3.74096 0
M  V30 4046 H 370.829 0.0421555 -4.92182 0
M  V30 4047 N 372.481 1.55866 -0.233164 0
M  V30 4048 C 373.73 1.97779 0.39579 0
M  V30 4049 C 374.043 1.12419 1.60066 0
M  V30 4050 O 375.249 1.44283 2.29988 0
M  V30 4051 C 373.705 3.5188 0.755556 0
M  V30 4052 C 373.313 4.45959 -0.427152 0
M  V30 4053 C 375.057 4.02479 1.34946 0
M  V30 4054 C 372.964 5.91383 -0.0443043 0
M  V30 4055 H 371.894 0.738592 0.15165 0
M  V30 4056 H 374.545 1.80486 -0.331212 0
M  V30 4057 H 372.927 3.64816 1.5403 0
M  V30 4058 H 374.101 4.44776 -1.20462 0
M  V30 4059 H 372.416 4.05765 -0.935068 0
M  V30 4060 H 375.013 5.08637 1.649 0
M  V30 4061 H 375.356 3.49014 2.26925 0
M  V30 4062 H 375.889 3.92813 0.62791 0
M  V30 4063 H 372.628 6.48857 -0.930874 0
M  V30 4064 H 372.148 5.95734 0.697238 0
M  V30 4065 H 373.827 6.45893 0.378334 0
M  V30 4066 N 373.959 -0.0401083 1.57549 0
M  V30 4067 C 374.889 -1.04384 2.08869 0
M  V30 4068 C 375.87 -1.38407 0.988817 0
M  V30 4069 O 377.055 -1.47483 1.26342 0
M  V30 4070 C 374.185 -2.34808 2.55895 0
M  V30 4071 C 373.139 -2.15057 3.70047 0
M  V30 4072 C 372.465 -3.51145 4.03239 0
M  V30 4073 C 373.765 -1.54576 4.98902 0
M  V30 4074 H 375.459 -0.616666 2.92981 0
M  V30 4075 H 373.005 -0.295184 1.40942 0
M  V30 4076 H 374.958 -3.05346 2.90417 0
M  V30 4077 H 373.682 -2.79565 1.68853 0
M  V30 4078 H 372.341 -1.46954 3.35857 0
M  V30 4079 H 371.989 -3.93529 3.13279 0
M  V30 4080 H 371.689 -3.38758 4.80122 0
M  V30 4081 H 373.213 -4.23062 4.40285 0
M  V30 4082 H 374.627 -2.15017 5.31451 0
M  V30 4083 H 373.024 -1.52796 5.80322 0
M  V30 4084 H 374.094 -0.51039 4.82206 0
M  V30 4085 O 375.476 -1.60458 -0.183159 0
M  V30 4086 H 376.167 -1.75443 -0.820934 0
M  V30 END ATOM
M  V30 BEGIN BOND
M  V30 END BOND
M  V30 END CTAB
M  END
$$$$
